MODEL 1
REMARK VINA RESULT:     -12.6      0.000      0.000
REMARK SMILES C[C@H]1CC[C@H]([NH2+]Cc2c(C(=O)OCCOCCOC(=O)c3ccc(-c4c5nc(c(-c6cc(S(=O)(=O)[O-])ccc6F)c6ccc([nH]6)c(-c6cc(S(=O)(=O)[O-])ccc6F)c6nc(c(-c7cc(S(=O)(=O)[O-])ccc7F)c7ccc4[nH]7)C=C6)C=C5)cc3)n(Cc3ccccc3F)c3ccccc23)CC1
REMARK SMILES IDX 15 1 14 2 13 3 12 4 10 5 11 6 9 7 8 8 98 9 84 10 93 11 97 12
REMARK SMILES IDX 94 13 96 14 95 15 7 16 6 17 5 20 1 21 2 22 3 23 100 24 4 25
REMARK SMILES IDX 99 26 85 27 86 28 87 29 91 30 88 31 90 32 92 33 89 34 16 35
REMARK SMILES IDX 17 36 18 37 19 38 20 39 21 40 22 41 83 42 23 43 82 44 24 45
REMARK SMILES IDX 25 46 26 47 76 48 27 49 81 50 75 51 77 52 28 53 80 54 74 55
REMARK SMILES IDX 73 56 29 58 61 59 41 60 60 61 42 62 45 63 59 64 78 65 43 66
REMARK SMILES IDX 44 67 58 69 79 70 46 71 30 72 31 73 39 74 32 75 38 76 40 77
REMARK SMILES IDX 37 78 33 79 34 80 35 81 36 82 62 83 63 84 71 85 64 86 70 87
REMARK SMILES IDX 72 88 69 89 65 90 66 91 67 92 68 93 47 94 48 95 56 96 49 97
REMARK SMILES IDX 55 98 57 99 54 100 50 101 51 102 52 103 53 104
REMARK H PARENT 6 18 6 19 77 57 45 68
REMARK Flexibility Score: inf
ROOT
ATOM      1  O   UNL A   1      33.319  29.791  25.761  1.00  0.00    -0.374 OA
ENDROOT
BRANCH   1   2
ATOM      2  C   UNL A   1      33.415  28.403  25.471  1.00  0.00     0.202 C 
BRANCH   2   3
ATOM      3  C   UNL A   1      34.001  27.971  24.121  1.00  0.00     0.261 C 
BRANCH   3   4
ATOM      4  O   UNL A   1      33.044  27.759  23.067  1.00  0.00    -0.459 OA
BRANCH   4   5
ATOM      5  C   UNL A   1      33.116  26.528  22.483  1.00  0.00     0.355 C 
ATOM      6  O   UNL A   1      33.494  26.347  21.328  1.00  0.00    -0.244 OA
BRANCH   5   7
ATOM      7  C   UNL A   1      32.686  25.451  23.374  1.00  0.00     0.137 A 
ATOM      8  C   UNL A   1      31.485  25.257  24.091  1.00  0.00     0.047 A 
ATOM      9  C   UNL A   1      31.549  23.944  24.681  1.00  0.00     0.009 A 
ATOM     10  N   UNL A   1      33.419  24.268  23.513  1.00  0.00    -0.330 N 
ATOM     11  C   UNL A   1      32.682  23.310  24.189  1.00  0.00     0.050 A 
ATOM     12  C   UNL A   1      30.672  23.209  25.514  1.00  0.00     0.011 A 
ATOM     13  C   UNL A   1      32.909  21.939  24.405  1.00  0.00     0.027 A 
ATOM     14  C   UNL A   1      30.928  21.861  25.787  1.00  0.00     0.001 A 
ATOM     15  C   UNL A   1      32.023  21.229  25.216  1.00  0.00     0.002 A 
BRANCH   8  16
ATOM     16  C   UNL A   1      30.220  26.076  24.225  1.00  0.00     0.300 C 
BRANCH  16  17
ATOM     17  N   UNL A   1      30.356  27.488  23.953  1.00  0.00    -0.340 N 
ATOM     18  H   UNL A   1      30.046  27.981  24.790  1.00  0.00     0.346 HD
ATOM     19  H   UNL A   1      31.337  27.584  23.689  1.00  0.00     0.346 HD
BRANCH  17  20
ATOM     20  C   UNL A   1      29.636  28.089  22.811  1.00  0.00     0.182 C 
ATOM     21  C   UNL A   1      27.643  32.032  23.083  1.00  0.00     0.007 C 
ATOM     22  C   UNL A   1      28.369  30.695  23.088  1.00  0.00    -0.014 C 
ATOM     23  C   UNL A   1      29.378  30.559  21.955  1.00  0.00     0.009 C 
ATOM     24  C   UNL A   1      27.430  29.504  22.973  1.00  0.00     0.009 C 
ATOM     25  C   UNL A   1      30.283  29.359  22.210  1.00  0.00     0.065 C 
ATOM     26  C   UNL A   1      28.172  28.220  23.300  1.00  0.00     0.065 C 
ENDBRANCH  17  20
ENDBRANCH  16  17
ENDBRANCH   8  16
BRANCH  10  27
ATOM     27  C   UNL A   1      34.746  23.991  22.951  1.00  0.00     0.161 C 
BRANCH  27  28
ATOM     28  C   UNL A   1      35.734  23.488  23.974  1.00  0.00     0.008 A 
ATOM     29  C   UNL A   1      36.556  22.380  23.722  1.00  0.00     0.008 A 
ATOM     30  C   UNL A   1      35.893  24.151  25.193  1.00  0.00     0.128 A 
ATOM     31  C   UNL A   1      37.507  21.959  24.656  1.00  0.00     0.001 A 
ATOM     32  C   UNL A   1      36.843  23.744  26.128  1.00  0.00     0.039 A 
ATOM     33  F   UNL A   1      35.141  25.223  25.474  1.00  0.00    -0.207 F 
ATOM     34  C   UNL A   1      37.655  22.645  25.858  1.00  0.00     0.003 A 
ENDBRANCH  27  28
ENDBRANCH  10  27
ENDBRANCH   5   7
ENDBRANCH   4   5
ENDBRANCH   3   4
ENDBRANCH   2   3
ENDBRANCH   1   2
BRANCH   1  35
ATOM     35  C   UNL A   1      33.080  30.180  27.115  1.00  0.00     0.202 C 
BRANCH  35  36
ATOM     36  C   UNL A   1      33.324  31.647  27.499  1.00  0.00     0.261 C 
BRANCH  36  37
ATOM     37  O   UNL A   1      34.722  31.971  27.478  1.00  0.00    -0.460 OA
BRANCH  37  38
ATOM     38  C   UNL A   1      35.293  32.125  28.701  1.00  0.00     0.338 C 
ATOM     39  O   UNL A   1      34.761  32.541  29.718  1.00  0.00    -0.246 OA
BRANCH  38  40
ATOM     40  C   UNL A   1      36.578  31.405  28.658  1.00  0.00     0.060 A 
ATOM     41  C   UNL A   1      36.643  30.093  28.198  1.00  0.00     0.016 A 
ATOM     42  C   UNL A   1      37.691  32.015  29.257  1.00  0.00     0.016 A 
ATOM     43  C   UNL A   1      37.823  29.381  28.381  1.00  0.00     0.010 A 
ATOM     44  C   UNL A   1      38.854  31.277  29.483  1.00  0.00     0.010 A 
ATOM     45  C   UNL A   1      38.912  29.943  29.073  1.00  0.00    -0.014 A 
BRANCH  45  46
ATOM     46  C   UNL A   1      40.110  29.105  29.223  1.00  0.00     0.031 A 
ATOM     47  C   UNL A   1      40.507  28.816  30.628  1.00  0.00     0.074 A 
ATOM     48  C   UNL A   1      40.792  28.466  28.249  1.00  0.00     0.049 A 
ATOM     49  N   UNL A   1      41.623  29.080  31.227  1.00  0.00    -0.248 NA
ATOM     50  C   UNL A   1      39.489  28.187  31.480  1.00  0.00     0.031 C 
ATOM     51  C   UNL A   1      40.371  28.241  26.867  1.00  0.00     0.029 A 
ATOM     52  N   UNL A   1      41.975  27.776  28.342  1.00  0.00    -0.354 N 
ATOM     53  C   UNL A   1      41.506  28.528  32.501  1.00  0.00     0.074 A 
ATOM     54  C   UNL A   1      40.139  28.088  32.637  1.00  0.00     0.031 C 
ATOM     55  C   UNL A   1      41.159  27.285  26.323  1.00  0.00     0.029 A 
ATOM     56  C   UNL A   1      42.220  26.945  27.263  1.00  0.00     0.049 A 
ATOM     57  H   UNL A   1      42.592  27.864  29.104  1.00  0.00     0.167 HD
ATOM     58  C   UNL A   1      42.570  28.314  33.320  1.00  0.00     0.034 A 
ATOM     59  C   UNL A   1      43.166  25.981  27.162  1.00  0.00     0.034 A 
ATOM     60  C   UNL A   1      43.765  28.960  32.866  1.00  0.00     0.049 A 
ATOM     61  C   UNL A   1      44.244  26.185  28.157  1.00  0.00     0.074 A 
ATOM     62  C   UNL A   1      44.251  30.246  32.845  1.00  0.00     0.029 A 
ATOM     63  N   UNL A   1      44.594  28.198  32.088  1.00  0.00    -0.354 N 
ATOM     64  N   UNL A   1      45.132  27.139  28.122  1.00  0.00    -0.248 NA
ATOM     65  C   UNL A   1      44.244  25.389  29.380  1.00  0.00     0.031 C 
ATOM     66  C   UNL A   1      45.250  30.273  31.832  1.00  0.00     0.029 A 
ATOM     67  C   UNL A   1      45.322  29.007  31.250  1.00  0.00     0.049 A 
ATOM     68  H   UNL A   1      44.659  27.217  32.124  1.00  0.00     0.167 HD
ATOM     69  C   UNL A   1      45.492  27.330  29.442  1.00  0.00     0.074 A 
ATOM     70  C   UNL A   1      45.084  26.113  30.122  1.00  0.00     0.031 C 
ATOM     71  C   UNL A   1      45.772  28.573  29.934  1.00  0.00     0.034 A 
BRANCH  58  72
ATOM     72  C   UNL A   1      42.600  27.273  34.407  1.00  0.00     0.023 A 
ATOM     73  C   UNL A   1      43.436  26.143  34.335  1.00  0.00     0.031 A 
ATOM     74  C   UNL A   1      41.945  27.485  35.635  1.00  0.00     0.131 A 
ATOM     75  C   UNL A   1      43.541  25.244  35.403  1.00  0.00     0.055 A 
ATOM     76  C   UNL A   1      42.108  26.626  36.729  1.00  0.00     0.041 A 
ATOM     77  F   UNL A   1      41.154  28.554  35.820  1.00  0.00    -0.206 F 
ATOM     78  C   UNL A   1      42.897  25.489  36.612  1.00  0.00     0.022 A 
BRANCH  75  79
ATOM     79  S   UNL A   1      44.484  23.707  35.211  1.00  0.00     0.124 S 
ATOM     80  O   UNL A   1      45.345  24.027  34.078  1.00  0.00    -0.237 OA
ATOM     81  O   UNL A   1      45.153  23.599  36.505  1.00  0.00    -0.237 OA
ATOM     82  O   UNL A   1      43.450  22.707  34.968  1.00  0.00    -0.744 OA
ENDBRANCH  75  79
ENDBRANCH  58  72
BRANCH  59  83
ATOM     83  C   UNL A   1      43.036  24.702  26.427  1.00  0.00     0.023 A 
ATOM     84  C   UNL A   1      42.211  23.685  26.944  1.00  0.00     0.031 A 
ATOM     85  C   UNL A   1      43.903  24.363  25.377  1.00  0.00     0.131 A 
ATOM     86  C   UNL A   1      42.280  22.384  26.433  1.00  0.00     0.055 A 
ATOM     87  C   UNL A   1      43.969  23.063  24.865  1.00  0.00     0.041 A 
ATOM     88  F   UNL A   1      44.740  25.277  24.862  1.00  0.00    -0.206 F 
ATOM     89  C   UNL A   1      43.161  22.063  25.398  1.00  0.00     0.022 A 
BRANCH  86  90
ATOM     90  S   UNL A   1      41.252  21.067  27.137  1.00  0.00     0.124 S 
ATOM     91  O   UNL A   1      40.611  21.744  28.262  1.00  0.00    -0.237 OA
ATOM     92  O   UNL A   1      40.375  20.742  26.018  1.00  0.00    -0.237 OA
ATOM     93  O   UNL A   1      42.221  20.039  27.507  1.00  0.00    -0.744 OA
ENDBRANCH  86  90
ENDBRANCH  59  83
BRANCH  71  94
ATOM     94  C   UNL A   1      46.304  29.636  29.000  1.00  0.00     0.023 A 
ATOM     95  C   UNL A   1      45.367  30.489  28.377  1.00  0.00     0.031 A 
ATOM     96  C   UNL A   1      47.644  29.751  28.598  1.00  0.00     0.131 A 
ATOM     97  C   UNL A   1      45.769  31.376  27.369  1.00  0.00     0.055 A 
ATOM     98  C   UNL A   1      48.048  30.709  27.663  1.00  0.00     0.041 A 
ATOM     99  F   UNL A   1      48.585  28.893  29.017  1.00  0.00    -0.206 F 
ATOM    100  C   UNL A   1      47.112  31.511  27.026  1.00  0.00     0.022 A 
BRANCH  97 101
ATOM    101  S   UNL A   1      44.557  32.304  26.397  1.00  0.00     0.124 S 
ATOM    102  O   UNL A   1      44.096  33.311  27.349  1.00  0.00    -0.237 OA
ATOM    103  O   UNL A   1      45.374  32.813  25.297  1.00  0.00    -0.237 OA
ATOM    104  O   UNL A   1      43.563  31.302  26.021  1.00  0.00    -0.744 OA
ENDBRANCH  97 101
ENDBRANCH  71  94
ENDBRANCH  45  46
ENDBRANCH  38  40
ENDBRANCH  37  38
ENDBRANCH  36  37
ENDBRANCH  35  36
ENDBRANCH   1  35
TORSDOF 22
ENDMDL
MODEL 2
REMARK VINA RESULT:     -11.7      3.091      9.447
REMARK SMILES C[C@H]1CC[C@H]([NH2+]Cc2c(C(=O)OCCOCCOC(=O)c3ccc(-c4c5nc(c(-c6cc(S(=O)(=O)[O-])ccc6F)c6ccc([nH]6)c(-c6cc(S(=O)(=O)[O-])ccc6F)c6nc(c(-c7cc(S(=O)(=O)[O-])ccc7F)c7ccc4[nH]7)C=C6)C=C5)cc3)n(Cc3ccccc3F)c3ccccc23)CC1
REMARK SMILES IDX 15 1 14 2 13 3 12 4 10 5 11 6 9 7 8 8 98 9 84 10 93 11 97 12
REMARK SMILES IDX 94 13 96 14 95 15 7 16 6 17 5 20 1 21 2 22 3 23 100 24 4 25
REMARK SMILES IDX 99 26 85 27 86 28 87 29 91 30 88 31 90 32 92 33 89 34 16 35
REMARK SMILES IDX 17 36 18 37 19 38 20 39 21 40 22 41 83 42 23 43 82 44 24 45
REMARK SMILES IDX 25 46 26 47 76 48 27 49 81 50 75 51 77 52 28 53 80 54 74 55
REMARK SMILES IDX 73 56 29 58 61 59 41 60 60 61 42 62 45 63 59 64 78 65 43 66
REMARK SMILES IDX 44 67 58 69 79 70 46 71 30 72 31 73 39 74 32 75 38 76 40 77
REMARK SMILES IDX 37 78 33 79 34 80 35 81 36 82 62 83 63 84 71 85 64 86 70 87
REMARK SMILES IDX 72 88 69 89 65 90 66 91 67 92 68 93 47 94 48 95 56 96 49 97
REMARK SMILES IDX 55 98 57 99 54 100 50 101 51 102 52 103 53 104
REMARK H PARENT 6 18 6 19 77 57 45 68
REMARK Flexibility Score: inf
ROOT
ATOM      1  O   UNL A   1      38.589  19.372  25.394  1.00  0.00    -0.374 OA
ENDROOT
BRANCH   1   2
ATOM      2  C   UNL A   1      37.461  19.972  24.768  1.00  0.00     0.202 C 
BRANCH   2   3
ATOM      3  C   UNL A   1      37.511  21.468  24.437  1.00  0.00     0.261 C 
BRANCH   3   4
ATOM      4  O   UNL A   1      36.234  22.107  24.252  1.00  0.00    -0.459 OA
BRANCH   4   5
ATOM      5  C   UNL A   1      35.860  22.922  25.282  1.00  0.00     0.355 C 
ATOM      6  O   UNL A   1      36.661  23.479  26.029  1.00  0.00    -0.244 OA
BRANCH   5   7
ATOM      7  C   UNL A   1      34.408  23.052  25.404  1.00  0.00     0.137 A 
ATOM      8  C   UNL A   1      33.387  22.080  25.463  1.00  0.00     0.047 A 
ATOM      9  C   UNL A   1      32.155  22.774  25.743  1.00  0.00     0.009 A 
ATOM     10  N   UNL A   1      33.796  24.280  25.676  1.00  0.00    -0.330 N 
ATOM     11  C   UNL A   1      32.464  24.100  26.010  1.00  0.00     0.050 A 
ATOM     12  C   UNL A   1      30.813  22.350  25.892  1.00  0.00     0.011 A 
ATOM     13  C   UNL A   1      31.504  24.988  26.530  1.00  0.00     0.027 A 
ATOM     14  C   UNL A   1      29.840  23.245  26.346  1.00  0.00     0.001 A 
ATOM     15  C   UNL A   1      30.191  24.544  26.685  1.00  0.00     0.002 A 
BRANCH   8  16
ATOM     16  C   UNL A   1      33.397  20.568  25.405  1.00  0.00     0.300 C 
BRANCH  16  17
ATOM     17  N   UNL A   1      32.783  19.981  24.238  1.00  0.00    -0.340 N 
ATOM     18  H   UNL A   1      31.896  20.464  24.097  1.00  0.00     0.346 HD
ATOM     19  H   UNL A   1      33.496  20.091  23.516  1.00  0.00     0.346 HD
BRANCH  17  20
ATOM     20  C   UNL A   1      32.491  18.533  24.209  1.00  0.00     0.182 C 
ATOM     21  C   UNL A   1      35.535  15.484  25.223  1.00  0.00     0.007 C 
ATOM     22  C   UNL A   1      34.559  16.607  24.906  1.00  0.00    -0.014 C 
ATOM     23  C   UNL A   1      33.265  16.518  25.706  1.00  0.00     0.009 C 
ATOM     24  C   UNL A   1      34.156  16.655  23.441  1.00  0.00     0.009 C 
ATOM     25  C   UNL A   1      32.492  17.827  25.585  1.00  0.00     0.065 C 
ATOM     26  C   UNL A   1      33.450  17.964  23.134  1.00  0.00     0.065 C 
ENDBRANCH  17  20
ENDBRANCH  16  17
ENDBRANCH   8  16
BRANCH  10  27
ATOM     27  C   UNL A   1      34.450  25.592  25.717  1.00  0.00     0.161 C 
BRANCH  27  28
ATOM     28  C   UNL A   1      33.952  26.540  24.654  1.00  0.00     0.008 A 
ATOM     29  C   UNL A   1      33.799  26.136  23.319  1.00  0.00     0.008 A 
ATOM     30  C   UNL A   1      33.577  27.844  24.985  1.00  0.00     0.128 A 
ATOM     31  C   UNL A   1      33.283  27.008  22.356  1.00  0.00     0.001 A 
ATOM     32  C   UNL A   1      33.054  28.718  24.034  1.00  0.00     0.039 A 
ATOM     33  F   UNL A   1      33.689  28.272  26.249  1.00  0.00    -0.207 F 
ATOM     34  C   UNL A   1      32.904  28.299  22.715  1.00  0.00     0.003 A 
ENDBRANCH  27  28
ENDBRANCH  10  27
ENDBRANCH   5   7
ENDBRANCH   4   5
ENDBRANCH   3   4
ENDBRANCH   2   3
ENDBRANCH   1   2
BRANCH   1  35
ATOM     35  C   UNL A   1      39.803  20.124  25.451  1.00  0.00     0.202 C 
BRANCH  35  36
ATOM     36  C   UNL A   1      40.285  20.613  26.825  1.00  0.00     0.261 C 
BRANCH  36  37
ATOM     37  O   UNL A   1      40.567  22.020  26.813  1.00  0.00    -0.460 OA
BRANCH  37  38
ATOM     38  C   UNL A   1      41.748  22.373  27.384  1.00  0.00     0.338 C 
ATOM     39  O   UNL A   1      42.780  21.722  27.410  1.00  0.00    -0.246 OA
BRANCH  38  40
ATOM     40  C   UNL A   1      41.653  23.811  27.688  1.00  0.00     0.060 A 
ATOM     41  C   UNL A   1      42.669  24.461  28.383  1.00  0.00     0.016 A 
ATOM     42  C   UNL A   1      40.438  24.459  27.415  1.00  0.00     0.016 A 
ATOM     43  C   UNL A   1      42.441  25.754  28.841  1.00  0.00     0.010 A 
ATOM     44  C   UNL A   1      40.199  25.738  27.923  1.00  0.00     0.010 A 
ATOM     45  C   UNL A   1      41.192  26.378  28.667  1.00  0.00    -0.014 A 
BRANCH  45  46
ATOM     46  C   UNL A   1      41.049  27.741  29.197  1.00  0.00     0.031 A 
ATOM     47  C   UNL A   1      42.003  28.739  28.639  1.00  0.00     0.074 A 
ATOM     48  C   UNL A   1      40.079  28.208  30.010  1.00  0.00     0.049 A 
ATOM     49  N   UNL A   1      42.868  29.471  29.263  1.00  0.00    -0.248 NA
ATOM     50  C   UNL A   1      42.009  28.893  27.178  1.00  0.00     0.031 C 
ATOM     51  C   UNL A   1      38.813  27.560  30.352  1.00  0.00     0.029 A 
ATOM     52  N   UNL A   1      39.984  29.438  30.613  1.00  0.00    -0.354 N 
ATOM     53  C   UNL A   1      43.441  30.287  28.289  1.00  0.00     0.074 A 
ATOM     54  C   UNL A   1      42.955  29.815  27.015  1.00  0.00     0.031 C 
ATOM     55  C   UNL A   1      37.988  28.481  30.901  1.00  0.00     0.029 A 
ATOM     56  C   UNL A   1      38.715  29.731  31.080  1.00  0.00     0.049 A 
ATOM     57  H   UNL A   1      40.746  30.054  30.705  1.00  0.00     0.167 HD
ATOM     58  C   UNL A   1      44.159  31.404  28.582  1.00  0.00     0.034 A 
ATOM     59  C   UNL A   1      38.249  30.929  31.508  1.00  0.00     0.034 A 
ATOM     60  C   UNL A   1      44.499  31.503  29.969  1.00  0.00     0.049 A 
ATOM     61  C   UNL A   1      39.362  31.837  31.868  1.00  0.00     0.074 A 
ATOM     62  C   UNL A   1      45.403  30.903  30.815  1.00  0.00     0.029 A 
ATOM     63  N   UNL A   1      43.631  32.222  30.745  1.00  0.00    -0.354 N 
ATOM     64  N   UNL A   1      40.138  31.705  32.907  1.00  0.00    -0.248 NA
ATOM     65  C   UNL A   1      39.772  32.870  30.923  1.00  0.00     0.031 C 
ATOM     66  C   UNL A   1      44.894  31.088  32.131  1.00  0.00     0.029 A 
ATOM     67  C   UNL A   1      43.681  31.773  32.042  1.00  0.00     0.049 A 
ATOM     68  H   UNL A   1      43.056  32.952  30.421  1.00  0.00     0.167 HD
ATOM     69  C   UNL A   1      41.323  32.315  32.540  1.00  0.00     0.074 A 
ATOM     70  C   UNL A   1      40.969  33.176  31.424  1.00  0.00     0.031 C 
ATOM     71  C   UNL A   1      42.533  31.823  32.937  1.00  0.00     0.034 A 
BRANCH  58  72
ATOM     72  C   UNL A   1      44.320  32.571  27.645  1.00  0.00     0.023 A 
ATOM     73  C   UNL A   1      43.816  33.849  27.951  1.00  0.00     0.031 A 
ATOM     74  C   UNL A   1      45.155  32.486  26.514  1.00  0.00     0.131 A 
ATOM     75  C   UNL A   1      44.073  34.952  27.126  1.00  0.00     0.055 A 
ATOM     76  C   UNL A   1      45.472  33.603  25.731  1.00  0.00     0.041 A 
ATOM     77  F   UNL A   1      45.716  31.320  26.157  1.00  0.00    -0.206 F 
ATOM     78  C   UNL A   1      44.917  34.842  26.026  1.00  0.00     0.022 A 
BRANCH  75  79
ATOM     79  S   UNL A   1      43.262  36.540  27.452  1.00  0.00     0.124 S 
ATOM     80  O   UNL A   1      42.832  36.376  28.836  1.00  0.00    -0.237 OA
ATOM     81  O   UNL A   1      44.354  37.487  27.235  1.00  0.00    -0.237 OA
ATOM     82  O   UNL A   1      42.200  36.586  26.452  1.00  0.00    -0.744 OA
ENDBRANCH  75  79
ENDBRANCH  58  72
BRANCH  59  83
ATOM     83  C   UNL A   1      36.869  31.440  31.343  1.00  0.00     0.023 A 
ATOM     84  C   UNL A   1      36.359  31.657  30.050  1.00  0.00     0.031 A 
ATOM     85  C   UNL A   1      36.143  31.964  32.424  1.00  0.00     0.131 A 
ATOM     86  C   UNL A   1      35.180  32.389  29.863  1.00  0.00     0.055 A 
ATOM     87  C   UNL A   1      34.963  32.694  32.236  1.00  0.00     0.041 A 
ATOM     88  F   UNL A   1      36.591  31.823  33.680  1.00  0.00    -0.206 F 
ATOM     89  C   UNL A   1      34.480  32.916  30.950  1.00  0.00     0.022 A 
BRANCH  86  90
ATOM     90  S   UNL A   1      34.555  32.709  28.190  1.00  0.00     0.124 S 
ATOM     91  O   UNL A   1      35.703  33.346  27.549  1.00  0.00    -0.237 OA
ATOM     92  O   UNL A   1      34.244  31.362  27.726  1.00  0.00    -0.237 OA
ATOM     93  O   UNL A   1      33.411  33.587  28.416  1.00  0.00    -0.744 OA
ENDBRANCH  86  90
ENDBRANCH  59  83
BRANCH  71  94
ATOM     94  C   UNL A   1      42.628  31.043  34.228  1.00  0.00     0.023 A 
ATOM     95  C   UNL A   1      42.544  29.635  34.150  1.00  0.00     0.031 A 
ATOM     96  C   UNL A   1      42.653  31.614  35.509  1.00  0.00     0.131 A 
ATOM     97  C   UNL A   1      42.447  28.860  35.313  1.00  0.00     0.055 A 
ATOM     98  C   UNL A   1      42.656  30.825  36.664  1.00  0.00     0.041 A 
ATOM     99  F   UNL A   1      42.584  32.940  35.694  1.00  0.00    -0.206 F 
ATOM    100  C   UNL A   1      42.529  29.446  36.575  1.00  0.00     0.022 A 
BRANCH  97 101
ATOM    101  S   UNL A   1      42.102  27.085  35.233  1.00  0.00     0.124 S 
ATOM    102  O   UNL A   1      40.785  27.050  34.603  1.00  0.00    -0.237 OA
ATOM    103  O   UNL A   1      43.203  26.598  34.405  1.00  0.00    -0.237 OA
ATOM    104  O   UNL A   1      42.136  26.655  36.628  1.00  0.00    -0.744 OA
ENDBRANCH  97 101
ENDBRANCH  71  94
ENDBRANCH  45  46
ENDBRANCH  38  40
ENDBRANCH  37  38
ENDBRANCH  36  37
ENDBRANCH  35  36
ENDBRANCH   1  35
TORSDOF 22
ENDMDL
MODEL 3
REMARK VINA RESULT:     -11.5      3.340      9.352
REMARK SMILES C[C@H]1CC[C@H]([NH2+]Cc2c(C(=O)OCCOCCOC(=O)c3ccc(-c4c5nc(c(-c6cc(S(=O)(=O)[O-])ccc6F)c6ccc([nH]6)c(-c6cc(S(=O)(=O)[O-])ccc6F)c6nc(c(-c7cc(S(=O)(=O)[O-])ccc7F)c7ccc4[nH]7)C=C6)C=C5)cc3)n(Cc3ccccc3F)c3ccccc23)CC1
REMARK SMILES IDX 15 1 14 2 13 3 12 4 10 5 11 6 9 7 8 8 98 9 84 10 93 11 97 12
REMARK SMILES IDX 94 13 96 14 95 15 7 16 6 17 5 20 1 21 2 22 3 23 100 24 4 25
REMARK SMILES IDX 99 26 85 27 86 28 87 29 91 30 88 31 90 32 92 33 89 34 16 35
REMARK SMILES IDX 17 36 18 37 19 38 20 39 21 40 22 41 83 42 23 43 82 44 24 45
REMARK SMILES IDX 25 46 26 47 76 48 27 49 81 50 75 51 77 52 28 53 80 54 74 55
REMARK SMILES IDX 73 56 29 58 61 59 41 60 60 61 42 62 45 63 59 64 78 65 43 66
REMARK SMILES IDX 44 67 58 69 79 70 46 71 30 72 31 73 39 74 32 75 38 76 40 77
REMARK SMILES IDX 37 78 33 79 34 80 35 81 36 82 62 83 63 84 71 85 64 86 70 87
REMARK SMILES IDX 72 88 69 89 65 90 66 91 67 92 68 93 47 94 48 95 56 96 49 97
REMARK SMILES IDX 55 98 57 99 54 100 50 101 51 102 52 103 53 104
REMARK H PARENT 6 18 6 19 77 57 45 68
REMARK Flexibility Score: inf
ROOT
ATOM      1  O   UNL A   1      38.275  22.015  25.122  1.00  0.00    -0.374 OA
ENDROOT
BRANCH   1   2
ATOM      2  C   UNL A   1      37.066  21.836  24.395  1.00  0.00     0.202 C 
BRANCH   2   3
ATOM      3  C   UNL A   1      36.714  22.842  23.292  1.00  0.00     0.261 C 
BRANCH   3   4
ATOM      4  O   UNL A   1      35.476  23.553  23.472  1.00  0.00    -0.459 OA
BRANCH   4   5
ATOM      5  C   UNL A   1      35.234  23.941  24.758  1.00  0.00     0.355 C 
ATOM      6  O   UNL A   1      36.083  24.456  25.482  1.00  0.00    -0.244 OA
BRANCH   5   7
ATOM      7  C   UNL A   1      33.860  23.671  25.184  1.00  0.00     0.137 A 
ATOM      8  C   UNL A   1      33.329  22.690  26.049  1.00  0.00     0.047 A 
ATOM      9  C   UNL A   1      31.931  22.993  26.226  1.00  0.00     0.009 A 
ATOM     10  N   UNL A   1      32.809  24.544  24.889  1.00  0.00    -0.330 N 
ATOM     11  C   UNL A   1      31.679  24.215  25.618  1.00  0.00     0.050 A 
ATOM     12  C   UNL A   1      30.885  22.370  26.949  1.00  0.00     0.011 A 
ATOM     13  C   UNL A   1      30.458  24.889  25.803  1.00  0.00     0.027 A 
ATOM     14  C   UNL A   1      29.647  23.005  27.080  1.00  0.00     0.001 A 
ATOM     15  C   UNL A   1      29.447  24.264  26.533  1.00  0.00     0.002 A 
BRANCH   8  16
ATOM     16  C   UNL A   1      33.954  21.559  26.835  1.00  0.00     0.300 C 
BRANCH  16  17
ATOM     17  N   UNL A   1      34.695  20.592  26.060  1.00  0.00    -0.340 N 
ATOM     18  H   UNL A   1      35.494  21.084  25.660  1.00  0.00     0.346 HD
ATOM     19  H   UNL A   1      34.891  19.851  26.733  1.00  0.00     0.346 HD
BRANCH  17  20
ATOM     20  C   UNL A   1      34.033  19.877  24.949  1.00  0.00     0.182 C 
ATOM     21  C   UNL A   1      33.075  15.561  25.152  1.00  0.00     0.007 C 
ATOM     22  C   UNL A   1      33.433  17.038  25.186  1.00  0.00    -0.014 C 
ATOM     23  C   UNL A   1      32.252  17.947  24.869  1.00  0.00     0.009 C 
ATOM     24  C   UNL A   1      34.537  17.410  24.208  1.00  0.00     0.009 C 
ATOM     25  C   UNL A   1      32.595  19.387  25.237  1.00  0.00     0.065 C 
ATOM     26  C   UNL A   1      35.059  18.803  24.512  1.00  0.00     0.065 C 
ENDBRANCH  17  20
ENDBRANCH  16  17
ENDBRANCH   8  16
BRANCH  10  27
ATOM     27  C   UNL A   1      32.870  25.722  24.016  1.00  0.00     0.161 C 
BRANCH  27  28
ATOM     28  C   UNL A   1      32.627  27.019  24.747  1.00  0.00     0.008 A 
ATOM     29  C   UNL A   1      33.408  27.402  25.848  1.00  0.00     0.008 A 
ATOM     30  C   UNL A   1      31.640  27.906  24.311  1.00  0.00     0.128 A 
ATOM     31  C   UNL A   1      33.210  28.633  26.481  1.00  0.00     0.001 A 
ATOM     32  C   UNL A   1      31.439  29.138  24.930  1.00  0.00     0.039 A 
ATOM     33  F   UNL A   1      30.879  27.592  23.255  1.00  0.00    -0.207 F 
ATOM     34  C   UNL A   1      32.228  29.505  26.017  1.00  0.00     0.003 A 
ENDBRANCH  27  28
ENDBRANCH  10  27
ENDBRANCH   5   7
ENDBRANCH   4   5
ENDBRANCH   3   4
ENDBRANCH   2   3
ENDBRANCH   1   2
BRANCH   1  35
ATOM     35  C   UNL A   1      38.839  20.878  25.779  1.00  0.00     0.202 C 
BRANCH  35  36
ATOM     36  C   UNL A   1      40.346  20.889  26.075  1.00  0.00     0.261 C 
BRANCH  36  37
ATOM     37  O   UNL A   1      40.841  22.226  26.235  1.00  0.00    -0.460 OA
BRANCH  37  38
ATOM     38  C   UNL A   1      41.660  22.411  27.303  1.00  0.00     0.338 C 
ATOM     39  O   UNL A   1      42.484  21.628  27.746  1.00  0.00    -0.246 OA
BRANCH  38  40
ATOM     40  C   UNL A   1      41.599  23.845  27.634  1.00  0.00     0.060 A 
ATOM     41  C   UNL A   1      42.583  24.437  28.422  1.00  0.00     0.016 A 
ATOM     42  C   UNL A   1      40.437  24.550  27.284  1.00  0.00     0.016 A 
ATOM     43  C   UNL A   1      42.372  25.728  28.892  1.00  0.00     0.010 A 
ATOM     44  C   UNL A   1      40.210  25.826  27.803  1.00  0.00     0.010 A 
ATOM     45  C   UNL A   1      41.167  26.407  28.637  1.00  0.00    -0.014 A 
BRANCH  45  46
ATOM     46  C   UNL A   1      41.038  27.764  29.188  1.00  0.00     0.031 A 
ATOM     47  C   UNL A   1      42.000  28.761  28.643  1.00  0.00     0.074 A 
ATOM     48  C   UNL A   1      40.074  28.228  30.010  1.00  0.00     0.049 A 
ATOM     49  N   UNL A   1      42.874  29.475  29.276  1.00  0.00    -0.248 NA
ATOM     50  C   UNL A   1      42.005  28.937  27.185  1.00  0.00     0.031 C 
ATOM     51  C   UNL A   1      38.803  27.587  30.345  1.00  0.00     0.029 A 
ATOM     52  N   UNL A   1      39.992  29.450  30.632  1.00  0.00    -0.354 N 
ATOM     53  C   UNL A   1      43.453  30.300  28.313  1.00  0.00     0.074 A 
ATOM     54  C   UNL A   1      42.959  29.852  27.033  1.00  0.00     0.031 C 
ATOM     55  C   UNL A   1      37.988  28.507  30.909  1.00  0.00     0.029 A 
ATOM     56  C   UNL A   1      38.727  29.748  31.106  1.00  0.00     0.049 A 
ATOM     57  H   UNL A   1      40.760  30.056  30.731  1.00  0.00     0.167 HD
ATOM     58  C   UNL A   1      44.181  31.406  28.621  1.00  0.00     0.034 A 
ATOM     59  C   UNL A   1      38.273  30.943  31.553  1.00  0.00     0.034 A 
ATOM     60  C   UNL A   1      44.526  31.481  30.009  1.00  0.00     0.049 A 
ATOM     61  C   UNL A   1      39.396  31.835  31.924  1.00  0.00     0.074 A 
ATOM     62  C   UNL A   1      45.425  30.860  30.843  1.00  0.00     0.029 A 
ATOM     63  N   UNL A   1      43.666  32.196  30.797  1.00  0.00    -0.354 N 
ATOM     64  N   UNL A   1      40.173  31.680  32.959  1.00  0.00    -0.248 NA
ATOM     65  C   UNL A   1      39.813  32.879  30.993  1.00  0.00     0.031 C 
ATOM     66  C   UNL A   1      44.921  31.030  32.163  1.00  0.00     0.029 A 
ATOM     67  C   UNL A   1      43.715  31.728  32.087  1.00  0.00     0.049 A 
ATOM     68  H   UNL A   1      43.097  32.936  30.486  1.00  0.00     0.167 HD
ATOM     69  C   UNL A   1      41.362  32.284  32.599  1.00  0.00     0.074 A 
ATOM     70  C   UNL A   1      41.015  33.165  31.497  1.00  0.00     0.031 C 
ATOM     71  C   UNL A   1      42.568  31.775  32.985  1.00  0.00     0.034 A 
BRANCH  58  72
ATOM     72  C   UNL A   1      44.351  32.585  27.701  1.00  0.00     0.023 A 
ATOM     73  C   UNL A   1      43.805  33.848  27.998  1.00  0.00     0.031 A 
ATOM     74  C   UNL A   1      45.233  32.531  26.605  1.00  0.00     0.131 A 
ATOM     75  C   UNL A   1      44.068  34.964  27.194  1.00  0.00     0.055 A 
ATOM     76  C   UNL A   1      45.554  33.663  25.845  1.00  0.00     0.041 A 
ATOM     77  F   UNL A   1      45.837  31.382  26.261  1.00  0.00    -0.206 F 
ATOM     78  C   UNL A   1      44.958  34.885  26.128  1.00  0.00     0.022 A 
BRANCH  75  79
ATOM     79  S   UNL A   1      43.206  36.530  27.500  1.00  0.00     0.124 S 
ATOM     80  O   UNL A   1      42.040  36.402  26.633  1.00  0.00    -0.237 OA
ATOM     81  O   UNL A   1      42.942  36.454  28.935  1.00  0.00    -0.237 OA
ATOM     82  O   UNL A   1      44.189  37.535  27.109  1.00  0.00    -0.744 OA
ENDBRANCH  75  79
ENDBRANCH  58  72
BRANCH  59  83
ATOM     83  C   UNL A   1      36.898  31.470  31.399  1.00  0.00     0.023 A 
ATOM     84  C   UNL A   1      36.403  31.754  30.112  1.00  0.00     0.031 A 
ATOM     85  C   UNL A   1      36.162  31.943  32.496  1.00  0.00     0.131 A 
ATOM     86  C   UNL A   1      35.231  32.502  29.950  1.00  0.00     0.055 A 
ATOM     87  C   UNL A   1      34.989  32.688  32.333  1.00  0.00     0.041 A 
ATOM     88  F   UNL A   1      36.596  31.737  33.749  1.00  0.00    -0.206 F 
ATOM     89  C   UNL A   1      34.522  32.978  31.054  1.00  0.00     0.022 A 
BRANCH  86  90
ATOM     90  S   UNL A   1      34.626  32.908  28.289  1.00  0.00     0.124 S 
ATOM     91  O   UNL A   1      33.578  33.886  28.573  1.00  0.00    -0.237 OA
ATOM     92  O   UNL A   1      35.828  33.442  27.656  1.00  0.00    -0.237 OA
ATOM     93  O   UNL A   1      34.151  31.627  27.776  1.00  0.00    -0.744 OA
ENDBRANCH  86  90
ENDBRANCH  59  83
BRANCH  71  94
ATOM     94  C   UNL A   1      42.659  30.975  34.264  1.00  0.00     0.023 A 
ATOM     95  C   UNL A   1      43.069  31.653  35.433  1.00  0.00     0.031 A 
ATOM     96  C   UNL A   1      42.502  29.583  34.352  1.00  0.00     0.131 A 
ATOM     97  C   UNL A   1      43.345  30.945  36.610  1.00  0.00     0.055 A 
ATOM     98  C   UNL A   1      42.685  28.899  35.558  1.00  0.00     0.041 A 
ATOM     99  F   UNL A   1      42.261  28.829  33.270  1.00  0.00    -0.206 F 
ATOM    100  C   UNL A   1      43.130  29.570  36.688  1.00  0.00     0.022 A 
BRANCH  97 101
ATOM    101  S   UNL A   1      44.094  31.759  38.043  1.00  0.00     0.124 S 
ATOM    102  O   UNL A   1      45.397  31.105  38.129  1.00  0.00    -0.237 OA
ATOM    103  O   UNL A   1      44.124  33.157  37.617  1.00  0.00    -0.237 OA
ATOM    104  O   UNL A   1      43.176  31.463  39.139  1.00  0.00    -0.744 OA
ENDBRANCH  97 101
ENDBRANCH  71  94
ENDBRANCH  45  46
ENDBRANCH  38  40
ENDBRANCH  37  38
ENDBRANCH  36  37
ENDBRANCH  35  36
ENDBRANCH   1  35
TORSDOF 22
ENDMDL
