MODEL 1
REMARK VINA RESULT:     -12.3      0.000      0.000
REMARK SMILES CC1(C)[C@@]2(C(=O)OCCOCCOC(=O)c3ccc(-c4c5nc(c(-c6cc(S(=O)(=O)[O-])ccc6F)c6ccc([nH]6)c(-c6cc(S(=O)(=O)[O-])ccc6F)c6nc(c(-c7cc(S(=O)(=O)[O-])ccc7F)c7ccc4[nH]7)C=C6)C=C5)cc3)CC[C@]1(C)/C(=N/NC(=O)c1ccc(Cl)cc1)C2
REMARK SMILES IDX 11 1 10 2 9 3 8 4 7 5 5 6 6 7 4 8 1 9 2 10 3 11 81 12 79 13
REMARK SMILES IDX 95 14 80 15 82 16 83 17 84 18 85 19 86 20 87 22 88 23 89 24
REMARK SMILES IDX 94 25 90 26 93 27 91 28 92 29 12 30 13 31 14 32 15 33 16 34
REMARK SMILES IDX 17 35 78 36 18 37 77 38 19 39 20 40 21 41 71 42 22 43 76 44
REMARK SMILES IDX 70 45 72 46 23 47 75 48 69 49 68 50 24 52 56 53 36 54 55 55
REMARK SMILES IDX 37 56 40 57 54 58 73 59 38 60 39 61 53 63 74 64 41 65 25 66
REMARK SMILES IDX 26 67 34 68 27 69 33 70 35 71 32 72 28 73 29 74 30 75 31 76
REMARK SMILES IDX 57 77 58 78 66 79 59 80 65 81 67 82 64 83 60 84 61 85 62 86
REMARK SMILES IDX 63 87 42 88 43 89 51 90 44 91 50 92 52 93 49 94 45 95 46 96
REMARK SMILES IDX 47 97 48 98
REMARK H PARENT 85 21 72 51 40 62
REMARK Flexibility Score: inf
ROOT
ATOM      1  C   UNL A   1      34.437  33.792  28.635  1.00  0.00     0.202 C 
ENDROOT
BRANCH   1   2
ATOM      2  O   UNL A   1      33.193  33.830  27.939  1.00  0.00    -0.374 OA
BRANCH   2   3
ATOM      3  C   UNL A   1      32.577  32.558  27.722  1.00  0.00     0.202 C 
BRANCH   3   4
ATOM      4  C   UNL A   1      33.548  31.381  27.575  1.00  0.00     0.261 C 
BRANCH   4   5
ATOM      5  O   UNL A   1      33.210  30.552  26.445  1.00  0.00    -0.463 OA
BRANCH   5   6
ATOM      6  C   UNL A   1      33.342  29.210  26.629  1.00  0.00     0.313 C 
ATOM      7  O   UNL A   1      34.143  28.685  27.387  1.00  0.00    -0.252 OA
BRANCH   6   8
ATOM      8  C   UNL A   1      32.365  28.447  25.751  1.00  0.00     0.079 C 
ATOM      9  C   UNL A   1      33.643  28.679  23.482  1.00  0.00     0.013 C 
ATOM     10  C   UNL A   1      32.943  27.743  24.492  1.00  0.00    -0.008 C 
ATOM     11  C   UNL A   1      33.935  26.601  24.807  1.00  0.00     0.013 C 
ATOM     12  C   UNL A   1      31.523  27.270  24.030  1.00  0.00     0.014 C 
ATOM     13  C   UNL A   1      31.278  29.388  25.152  1.00  0.00     0.021 C 
ATOM     14  C   UNL A   1      31.642  27.284  26.483  1.00  0.00     0.073 C 
ATOM     15  C   UNL A   1      30.697  28.573  23.976  1.00  0.00     0.014 C 
ATOM     16  C   UNL A   1      31.479  26.412  22.787  1.00  0.00     0.018 C 
ATOM     17  C   UNL A   1      30.994  26.605  25.315  1.00  0.00     0.046 C 
ATOM     18  N   UNL A   1      30.154  25.622  25.244  1.00  0.00    -0.181 NA
BRANCH  18  19
ATOM     19  N   UNL A   1      29.672  24.894  26.287  1.00  0.00    -0.243 N 
ATOM     20  C   UNL A   1      29.961  23.672  26.856  1.00  0.00     0.271 C 
ATOM     21  H   UNL A   1      28.935  25.353  26.749  1.00  0.00     0.194 HD
ATOM     22  O   UNL A   1      29.261  23.251  27.778  1.00  0.00    -0.267 OA
BRANCH  20  23
ATOM     23  C   UNL A   1      31.083  22.838  26.411  1.00  0.00     0.041 A 
ATOM     24  C   UNL A   1      30.983  22.247  25.144  1.00  0.00     0.015 A 
ATOM     25  C   UNL A   1      32.245  22.691  27.176  1.00  0.00     0.015 A 
ATOM     26  C   UNL A   1      32.099  21.617  24.590  1.00  0.00     0.021 A 
ATOM     27  C   UNL A   1      33.345  22.026  26.626  1.00  0.00     0.021 A 
ATOM     28  C   UNL A   1      33.279  21.525  25.324  1.00  0.00     0.041 A 
ATOM     29  Cl  UNL A   1      34.681  20.862  24.581  1.00  0.00    -0.084 Cl
ENDBRANCH  20  23
ENDBRANCH  18  19
ENDBRANCH   6   8
ENDBRANCH   5   6
ENDBRANCH   4   5
ENDBRANCH   3   4
ENDBRANCH   2   3
ENDBRANCH   1   2
BRANCH   1  30
ATOM     30  C   UNL A   1      34.355  33.859  30.163  1.00  0.00     0.261 C 
BRANCH  30  31
ATOM     31  O   UNL A   1      34.400  32.544  30.747  1.00  0.00    -0.460 OA
BRANCH  31  32
ATOM     32  C   UNL A   1      35.319  32.389  31.733  1.00  0.00     0.338 C 
ATOM     33  O   UNL A   1      35.208  32.739  32.896  1.00  0.00    -0.246 OA
BRANCH  32  34
ATOM     34  C   UNL A   1      36.419  31.533  31.241  1.00  0.00     0.060 A 
ATOM     35  C   UNL A   1      37.450  31.214  32.134  1.00  0.00     0.016 A 
ATOM     36  C   UNL A   1      36.448  31.051  29.930  1.00  0.00     0.016 A 
ATOM     37  C   UNL A   1      38.539  30.451  31.707  1.00  0.00     0.010 A 
ATOM     38  C   UNL A   1      37.529  30.268  29.510  1.00  0.00     0.010 A 
ATOM     39  C   UNL A   1      38.605  30.003  30.382  1.00  0.00    -0.014 A 
BRANCH  39  40
ATOM     40  C   UNL A   1      39.878  29.473  29.827  1.00  0.00     0.031 A 
ATOM     41  C   UNL A   1      41.049  30.417  29.735  1.00  0.00     0.074 A 
ATOM     42  C   UNL A   1      40.012  28.196  29.422  1.00  0.00     0.049 A 
ATOM     43  N   UNL A   1      42.216  30.249  29.169  1.00  0.00    -0.248 NA
ATOM     44  C   UNL A   1      40.867  31.739  30.356  1.00  0.00     0.031 C 
ATOM     45  C   UNL A   1      38.985  27.162  29.519  1.00  0.00     0.029 A 
ATOM     46  N   UNL A   1      41.076  27.556  28.831  1.00  0.00    -0.354 N 
ATOM     47  C   UNL A   1      42.895  31.451  29.344  1.00  0.00     0.074 A 
ATOM     48  C   UNL A   1      41.995  32.349  30.029  1.00  0.00     0.031 C 
ATOM     49  C   UNL A   1      39.465  26.021  28.995  1.00  0.00     0.029 A 
ATOM     50  C   UNL A   1      40.813  26.253  28.475  1.00  0.00     0.049 A 
ATOM     51  H   UNL A   1      41.947  27.990  28.677  1.00  0.00     0.167 HD
ATOM     52  C   UNL A   1      44.158  31.772  28.973  1.00  0.00     0.034 A 
ATOM     53  C   UNL A   1      41.556  25.367  27.777  1.00  0.00     0.034 A 
ATOM     54  C   UNL A   1      45.049  30.866  28.295  1.00  0.00     0.049 A 
ATOM     55  C   UNL A   1      42.925  25.780  27.280  1.00  0.00     0.074 A 
ATOM     56  C   UNL A   1      46.353  31.086  27.889  1.00  0.00     0.029 A 
ATOM     57  N   UNL A   1      44.727  29.571  27.913  1.00  0.00    -0.354 N 
ATOM     58  N   UNL A   1      43.552  26.924  27.435  1.00  0.00    -0.248 NA
ATOM     59  C   UNL A   1      43.689  24.784  26.512  1.00  0.00     0.031 C 
ATOM     60  C   UNL A   1      46.789  29.959  27.188  1.00  0.00     0.029 A 
ATOM     61  C   UNL A   1      45.794  28.996  27.244  1.00  0.00     0.049 A 
ATOM     62  H   UNL A   1      43.866  29.127  28.091  1.00  0.00     0.167 HD
ATOM     63  C   UNL A   1      44.798  26.764  26.827  1.00  0.00     0.074 A 
ATOM     64  C   UNL A   1      44.832  25.419  26.297  1.00  0.00     0.031 C 
ATOM     65  C   UNL A   1      45.824  27.647  26.729  1.00  0.00     0.034 A 
BRANCH  52  66
ATOM     66  C   UNL A   1      44.624  33.181  29.247  1.00  0.00     0.023 A 
ATOM     67  C   UNL A   1      44.515  34.202  28.285  1.00  0.00     0.031 A 
ATOM     68  C   UNL A   1      45.215  33.502  30.482  1.00  0.00     0.131 A 
ATOM     69  C   UNL A   1      45.055  35.469  28.546  1.00  0.00     0.055 A 
ATOM     70  C   UNL A   1      45.671  34.789  30.768  1.00  0.00     0.041 A 
ATOM     71  F   UNL A   1      45.372  32.564  31.429  1.00  0.00    -0.206 F 
ATOM     72  C   UNL A   1      45.607  35.778  29.792  1.00  0.00     0.022 A 
BRANCH  69  73
ATOM     73  S   UNL A   1      45.168  36.659  27.183  1.00  0.00     0.124 S 
ATOM     74  O   UNL A   1      45.931  35.903  26.194  1.00  0.00    -0.237 OA
ATOM     75  O   UNL A   1      43.767  36.901  26.860  1.00  0.00    -0.237 OA
ATOM     76  O   UNL A   1      45.877  37.792  27.774  1.00  0.00    -0.744 OA
ENDBRANCH  69  73
ENDBRANCH  52  66
BRANCH  53  77
ATOM     77  C   UNL A   1      41.016  24.013  27.451  1.00  0.00     0.023 A 
ATOM     78  C   UNL A   1      39.900  23.856  26.613  1.00  0.00     0.031 A 
ATOM     79  C   UNL A   1      41.567  22.857  28.034  1.00  0.00     0.131 A 
ATOM     80  C   UNL A   1      39.340  22.581  26.423  1.00  0.00     0.055 A 
ATOM     81  C   UNL A   1      41.045  21.585  27.790  1.00  0.00     0.041 A 
ATOM     82  F   UNL A   1      42.627  22.946  28.853  1.00  0.00    -0.206 F 
ATOM     83  C   UNL A   1      39.915  21.443  26.993  1.00  0.00     0.022 A 
BRANCH  80  84
ATOM     84  S   UNL A   1      37.781  22.444  25.505  1.00  0.00     0.124 S 
ATOM     85  O   UNL A   1      36.806  22.383  26.587  1.00  0.00    -0.237 OA
ATOM     86  O   UNL A   1      37.787  23.669  24.712  1.00  0.00    -0.237 OA
ATOM     87  O   UNL A   1      37.944  21.209  24.741  1.00  0.00    -0.744 OA
ENDBRANCH  80  84
ENDBRANCH  53  77
BRANCH  65  88
ATOM     88  C   UNL A   1      47.112  27.170  26.100  1.00  0.00     0.023 A 
ATOM     89  C   UNL A   1      48.118  26.524  26.838  1.00  0.00     0.031 A 
ATOM     90  C   UNL A   1      47.303  27.322  24.713  1.00  0.00     0.131 A 
ATOM     91  C   UNL A   1      49.281  26.078  26.189  1.00  0.00     0.055 A 
ATOM     92  C   UNL A   1      48.435  26.826  24.065  1.00  0.00     0.041 A 
ATOM     93  F   UNL A   1      46.375  27.934  23.960  1.00  0.00    -0.206 F 
ATOM     94  C   UNL A   1      49.435  26.206  24.805  1.00  0.00     0.022 A 
BRANCH  91  95
ATOM     95  S   UNL A   1      50.625  25.371  27.182  1.00  0.00     0.124 S 
ATOM     96  O   UNL A   1      51.008  26.501  28.022  1.00  0.00    -0.237 OA
ATOM     97  O   UNL A   1      49.961  24.265  27.866  1.00  0.00    -0.237 OA
ATOM     98  O   UNL A   1      51.618  24.974  26.186  1.00  0.00    -0.744 OA
ENDBRANCH  91  95
ENDBRANCH  65  88
ENDBRANCH  39  40
ENDBRANCH  32  34
ENDBRANCH  31  32
ENDBRANCH  30  31
ENDBRANCH   1  30
TORSDOF 19
ENDMDL
MODEL 2
REMARK VINA RESULT:     -11.7      5.424      7.575
REMARK SMILES CC1(C)[C@@]2(C(=O)OCCOCCOC(=O)c3ccc(-c4c5nc(c(-c6cc(S(=O)(=O)[O-])ccc6F)c6ccc([nH]6)c(-c6cc(S(=O)(=O)[O-])ccc6F)c6nc(c(-c7cc(S(=O)(=O)[O-])ccc7F)c7ccc4[nH]7)C=C6)C=C5)cc3)CC[C@]1(C)/C(=N/NC(=O)c1ccc(Cl)cc1)C2
REMARK SMILES IDX 11 1 10 2 9 3 8 4 7 5 5 6 6 7 4 8 1 9 2 10 3 11 81 12 79 13
REMARK SMILES IDX 95 14 80 15 82 16 83 17 84 18 85 19 86 20 87 22 88 23 89 24
REMARK SMILES IDX 94 25 90 26 93 27 91 28 92 29 12 30 13 31 14 32 15 33 16 34
REMARK SMILES IDX 17 35 78 36 18 37 77 38 19 39 20 40 21 41 71 42 22 43 76 44
REMARK SMILES IDX 70 45 72 46 23 47 75 48 69 49 68 50 24 52 56 53 36 54 55 55
REMARK SMILES IDX 37 56 40 57 54 58 73 59 38 60 39 61 53 63 74 64 41 65 25 66
REMARK SMILES IDX 26 67 34 68 27 69 33 70 35 71 32 72 28 73 29 74 30 75 31 76
REMARK SMILES IDX 57 77 58 78 66 79 59 80 65 81 67 82 64 83 60 84 61 85 62 86
REMARK SMILES IDX 63 87 42 88 43 89 51 90 44 91 50 92 52 93 49 94 45 95 46 96
REMARK SMILES IDX 47 97 48 98
REMARK H PARENT 85 21 72 51 40 62
REMARK Flexibility Score: inf
ROOT
ATOM      1  C   UNL A   1      34.306  34.743  28.341  1.00  0.00     0.202 C 
ENDROOT
BRANCH   1   2
ATOM      2  O   UNL A   1      34.276  33.352  28.653  1.00  0.00    -0.374 OA
BRANCH   2   3
ATOM      3  C   UNL A   1      33.396  32.566  27.846  1.00  0.00     0.202 C 
BRANCH   3   4
ATOM      4  C   UNL A   1      33.710  31.065  27.813  1.00  0.00     0.261 C 
BRANCH   4   5
ATOM      5  O   UNL A   1      33.496  30.508  26.501  1.00  0.00    -0.463 OA
BRANCH   5   6
ATOM      6  C   UNL A   1      33.674  29.163  26.388  1.00  0.00     0.313 C 
ATOM      7  O   UNL A   1      34.618  28.543  26.852  1.00  0.00    -0.252 OA
BRANCH   6   8
ATOM      8  C   UNL A   1      32.543  28.534  25.593  1.00  0.00     0.079 C 
ATOM      9  C   UNL A   1      33.481  28.981  23.194  1.00  0.00     0.013 C 
ATOM     10  C   UNL A   1      32.894  27.959  24.193  1.00  0.00    -0.008 C 
ATOM     11  C   UNL A   1      33.866  26.758  24.229  1.00  0.00     0.013 C 
ATOM     12  C   UNL A   1      31.400  27.585  23.905  1.00  0.00     0.014 C 
ATOM     13  C   UNL A   1      31.425  29.570  25.270  1.00  0.00     0.021 C 
ATOM     14  C   UNL A   1      31.880  27.320  26.298  1.00  0.00     0.073 C 
ATOM     15  C   UNL A   1      30.638  28.912  24.116  1.00  0.00     0.014 C 
ATOM     16  C   UNL A   1      31.132  26.875  22.598  1.00  0.00     0.018 C 
ATOM     17  C   UNL A   1      31.035  26.797  25.176  1.00  0.00     0.046 C 
ATOM     18  N   UNL A   1      30.148  25.855  25.130  1.00  0.00    -0.181 NA
BRANCH  18  19
ATOM     19  N   UNL A   1      29.791  25.030  26.150  1.00  0.00    -0.243 N 
ATOM     20  C   UNL A   1      30.260  23.843  26.671  1.00  0.00     0.271 C 
ATOM     21  H   UNL A   1      29.003  25.362  26.637  1.00  0.00     0.194 HD
ATOM     22  O   UNL A   1      29.642  23.294  27.584  1.00  0.00    -0.267 OA
BRANCH  20  23
ATOM     23  C   UNL A   1      31.483  23.194  26.185  1.00  0.00     0.041 A 
ATOM     24  C   UNL A   1      32.708  23.733  26.604  1.00  0.00     0.015 A 
ATOM     25  C   UNL A   1      31.445  22.040  25.397  1.00  0.00     0.015 A 
ATOM     26  C   UNL A   1      33.890  23.039  26.340  1.00  0.00     0.021 A 
ATOM     27  C   UNL A   1      32.639  21.370  25.108  1.00  0.00     0.021 A 
ATOM     28  C   UNL A   1      33.850  21.853  25.611  1.00  0.00     0.041 A 
ATOM     29  Cl  UNL A   1      35.294  20.943  25.405  1.00  0.00    -0.084 Cl
ENDBRANCH  20  23
ENDBRANCH  18  19
ENDBRANCH   6   8
ENDBRANCH   5   6
ENDBRANCH   4   5
ENDBRANCH   3   4
ENDBRANCH   2   3
ENDBRANCH   1   2
BRANCH   1  30
ATOM     30  C   UNL A   1      33.183  35.591  28.945  1.00  0.00     0.261 C 
BRANCH  30  31
ATOM     31  O   UNL A   1      32.614  34.957  30.105  1.00  0.00    -0.460 OA
BRANCH  31  32
ATOM     32  C   UNL A   1      32.857  35.591  31.279  1.00  0.00     0.338 C 
ATOM     33  O   UNL A   1      32.198  36.490  31.774  1.00  0.00    -0.246 OA
BRANCH  32  34
ATOM     34  C   UNL A   1      33.941  34.887  31.996  1.00  0.00     0.060 A 
ATOM     35  C   UNL A   1      35.212  35.477  32.004  1.00  0.00     0.016 A 
ATOM     36  C   UNL A   1      33.726  33.670  32.648  1.00  0.00     0.016 A 
ATOM     37  C   UNL A   1      36.284  34.831  32.624  1.00  0.00     0.010 A 
ATOM     38  C   UNL A   1      34.796  33.035  33.287  1.00  0.00     0.010 A 
ATOM     39  C   UNL A   1      36.092  33.586  33.238  1.00  0.00    -0.014 A 
BRANCH  39  40
ATOM     40  C   UNL A   1      37.257  32.745  33.617  1.00  0.00     0.031 A 
ATOM     41  C   UNL A   1      37.976  33.081  34.899  1.00  0.00     0.074 A 
ATOM     42  C   UNL A   1      37.673  31.707  32.867  1.00  0.00     0.049 A 
ATOM     43  N   UNL A   1      39.091  32.599  35.382  1.00  0.00    -0.248 NA
ATOM     44  C   UNL A   1      37.353  34.116  35.740  1.00  0.00     0.031 C 
ATOM     45  C   UNL A   1      37.030  31.232  31.645  1.00  0.00     0.029 A 
ATOM     46  N   UNL A   1      38.754  30.872  33.023  1.00  0.00    -0.354 N 
ATOM     47  C   UNL A   1      39.315  33.290  36.569  1.00  0.00     0.074 A 
ATOM     48  C   UNL A   1      38.245  34.250  36.708  1.00  0.00     0.031 C 
ATOM     49  C   UNL A   1      37.735  30.197  31.156  1.00  0.00     0.029 A 
ATOM     50  C   UNL A   1      38.910  29.968  31.997  1.00  0.00     0.049 A 
ATOM     51  H   UNL A   1      39.360  30.916  33.798  1.00  0.00     0.167 HD
ATOM     52  C   UNL A   1      40.319  33.132  37.466  1.00  0.00     0.034 A 
ATOM     53  C   UNL A   1      39.904  29.089  31.747  1.00  0.00     0.034 A 
ATOM     54  C   UNL A   1      41.378  32.166  37.320  1.00  0.00     0.049 A 
ATOM     55  C   UNL A   1      41.072  28.999  32.706  1.00  0.00     0.074 A 
ATOM     56  C   UNL A   1      42.434  31.914  38.178  1.00  0.00     0.029 A 
ATOM     57  N   UNL A   1      41.523  31.302  36.244  1.00  0.00    -0.354 N 
ATOM     58  N   UNL A   1      41.284  29.669  33.817  1.00  0.00    -0.248 NA
ATOM     59  C   UNL A   1      42.136  28.037  32.381  1.00  0.00     0.031 C 
ATOM     60  C   UNL A   1      43.262  30.960  37.581  1.00  0.00     0.029 A 
ATOM     61  C   UNL A   1      42.671  30.543  36.399  1.00  0.00     0.049 A 
ATOM     62  H   UNL A   1      40.902  31.238  35.483  1.00  0.00     0.167 HD
ATOM     63  C   UNL A   1      42.478  29.172  34.342  1.00  0.00     0.074 A 
ATOM     64  C   UNL A   1      42.943  28.155  33.425  1.00  0.00     0.031 C 
ATOM     65  C   UNL A   1      43.122  29.519  35.485  1.00  0.00     0.034 A 
BRANCH  52  66
ATOM     66  C   UNL A   1      40.343  34.063  38.653  1.00  0.00     0.023 A 
ATOM     67  C   UNL A   1      39.698  33.747  39.862  1.00  0.00     0.031 A 
ATOM     68  C   UNL A   1      41.000  35.304  38.563  1.00  0.00     0.131 A 
ATOM     69  C   UNL A   1      39.660  34.687  40.901  1.00  0.00     0.055 A 
ATOM     70  C   UNL A   1      41.034  36.198  39.633  1.00  0.00     0.041 A 
ATOM     71  F   UNL A   1      41.610  35.673  37.426  1.00  0.00    -0.206 F 
ATOM     72  C   UNL A   1      40.349  35.899  40.806  1.00  0.00     0.022 A 
BRANCH  69  73
ATOM     73  S   UNL A   1      38.571  34.370  42.316  1.00  0.00     0.124 S 
ATOM     74  O   UNL A   1      37.648  33.384  41.761  1.00  0.00    -0.237 OA
ATOM     75  O   UNL A   1      39.501  33.878  43.325  1.00  0.00    -0.237 OA
ATOM     76  O   UNL A   1      37.981  35.677  42.594  1.00  0.00    -0.744 OA
ENDBRANCH  69  73
ENDBRANCH  52  66
BRANCH  53  77
ATOM     77  C   UNL A   1      39.883  28.251  30.510  1.00  0.00     0.023 A 
ATOM     78  C   UNL A   1      40.588  28.634  29.358  1.00  0.00     0.031 A 
ATOM     79  C   UNL A   1      39.096  27.087  30.441  1.00  0.00     0.131 A 
ATOM     80  C   UNL A   1      40.451  27.892  28.173  1.00  0.00     0.055 A 
ATOM     81  C   UNL A   1      39.014  26.317  29.279  1.00  0.00     0.041 A 
ATOM     82  F   UNL A   1      38.391  26.677  31.508  1.00  0.00    -0.206 F 
ATOM     83  C   UNL A   1      39.682  26.727  28.131  1.00  0.00     0.022 A 
BRANCH  80  84
ATOM     84  S   UNL A   1      41.209  28.532  26.652  1.00  0.00     0.124 S 
ATOM     85  O   UNL A   1      40.105  29.285  26.068  1.00  0.00    -0.237 OA
ATOM     86  O   UNL A   1      42.320  29.319  27.176  1.00  0.00    -0.237 OA
ATOM     87  O   UNL A   1      41.592  27.321  25.929  1.00  0.00    -0.744 OA
ENDBRANCH  80  84
ENDBRANCH  53  77
BRANCH  65  88
ATOM     88  C   UNL A   1      44.357  28.739  35.868  1.00  0.00     0.023 A 
ATOM     89  C   UNL A   1      45.653  29.174  35.545  1.00  0.00     0.031 A 
ATOM     90  C   UNL A   1      44.225  27.559  36.626  1.00  0.00     0.131 A 
ATOM     91  C   UNL A   1      46.765  28.419  35.956  1.00  0.00     0.055 A 
ATOM     92  C   UNL A   1      45.334  26.844  37.078  1.00  0.00     0.041 A 
ATOM     93  F   UNL A   1      43.009  27.097  36.960  1.00  0.00    -0.206 F 
ATOM     94  C   UNL A   1      46.613  27.270  36.737  1.00  0.00     0.022 A 
BRANCH  91  95
ATOM     95  S   UNL A   1      48.420  28.925  35.410  1.00  0.00     0.124 S 
ATOM     96  O   UNL A   1      49.118  29.098  36.680  1.00  0.00    -0.237 OA
ATOM     97  O   UNL A   1      48.844  27.787  34.599  1.00  0.00    -0.237 OA
ATOM     98  O   UNL A   1      48.175  30.158  34.664  1.00  0.00    -0.744 OA
ENDBRANCH  91  95
ENDBRANCH  65  88
ENDBRANCH  39  40
ENDBRANCH  32  34
ENDBRANCH  31  32
ENDBRANCH  30  31
ENDBRANCH   1  30
TORSDOF 19
ENDMDL
MODEL 3
REMARK VINA RESULT:     -11.6      4.697      6.076
REMARK SMILES CC1(C)[C@@]2(C(=O)OCCOCCOC(=O)c3ccc(-c4c5nc(c(-c6cc(S(=O)(=O)[O-])ccc6F)c6ccc([nH]6)c(-c6cc(S(=O)(=O)[O-])ccc6F)c6nc(c(-c7cc(S(=O)(=O)[O-])ccc7F)c7ccc4[nH]7)C=C6)C=C5)cc3)CC[C@]1(C)/C(=N/NC(=O)c1ccc(Cl)cc1)C2
REMARK SMILES IDX 11 1 10 2 9 3 8 4 7 5 5 6 6 7 4 8 1 9 2 10 3 11 81 12 79 13
REMARK SMILES IDX 95 14 80 15 82 16 83 17 84 18 85 19 86 20 87 22 88 23 89 24
REMARK SMILES IDX 94 25 90 26 93 27 91 28 92 29 12 30 13 31 14 32 15 33 16 34
REMARK SMILES IDX 17 35 78 36 18 37 77 38 19 39 20 40 21 41 71 42 22 43 76 44
REMARK SMILES IDX 70 45 72 46 23 47 75 48 69 49 68 50 24 52 56 53 36 54 55 55
REMARK SMILES IDX 37 56 40 57 54 58 73 59 38 60 39 61 53 63 74 64 41 65 25 66
REMARK SMILES IDX 26 67 34 68 27 69 33 70 35 71 32 72 28 73 29 74 30 75 31 76
REMARK SMILES IDX 57 77 58 78 66 79 59 80 65 81 67 82 64 83 60 84 61 85 62 86
REMARK SMILES IDX 63 87 42 88 43 89 51 90 44 91 50 92 52 93 49 94 45 95 46 96
REMARK SMILES IDX 47 97 48 98
REMARK H PARENT 85 21 72 51 40 62
REMARK Flexibility Score: inf
ROOT
ATOM      1  C   UNL A   1      33.083  33.802  27.654  1.00  0.00     0.202 C 
ENDROOT
BRANCH   1   2
ATOM      2  O   UNL A   1      31.789  33.391  27.218  1.00  0.00    -0.374 OA
BRANCH   2   3
ATOM      3  C   UNL A   1      31.679  32.014  26.849  1.00  0.00     0.202 C 
BRANCH   3   4
ATOM      4  C   UNL A   1      32.879  31.140  27.231  1.00  0.00     0.261 C 
BRANCH   4   5
ATOM      5  O   UNL A   1      32.537  29.739  27.231  1.00  0.00    -0.463 OA
BRANCH   5   6
ATOM      6  C   UNL A   1      33.238  28.954  26.369  1.00  0.00     0.313 C 
ATOM      7  O   UNL A   1      34.456  28.922  26.287  1.00  0.00    -0.252 OA
BRANCH   6   8
ATOM      8  C   UNL A   1      32.299  28.127  25.507  1.00  0.00     0.079 C 
ATOM      9  C   UNL A   1      33.557  28.388  23.230  1.00  0.00     0.013 C 
ATOM     10  C   UNL A   1      32.908  27.434  24.258  1.00  0.00    -0.008 C 
ATOM     11  C   UNL A   1      33.959  26.349  24.587  1.00  0.00     0.013 C 
ATOM     12  C   UNL A   1      31.513  26.881  23.809  1.00  0.00     0.014 C 
ATOM     13  C   UNL A   1      31.164  29.002  24.897  1.00  0.00     0.021 C 
ATOM     14  C   UNL A   1      31.638  26.942  26.261  1.00  0.00     0.073 C 
ATOM     15  C   UNL A   1      30.621  28.139  23.737  1.00  0.00     0.014 C 
ATOM     16  C   UNL A   1      31.509  26.001  22.580  1.00  0.00     0.018 C 
ATOM     17  C   UNL A   1      31.022  26.211  25.106  1.00  0.00     0.046 C 
ATOM     18  N   UNL A   1      30.234  25.185  25.055  1.00  0.00    -0.181 NA
BRANCH  18  19
ATOM     19  N   UNL A   1      29.792  24.451  26.111  1.00  0.00    -0.243 N 
ATOM     20  C   UNL A   1      30.247  23.353  26.809  1.00  0.00     0.271 C 
ATOM     21  H   UNL A   1      28.937  24.786  26.463  1.00  0.00     0.194 HD
ATOM     22  O   UNL A   1      29.548  22.867  27.699  1.00  0.00    -0.267 OA
BRANCH  20  23
ATOM     23  C   UNL A   1      31.547  22.728  26.541  1.00  0.00     0.041 A 
ATOM     24  C   UNL A   1      31.655  21.936  25.389  1.00  0.00     0.015 A 
ATOM     25  C   UNL A   1      32.663  22.964  27.351  1.00  0.00     0.015 A 
ATOM     26  C   UNL A   1      32.912  21.489  24.979  1.00  0.00     0.021 A 
ATOM     27  C   UNL A   1      33.912  22.480  26.950  1.00  0.00     0.021 A 
ATOM     28  C   UNL A   1      34.036  21.777  25.749  1.00  0.00     0.041 A 
ATOM     29  Cl  UNL A   1      35.592  21.331  25.167  1.00  0.00    -0.084 Cl
ENDBRANCH  20  23
ENDBRANCH  18  19
ENDBRANCH   6   8
ENDBRANCH   5   6
ENDBRANCH   4   5
ENDBRANCH   3   4
ENDBRANCH   2   3
ENDBRANCH   1   2
BRANCH   1  30
ATOM     30  C   UNL A   1      33.129  35.057  28.529  1.00  0.00     0.261 C 
BRANCH  30  31
ATOM     31  O   UNL A   1      32.716  34.771  29.877  1.00  0.00    -0.460 OA
BRANCH  31  32
ATOM     32  C   UNL A   1      33.594  35.155  30.838  1.00  0.00     0.338 C 
ATOM     33  O   UNL A   1      33.432  36.036  31.666  1.00  0.00    -0.246 OA
BRANCH  32  34
ATOM     34  C   UNL A   1      34.721  34.200  30.876  1.00  0.00     0.060 A 
ATOM     35  C   UNL A   1      34.521  32.976  31.527  1.00  0.00     0.016 A 
ATOM     36  C   UNL A   1      35.955  34.491  30.289  1.00  0.00     0.016 A 
ATOM     37  C   UNL A   1      35.567  32.057  31.636  1.00  0.00     0.010 A 
ATOM     38  C   UNL A   1      36.996  33.560  30.380  1.00  0.00     0.010 A 
ATOM     39  C   UNL A   1      36.824  32.359  31.096  1.00  0.00    -0.014 A 
BRANCH  39  40
ATOM     40  C   UNL A   1      38.017  31.555  31.468  1.00  0.00     0.031 A 
ATOM     41  C   UNL A   1      38.698  31.876  32.775  1.00  0.00     0.074 A 
ATOM     42  C   UNL A   1      38.492  30.564  30.691  1.00  0.00     0.049 A 
ATOM     43  N   UNL A   1      39.824  31.425  33.263  1.00  0.00    -0.248 NA
ATOM     44  C   UNL A   1      38.015  32.853  33.639  1.00  0.00     0.031 C 
ATOM     45  C   UNL A   1      37.892  30.105  29.440  1.00  0.00     0.029 A 
ATOM     46  N   UNL A   1      39.605  29.771  30.839  1.00  0.00    -0.354 N 
ATOM     47  C   UNL A   1      39.996  32.083  34.478  1.00  0.00     0.074 A 
ATOM     48  C   UNL A   1      38.882  32.991  34.628  1.00  0.00     0.031 C 
ATOM     49  C   UNL A   1      38.651  29.120  28.930  1.00  0.00     0.029 A 
ATOM     50  C   UNL A   1      39.819  28.912  29.785  1.00  0.00     0.049 A 
ATOM     51  H   UNL A   1      40.195  29.813  31.627  1.00  0.00     0.167 HD
ATOM     52  C   UNL A   1      40.989  31.936  35.388  1.00  0.00     0.034 A 
ATOM     53  C   UNL A   1      40.855  28.086  29.524  1.00  0.00     0.034 A 
ATOM     54  C   UNL A   1      42.091  31.023  35.229  1.00  0.00     0.049 A 
ATOM     55  C   UNL A   1      42.008  28.012  30.503  1.00  0.00     0.074 A 
ATOM     56  C   UNL A   1      43.142  30.785  36.098  1.00  0.00     0.029 A 
ATOM     57  N   UNL A   1      42.294  30.204  34.127  1.00  0.00    -0.354 N 
ATOM     58  N   UNL A   1      42.171  28.650  31.640  1.00  0.00    -0.248 NA
ATOM     59  C   UNL A   1      43.119  27.109  30.165  1.00  0.00     0.031 C 
ATOM     60  C   UNL A   1      44.022  29.890  35.485  1.00  0.00     0.029 A 
ATOM     61  C   UNL A   1      43.471  29.490  34.278  1.00  0.00     0.049 A 
ATOM     62  H   UNL A   1      41.690  30.141  33.352  1.00  0.00     0.167 HD
ATOM     63  C   UNL A   1      43.375  28.187  32.171  1.00  0.00     0.074 A 
ATOM     64  C   UNL A   1      43.901  27.224  31.229  1.00  0.00     0.031 C 
ATOM     65  C   UNL A   1      43.982  28.520  33.338  1.00  0.00     0.034 A 
BRANCH  52  66
ATOM     66  C   UNL A   1      40.951  32.825  36.607  1.00  0.00     0.023 A 
ATOM     67  C   UNL A   1      40.146  32.527  37.721  1.00  0.00     0.031 A 
ATOM     68  C   UNL A   1      41.712  34.007  36.642  1.00  0.00     0.131 A 
ATOM     69  C   UNL A   1      40.065  33.434  38.787  1.00  0.00     0.055 A 
ATOM     70  C   UNL A   1      41.694  34.862  37.745  1.00  0.00     0.041 A 
ATOM     71  F   UNL A   1      42.478  34.359  35.597  1.00  0.00    -0.206 F 
ATOM     72  C   UNL A   1      40.856  34.586  38.820  1.00  0.00     0.022 A 
BRANCH  69  73
ATOM     73  S   UNL A   1      38.797  33.167  40.056  1.00  0.00     0.124 S 
ATOM     74  O   UNL A   1      39.172  31.854  40.574  1.00  0.00    -0.237 OA
ATOM     75  O   UNL A   1      39.011  34.295  40.956  1.00  0.00    -0.237 OA
ATOM     76  O   UNL A   1      37.546  33.198  39.302  1.00  0.00    -0.744 OA
ENDBRANCH  69  73
ENDBRANCH  52  66
BRANCH  53  77
ATOM     77  C   UNL A   1      40.894  27.292  28.259  1.00  0.00     0.023 A 
ATOM     78  C   UNL A   1      40.655  25.908  28.259  1.00  0.00     0.031 A 
ATOM     79  C   UNL A   1      41.243  27.898  27.037  1.00  0.00     0.131 A 
ATOM     80  C   UNL A   1      40.818  25.169  27.075  1.00  0.00     0.055 A 
ATOM     81  C   UNL A   1      41.341  27.168  25.851  1.00  0.00     0.041 A 
ATOM     82  F   UNL A   1      41.494  29.216  26.978  1.00  0.00    -0.206 F 
ATOM     83  C   UNL A   1      41.143  25.792  25.869  1.00  0.00     0.022 A 
BRANCH  80  84
ATOM     84  S   UNL A   1      40.704  23.359  27.157  1.00  0.00     0.124 S 
ATOM     85  O   UNL A   1      39.262  23.152  27.097  1.00  0.00    -0.237 OA
ATOM     86  O   UNL A   1      41.463  22.954  25.979  1.00  0.00    -0.237 OA
ATOM     87  O   UNL A   1      41.329  23.038  28.439  1.00  0.00    -0.744 OA
ENDBRANCH  80  84
ENDBRANCH  53  77
BRANCH  65  88
ATOM     88  C   UNL A   1      45.244  27.781  33.717  1.00  0.00     0.023 A 
ATOM     89  C   UNL A   1      45.221  26.537  34.370  1.00  0.00     0.031 A 
ATOM     90  C   UNL A   1      46.496  28.318  33.361  1.00  0.00     0.131 A 
ATOM     91  C   UNL A   1      46.429  25.885  34.669  1.00  0.00     0.055 A 
ATOM     92  C   UNL A   1      47.689  27.640  33.611  1.00  0.00     0.041 A 
ATOM     93  F   UNL A   1      46.575  29.506  32.738  1.00  0.00    -0.206 F 
ATOM     94  C   UNL A   1      47.660  26.419  34.275  1.00  0.00     0.022 A 
BRANCH  91  95
ATOM     95  S   UNL A   1      46.382  24.348  35.633  1.00  0.00     0.124 S 
ATOM     96  O   UNL A   1      44.953  24.190  35.882  1.00  0.00    -0.237 OA
ATOM     97  O   UNL A   1      46.980  23.384  34.715  1.00  0.00    -0.237 OA
ATOM     98  O   UNL A   1      47.187  24.658  36.814  1.00  0.00    -0.744 OA
ENDBRANCH  91  95
ENDBRANCH  65  88
ENDBRANCH  39  40
ENDBRANCH  32  34
ENDBRANCH  31  32
ENDBRANCH  30  31
ENDBRANCH   1  30
TORSDOF 19
ENDMDL
