MODEL 1
REMARK VINA RESULT:     -12.2      0.000      0.000
REMARK SMILES O=C(OCCOCCOC(=O)c1ccc(-c2c3nc(c(-c4cc(S(=O)(=O)[O-])ccc4F)c4ccc([nH]4)c(-c4cc(S(=O)(=O)[O-])ccc4F)c4nc(c(-c5cc(S(=O)(=O)[O-])ccc5F)c5ccc2[nH]5)C=C4)C=C3)cc1)C1=Cc2cc(S(F)(F)(F)(F)F)cc(Br)c2O[C@H]1C(F)(F)F
REMARK SMILES IDX 7 1 6 2 5 3 4 4 3 5 2 6 1 7 75 8 76 9 91 10 77 11 90 12
REMARK SMILES IDX 78 13 89 14 79 15 87 16 86 17 88 18 92 19 93 20 94 21 95 22
REMARK SMILES IDX 80 23 81 24 82 25 83 26 84 27 85 28 8 29 9 30 10 31 11 32
REMARK SMILES IDX 12 33 13 34 74 35 14 36 73 37 15 38 16 39 17 40 67 41 18 42
REMARK SMILES IDX 72 43 66 44 68 45 19 46 71 47 65 48 64 49 20 51 52 52 32 53
REMARK SMILES IDX 51 54 33 55 36 56 50 57 69 58 34 59 35 60 49 62 70 63 37 64
REMARK SMILES IDX 21 65 22 66 30 67 23 68 29 69 31 70 28 71 24 72 25 73 26 74
REMARK SMILES IDX 27 75 53 76 54 77 62 78 55 79 61 80 63 81 60 82 56 83 57 84
REMARK SMILES IDX 58 85 59 86 38 87 39 88 47 89 40 90 46 91 48 92 45 93 41 94
REMARK SMILES IDX 42 95 43 96 44 97
REMARK H PARENT 68 50 36 61
REMARK Flexibility Score: inf
ROOT
ATOM      1  C   UNL A   1      34.981  21.992  25.521  1.00  0.00     0.202 C 
ENDROOT
BRANCH   1   2
ATOM      2  O   UNL A   1      35.317  23.053  26.404  1.00  0.00    -0.374 OA
BRANCH   2   3
ATOM      3  C   UNL A   1      35.275  24.285  25.699  1.00  0.00     0.202 C 
BRANCH   3   4
ATOM      4  C   UNL A   1      33.864  24.848  25.746  1.00  0.00     0.261 C 
BRANCH   4   5
ATOM      5  O   UNL A   1      33.599  25.562  24.547  1.00  0.00    -0.460 OA
BRANCH   5   6
ATOM      6  C   UNL A   1      32.299  25.532  23.977  1.00  0.00     0.338 C 
ATOM      7  O   UNL A   1      31.281  25.376  24.722  1.00  0.00    -0.246 OA
BRANCH   6   8
ATOM      8  C   UNL A   1      32.125  25.688  22.475  1.00  0.00     0.087 C 
ATOM      9  C   UNL A   1      31.602  26.838  21.966  1.00  0.00     0.027 C 
ATOM     10  C   UNL A   1      32.534  24.561  21.541  1.00  0.00     0.316 C 
ATOM     11  C   UNL A   1      31.193  27.965  22.900  1.00  0.00     0.020 A 
ATOM     12  O   UNL A   1      33.237  27.467  24.006  1.00  0.00    -0.474 OA
ATOM     13  C   UNL A   1      29.968  28.607  22.823  1.00  0.00     0.036 A 
ATOM     14  C   UNL A   1      32.063  28.253  23.861  1.00  0.00     0.142 A 
ATOM     15  C   UNL A   1      29.871  29.754  23.645  1.00  0.00     0.109 A 
ATOM     16  C   UNL A   1      31.839  29.305  24.715  1.00  0.00     0.062 A 
ATOM     17  C   UNL A   1      30.676  30.022  24.658  1.00  0.00     0.044 A 
ATOM     18  Br  UNL A   1      33.205  29.786  26.036  1.00  0.00    -0.047 Br
BRANCH  10  19
ATOM     19  C   UNL A   1      33.083  23.402  22.356  1.00  0.00     0.430 C 
ATOM     20  F   UNL A   1      33.052  22.332  21.567  1.00  0.00    -0.167 F 
ATOM     21  F   UNL A   1      34.344  23.688  22.667  1.00  0.00    -0.167 F 
ATOM     22  F   UNL A   1      32.398  23.152  23.469  1.00  0.00    -0.167 F 
ENDBRANCH  10  19
BRANCH  15  23
ATOM     23  S   UNL A   1      28.550  30.939  23.284  1.00  0.00     0.310 S 
ATOM     24  F   UNL A   1      29.352  31.561  22.065  1.00  0.00    -0.094 F 
ATOM     25  F   UNL A   1      29.276  31.989  24.207  1.00  0.00    -0.094 F 
ATOM     26  F   UNL A   1      27.414  31.954  22.975  1.00  0.00    -0.094 F 
ATOM     27  F   UNL A   1      27.913  29.926  22.254  1.00  0.00    -0.094 F 
ATOM     28  F   UNL A   1      29.756  29.939  23.499  1.00  0.00    -0.094 F 
ENDBRANCH  15  23
ENDBRANCH   6   8
ENDBRANCH   5   6
ENDBRANCH   4   5
ENDBRANCH   3   4
ENDBRANCH   2   3
ENDBRANCH   1   2
BRANCH   1  29
ATOM     29  C   UNL A   1      36.054  20.917  25.589  1.00  0.00     0.261 C 
BRANCH  29  30
ATOM     30  O   UNL A   1      37.256  21.412  25.019  1.00  0.00    -0.460 OA
BRANCH  30  31
ATOM     31  C   UNL A   1      38.495  21.193  25.677  1.00  0.00     0.338 C 
ATOM     32  O   UNL A   1      38.957  20.013  25.788  1.00  0.00    -0.246 OA
BRANCH  31  33
ATOM     33  C   UNL A   1      39.270  22.370  26.248  1.00  0.00     0.060 A 
ATOM     34  C   UNL A   1      40.384  22.240  27.062  1.00  0.00     0.016 A 
ATOM     35  C   UNL A   1      38.867  23.558  25.817  1.00  0.00     0.016 A 
ATOM     36  C   UNL A   1      40.841  23.463  27.607  1.00  0.00     0.010 A 
ATOM     37  C   UNL A   1      39.449  24.709  26.290  1.00  0.00     0.010 A 
ATOM     38  C   UNL A   1      40.517  24.657  27.144  1.00  0.00    -0.014 A 
BRANCH  38  39
ATOM     39  C   UNL A   1      41.288  25.906  27.539  1.00  0.00     0.031 A 
ATOM     40  C   UNL A   1      40.580  26.813  28.329  1.00  0.00     0.074 A 
ATOM     41  C   UNL A   1      42.544  26.154  27.012  1.00  0.00     0.049 A 
ATOM     42  N   UNL A   1      40.975  28.020  28.736  1.00  0.00    -0.248 NA
ATOM     43  C   UNL A   1      39.231  26.565  28.860  1.00  0.00     0.031 C 
ATOM     44  C   UNL A   1      43.269  25.241  26.222  1.00  0.00     0.029 A 
ATOM     45  N   UNL A   1      43.308  27.293  27.149  1.00  0.00    -0.354 N 
ATOM     46  C   UNL A   1      40.032  28.582  29.494  1.00  0.00     0.074 A 
ATOM     47  C   UNL A   1      38.893  27.658  29.579  1.00  0.00     0.031 C 
ATOM     48  C   UNL A   1      44.446  25.825  25.876  1.00  0.00     0.029 A 
ATOM     49  C   UNL A   1      44.478  27.112  26.446  1.00  0.00     0.049 A 
ATOM     50  H   UNL A   1      43.059  28.097  27.660  1.00  0.00     0.167 HD
ATOM     51  C   UNL A   1      40.077  29.830  30.119  1.00  0.00     0.034 A 
ATOM     52  C   UNL A   1      45.525  28.008  26.296  1.00  0.00     0.034 A 
ATOM     53  C   UNL A   1      41.143  30.708  30.005  1.00  0.00     0.049 A 
ATOM     54  C   UNL A   1      45.545  29.280  26.874  1.00  0.00     0.074 A 
ATOM     55  C   UNL A   1      41.208  31.966  30.635  1.00  0.00     0.029 A 
ATOM     56  N   UNL A   1      42.303  30.537  29.282  1.00  0.00    -0.354 N 
ATOM     57  N   UNL A   1      44.619  29.827  27.664  1.00  0.00    -0.248 NA
ATOM     58  C   UNL A   1      46.634  30.249  26.696  1.00  0.00     0.031 C 
ATOM     59  C   UNL A   1      42.386  32.550  30.289  1.00  0.00     0.029 A 
ATOM     60  C   UNL A   1      43.076  31.667  29.436  1.00  0.00     0.049 A 
ATOM     61  H   UNL A   1      42.539  29.745  28.747  1.00  0.00     0.167 HD
ATOM     62  C   UNL A   1      44.998  31.050  28.037  1.00  0.00     0.074 A 
ATOM     63  C   UNL A   1      46.296  31.343  27.414  1.00  0.00     0.031 C 
ATOM     64  C   UNL A   1      44.315  31.934  28.875  1.00  0.00     0.034 A 
BRANCH  51  65
ATOM     65  C   UNL A   1      38.891  30.248  30.972  1.00  0.00     0.023 A 
ATOM     66  C   UNL A   1      37.864  30.995  30.418  1.00  0.00     0.031 A 
ATOM     67  C   UNL A   1      38.938  30.001  32.276  1.00  0.00     0.131 A 
ATOM     68  C   UNL A   1      37.079  31.687  31.372  1.00  0.00     0.055 A 
ATOM     69  C   UNL A   1      38.053  30.607  33.135  1.00  0.00     0.041 A 
ATOM     70  F   UNL A   1      39.849  29.159  32.755  1.00  0.00    -0.206 F 
ATOM     71  C   UNL A   1      37.048  31.405  32.662  1.00  0.00     0.022 A 
BRANCH  68  72
ATOM     72  S   UNL A   1      36.048  33.052  30.782  1.00  0.00     0.124 S 
ATOM     73  O   UNL A   1      36.090  34.198  31.796  1.00  0.00    -0.237 OA
ATOM     74  O   UNL A   1      36.577  33.544  29.432  1.00  0.00    -0.237 OA
ATOM     75  O   UNL A   1      34.437  32.511  30.599  1.00  0.00    -0.744 OA
ENDBRANCH  68  72
ENDBRANCH  51  65
BRANCH  52  76
ATOM     76  C   UNL A   1      46.718  27.583  25.458  1.00  0.00     0.023 A 
ATOM     77  C   UNL A   1      46.965  28.133  24.210  1.00  0.00     0.031 A 
ATOM     78  C   UNL A   1      47.587  26.756  26.028  1.00  0.00     0.131 A 
ATOM     79  C   UNL A   1      48.032  27.520  23.513  1.00  0.00     0.055 A 
ATOM     80  C   UNL A   1      48.683  26.303  25.334  1.00  0.00     0.041 A 
ATOM     81  F   UNL A   1      47.395  26.364  27.285  1.00  0.00    -0.206 F 
ATOM     82  C   UNL A   1      48.955  26.760  24.074  1.00  0.00     0.022 A 
BRANCH  79  83
ATOM     83  S   UNL A   1      48.140  27.796  21.728  1.00  0.00     0.124 S 
ATOM     84  O   UNL A   1      46.792  28.302  21.207  1.00  0.00    -0.237 OA
ATOM     85  O   UNL A   1      49.223  28.838  21.438  1.00  0.00    -0.237 OA
ATOM     86  O   UNL A   1      48.538  26.328  20.948  1.00  0.00    -0.744 OA
ENDBRANCH  79  83
ENDBRANCH  52  76
BRANCH  64  87
ATOM     87  C   UNL A   1      44.970  33.269  29.191  1.00  0.00     0.023 A 
ATOM     88  C   UNL A   1      44.709  34.423  28.472  1.00  0.00     0.031 A 
ATOM     89  C   UNL A   1      45.765  33.283  30.254  1.00  0.00     0.131 A 
ATOM     90  C   UNL A   1      45.573  35.500  28.785  1.00  0.00     0.055 A 
ATOM     91  C   UNL A   1      46.476  34.413  30.580  1.00  0.00     0.041 A 
ATOM     92  F   UNL A   1      45.876  32.194  31.009  1.00  0.00    -0.206 F 
ATOM     93  C   UNL A   1      46.312  35.574  29.877  1.00  0.00     0.022 A 
BRANCH  90  94
ATOM     94  S   UNL A   1      45.668  36.873  27.609  1.00  0.00     0.124 S 
ATOM     95  O   UNL A   1      46.523  36.456  26.408  1.00  0.00    -0.237 OA
ATOM     96  O   UNL A   1      44.261  37.235  27.132  1.00  0.00    -0.237 OA
ATOM     97  O   UNL A   1      46.379  38.228  28.371  1.00  0.00    -0.744 OA
ENDBRANCH  90  94
ENDBRANCH  64  87
ENDBRANCH  38  39
ENDBRANCH  31  33
ENDBRANCH  30  31
ENDBRANCH  29  30
ENDBRANCH   1  29
TORSDOF 19
ENDMDL
MODEL 2
REMARK VINA RESULT:     -12.1      1.519      2.071
REMARK SMILES O=C(OCCOCCOC(=O)c1ccc(-c2c3nc(c(-c4cc(S(=O)(=O)[O-])ccc4F)c4ccc([nH]4)c(-c4cc(S(=O)(=O)[O-])ccc4F)c4nc(c(-c5cc(S(=O)(=O)[O-])ccc5F)c5ccc2[nH]5)C=C4)C=C3)cc1)C1=Cc2cc(S(F)(F)(F)(F)F)cc(Br)c2O[C@H]1C(F)(F)F
REMARK SMILES IDX 7 1 6 2 5 3 4 4 3 5 2 6 1 7 75 8 76 9 91 10 77 11 90 12
REMARK SMILES IDX 78 13 89 14 79 15 87 16 86 17 88 18 92 19 93 20 94 21 95 22
REMARK SMILES IDX 80 23 81 24 82 25 83 26 84 27 85 28 8 29 9 30 10 31 11 32
REMARK SMILES IDX 12 33 13 34 74 35 14 36 73 37 15 38 16 39 17 40 67 41 18 42
REMARK SMILES IDX 72 43 66 44 68 45 19 46 71 47 65 48 64 49 20 51 52 52 32 53
REMARK SMILES IDX 51 54 33 55 36 56 50 57 69 58 34 59 35 60 49 62 70 63 37 64
REMARK SMILES IDX 21 65 22 66 30 67 23 68 29 69 31 70 28 71 24 72 25 73 26 74
REMARK SMILES IDX 27 75 53 76 54 77 62 78 55 79 61 80 63 81 60 82 56 83 57 84
REMARK SMILES IDX 58 85 59 86 38 87 39 88 47 89 40 90 46 91 48 92 45 93 41 94
REMARK SMILES IDX 42 95 43 96 44 97
REMARK H PARENT 68 50 36 61
REMARK Flexibility Score: inf
ROOT
ATOM      1  C   UNL A   1      36.415  21.743  25.130  1.00  0.00     0.202 C 
ENDROOT
BRANCH   1   2
ATOM      2  O   UNL A   1      36.726  22.197  23.821  1.00  0.00    -0.374 OA
BRANCH   2   3
ATOM      3  C   UNL A   1      35.585  22.824  23.254  1.00  0.00     0.202 C 
BRANCH   3   4
ATOM      4  C   UNL A   1      35.076  23.899  24.199  1.00  0.00     0.261 C 
BRANCH   4   5
ATOM      5  O   UNL A   1      33.685  23.716  24.421  1.00  0.00    -0.460 OA
BRANCH   5   6
ATOM      6  C   UNL A   1      32.982  24.597  25.284  1.00  0.00     0.338 C 
ATOM      7  O   UNL A   1      33.468  25.737  25.562  1.00  0.00    -0.246 OA
BRANCH   6   8
ATOM      8  C   UNL A   1      31.646  24.175  25.875  1.00  0.00     0.087 C 
ATOM      9  C   UNL A   1      30.497  24.773  25.456  1.00  0.00     0.027 C 
ATOM     10  C   UNL A   1      31.594  23.086  26.935  1.00  0.00     0.316 C 
ATOM     11  C   UNL A   1      30.550  25.862  24.397  1.00  0.00     0.020 A 
ATOM     12  O   UNL A   1      32.103  24.413  23.330  1.00  0.00    -0.474 OA
ATOM     13  C   UNL A   1      29.902  27.079  24.527  1.00  0.00     0.036 A 
ATOM     14  C   UNL A   1      31.330  25.604  23.353  1.00  0.00     0.142 A 
ATOM     15  C   UNL A   1      29.911  27.861  23.349  1.00  0.00     0.109 A 
ATOM     16  C   UNL A   1      31.394  26.478  22.296  1.00  0.00     0.062 A 
ATOM     17  C   UNL A   1      30.732  27.674  22.331  1.00  0.00     0.044 A 
ATOM     18  Br  UNL A   1      32.450  26.006  20.714  1.00  0.00    -0.047 Br
BRANCH  10  19
ATOM     19  C   UNL A   1      33.001  22.590  27.221  1.00  0.00     0.430 C 
ATOM     20  F   UNL A   1      32.947  21.932  28.375  1.00  0.00    -0.167 F 
ATOM     21  F   UNL A   1      33.338  21.749  26.247  1.00  0.00    -0.167 F 
ATOM     22  F   UNL A   1      33.909  23.558  27.304  1.00  0.00    -0.167 F 
ENDBRANCH  10  19
BRANCH  15  23
ATOM     23  S   UNL A   1      28.713  29.213  23.227  1.00  0.00     0.310 S 
ATOM     24  F   UNL A   1      29.047  29.458  21.695  1.00  0.00    -0.094 F 
ATOM     25  F   UNL A   1      29.867  30.230  23.569  1.00  0.00    -0.094 F 
ATOM     26  F   UNL A   1      27.684  30.374  23.125  1.00  0.00    -0.094 F 
ATOM     27  F   UNL A   1      27.603  28.197  22.748  1.00  0.00    -0.094 F 
ATOM     28  F   UNL A   1      29.772  28.039  23.216  1.00  0.00    -0.094 F 
ENDBRANCH  15  23
ENDBRANCH   6   8
ENDBRANCH   5   6
ENDBRANCH   4   5
ENDBRANCH   3   4
ENDBRANCH   2   3
ENDBRANCH   1   2
BRANCH   1  29
ATOM     29  C   UNL A   1      37.215  20.486  25.435  1.00  0.00     0.261 C 
BRANCH  29  30
ATOM     30  O   UNL A   1      38.579  20.703  25.107  1.00  0.00    -0.460 OA
BRANCH  30  31
ATOM     31  C   UNL A   1      39.567  20.666  26.126  1.00  0.00     0.338 C 
ATOM     32  O   UNL A   1      39.969  19.549  26.583  1.00  0.00    -0.246 OA
BRANCH  31  33
ATOM     33  C   UNL A   1      40.144  21.962  26.673  1.00  0.00     0.060 A 
ATOM     34  C   UNL A   1      41.152  22.020  27.622  1.00  0.00     0.016 A 
ATOM     35  C   UNL A   1      39.685  23.061  26.087  1.00  0.00     0.016 A 
ATOM     36  C   UNL A   1      41.413  23.326  28.099  1.00  0.00     0.010 A 
ATOM     37  C   UNL A   1      40.087  24.303  26.516  1.00  0.00     0.010 A 
ATOM     38  C   UNL A   1      41.037  24.436  27.491  1.00  0.00    -0.014 A 
BRANCH  38  39
ATOM     39  C   UNL A   1      41.625  25.790  27.855  1.00  0.00     0.031 A 
ATOM     40  C   UNL A   1      40.761  26.645  28.540  1.00  0.00     0.074 A 
ATOM     41  C   UNL A   1      42.878  26.160  27.396  1.00  0.00     0.049 A 
ATOM     42  N   UNL A   1      40.983  27.911  28.896  1.00  0.00    -0.248 NA
ATOM     43  C   UNL A   1      39.417  26.264  28.999  1.00  0.00     0.031 C 
ATOM     44  C   UNL A   1      43.760  25.300  26.712  1.00  0.00     0.029 A 
ATOM     45  N   UNL A   1      43.491  27.389  27.510  1.00  0.00    -0.354 N 
ATOM     46  C   UNL A   1      39.928  28.396  29.556  1.00  0.00     0.074 A 
ATOM     47  C   UNL A   1      38.903  27.345  29.625  1.00  0.00     0.031 C 
ATOM     48  C   UNL A   1      44.881  26.003  26.407  1.00  0.00     0.029 A 
ATOM     49  C   UNL A   1      44.721  27.313  26.895  1.00  0.00     0.049 A 
ATOM     50  H   UNL A   1      43.114  28.183  27.953  1.00  0.00     0.167 HD
ATOM     51  C   UNL A   1      39.781  29.672  30.103  1.00  0.00     0.034 A 
ATOM     52  C   UNL A   1      45.664  28.321  26.757  1.00  0.00     0.034 A 
ATOM     53  C   UNL A   1      40.742  30.665  30.003  1.00  0.00     0.049 A 
ATOM     54  C   UNL A   1      45.493  29.615  27.255  1.00  0.00     0.074 A 
ATOM     55  C   UNL A   1      40.614  31.955  30.555  1.00  0.00     0.029 A 
ATOM     56  N   UNL A   1      41.963  30.598  29.368  1.00  0.00    -0.354 N 
ATOM     57  N   UNL A   1      44.455  30.087  27.948  1.00  0.00    -0.248 NA
ATOM     58  C   UNL A   1      46.470  30.699  27.087  1.00  0.00     0.031 C 
ATOM     59  C   UNL A   1      41.736  32.658  30.249  1.00  0.00     0.029 A 
ATOM     60  C   UNL A   1      42.584  31.820  29.500  1.00  0.00     0.049 A 
ATOM     61  H   UNL A   1      42.327  29.813  28.900  1.00  0.00     0.167 HD
ATOM     62  C   UNL A   1      44.660  31.366  28.267  1.00  0.00     0.074 A 
ATOM     63  C   UNL A   1      45.955  31.780  27.711  1.00  0.00     0.031 C 
ATOM     64  C   UNL A   1      43.820  32.204  29.003  1.00  0.00     0.034 A 
BRANCH  51  65
ATOM     65  C   UNL A   1      38.497  29.988  30.851  1.00  0.00     0.023 A 
ATOM     66  C   UNL A   1      37.447  30.612  30.197  1.00  0.00     0.031 A 
ATOM     67  C   UNL A   1      38.467  29.781  32.162  1.00  0.00     0.131 A 
ATOM     68  C   UNL A   1      36.525  31.244  31.066  1.00  0.00     0.055 A 
ATOM     69  C   UNL A   1      37.462  30.315  32.932  1.00  0.00     0.041 A 
ATOM     70  F   UNL A   1      39.418  29.049  32.736  1.00  0.00    -0.206 F 
ATOM     71  C   UNL A   1      36.422  30.994  32.359  1.00  0.00     0.022 A 
BRANCH  68  72
ATOM     72  S   UNL A   1      35.412  32.480  30.355  1.00  0.00     0.124 S 
ATOM     73  O   UNL A   1      36.202  33.749  30.024  1.00  0.00    -0.237 OA
ATOM     74  O   UNL A   1      34.780  31.923  29.076  1.00  0.00    -0.237 OA
ATOM     75  O   UNL A   1      34.181  32.854  31.482  1.00  0.00    -0.744 OA
ENDBRANCH  68  72
ENDBRANCH  51  65
BRANCH  52  76
ATOM     76  C   UNL A   1      46.955  27.998  26.025  1.00  0.00     0.023 A 
ATOM     77  C   UNL A   1      47.121  28.289  24.681  1.00  0.00     0.031 A 
ATOM     78  C   UNL A   1      47.964  27.545  26.761  1.00  0.00     0.131 A 
ATOM     79  C   UNL A   1      48.327  27.793  24.131  1.00  0.00     0.055 A 
ATOM     80  C   UNL A   1      49.161  27.208  26.176  1.00  0.00     0.041 A 
ATOM     81  F   UNL A   1      47.815  27.419  28.077  1.00  0.00    -0.206 F 
ATOM     82  C   UNL A   1      49.374  27.414  24.841  1.00  0.00     0.022 A 
BRANCH  79  83
ATOM     83  S   UNL A   1      48.442  27.670  22.329  1.00  0.00     0.124 S 
ATOM     84  O   UNL A   1      48.638  26.205  21.930  1.00  0.00    -0.237 OA
ATOM     85  O   UNL A   1      47.153  28.203  21.699  1.00  0.00    -0.237 OA
ATOM     86  O   UNL A   1      49.771  28.594  21.779  1.00  0.00    -0.744 OA
ENDBRANCH  79  83
ENDBRANCH  52  76
BRANCH  64  87
ATOM     87  C   UNL A   1      44.289  33.624  29.276  1.00  0.00     0.023 A 
ATOM     88  C   UNL A   1      43.850  34.715  28.545  1.00  0.00     0.031 A 
ATOM     89  C   UNL A   1      45.103  33.772  30.314  1.00  0.00     0.131 A 
ATOM     90  C   UNL A   1      44.561  35.909  28.814  1.00  0.00     0.055 A 
ATOM     91  C   UNL A   1      45.656  34.998  30.600  1.00  0.00     0.041 A 
ATOM     92  F   UNL A   1      45.386  32.726  31.084  1.00  0.00    -0.206 F 
ATOM     93  C   UNL A   1      45.312  36.109  29.881  1.00  0.00     0.022 A 
BRANCH  90  94
ATOM     94  S   UNL A   1      44.432  37.256  27.611  1.00  0.00     0.124 S 
ATOM     95  O   UNL A   1      45.775  37.434  26.899  1.00  0.00    -0.237 OA
ATOM     96  O   UNL A   1      43.349  36.919  26.584  1.00  0.00    -0.237 OA
ATOM     97  O   UNL A   1      44.020  38.704  28.421  1.00  0.00    -0.744 OA
ENDBRANCH  90  94
ENDBRANCH  64  87
ENDBRANCH  38  39
ENDBRANCH  31  33
ENDBRANCH  30  31
ENDBRANCH  29  30
ENDBRANCH   1  29
TORSDOF 19
ENDMDL
MODEL 3
REMARK VINA RESULT:     -12.1      4.952      9.925
REMARK SMILES O=C(OCCOCCOC(=O)c1ccc(-c2c3nc(c(-c4cc(S(=O)(=O)[O-])ccc4F)c4ccc([nH]4)c(-c4cc(S(=O)(=O)[O-])ccc4F)c4nc(c(-c5cc(S(=O)(=O)[O-])ccc5F)c5ccc2[nH]5)C=C4)C=C3)cc1)C1=Cc2cc(S(F)(F)(F)(F)F)cc(Br)c2O[C@H]1C(F)(F)F
REMARK SMILES IDX 7 1 6 2 5 3 4 4 3 5 2 6 1 7 75 8 76 9 91 10 77 11 90 12
REMARK SMILES IDX 78 13 89 14 79 15 87 16 86 17 88 18 92 19 93 20 94 21 95 22
REMARK SMILES IDX 80 23 81 24 82 25 83 26 84 27 85 28 8 29 9 30 10 31 11 32
REMARK SMILES IDX 12 33 13 34 74 35 14 36 73 37 15 38 16 39 17 40 67 41 18 42
REMARK SMILES IDX 72 43 66 44 68 45 19 46 71 47 65 48 64 49 20 51 52 52 32 53
REMARK SMILES IDX 51 54 33 55 36 56 50 57 69 58 34 59 35 60 49 62 70 63 37 64
REMARK SMILES IDX 21 65 22 66 30 67 23 68 29 69 31 70 28 71 24 72 25 73 26 74
REMARK SMILES IDX 27 75 53 76 54 77 62 78 55 79 61 80 63 81 60 82 56 83 57 84
REMARK SMILES IDX 58 85 59 86 38 87 39 88 47 89 40 90 46 91 48 92 45 93 41 94
REMARK SMILES IDX 42 95 43 96 44 97
REMARK H PARENT 68 50 36 61
REMARK Flexibility Score: inf
ROOT
ATOM      1  C   UNL A   1      31.580  30.877  26.658  1.00  0.00     0.202 C 
ENDROOT
BRANCH   1   2
ATOM      2  O   UNL A   1      32.186  29.674  26.208  1.00  0.00    -0.374 OA
BRANCH   2   3
ATOM      3  C   UNL A   1      31.627  28.572  26.908  1.00  0.00     0.202 C 
BRANCH   3   4
ATOM      4  C   UNL A   1      32.583  27.393  26.843  1.00  0.00     0.261 C 
BRANCH   4   5
ATOM      5  O   UNL A   1      31.855  26.208  26.557  1.00  0.00    -0.460 OA
BRANCH   5   6
ATOM      6  C   UNL A   1      32.274  25.354  25.503  1.00  0.00     0.338 C 
ATOM      7  O   UNL A   1      33.501  25.302  25.177  1.00  0.00    -0.246 OA
BRANCH   6   8
ATOM      8  C   UNL A   1      31.254  24.502  24.765  1.00  0.00     0.087 C 
ATOM      9  C   UNL A   1      30.459  25.064  23.814  1.00  0.00     0.027 C 
ATOM     10  C   UNL A   1      31.123  23.023  25.088  1.00  0.00     0.316 C 
ATOM     11  C   UNL A   1      30.590  26.544  23.491  1.00  0.00     0.020 A 
ATOM     12  O   UNL A   1      32.925  26.114  23.599  1.00  0.00    -0.474 OA
ATOM     13  C   UNL A   1      29.506  27.403  23.415  1.00  0.00     0.036 A 
ATOM     14  C   UNL A   1      31.834  26.990  23.358  1.00  0.00     0.142 A 
ATOM     15  C   UNL A   1      29.825  28.683  22.905  1.00  0.00     0.109 A 
ATOM     16  C   UNL A   1      32.074  28.290  22.988  1.00  0.00     0.062 A 
ATOM     17  C   UNL A   1      31.047  29.180  22.837  1.00  0.00     0.044 A 
ATOM     18  Br  UNL A   1      33.917  28.880  22.671  1.00  0.00    -0.047 Br
BRANCH  10  19
ATOM     19  C   UNL A   1      32.117  22.651  26.175  1.00  0.00     0.430 C 
ATOM     20  F   UNL A   1      31.892  21.377  26.481  1.00  0.00    -0.167 F 
ATOM     21  F   UNL A   1      33.339  22.776  25.665  1.00  0.00    -0.167 F 
ATOM     22  F   UNL A   1      32.019  23.395  27.274  1.00  0.00    -0.167 F 
ENDBRANCH  10  19
BRANCH  15  23
ATOM     23  S   UNL A   1      28.463  29.712  22.302  1.00  0.00     0.310 S 
ATOM     24  F   UNL A   1      28.391  30.527  23.661  1.00  0.00    -0.094 F 
ATOM     25  F   UNL A   1      27.446  28.692  22.941  1.00  0.00    -0.094 F 
ATOM     26  F   UNL A   1      27.294  30.595  21.782  1.00  0.00    -0.094 F 
ATOM     27  F   UNL A   1      29.495  30.793  21.792  1.00  0.00    -0.094 F 
ATOM     28  F   UNL A   1      29.659  28.884  22.922  1.00  0.00    -0.094 F 
ENDBRANCH  15  23
ENDBRANCH   6   8
ENDBRANCH   5   6
ENDBRANCH   4   5
ENDBRANCH   3   4
ENDBRANCH   2   3
ENDBRANCH   1   2
BRANCH   1  29
ATOM     29  C   UNL A   1      32.590  32.010  26.589  1.00  0.00     0.261 C 
BRANCH  29  30
ATOM     30  O   UNL A   1      32.072  33.148  27.264  1.00  0.00    -0.460 OA
BRANCH  30  31
ATOM     31  C   UNL A   1      32.923  33.932  28.086  1.00  0.00     0.338 C 
ATOM     32  O   UNL A   1      32.580  35.112  28.414  1.00  0.00    -0.246 OA
BRANCH  31  33
ATOM     33  C   UNL A   1      34.246  33.362  28.573  1.00  0.00     0.060 A 
ATOM     34  C   UNL A   1      35.481  33.920  28.285  1.00  0.00     0.016 A 
ATOM     35  C   UNL A   1      34.131  32.333  29.403  1.00  0.00     0.016 A 
ATOM     36  C   UNL A   1      36.577  33.130  28.704  1.00  0.00     0.010 A 
ATOM     37  C   UNL A   1      35.248  31.692  29.882  1.00  0.00     0.010 A 
ATOM     38  C   UNL A   1      36.503  32.153  29.590  1.00  0.00    -0.014 A 
BRANCH  38  39
ATOM     39  C   UNL A   1      37.743  31.571  30.249  1.00  0.00     0.031 A 
ATOM     40  C   UNL A   1      38.411  30.602  29.500  1.00  0.00     0.074 A 
ATOM     41  C   UNL A   1      38.067  31.900  31.554  1.00  0.00     0.049 A 
ATOM     42  N   UNL A   1      39.461  29.868  29.870  1.00  0.00    -0.248 NA
ATOM     43  C   UNL A   1      38.046  30.227  28.125  1.00  0.00     0.031 C 
ATOM     44  C   UNL A   1      37.403  32.884  32.314  1.00  0.00     0.029 A 
ATOM     45  N   UNL A   1      39.060  31.358  32.341  1.00  0.00    -0.354 N 
ATOM     46  C   UNL A   1      39.834  29.061  28.874  1.00  0.00     0.074 A 
ATOM     47  C   UNL A   1      38.925  29.276  27.740  1.00  0.00     0.031 C 
ATOM     48  C   UNL A   1      37.979  32.925  33.544  1.00  0.00     0.029 A 
ATOM     49  C   UNL A   1      39.012  31.970  33.574  1.00  0.00     0.049 A 
ATOM     50  H   UNL A   1      39.692  30.656  32.069  1.00  0.00     0.167 HD
ATOM     51  C   UNL A   1      40.897  28.156  28.867  1.00  0.00     0.034 A 
ATOM     52  C   UNL A   1      39.816  31.721  34.676  1.00  0.00     0.034 A 
ATOM     53  C   UNL A   1      41.728  27.940  29.955  1.00  0.00     0.049 A 
ATOM     54  C   UNL A   1      40.843  30.774  34.688  1.00  0.00     0.074 A 
ATOM     55  C   UNL A   1      42.809  27.036  29.962  1.00  0.00     0.029 A 
ATOM     56  N   UNL A   1      41.666  28.533  31.196  1.00  0.00    -0.354 N 
ATOM     57  N   UNL A   1      41.241  29.996  33.680  1.00  0.00    -0.248 NA
ATOM     58  C   UNL A   1      41.679  30.479  35.859  1.00  0.00     0.031 C 
ATOM     59  C   UNL A   1      43.385  27.078  31.193  1.00  0.00     0.029 A 
ATOM     60  C   UNL A   1      42.672  28.007  31.975  1.00  0.00     0.049 A 
ATOM     61  H   UNL A   1      41.015  29.215  31.478  1.00  0.00     0.167 HD
ATOM     62  C   UNL A   1      42.264  29.233  34.064  1.00  0.00     0.074 A 
ATOM     63  C   UNL A   1      42.557  29.527  35.474  1.00  0.00     0.031 C 
ATOM     64  C   UNL A   1      42.970  28.305  33.296  1.00  0.00     0.034 A 
BRANCH  51  65
ATOM     65  C   UNL A   1      41.158  27.366  27.596  1.00  0.00     0.023 A 
ATOM     66  C   UNL A   1      40.803  26.029  27.522  1.00  0.00     0.031 A 
ATOM     67  C   UNL A   1      41.853  27.949  26.626  1.00  0.00     0.131 A 
ATOM     68  C   UNL A   1      41.481  25.311  26.508  1.00  0.00     0.055 A 
ATOM     69  C   UNL A   1      42.373  27.206  25.594  1.00  0.00     0.041 A 
ATOM     70  F   UNL A   1      42.049  29.265  26.654  1.00  0.00    -0.206 F 
ATOM     71  C   UNL A   1      42.111  25.868  25.489  1.00  0.00     0.022 A 
BRANCH  68  72
ATOM     72  S   UNL A   1      41.486  23.505  26.616  1.00  0.00     0.124 S 
ATOM     73  O   UNL A   1      42.348  22.928  25.490  1.00  0.00    -0.237 OA
ATOM     74  O   UNL A   1      42.061  23.077  27.969  1.00  0.00    -0.237 OA
ATOM     75  O   UNL A   1      39.887  22.921  26.466  1.00  0.00    -0.744 OA
ENDBRANCH  68  72
ENDBRANCH  51  65
BRANCH  52  76
ATOM     76  C   UNL A   1      39.566  32.524  35.941  1.00  0.00     0.023 A 
ATOM     77  C   UNL A   1      38.835  32.007  36.999  1.00  0.00     0.031 A 
ATOM     78  C   UNL A   1      40.189  33.693  36.042  1.00  0.00     0.131 A 
ATOM     79  C   UNL A   1      38.582  32.939  38.032  1.00  0.00     0.055 A 
ATOM     80  C   UNL A   1      40.001  34.494  37.143  1.00  0.00     0.041 A 
ATOM     81  F   UNL A   1      41.003  34.091  35.068  1.00  0.00    -0.206 F 
ATOM     82  C   UNL A   1      39.244  34.070  38.199  1.00  0.00     0.022 A 
BRANCH  79  83
ATOM     83  S   UNL A   1      37.257  32.557  39.204  1.00  0.00     0.124 S 
ATOM     84  O   UNL A   1      37.412  33.430  40.452  1.00  0.00    -0.237 OA
ATOM     85  O   UNL A   1      35.902  32.835  38.551  1.00  0.00    -0.237 OA
ATOM     86  O   UNL A   1      37.348  30.908  39.648  1.00  0.00    -0.744 OA
ENDBRANCH  79  83
ENDBRANCH  52  76
BRANCH  64  87
ATOM     87  C   UNL A   1      44.135  27.577  33.947  1.00  0.00     0.023 A 
ATOM     88  C   UNL A   1      43.998  26.356  34.585  1.00  0.00     0.031 A 
ATOM     89  C   UNL A   1      45.323  28.152  33.809  1.00  0.00     0.131 A 
ATOM     90  C   UNL A   1      45.148  25.952  35.304  1.00  0.00     0.055 A 
ATOM     91  C   UNL A   1      46.431  27.627  34.430  1.00  0.00     0.041 A 
ATOM     92  F   UNL A   1      45.443  29.247  33.063  1.00  0.00    -0.206 F 
ATOM     93  C   UNL A   1      46.356  26.453  35.127  1.00  0.00     0.022 A 
BRANCH  90  94
ATOM     94  S   UNL A   1      44.949  24.658  36.555  1.00  0.00     0.124 S 
ATOM     95  O   UNL A   1      46.289  24.415  37.254  1.00  0.00    -0.237 OA
ATOM     96  O   UNL A   1      43.908  25.101  37.585  1.00  0.00    -0.237 OA
ATOM     97  O   UNL A   1      44.428  23.215  35.802  1.00  0.00    -0.744 OA
ENDBRANCH  90  94
ENDBRANCH  64  87
ENDBRANCH  38  39
ENDBRANCH  31  33
ENDBRANCH  30  31
ENDBRANCH  29  30
ENDBRANCH   1  29
TORSDOF 19
ENDMDL
