MODEL 1
REMARK VINA RESULT:     -12.4      0.000      0.000
REMARK SMILES COC(=O)c1sc(SCC(=O)OCCOCCOC(=O)c2ccc(-c3c4nc(c(-c5cc(S(=O)(=O)[O-])ccc5F)c5ccc([nH]5)c(-c5cc(S(=O)(=O)[O-])ccc5F)c5nc(c(-c6cc(S(=O)(=O)[O-])ccc6F)c6ccc3[nH]6)C=C5)C=C4)cc2)c(NC(=O)c2ccccc2)c1O
REMARK SMILES IDX 14 1 13 2 12 3 10 4 11 5 9 6 8 7 7 8 5 9 6 10 94 11 84 12
REMARK SMILES IDX 3 13 4 14 2 15 1 16 95 17 85 19 86 20 87 22 88 23 89 24
REMARK SMILES IDX 93 25 90 26 92 27 91 28 15 29 16 30 17 31 18 32 19 33 20 34
REMARK SMILES IDX 21 35 22 36 83 37 23 38 82 39 24 40 25 41 26 42 76 43 27 44
REMARK SMILES IDX 81 45 75 46 77 47 28 48 80 49 74 50 73 51 29 53 61 54 41 55
REMARK SMILES IDX 60 56 42 57 45 58 59 59 78 60 43 61 44 62 58 64 79 65 46 66
REMARK SMILES IDX 30 67 31 68 39 69 32 70 38 71 40 72 37 73 33 74 34 75 35 76
REMARK SMILES IDX 36 77 62 78 63 79 71 80 64 81 70 82 72 83 69 84 65 85 66 86
REMARK SMILES IDX 67 87 68 88 47 89 48 90 56 91 49 92 55 93 57 94 54 95 50 96
REMARK SMILES IDX 51 97 52 98 53 99
REMARK H PARENT 95 18 85 21 77 52 45 63
REMARK Flexibility Score: inf
ROOT
ATOM      1  C   UNL A   1      32.845  29.323  24.686  1.00  0.00     0.202 C 
ENDROOT
BRANCH   1   2
ATOM      2  C   UNL A   1      31.426  28.793  24.914  1.00  0.00     0.261 C 
BRANCH   2   3
ATOM      3  O   UNL A   1      31.408  27.348  24.841  1.00  0.00    -0.463 OA
BRANCH   3   4
ATOM      4  C   UNL A   1      30.982  26.658  25.949  1.00  0.00     0.316 C 
ATOM      5  O   UNL A   1      31.094  27.072  27.098  1.00  0.00    -0.251 OA
BRANCH   4   6
ATOM      6  C   UNL A   1      30.473  25.070  25.531  1.00  0.00     0.198 C 
BRANCH   6   7
ATOM      7  S   UNL A   1      31.287  23.500  23.661  1.00  0.00    -0.101 SA
BRANCH   7   8
ATOM      8  C   UNL A   1      31.836  21.788  24.075  1.00  0.00     0.089 A 
ATOM      9  C   UNL A   1      32.504  19.390  23.839  1.00  0.00     0.157 A 
ATOM     10  S   UNL A   1      32.099  20.675  22.776  1.00  0.00    -0.116 S 
ATOM     11  C   UNL A   1      32.546  19.836  25.140  1.00  0.00     0.166 A 
ATOM     12  C   UNL A   1      32.156  21.198  25.296  1.00  0.00     0.109 A 
BRANCH   9  13
ATOM     13  C   UNL A   1      32.735  18.060  23.308  1.00  0.00     0.352 C 
ATOM     14  O   UNL A   1      32.811  17.757  22.127  1.00  0.00    -0.245 OA
BRANCH  13  15
ATOM     15  O   UNL A   1      32.850  17.184  24.353  1.00  0.00    -0.465 OA
ATOM     16  C   UNL A   1      33.762  16.090  24.168  1.00  0.00     0.282 C 
ENDBRANCH  13  15
ENDBRANCH   9  13
BRANCH  11  17
ATOM     17  O   UNL A   1      32.860  19.052  26.198  1.00  0.00    -0.504 OA
ATOM     18  H   UNL A   1      33.203  19.436  26.981  1.00  0.00     0.293 HD
ENDBRANCH  11  17
BRANCH  12  19
ATOM     19  N   UNL A   1      32.081  21.747  26.573  1.00  0.00    -0.317 N 
ATOM     20  C   UNL A   1      33.076  22.410  27.229  1.00  0.00     0.255 C 
ATOM     21  H   UNL A   1      31.225  21.648  27.049  1.00  0.00     0.170 HD
ATOM     22  O   UNL A   1      33.023  22.718  28.410  1.00  0.00    -0.269 OA
BRANCH  20  23
ATOM     23  C   UNL A   1      34.245  22.737  26.413  1.00  0.00     0.040 A 
ATOM     24  C   UNL A   1      35.431  21.429  26.120  1.00  0.00     0.014 A 
ATOM     25  C   UNL A   1      34.230  24.219  25.330  1.00  0.00     0.014 A 
ATOM     26  C   UNL A   1      36.567  21.559  24.732  1.00  0.00     0.001 A 
ATOM     27  C   UNL A   1      35.367  24.326  23.941  1.00  0.00     0.001 A 
ATOM     28  C   UNL A   1      36.531  22.985  23.652  1.00  0.00     0.000 A 
ENDBRANCH  20  23
ENDBRANCH  12  19
ENDBRANCH   7   8
ENDBRANCH   6   7
ENDBRANCH   4   6
ENDBRANCH   3   4
ENDBRANCH   2   3
ENDBRANCH   1   2
BRANCH   1  29
ATOM     29  O   UNL A   1      33.653  29.297  25.867  1.00  0.00    -0.374 OA
BRANCH  29  30
ATOM     30  C   UNL A   1      33.071  29.861  27.039  1.00  0.00     0.202 C 
BRANCH  30  31
ATOM     31  C   UNL A   1      33.394  31.343  27.237  1.00  0.00     0.261 C 
BRANCH  31  32
ATOM     32  O   UNL A   1      34.240  31.547  28.372  1.00  0.00    -0.460 OA
BRANCH  32  33
ATOM     33  C   UNL A   1      35.431  32.150  28.137  1.00  0.00     0.338 C 
ATOM     34  O   UNL A   1      35.626  33.171  27.503  1.00  0.00    -0.246 OA
BRANCH  33  35
ATOM     35  C   UNL A   1      36.489  31.321  28.745  1.00  0.00     0.060 A 
ATOM     36  C   UNL A   1      37.685  31.950  29.086  1.00  0.00     0.016 A 
ATOM     37  C   UNL A   1      36.345  29.930  28.874  1.00  0.00     0.016 A 
ATOM     38  C   UNL A   1      38.773  31.167  29.425  1.00  0.00     0.010 A 
ATOM     39  C   UNL A   1      37.427  29.146  29.226  1.00  0.00     0.010 A 
ATOM     40  C   UNL A   1      38.649  29.770  29.436  1.00  0.00    -0.014 A 
BRANCH  40  41
ATOM     41  C   UNL A   1      39.862  29.002  29.652  1.00  0.00     0.031 A 
ATOM     42  C   UNL A   1      40.295  28.865  31.054  1.00  0.00     0.074 A 
ATOM     43  C   UNL A   1      40.552  28.429  28.651  1.00  0.00     0.049 A 
ATOM     44  N   UNL A   1      41.313  29.412  31.627  1.00  0.00    -0.248 NA
ATOM     45  C   UNL A   1      39.425  28.102  31.958  1.00  0.00     0.031 C 
ATOM     46  C   UNL A   1      40.098  28.184  27.283  1.00  0.00     0.029 A 
ATOM     47  N   UNL A   1      41.793  27.869  28.683  1.00  0.00    -0.354 N 
ATOM     48  C   UNL A   1      41.336  28.903  32.920  1.00  0.00     0.074 A 
ATOM     49  C   UNL A   1      40.072  28.243  33.115  1.00  0.00     0.031 C 
ATOM     50  C   UNL A   1      40.972  27.358  26.667  1.00  0.00     0.029 A 
ATOM     51  C   UNL A   1      42.111  27.148  27.544  1.00  0.00     0.049 A 
ATOM     52  H   UNL A   1      42.409  27.968  29.445  1.00  0.00     0.167 HD
ATOM     53  C   UNL A   1      42.482  28.889  33.653  1.00  0.00     0.034 A 
ATOM     54  C   UNL A   1      43.209  26.380  27.353  1.00  0.00     0.034 A 
ATOM     55  C   UNL A   1      43.469  29.787  33.104  1.00  0.00     0.049 A 
ATOM     56  C   UNL A   1      44.267  26.865  28.268  1.00  0.00     0.074 A 
ATOM     57  C   UNL A   1      43.580  31.154  32.960  1.00  0.00     0.029 A 
ATOM     58  N   UNL A   1      44.421  29.229  32.284  1.00  0.00    -0.354 N 
ATOM     59  N   UNL A   1      44.797  28.057  28.199  1.00  0.00    -0.248 NA
ATOM     60  C   UNL A   1      44.526  26.151  29.511  1.00  0.00     0.031 C 
ATOM     61  C   UNL A   1      44.363  31.358  31.787  1.00  0.00     0.029 A 
ATOM     62  C   UNL A   1      44.708  30.108  31.269  1.00  0.00     0.049 A 
ATOM     63  H   UNL A   1      44.830  28.342  32.406  1.00  0.00     0.167 HD
ATOM     64  C   UNL A   1      45.100  28.394  29.506  1.00  0.00     0.074 A 
ATOM     65  C   UNL A   1      45.058  27.137  30.238  1.00  0.00     0.031 C 
ATOM     66  C   UNL A   1      45.074  29.692  29.924  1.00  0.00     0.034 A 
BRANCH  53  67
ATOM     67  C   UNL A   1      42.848  27.826  34.669  1.00  0.00     0.023 A 
ATOM     68  C   UNL A   1      43.485  26.661  34.195  1.00  0.00     0.031 A 
ATOM     69  C   UNL A   1      42.376  27.766  35.999  1.00  0.00     0.131 A 
ATOM     70  C   UNL A   1      43.571  25.505  34.992  1.00  0.00     0.055 A 
ATOM     71  C   UNL A   1      42.526  26.639  36.812  1.00  0.00     0.041 A 
ATOM     72  F   UNL A   1      41.660  28.748  36.560  1.00  0.00    -0.206 F 
ATOM     73  C   UNL A   1      43.102  25.490  36.302  1.00  0.00     0.022 A 
BRANCH  70  74
ATOM     74  S   UNL A   1      44.144  23.965  34.229  1.00  0.00     0.124 S 
ATOM     75  O   UNL A   1      44.618  24.429  32.930  1.00  0.00    -0.237 OA
ATOM     76  O   UNL A   1      45.170  23.529  35.172  1.00  0.00    -0.237 OA
ATOM     77  O   UNL A   1      42.940  23.138  34.192  1.00  0.00    -0.744 OA
ENDBRANCH  70  74
ENDBRANCH  53  67
BRANCH  54  78
ATOM     78  C   UNL A   1      43.237  25.070  26.658  1.00  0.00     0.023 A 
ATOM     79  C   UNL A   1      42.439  23.986  27.063  1.00  0.00     0.031 A 
ATOM     80  C   UNL A   1      43.907  24.948  25.418  1.00  0.00     0.131 A 
ATOM     81  C   UNL A   1      42.336  22.841  26.241  1.00  0.00     0.055 A 
ATOM     82  C   UNL A   1      43.816  23.808  24.620  1.00  0.00     0.041 A 
ATOM     83  F   UNL A   1      44.604  25.971  24.900  1.00  0.00    -0.206 F 
ATOM     84  C   UNL A   1      43.019  22.750  25.025  1.00  0.00     0.022 A 
BRANCH  81  85
ATOM     85  S   UNL A   1      41.207  21.493  26.706  1.00  0.00     0.124 S 
ATOM     86  O   UNL A   1      40.004  21.825  25.953  1.00  0.00    -0.237 OA
ATOM     87  O   UNL A   1      41.940  20.309  26.269  1.00  0.00    -0.237 OA
ATOM     88  O   UNL A   1      41.087  21.636  28.157  1.00  0.00    -0.744 OA
ENDBRANCH  81  85
ENDBRANCH  54  78
BRANCH  66  89
ATOM     89  C   UNL A   1      45.230  30.774  28.882  1.00  0.00     0.023 A 
ATOM     90  C   UNL A   1      46.461  31.329  28.471  1.00  0.00     0.031 A 
ATOM     91  C   UNL A   1      44.065  31.185  28.207  1.00  0.00     0.131 A 
ATOM     92  C   UNL A   1      46.492  32.267  27.420  1.00  0.00     0.055 A 
ATOM     93  C   UNL A   1      44.100  32.102  27.158  1.00  0.00     0.041 A 
ATOM     94  F   UNL A   1      42.870  30.669  28.539  1.00  0.00    -0.206 F 
ATOM     95  C   UNL A   1      45.316  32.649  26.763  1.00  0.00     0.022 A 
BRANCH  92  96
ATOM     96  S   UNL A   1      48.072  32.993  26.879  1.00  0.00     0.124 S 
ATOM     97  O   UNL A   1      47.693  33.840  25.754  1.00  0.00    -0.237 OA
ATOM     98  O   UNL A   1      48.534  33.692  28.075  1.00  0.00    -0.237 OA
ATOM     99  O   UNL A   1      48.879  31.826  26.514  1.00  0.00    -0.744 OA
ENDBRANCH  92  96
ENDBRANCH  66  89
ENDBRANCH  40  41
ENDBRANCH  33  35
ENDBRANCH  32  33
ENDBRANCH  31  32
ENDBRANCH  30  31
ENDBRANCH  29  30
ENDBRANCH   1  29
TORSDOF 24
ENDMDL
MODEL 2
REMARK VINA RESULT:     -12.1      2.818      8.974
REMARK SMILES COC(=O)c1sc(SCC(=O)OCCOCCOC(=O)c2ccc(-c3c4nc(c(-c5cc(S(=O)(=O)[O-])ccc5F)c5ccc([nH]5)c(-c5cc(S(=O)(=O)[O-])ccc5F)c5nc(c(-c6cc(S(=O)(=O)[O-])ccc6F)c6ccc3[nH]6)C=C5)C=C4)cc2)c(NC(=O)c2ccccc2)c1O
REMARK SMILES IDX 14 1 13 2 12 3 10 4 11 5 9 6 8 7 7 8 5 9 6 10 94 11 84 12
REMARK SMILES IDX 3 13 4 14 2 15 1 16 95 17 85 19 86 20 87 22 88 23 89 24
REMARK SMILES IDX 93 25 90 26 92 27 91 28 15 29 16 30 17 31 18 32 19 33 20 34
REMARK SMILES IDX 21 35 22 36 83 37 23 38 82 39 24 40 25 41 26 42 76 43 27 44
REMARK SMILES IDX 81 45 75 46 77 47 28 48 80 49 74 50 73 51 29 53 61 54 41 55
REMARK SMILES IDX 60 56 42 57 45 58 59 59 78 60 43 61 44 62 58 64 79 65 46 66
REMARK SMILES IDX 30 67 31 68 39 69 32 70 38 71 40 72 37 73 33 74 34 75 35 76
REMARK SMILES IDX 36 77 62 78 63 79 71 80 64 81 70 82 72 83 69 84 65 85 66 86
REMARK SMILES IDX 67 87 68 88 47 89 48 90 56 91 49 92 55 93 57 94 54 95 50 96
REMARK SMILES IDX 51 97 52 98 53 99
REMARK H PARENT 95 18 85 21 77 52 45 63
REMARK Flexibility Score: inf
ROOT
ATOM      1  C   UNL A   1      41.894  21.039  27.025  1.00  0.00     0.202 C 
ENDROOT
BRANCH   1   2
ATOM      2  C   UNL A   1      40.421  21.390  27.252  1.00  0.00     0.261 C 
BRANCH   2   3
ATOM      3  O   UNL A   1      39.905  22.156  26.138  1.00  0.00    -0.463 OA
BRANCH   3   4
ATOM      4  C   UNL A   1      38.592  21.965  25.785  1.00  0.00     0.316 C 
ATOM      5  O   UNL A   1      38.150  20.912  25.338  1.00  0.00    -0.251 OA
BRANCH   4   6
ATOM      6  C   UNL A   1      37.712  23.439  25.856  1.00  0.00     0.198 C 
BRANCH   6   7
ATOM      7  S   UNL A   1      35.540  24.138  24.662  1.00  0.00    -0.101 SA
BRANCH   7   8
ATOM      8  C   UNL A   1      34.329  22.851  24.136  1.00  0.00     0.089 A 
ATOM      9  C   UNL A   1      33.013  20.726  24.051  1.00  0.00     0.157 A 
ATOM     10  S   UNL A   1      34.189  21.417  25.093  1.00  0.00    -0.116 S 
ATOM     11  C   UNL A   1      32.659  21.619  23.065  1.00  0.00     0.166 A 
ATOM     12  C   UNL A   1      33.407  22.832  23.090  1.00  0.00     0.109 A 
BRANCH   9  13
ATOM     13  C   UNL A   1      32.549  19.372  24.283  1.00  0.00     0.352 C 
ATOM     14  O   UNL A   1      32.175  18.910  25.350  1.00  0.00    -0.245 OA
BRANCH  13  15
ATOM     15  O   UNL A   1      32.603  18.681  23.103  1.00  0.00    -0.465 OA
ATOM     16  C   UNL A   1      32.979  17.298  23.193  1.00  0.00     0.282 C 
ENDBRANCH  13  15
ENDBRANCH   9  13
BRANCH  11  17
ATOM     17  O   UNL A   1      31.736  21.362  22.109  1.00  0.00    -0.504 OA
ATOM     18  H   UNL A   1      30.933  21.846  22.090  1.00  0.00     0.293 HD
ENDBRANCH  11  17
BRANCH  12  19
ATOM     19  N   UNL A   1      33.199  23.786  22.097  1.00  0.00    -0.317 N 
ATOM     20  C   UNL A   1      32.555  24.978  22.243  1.00  0.00     0.255 C 
ATOM     21  H   UNL A   1      33.552  23.578  21.203  1.00  0.00     0.170 HD
ATOM     22  O   UNL A   1      32.243  25.701  21.309  1.00  0.00    -0.269 OA
BRANCH  20  23
ATOM     23  C   UNL A   1      32.249  25.353  23.624  1.00  0.00     0.040 A 
ATOM     24  C   UNL A   1      33.219  26.671  24.348  1.00  0.00     0.014 A 
ATOM     25  C   UNL A   1      30.644  24.878  24.376  1.00  0.00     0.014 A 
ATOM     26  C   UNL A   1      32.585  27.552  25.781  1.00  0.00     0.001 A 
ATOM     27  C   UNL A   1      30.021  25.778  25.802  1.00  0.00     0.001 A 
ATOM     28  C   UNL A   1      31.003  27.117  26.496  1.00  0.00     0.000 A 
ENDBRANCH  20  23
ENDBRANCH  12  19
ENDBRANCH   7   8
ENDBRANCH   6   7
ENDBRANCH   4   6
ENDBRANCH   3   4
ENDBRANCH   2   3
ENDBRANCH   1   2
BRANCH   1  29
ATOM     29  O   UNL A   1      42.131  19.631  26.936  1.00  0.00    -0.374 OA
BRANCH  29  30
ATOM     30  C   UNL A   1      42.515  19.139  25.655  1.00  0.00     0.202 C 
BRANCH  30  31
ATOM     31  C   UNL A   1      43.919  18.534  25.621  1.00  0.00     0.261 C 
BRANCH  31  32
ATOM     32  O   UNL A   1      44.918  19.541  25.436  1.00  0.00    -0.460 OA
BRANCH  32  33
ATOM     33  C   UNL A   1      44.777  20.338  24.349  1.00  0.00     0.338 C 
ATOM     34  O   UNL A   1      44.689  19.988  23.185  1.00  0.00    -0.246 OA
BRANCH  33  35
ATOM     35  C   UNL A   1      44.797  21.740  24.807  1.00  0.00     0.060 A 
ATOM     36  C   UNL A   1      45.643  22.060  25.867  1.00  0.00     0.016 A 
ATOM     37  C   UNL A   1      43.918  22.697  24.275  1.00  0.00     0.016 A 
ATOM     38  C   UNL A   1      45.507  23.293  26.477  1.00  0.00     0.010 A 
ATOM     39  C   UNL A   1      43.789  23.936  24.873  1.00  0.00     0.010 A 
ATOM     40  C   UNL A   1      44.542  24.198  26.010  1.00  0.00    -0.014 A 
BRANCH  40  41
ATOM     41  C   UNL A   1      44.346  25.410  26.783  1.00  0.00     0.031 A 
ATOM     42  C   UNL A   1      45.467  26.367  26.774  1.00  0.00     0.074 A 
ATOM     43  C   UNL A   1      43.213  25.671  27.458  1.00  0.00     0.049 A 
ATOM     44  N   UNL A   1      46.272  26.655  27.740  1.00  0.00    -0.248 NA
ATOM     45  C   UNL A   1      45.796  27.009  25.496  1.00  0.00     0.031 C 
ATOM     46  C   UNL A   1      41.915  25.016  27.306  1.00  0.00     0.029 A 
ATOM     47  N   UNL A   1      42.974  26.649  28.376  1.00  0.00    -0.354 N 
ATOM     48  C   UNL A   1      47.091  27.670  27.259  1.00  0.00     0.074 A 
ATOM     49  C   UNL A   1      46.866  27.727  25.838  1.00  0.00     0.031 C 
ATOM     50  C   UNL A   1      40.977  25.733  27.962  1.00  0.00     0.029 A 
ATOM     51  C   UNL A   1      41.635  26.799  28.698  1.00  0.00     0.049 A 
ATOM     52  H   UNL A   1      43.687  27.199  28.774  1.00  0.00     0.167 HD
ATOM     53  C   UNL A   1      47.733  28.520  28.104  1.00  0.00     0.034 A 
ATOM     54  C   UNL A   1      41.093  27.770  29.469  1.00  0.00     0.034 A 
ATOM     55  C   UNL A   1      47.778  27.992  29.446  1.00  0.00     0.049 A 
ATOM     56  C   UNL A   1      42.155  28.285  30.364  1.00  0.00     0.074 A 
ATOM     57  C   UNL A   1      48.393  26.921  30.059  1.00  0.00     0.029 A 
ATOM     58  N   UNL A   1      46.815  28.440  30.317  1.00  0.00    -0.354 N 
ATOM     59  N   UNL A   1      42.750  27.563  31.275  1.00  0.00    -0.248 NA
ATOM     60  C   UNL A   1      42.827  29.534  30.036  1.00  0.00     0.031 C 
ATOM     61  C   UNL A   1      47.535  26.542  31.132  1.00  0.00     0.029 A 
ATOM     62  C   UNL A   1      46.437  27.406  31.139  1.00  0.00     0.049 A 
ATOM     63  H   UNL A   1      46.453  29.355  30.348  1.00  0.00     0.167 HD
ATOM     64  C   UNL A   1      44.042  28.054  31.338  1.00  0.00     0.074 A 
ATOM     65  C   UNL A   1      43.984  29.350  30.678  1.00  0.00     0.031 C 
ATOM     66  C   UNL A   1      45.090  27.244  31.662  1.00  0.00     0.034 A 
BRANCH  53  67
ATOM     67  C   UNL A   1      48.030  29.976  27.809  1.00  0.00     0.023 A 
ATOM     68  C   UNL A   1      46.933  30.838  27.607  1.00  0.00     0.031 A 
ATOM     69  C   UNL A   1      49.293  30.499  27.451  1.00  0.00     0.131 A 
ATOM     70  C   UNL A   1      47.105  32.106  27.022  1.00  0.00     0.055 A 
ATOM     71  C   UNL A   1      49.467  31.786  26.935  1.00  0.00     0.041 A 
ATOM     72  F   UNL A   1      50.416  29.770  27.484  1.00  0.00    -0.206 F 
ATOM     73  C   UNL A   1      48.368  32.590  26.693  1.00  0.00     0.022 A 
BRANCH  70  74
ATOM     74  S   UNL A   1      45.634  33.044  26.534  1.00  0.00     0.124 S 
ATOM     75  O   UNL A   1      46.190  34.369  26.282  1.00  0.00    -0.237 OA
ATOM     76  O   UNL A   1      45.180  32.301  25.364  1.00  0.00    -0.237 OA
ATOM     77  O   UNL A   1      44.767  32.949  27.708  1.00  0.00    -0.744 OA
ENDBRANCH  70  74
ENDBRANCH  53  67
BRANCH  54  78
ATOM     78  C   UNL A   1      39.805  28.459  29.212  1.00  0.00     0.023 A 
ATOM     79  C   UNL A   1      38.968  28.904  30.250  1.00  0.00     0.031 A 
ATOM     80  C   UNL A   1      39.491  28.893  27.902  1.00  0.00     0.131 A 
ATOM     81  C   UNL A   1      37.871  29.745  29.959  1.00  0.00     0.055 A 
ATOM     82  C   UNL A   1      38.397  29.708  27.619  1.00  0.00     0.041 A 
ATOM     83  F   UNL A   1      40.293  28.607  26.864  1.00  0.00    -0.206 F 
ATOM     84  C   UNL A   1      37.584  30.147  28.651  1.00  0.00     0.022 A 
BRANCH  81  85
ATOM     85  S   UNL A   1      36.864  30.419  31.315  1.00  0.00     0.124 S 
ATOM     86  O   UNL A   1      36.655  29.248  32.156  1.00  0.00    -0.237 OA
ATOM     87  O   UNL A   1      37.730  31.461  31.857  1.00  0.00    -0.237 OA
ATOM     88  O   UNL A   1      35.666  30.914  30.635  1.00  0.00    -0.744 OA
ENDBRANCH  81  85
ENDBRANCH  54  78
BRANCH  66  89
ATOM     89  C   UNL A   1      44.795  25.984  32.441  1.00  0.00     0.023 A 
ATOM     90  C   UNL A   1      44.607  25.924  33.839  1.00  0.00     0.031 A 
ATOM     91  C   UNL A   1      44.601  24.804  31.700  1.00  0.00     0.131 A 
ATOM     92  C   UNL A   1      44.242  24.707  34.446  1.00  0.00     0.055 A 
ATOM     93  C   UNL A   1      44.225  23.604  32.301  1.00  0.00     0.041 A 
ATOM     94  F   UNL A   1      44.740  24.809  30.364  1.00  0.00    -0.206 F 
ATOM     95  C   UNL A   1      44.047  23.551  33.679  1.00  0.00     0.022 A 
BRANCH  92  96
ATOM     96  S   UNL A   1      43.996  24.613  36.248  1.00  0.00     0.124 S 
ATOM     97  O   UNL A   1      42.561  24.398  36.388  1.00  0.00    -0.237 OA
ATOM     98  O   UNL A   1      44.847  23.490  36.633  1.00  0.00    -0.237 OA
ATOM     99  O   UNL A   1      44.464  25.915  36.727  1.00  0.00    -0.744 OA
ENDBRANCH  92  96
ENDBRANCH  66  89
ENDBRANCH  40  41
ENDBRANCH  33  35
ENDBRANCH  32  33
ENDBRANCH  31  32
ENDBRANCH  30  31
ENDBRANCH  29  30
ENDBRANCH   1  29
TORSDOF 24
ENDMDL
MODEL 3
REMARK VINA RESULT:     -11.6      3.418      9.534
REMARK SMILES COC(=O)c1sc(SCC(=O)OCCOCCOC(=O)c2ccc(-c3c4nc(c(-c5cc(S(=O)(=O)[O-])ccc5F)c5ccc([nH]5)c(-c5cc(S(=O)(=O)[O-])ccc5F)c5nc(c(-c6cc(S(=O)(=O)[O-])ccc6F)c6ccc3[nH]6)C=C5)C=C4)cc2)c(NC(=O)c2ccccc2)c1O
REMARK SMILES IDX 14 1 13 2 12 3 10 4 11 5 9 6 8 7 7 8 5 9 6 10 94 11 84 12
REMARK SMILES IDX 3 13 4 14 2 15 1 16 95 17 85 19 86 20 87 22 88 23 89 24
REMARK SMILES IDX 93 25 90 26 92 27 91 28 15 29 16 30 17 31 18 32 19 33 20 34
REMARK SMILES IDX 21 35 22 36 83 37 23 38 82 39 24 40 25 41 26 42 76 43 27 44
REMARK SMILES IDX 81 45 75 46 77 47 28 48 80 49 74 50 73 51 29 53 61 54 41 55
REMARK SMILES IDX 60 56 42 57 45 58 59 59 78 60 43 61 44 62 58 64 79 65 46 66
REMARK SMILES IDX 30 67 31 68 39 69 32 70 38 71 40 72 37 73 33 74 34 75 35 76
REMARK SMILES IDX 36 77 62 78 63 79 71 80 64 81 70 82 72 83 69 84 65 85 66 86
REMARK SMILES IDX 67 87 68 88 47 89 48 90 56 91 49 92 55 93 57 94 54 95 50 96
REMARK SMILES IDX 51 97 52 98 53 99
REMARK H PARENT 95 18 85 21 77 52 45 63
REMARK Flexibility Score: inf
ROOT
ATOM      1  C   UNL A   1      36.096  22.045  25.769  1.00  0.00     0.202 C 
ENDROOT
BRANCH   1   2
ATOM      2  C   UNL A   1      35.037  21.562  24.774  1.00  0.00     0.261 C 
BRANCH   2   3
ATOM      3  O   UNL A   1      34.275  22.681  24.263  1.00  0.00    -0.463 OA
BRANCH   3   4
ATOM      4  C   UNL A   1      33.157  22.404  23.516  1.00  0.00     0.316 C 
ATOM      5  O   UNL A   1      32.791  21.270  23.226  1.00  0.00    -0.251 OA
BRANCH   4   6
ATOM      6  C   UNL A   1      32.467  23.843  22.877  1.00  0.00     0.198 C 
BRANCH   6   7
ATOM      7  S   UNL A   1      30.279  25.053  23.489  1.00  0.00    -0.101 SA
BRANCH   7   8
ATOM      8  C   UNL A   1      30.068  26.837  23.068  1.00  0.00     0.089 A 
ATOM      9  C   UNL A   1      29.055  29.107  22.804  1.00  0.00     0.157 A 
ATOM     10  S   UNL A   1      28.582  27.611  23.499  1.00  0.00    -0.116 S 
ATOM     11  C   UNL A   1      30.355  29.043  22.358  1.00  0.00     0.166 A 
ATOM     12  C   UNL A   1      30.946  27.752  22.490  1.00  0.00     0.109 A 
BRANCH   9  13
ATOM     13  C   UNL A   1      28.110  30.207  22.747  1.00  0.00     0.352 C 
ATOM     14  O   UNL A   1      27.008  30.240  23.273  1.00  0.00    -0.245 OA
BRANCH  13  15
ATOM     15  O   UNL A   1      28.654  31.214  21.997  1.00  0.00    -0.465 OA
ATOM     16  C   UNL A   1      28.027  31.471  20.730  1.00  0.00     0.282 C 
ENDBRANCH  13  15
ENDBRANCH   9  13
BRANCH  11  17
ATOM     17  O   UNL A   1      31.010  30.079  21.783  1.00  0.00    -0.504 OA
ATOM     18  H   UNL A   1      30.853  30.954  22.079  1.00  0.00     0.293 HD
ENDBRANCH  11  17
BRANCH  12  19
ATOM     19  N   UNL A   1      32.232  27.535  22.004  1.00  0.00    -0.317 N 
ATOM     20  C   UNL A   1      33.397  27.698  22.694  1.00  0.00     0.255 C 
ATOM     21  H   UNL A   1      32.309  27.234  21.070  1.00  0.00     0.170 HD
ATOM     22  O   UNL A   1      34.503  27.666  22.177  1.00  0.00    -0.269 OA
BRANCH  20  23
ATOM     23  C   UNL A   1      33.239  27.922  24.131  1.00  0.00     0.040 A 
ATOM     24  C   UNL A   1      32.886  29.593  24.665  1.00  0.00     0.014 A 
ATOM     25  C   UNL A   1      32.898  26.510  25.254  1.00  0.00     0.014 A 
ATOM     26  C   UNL A   1      32.152  29.868  26.284  1.00  0.00     0.001 A 
ATOM     27  C   UNL A   1      32.154  26.804  26.864  1.00  0.00     0.001 A 
ATOM     28  C   UNL A   1      31.784  28.492  27.367  1.00  0.00     0.000 A 
ENDBRANCH  20  23
ENDBRANCH  12  19
ENDBRANCH   7   8
ENDBRANCH   6   7
ENDBRANCH   4   6
ENDBRANCH   3   4
ENDBRANCH   2   3
ENDBRANCH   1   2
BRANCH   1  29
ATOM     29  O   UNL A   1      37.423  21.642  25.419  1.00  0.00    -0.374 OA
BRANCH  29  30
ATOM     30  C   UNL A   1      38.481  22.444  25.937  1.00  0.00     0.202 C 
BRANCH  30  31
ATOM     31  C   UNL A   1      39.799  21.689  26.117  1.00  0.00     0.261 C 
BRANCH  31  32
ATOM     32  O   UNL A   1      40.918  22.581  26.111  1.00  0.00    -0.460 OA
BRANCH  32  33
ATOM     33  C   UNL A   1      41.705  22.567  27.214  1.00  0.00     0.338 C 
ATOM     34  O   UNL A   1      42.418  21.658  27.598  1.00  0.00    -0.246 OA
BRANCH  33  35
ATOM     35  C   UNL A   1      41.516  23.847  27.923  1.00  0.00     0.060 A 
ATOM     36  C   UNL A   1      40.290  24.492  27.774  1.00  0.00     0.016 A 
ATOM     37  C   UNL A   1      42.566  24.452  28.632  1.00  0.00     0.016 A 
ATOM     38  C   UNL A   1      40.168  25.796  28.218  1.00  0.00     0.010 A 
ATOM     39  C   UNL A   1      42.442  25.751  29.088  1.00  0.00     0.010 A 
ATOM     40  C   UNL A   1      41.263  26.432  28.819  1.00  0.00    -0.014 A 
BRANCH  40  41
ATOM     41  C   UNL A   1      41.119  27.843  29.125  1.00  0.00     0.031 A 
ATOM     42  C   UNL A   1      42.130  28.737  28.532  1.00  0.00     0.074 A 
ATOM     43  C   UNL A   1      40.123  28.328  29.887  1.00  0.00     0.049 A 
ATOM     44  N   UNL A   1      43.082  29.368  29.133  1.00  0.00    -0.248 NA
ATOM     45  C   UNL A   1      42.145  28.862  27.069  1.00  0.00     0.031 C 
ATOM     46  C   UNL A   1      38.882  27.653  30.264  1.00  0.00     0.029 A 
ATOM     47  N   UNL A   1      39.986  29.574  30.419  1.00  0.00    -0.354 N 
ATOM     48  C   UNL A   1      43.699  30.138  28.154  1.00  0.00     0.074 A 
ATOM     49  C   UNL A   1      43.195  29.664  26.892  1.00  0.00     0.031 C 
ATOM     50  C   UNL A   1      38.033  28.556  30.802  1.00  0.00     0.029 A 
ATOM     51  C   UNL A   1      38.729  29.824  30.945  1.00  0.00     0.049 A 
ATOM     52  H   UNL A   1      40.714  30.237  30.430  1.00  0.00     0.167 HD
ATOM     53  C   UNL A   1      44.420  31.246  28.477  1.00  0.00     0.034 A 
ATOM     54  C   UNL A   1      38.267  31.007  31.412  1.00  0.00     0.034 A 
ATOM     55  C   UNL A   1      44.773  31.253  29.876  1.00  0.00     0.049 A 
ATOM     56  C   UNL A   1      39.436  31.825  31.810  1.00  0.00     0.074 A 
ATOM     57  C   UNL A   1      45.587  30.489  30.686  1.00  0.00     0.029 A 
ATOM     58  N   UNL A   1      43.965  31.985  30.712  1.00  0.00    -0.354 N 
ATOM     59  N   UNL A   1      40.258  31.496  32.770  1.00  0.00    -0.248 NA
ATOM     60  C   UNL A   1      39.921  32.868  30.918  1.00  0.00     0.031 C 
ATOM     61  C   UNL A   1      44.992  30.529  31.981  1.00  0.00     0.029 A 
ATOM     62  C   UNL A   1      43.847  31.326  31.912  1.00  0.00     0.049 A 
ATOM     63  H   UNL A   1      43.539  32.843  30.488  1.00  0.00     0.167 HD
ATOM     64  C   UNL A   1      41.491  31.984  32.373  1.00  0.00     0.074 A 
ATOM     65  C   UNL A   1      41.192  32.943  31.319  1.00  0.00     0.031 C 
ATOM     66  C   UNL A   1      42.647  31.360  32.734  1.00  0.00     0.034 A 
BRANCH  53  67
ATOM     67  C   UNL A   1      44.526  32.491  27.621  1.00  0.00     0.023 A 
ATOM     68  C   UNL A   1      43.850  33.647  28.062  1.00  0.00     0.031 A 
ATOM     69  C   UNL A   1      45.010  32.535  26.294  1.00  0.00     0.131 A 
ATOM     70  C   UNL A   1      43.626  34.732  27.196  1.00  0.00     0.055 A 
ATOM     71  C   UNL A   1      44.846  33.643  25.459  1.00  0.00     0.041 A 
ATOM     72  F   UNL A   1      45.579  31.482  25.695  1.00  0.00    -0.206 F 
ATOM     73  C   UNL A   1      44.128  34.741  25.897  1.00  0.00     0.022 A 
BRANCH  70  74
ATOM     74  S   UNL A   1      42.515  36.058  27.733  1.00  0.00     0.124 S 
ATOM     75  O   UNL A   1      41.244  35.644  27.147  1.00  0.00    -0.237 OA
ATOM     76  O   UNL A   1      42.617  35.963  29.185  1.00  0.00    -0.237 OA
ATOM     77  O   UNL A   1      43.109  37.256  27.143  1.00  0.00    -0.744 OA
ENDBRANCH  70  74
ENDBRANCH  53  67
BRANCH  54  78
ATOM     78  C   UNL A   1      36.900  31.542  31.206  1.00  0.00     0.023 A 
ATOM     79  C   UNL A   1      36.167  32.153  32.238  1.00  0.00     0.031 A 
ATOM     80  C   UNL A   1      36.381  31.656  29.894  1.00  0.00     0.131 A 
ATOM     81  C   UNL A   1      34.969  32.841  31.940  1.00  0.00     0.055 A 
ATOM     82  C   UNL A   1      35.189  32.321  29.609  1.00  0.00     0.041 A 
ATOM     83  F   UNL A   1      37.065  31.199  28.834  1.00  0.00    -0.206 F 
ATOM     84  C   UNL A   1      34.480  32.926  30.633  1.00  0.00     0.022 A 
BRANCH  81  85
ATOM     85  S   UNL A   1      34.088  33.734  33.256  1.00  0.00     0.124 S 
ATOM     86  O   UNL A   1      32.783  33.084  33.250  1.00  0.00    -0.237 OA
ATOM     87  O   UNL A   1      34.932  33.485  34.420  1.00  0.00    -0.237 OA
ATOM     88  O   UNL A   1      34.090  35.120  32.786  1.00  0.00    -0.744 OA
ENDBRANCH  81  85
ENDBRANCH  54  78
BRANCH  66  89
ATOM     89  C   UNL A   1      42.622  30.476  33.959  1.00  0.00     0.023 A 
ATOM     90  C   UNL A   1      42.478  29.072  33.939  1.00  0.00     0.031 A 
ATOM     91  C   UNL A   1      42.856  31.096  35.200  1.00  0.00     0.131 A 
ATOM     92  C   UNL A   1      42.565  28.340  35.139  1.00  0.00     0.055 A 
ATOM     93  C   UNL A   1      42.956  30.368  36.385  1.00  0.00     0.041 A 
ATOM     94  F   UNL A   1      43.027  32.426  35.275  1.00  0.00    -0.206 F 
ATOM     95  C   UNL A   1      42.808  28.986  36.358  1.00  0.00     0.022 A 
BRANCH  92  96
ATOM     96  S   UNL A   1      42.382  26.528  35.130  1.00  0.00     0.124 S 
ATOM     97  O   UNL A   1      42.873  26.127  36.443  1.00  0.00    -0.237 OA
ATOM     98  O   UNL A   1      40.950  26.349  34.905  1.00  0.00    -0.237 OA
ATOM     99  O   UNL A   1      43.226  26.103  34.011  1.00  0.00    -0.744 OA
ENDBRANCH  92  96
ENDBRANCH  66  89
ENDBRANCH  40  41
ENDBRANCH  33  35
ENDBRANCH  32  33
ENDBRANCH  31  32
ENDBRANCH  30  31
ENDBRANCH  29  30
ENDBRANCH   1  29
TORSDOF 24
ENDMDL
