MODEL 1
REMARK VINA RESULT:     -12.4      0.000      0.000
REMARK SMILES Cc1cccc(S(=O)(=O)Nc2cc(C(=O)OCCOCCOC(=O)c3ccc(-c4c5nc(c(-c6cc(S(=O)(=O)[O-])ccc6F)c6ccc([nH]6)c(-c6cc(S(=O)(=O)[O-])ccc6F)c6nc(c(-c7cc(S(=O)(=O)[O-])ccc7F)c7ccc4[nH]7)C=C6)C=C5)cc3)ccc2N2CCC[C@H](C[NH+]3CCCC3)C2)c1
REMARK SMILES IDX 19 1 18 2 17 3 16 4 14 5 15 6 13 7 11 8 12 9 90 10 89 11
REMARK SMILES IDX 88 12 10 13 7 15 8 16 9 17 6 18 1 19 2 20 3 21 103 22 4 23
REMARK SMILES IDX 5 24 91 25 92 26 102 27 93 28 95 29 94 30 96 31 97 32 98 33
REMARK SMILES IDX 101 34 99 36 100 37 20 38 21 39 22 40 23 41 24 42 25 43
REMARK SMILES IDX 26 44 87 45 27 46 86 47 28 48 29 49 30 50 80 51 31 52 85 53
REMARK SMILES IDX 79 54 81 55 32 56 84 57 78 58 77 59 33 61 65 62 45 63 64 64
REMARK SMILES IDX 46 65 49 66 63 67 82 68 47 69 48 70 62 72 83 73 50 74 34 75
REMARK SMILES IDX 35 76 43 77 36 78 42 79 44 80 41 81 37 82 38 83 39 84 40 85
REMARK SMILES IDX 66 86 67 87 75 88 68 89 74 90 76 91 73 92 69 93 70 94 71 95
REMARK SMILES IDX 72 96 51 97 52 98 60 99 53 100 59 101 61 102 58 103 54 104
REMARK SMILES IDX 55 105 56 106 57 107
REMARK H PARENT 10 14 97 35 81 60 49 71
REMARK Flexibility Score: inf
ROOT
ATOM      1  O   UNL A   1      31.472  29.003  26.061  1.00  0.00    -0.374 OA
ENDROOT
BRANCH   1   2
ATOM      2  C   UNL A   1      32.026  27.764  26.436  1.00  0.00     0.202 C 
BRANCH   2   3
ATOM      3  C   UNL A   1      30.954  26.790  26.234  1.00  0.00     0.261 C 
BRANCH   3   4
ATOM      4  O   UNL A   1      31.167  25.593  26.943  1.00  0.00    -0.460 OA
BRANCH   4   5
ATOM      5  C   UNL A   1      30.582  24.393  26.858  1.00  0.00     0.338 C 
ATOM      6  O   UNL A   1      29.543  23.954  27.305  1.00  0.00    -0.246 OA
BRANCH   5   7
ATOM      7  C   UNL A   1      31.686  23.600  26.310  1.00  0.00     0.062 A 
ATOM      8  C   UNL A   1      32.911  23.515  24.273  1.00  0.00     0.073 A 
ATOM      9  C   UNL A   1      31.714  23.428  24.906  1.00  0.00     0.044 A 
ATOM     10  C   UNL A   1      34.054  23.222  25.033  1.00  0.00     0.061 A 
ATOM     11  C   UNL A   1      33.991  23.196  26.449  1.00  0.00     0.029 A 
ATOM     12  C   UNL A   1      32.814  23.473  27.102  1.00  0.00     0.018 A 
BRANCH   8  13
ATOM     13  N   UNL A   1      32.898  23.881  22.878  1.00  0.00    -0.277 N 
ATOM     14  H   UNL A   1      33.013  23.176  22.201  1.00  0.00     0.180 HD
BRANCH  13  15
ATOM     15  S   UNL A   1      32.681  25.537  22.345  1.00  0.00     0.261 S 
ATOM     16  O   UNL A   1      32.561  25.476  20.902  1.00  0.00    -0.201 OA
ATOM     17  O   UNL A   1      33.819  26.242  22.909  1.00  0.00    -0.201 OA
BRANCH  15  18
ATOM     18  C   UNL A   1      31.186  26.415  22.970  1.00  0.00     0.088 A 
ATOM     19  C   UNL A   1      29.537  30.794  21.626  1.00  0.00     0.044 C 
ATOM     20  C   UNL A   1      29.428  29.550  22.456  1.00  0.00    -0.050 A 
ATOM     21  C   UNL A   1      27.758  28.389  23.149  1.00  0.00     0.003 A 
ATOM     22  C   UNL A   1      31.100  28.385  22.350  1.00  0.00     0.025 A 
ATOM     23  C   UNL A   1      27.772  26.473  23.875  1.00  0.00     0.002 A 
ATOM     24  C   UNL A   1      29.598  25.335  23.684  1.00  0.00     0.022 A 
ENDBRANCH  15  18
ENDBRANCH  13  15
ENDBRANCH   8  13
BRANCH  10  25
ATOM     25  N   UNL A   1      35.213  22.814  24.407  1.00  0.00    -0.369 N 
ATOM     26  C   UNL A   1      35.419  21.371  24.365  1.00  0.00     0.116 C 
ATOM     27  C   UNL A   1      36.296  23.772  24.283  1.00  0.00     0.126 C 
ATOM     28  C   UNL A   1      36.597  20.986  25.237  1.00  0.00     0.022 C 
ATOM     29  C   UNL A   1      37.533  23.344  25.086  1.00  0.00     0.064 C 
ATOM     30  C   UNL A   1      37.785  21.846  24.832  1.00  0.00     0.013 C 
BRANCH  29  31
ATOM     31  C   UNL A   1      37.413  23.773  26.574  1.00  0.00     0.267 C 
BRANCH  31  32
ATOM     32  N   UNL A   1      38.625  23.902  27.394  1.00  0.00    -0.335 N 
ATOM     33  C   UNL A   1      39.103  25.272  27.560  1.00  0.00     0.262 C 
ATOM     34  C   UNL A   1      39.770  23.087  27.003  1.00  0.00     0.262 C 
ATOM     35  H   UNL A   1      38.268  23.542  28.279  1.00  0.00     0.348 HD
ATOM     36  C   UNL A   1      40.192  25.425  26.515  1.00  0.00     0.067 C 
ATOM     37  C   UNL A   1      40.831  24.046  26.465  1.00  0.00     0.067 C 
ENDBRANCH  31  32
ENDBRANCH  29  31
ENDBRANCH  10  25
ENDBRANCH   5   7
ENDBRANCH   4   5
ENDBRANCH   3   4
ENDBRANCH   2   3
ENDBRANCH   1   2
BRANCH   1  38
ATOM     38  C   UNL A   1      32.346  30.092  26.039  1.00  0.00     0.202 C 
BRANCH  38  39
ATOM     39  C   UNL A   1      31.940  30.962  27.214  1.00  0.00     0.261 C 
BRANCH  39  40
ATOM     40  O   UNL A   1      32.258  32.358  26.866  1.00  0.00    -0.460 OA
BRANCH  40  41
ATOM     41  C   UNL A   1      33.033  33.093  27.740  1.00  0.00     0.338 C 
ATOM     42  O   UNL A   1      32.683  34.170  28.201  1.00  0.00    -0.246 OA
BRANCH  41  43
ATOM     43  C   UNL A   1      34.461  32.546  27.880  1.00  0.00     0.060 A 
ATOM     44  C   UNL A   1      34.721  31.340  28.557  1.00  0.00     0.016 A 
ATOM     45  C   UNL A   1      35.515  33.437  27.791  1.00  0.00     0.016 A 
ATOM     46  C   UNL A   1      35.876  31.208  29.390  1.00  0.00     0.010 A 
ATOM     47  C   UNL A   1      36.527  33.370  28.771  1.00  0.00     0.010 A 
ATOM     48  C   UNL A   1      36.664  32.320  29.711  1.00  0.00    -0.014 A 
BRANCH  48  49
ATOM     49  C   UNL A   1      37.797  32.435  30.795  1.00  0.00     0.031 A 
ATOM     50  C   UNL A   1      38.851  31.181  30.303  1.00  0.00     0.074 A 
ATOM     51  C   UNL A   1      38.152  33.552  31.913  1.00  0.00     0.049 A 
ATOM     52  N   UNL A   1      40.066  30.925  30.691  1.00  0.00    -0.248 NA
ATOM     53  C   UNL A   1      38.531  30.259  29.175  1.00  0.00     0.031 C 
ATOM     54  C   UNL A   1      40.027  33.794  33.004  1.00  0.00     0.029 A 
ATOM     55  N   UNL A   1      37.792  34.645  32.294  1.00  0.00    -0.354 N 
ATOM     56  C   UNL A   1      40.744  30.167  29.723  1.00  0.00     0.074 A 
ATOM     57  C   UNL A   1      39.721  29.769  28.802  1.00  0.00     0.031 C 
ATOM     58  C   UNL A   1      40.542  34.913  33.527  1.00  0.00     0.029 A 
ATOM     59  C   UNL A   1      39.210  34.691  33.492  1.00  0.00     0.049 A 
ATOM     60  H   UNL A   1      37.055  35.255  32.063  1.00  0.00     0.167 HD
ATOM     61  C   UNL A   1      42.113  30.033  29.771  1.00  0.00     0.034 A 
ATOM     62  C   UNL A   1      38.668  34.080  34.375  1.00  0.00     0.034 A 
ATOM     63  C   UNL A   1      42.622  30.574  31.045  1.00  0.00     0.049 A 
ATOM     64  C   UNL A   1      39.710  33.117  35.474  1.00  0.00     0.074 A 
ATOM     65  C   UNL A   1      43.485  31.585  31.425  1.00  0.00     0.029 A 
ATOM     66  N   UNL A   1      42.045  30.126  32.221  1.00  0.00    -0.354 N 
ATOM     67  N   UNL A   1      40.918  32.729  35.080  1.00  0.00    -0.248 NA
ATOM     68  C   UNL A   1      39.220  32.250  36.553  1.00  0.00     0.031 C 
ATOM     69  C   UNL A   1      43.284  31.830  32.826  1.00  0.00     0.029 A 
ATOM     70  C   UNL A   1      42.402  30.885  33.325  1.00  0.00     0.049 A 
ATOM     71  H   UNL A   1      41.443  29.347  32.268  1.00  0.00     0.167 HD
ATOM     72  C   UNL A   1      41.020  31.380  35.320  1.00  0.00     0.074 A 
ATOM     73  C   UNL A   1      39.953  31.152  36.303  1.00  0.00     0.031 C 
ATOM     74  C   UNL A   1      41.818  30.496  34.613  1.00  0.00     0.034 A 
BRANCH  61  75
ATOM     75  C   UNL A   1      43.110  29.506  28.703  1.00  0.00     0.023 A 
ATOM     76  C   UNL A   1      44.040  30.436  28.168  1.00  0.00     0.031 A 
ATOM     77  C   UNL A   1      43.208  28.221  28.119  1.00  0.00     0.131 A 
ATOM     78  C   UNL A   1      44.933  30.136  27.117  1.00  0.00     0.055 A 
ATOM     79  C   UNL A   1      44.133  27.904  27.088  1.00  0.00     0.041 A 
ATOM     80  F   UNL A   1      42.425  27.205  28.498  1.00  0.00    -0.206 F 
ATOM     81  C   UNL A   1      44.995  28.865  26.572  1.00  0.00     0.022 A 
BRANCH  78  82
ATOM     82  S   UNL A   1      45.975  31.475  26.458  1.00  0.00     0.124 S 
ATOM     83  O   UNL A   1      47.164  30.749  26.027  1.00  0.00    -0.237 OA
ATOM     84  O   UNL A   1      45.137  32.029  25.401  1.00  0.00    -0.237 OA
ATOM     85  O   UNL A   1      46.175  32.354  27.610  1.00  0.00    -0.744 OA
ENDBRANCH  78  82
ENDBRANCH  61  75
BRANCH  62  86
ATOM     86  C   UNL A   1      36.597  33.876  33.541  1.00  0.00     0.023 A 
ATOM     87  C   UNL A   1      35.560  35.116  33.375  1.00  0.00     0.031 A 
ATOM     88  C   UNL A   1      35.720  32.695  33.203  1.00  0.00     0.131 A 
ATOM     89  C   UNL A   1      34.255  35.139  32.844  1.00  0.00     0.055 A 
ATOM     90  C   UNL A   1      34.367  32.764  32.733  1.00  0.00     0.041 A 
ATOM     91  F   UNL A   1      36.161  31.419  33.276  1.00  0.00    -0.206 F 
ATOM     92  C   UNL A   1      33.683  33.950  32.460  1.00  0.00     0.022 A 
BRANCH  89  93
ATOM     93  S   UNL A   1      33.528  36.751  32.321  1.00  0.00     0.124 S 
ATOM     94  O   UNL A   1      33.485  36.635  30.871  1.00  0.00    -0.237 OA
ATOM     95  O   UNL A   1      32.234  36.775  33.001  1.00  0.00    -0.237 OA
ATOM     96  O   UNL A   1      34.490  37.712  32.861  1.00  0.00    -0.744 OA
ENDBRANCH  89  93
ENDBRANCH  62  86
BRANCH  74  97
ATOM     97  C   UNL A   1      42.106  29.090  35.114  1.00  0.00     0.023 A 
ATOM     98  C   UNL A   1      43.133  28.905  36.033  1.00  0.00     0.031 A 
ATOM     99  C   UNL A   1      41.559  27.891  34.598  1.00  0.00     0.131 A 
ATOM    100  C   UNL A   1      43.532  27.654  36.491  1.00  0.00     0.055 A 
ATOM    101  C   UNL A   1      42.011  26.622  34.986  1.00  0.00     0.041 A 
ATOM    102  F   UNL A   1      40.599  27.872  33.662  1.00  0.00    -0.206 F 
ATOM    103  C   UNL A   1      43.004  26.495  35.950  1.00  0.00     0.022 A 
BRANCH 100 104
ATOM    104  S   UNL A   1      44.800  27.675  37.769  1.00  0.00     0.124 S 
ATOM    105  O   UNL A   1      45.889  26.931  37.139  1.00  0.00    -0.237 OA
ATOM    106  O   UNL A   1      45.033  29.108  37.926  1.00  0.00    -0.237 OA
ATOM    107  O   UNL A   1      44.159  27.010  38.897  1.00  0.00    -0.744 OA
ENDBRANCH 100 104
ENDBRANCH  74  97
ENDBRANCH  48  49
ENDBRANCH  41  43
ENDBRANCH  40  41
ENDBRANCH  39  40
ENDBRANCH  38  39
ENDBRANCH   1  38
TORSDOF 23
ENDMDL
MODEL 2
REMARK VINA RESULT:     -11.4      3.429      5.235
REMARK SMILES Cc1cccc(S(=O)(=O)Nc2cc(C(=O)OCCOCCOC(=O)c3ccc(-c4c5nc(c(-c6cc(S(=O)(=O)[O-])ccc6F)c6ccc([nH]6)c(-c6cc(S(=O)(=O)[O-])ccc6F)c6nc(c(-c7cc(S(=O)(=O)[O-])ccc7F)c7ccc4[nH]7)C=C6)C=C5)cc3)ccc2N2CCC[C@H](C[NH+]3CCCC3)C2)c1
REMARK SMILES IDX 19 1 18 2 17 3 16 4 14 5 15 6 13 7 11 8 12 9 90 10 89 11
REMARK SMILES IDX 88 12 10 13 7 15 8 16 9 17 6 18 1 19 2 20 3 21 103 22 4 23
REMARK SMILES IDX 5 24 91 25 92 26 102 27 93 28 95 29 94 30 96 31 97 32 98 33
REMARK SMILES IDX 101 34 99 36 100 37 20 38 21 39 22 40 23 41 24 42 25 43
REMARK SMILES IDX 26 44 87 45 27 46 86 47 28 48 29 49 30 50 80 51 31 52 85 53
REMARK SMILES IDX 79 54 81 55 32 56 84 57 78 58 77 59 33 61 65 62 45 63 64 64
REMARK SMILES IDX 46 65 49 66 63 67 82 68 47 69 48 70 62 72 83 73 50 74 34 75
REMARK SMILES IDX 35 76 43 77 36 78 42 79 44 80 41 81 37 82 38 83 39 84 40 85
REMARK SMILES IDX 66 86 67 87 75 88 68 89 74 90 76 91 73 92 69 93 70 94 71 95
REMARK SMILES IDX 72 96 51 97 52 98 60 99 53 100 59 101 61 102 58 103 54 104
REMARK SMILES IDX 55 105 56 106 57 107
REMARK H PARENT 10 14 97 35 81 60 49 71
REMARK Flexibility Score: inf
ROOT
ATOM      1  O   UNL A   1      32.135  27.793  27.282  1.00  0.00    -0.374 OA
ENDROOT
BRANCH   1   2
ATOM      2  C   UNL A   1      32.228  26.724  26.370  1.00  0.00     0.202 C 
BRANCH   2   3
ATOM      3  C   UNL A   1      30.961  26.005  26.495  1.00  0.00     0.261 C 
BRANCH   3   4
ATOM      4  O   UNL A   1      31.087  24.802  27.216  1.00  0.00    -0.460 OA
BRANCH   4   5
ATOM      5  C   UNL A   1      30.697  23.553  26.937  1.00  0.00     0.338 C 
ATOM      6  O   UNL A   1      29.614  23.008  26.962  1.00  0.00    -0.246 OA
BRANCH   5   7
ATOM      7  C   UNL A   1      31.998  22.881  26.867  1.00  0.00     0.062 A 
ATOM      8  C   UNL A   1      33.616  22.412  25.187  1.00  0.00     0.073 A 
ATOM      9  C   UNL A   1      32.341  22.279  25.633  1.00  0.00     0.044 A 
ATOM     10  C   UNL A   1      34.607  22.628  26.157  1.00  0.00     0.061 A 
ATOM     11  C   UNL A   1      34.258  23.043  27.466  1.00  0.00     0.029 A 
ATOM     12  C   UNL A   1      32.944  23.258  27.805  1.00  0.00     0.018 A 
BRANCH   8  13
ATOM     13  N   UNL A   1      33.835  22.302  23.767  1.00  0.00    -0.277 N 
ATOM     14  H   UNL A   1      34.566  21.727  23.442  1.00  0.00     0.180 HD
BRANCH  13  15
ATOM     15  S   UNL A   1      32.847  23.153  22.596  1.00  0.00     0.261 S 
ATOM     16  O   UNL A   1      31.743  22.265  22.288  1.00  0.00    -0.201 OA
ATOM     17  O   UNL A   1      33.773  23.489  21.528  1.00  0.00    -0.201 OA
BRANCH  15  18
ATOM     18  C   UNL A   1      32.111  24.751  23.145  1.00  0.00     0.088 A 
ATOM     19  C   UNL A   1      34.053  29.199  22.762  1.00  0.00     0.044 C 
ATOM     20  C   UNL A   1      32.942  28.286  23.186  1.00  0.00    -0.050 A 
ATOM     21  C   UNL A   1      30.803  28.488  23.210  1.00  0.00     0.003 A 
ATOM     22  C   UNL A   1      33.462  26.315  23.081  1.00  0.00     0.025 A 
ATOM     23  C   UNL A   1      29.400  27.004  23.375  1.00  0.00     0.002 A 
ATOM     24  C   UNL A   1      30.075  24.957  23.226  1.00  0.00     0.022 A 
ENDBRANCH  15  18
ENDBRANCH  13  15
ENDBRANCH   8  13
BRANCH  10  25
ATOM     25  N   UNL A   1      35.920  22.298  25.887  1.00  0.00    -0.369 N 
ATOM     26  C   UNL A   1      36.578  23.138  24.894  1.00  0.00     0.116 C 
ATOM     27  C   UNL A   1      36.365  20.955  26.209  1.00  0.00     0.126 C 
ATOM     28  C   UNL A   1      36.863  22.337  23.638  1.00  0.00     0.022 C 
ATOM     29  C   UNL A   1      36.750  20.163  24.950  1.00  0.00     0.064 C 
ATOM     30  C   UNL A   1      37.603  21.071  24.044  1.00  0.00     0.013 C 
BRANCH  29  31
ATOM     31  C   UNL A   1      35.501  19.518  24.288  1.00  0.00     0.267 C 
BRANCH  31  32
ATOM     32  N   UNL A   1      34.735  18.500  25.019  1.00  0.00    -0.335 N 
ATOM     33  C   UNL A   1      34.875  17.143  24.496  1.00  0.00     0.262 C 
ATOM     34  C   UNL A   1      33.309  18.753  25.194  1.00  0.00     0.262 C 
ATOM     35  H   UNL A   1      35.184  18.576  25.932  1.00  0.00     0.348 HD
ATOM     36  C   UNL A   1      33.658  16.949  23.611  1.00  0.00     0.067 C 
ATOM     37  C   UNL A   1      32.570  17.734  24.327  1.00  0.00     0.067 C 
ENDBRANCH  31  32
ENDBRANCH  29  31
ENDBRANCH  10  25
ENDBRANCH   5   7
ENDBRANCH   4   5
ENDBRANCH   3   4
ENDBRANCH   2   3
ENDBRANCH   1   2
BRANCH   1  38
ATOM     38  C   UNL A   1      32.196  29.078  26.739  1.00  0.00     0.202 C 
BRANCH  38  39
ATOM     39  C   UNL A   1      33.667  29.448  26.737  1.00  0.00     0.261 C 
BRANCH  39  40
ATOM     40  O   UNL A   1      33.820  30.672  27.545  1.00  0.00    -0.460 OA
BRANCH  40  41
ATOM     41  C   UNL A   1      35.094  31.141  27.793  1.00  0.00     0.338 C 
ATOM     42  O   UNL A   1      35.425  32.305  27.614  1.00  0.00    -0.246 OA
BRANCH  41  43
ATOM     43  C   UNL A   1      36.101  30.018  28.080  1.00  0.00     0.060 A 
ATOM     44  C   UNL A   1      36.340  29.565  29.392  1.00  0.00     0.016 A 
ATOM     45  C   UNL A   1      37.111  29.793  27.162  1.00  0.00     0.016 A 
ATOM     46  C   UNL A   1      37.663  29.223  29.813  1.00  0.00     0.010 A 
ATOM     47  C   UNL A   1      38.429  29.657  27.643  1.00  0.00     0.010 A 
ATOM     48  C   UNL A   1      38.773  29.511  29.008  1.00  0.00    -0.014 A 
BRANCH  48  49
ATOM     49  C   UNL A   1      40.297  29.457  29.391  1.00  0.00     0.031 A 
ATOM     50  C   UNL A   1      40.598  27.775  29.300  1.00  0.00     0.074 A 
ATOM     51  C   UNL A   1      41.443  30.591  29.543  1.00  0.00     0.049 A 
ATOM     52  N   UNL A   1      41.732  27.139  29.309  1.00  0.00    -0.248 NA
ATOM     53  C   UNL A   1      39.521  26.781  29.024  1.00  0.00     0.031 C 
ATOM     54  C   UNL A   1      43.605  30.299  29.603  1.00  0.00     0.029 A 
ATOM     55  N   UNL A   1      41.611  31.782  29.389  1.00  0.00    -0.354 N 
ATOM     56  C   UNL A   1      41.592  25.872  28.720  1.00  0.00     0.074 A 
ATOM     57  C   UNL A   1      40.177  25.701  28.576  1.00  0.00     0.031 C 
ATOM     58  C   UNL A   1      44.567  31.156  29.238  1.00  0.00     0.029 A 
ATOM     59  C   UNL A   1      43.410  31.578  29.795  1.00  0.00     0.049 A 
ATOM     60  H   UNL A   1      41.033  32.541  29.147  1.00  0.00     0.167 HD
ATOM     61  C   UNL A   1      42.701  25.146  28.349  1.00  0.00     0.034 A 
ATOM     62  C   UNL A   1      43.293  31.636  30.991  1.00  0.00     0.034 A 
ATOM     63  C   UNL A   1      43.918  25.793  28.872  1.00  0.00     0.049 A 
ATOM     64  C   UNL A   1      44.496  30.747  31.983  1.00  0.00     0.074 A 
ATOM     65  C   UNL A   1      45.062  26.350  28.330  1.00  0.00     0.029 A 
ATOM     66  N   UNL A   1      43.966  26.101  30.220  1.00  0.00    -0.354 N 
ATOM     67  N   UNL A   1      45.179  29.736  31.458  1.00  0.00    -0.248 NA
ATOM     68  C   UNL A   1      44.464  30.639  33.446  1.00  0.00     0.031 C 
ATOM     69  C   UNL A   1      45.698  27.128  29.357  1.00  0.00     0.029 A 
ATOM     70  C   UNL A   1      45.021  26.937  30.550  1.00  0.00     0.049 A 
ATOM     71  H   UNL A   1      43.316  25.759  30.878  1.00  0.00     0.167 HD
ATOM     72  C   UNL A   1      45.070  28.670  32.319  1.00  0.00     0.074 A 
ATOM     73  C   UNL A   1      44.668  29.317  33.574  1.00  0.00     0.031 C 
ATOM     74  C   UNL A   1      45.136  27.335  31.957  1.00  0.00     0.034 A 
BRANCH  61  75
ATOM     75  C   UNL A   1      42.822  23.885  27.449  1.00  0.00     0.023 A 
ATOM     76  C   UNL A   1      44.069  23.664  26.806  1.00  0.00     0.031 A 
ATOM     77  C   UNL A   1      41.843  22.921  27.113  1.00  0.00     0.131 A 
ATOM     78  C   UNL A   1      44.300  22.627  25.877  1.00  0.00     0.055 A 
ATOM     79  C   UNL A   1      42.083  21.852  26.209  1.00  0.00     0.041 A 
ATOM     80  F   UNL A   1      40.608  22.952  27.626  1.00  0.00    -0.206 F 
ATOM     81  C   UNL A   1      43.311  21.705  25.575  1.00  0.00     0.022 A 
BRANCH  78  82
ATOM     82  S   UNL A   1      45.916  22.553  25.046  1.00  0.00     0.124 S 
ATOM     83  O   UNL A   1      45.598  23.067  23.718  1.00  0.00    -0.237 OA
ATOM     84  O   UNL A   1      46.739  23.411  25.891  1.00  0.00    -0.237 OA
ATOM     85  O   UNL A   1      46.261  21.133  25.089  1.00  0.00    -0.744 OA
ENDBRANCH  78  82
ENDBRANCH  61  75
BRANCH  62  86
ATOM     86  C   UNL A   1      41.116  32.138  31.179  1.00  0.00     0.023 A 
ATOM     87  C   UNL A   1      40.043  31.229  31.995  1.00  0.00     0.031 A 
ATOM     88  C   UNL A   1      40.217  33.148  30.511  1.00  0.00     0.131 A 
ATOM     89  C   UNL A   1      38.668  31.437  32.220  1.00  0.00     0.055 A 
ATOM     90  C   UNL A   1      38.804  33.277  30.716  1.00  0.00     0.041 A 
ATOM     91  F   UNL A   1      40.687  34.087  29.658  1.00  0.00    -0.206 F 
ATOM     92  C   UNL A   1      38.062  32.514  31.621  1.00  0.00     0.022 A 
BRANCH  89  93
ATOM     93  S   UNL A   1      37.836  30.522  33.588  1.00  0.00     0.124 S 
ATOM     94  O   UNL A   1      38.869  29.605  34.045  1.00  0.00    -0.237 OA
ATOM     95  O   UNL A   1      37.459  31.582  34.523  1.00  0.00    -0.237 OA
ATOM     96  O   UNL A   1      36.695  29.915  32.902  1.00  0.00    -0.744 OA
ENDBRANCH  89  93
ENDBRANCH  62  86
BRANCH  74  97
ATOM     97  C   UNL A   1      45.304  26.227  32.985  1.00  0.00     0.023 A 
ATOM     98  C   UNL A   1      44.306  26.039  33.934  1.00  0.00     0.031 A 
ATOM     99  C   UNL A   1      46.477  25.466  33.208  1.00  0.00     0.131 A 
ATOM    100  C   UNL A   1      44.398  25.111  34.965  1.00  0.00     0.055 A 
ATOM    101  C   UNL A   1      46.617  24.591  34.295  1.00  0.00     0.041 A 
ATOM    102  F   UNL A   1      47.563  25.557  32.429  1.00  0.00    -0.206 F 
ATOM    103  C   UNL A   1      45.566  24.401  35.183  1.00  0.00     0.022 A 
BRANCH 100 104
ATOM    104  S   UNL A   1      42.930  24.964  35.998  1.00  0.00     0.124 S 
ATOM    105  O   UNL A   1      43.499  24.901  37.342  1.00  0.00    -0.237 OA
ATOM    106  O   UNL A   1      42.223  26.202  35.678  1.00  0.00    -0.237 OA
ATOM    107  O   UNL A   1      42.302  23.736  35.525  1.00  0.00    -0.744 OA
ENDBRANCH 100 104
ENDBRANCH  74  97
ENDBRANCH  48  49
ENDBRANCH  41  43
ENDBRANCH  40  41
ENDBRANCH  39  40
ENDBRANCH  38  39
ENDBRANCH   1  38
TORSDOF 23
ENDMDL
MODEL 3
REMARK VINA RESULT:     -11.3      1.939      2.261
REMARK SMILES Cc1cccc(S(=O)(=O)Nc2cc(C(=O)OCCOCCOC(=O)c3ccc(-c4c5nc(c(-c6cc(S(=O)(=O)[O-])ccc6F)c6ccc([nH]6)c(-c6cc(S(=O)(=O)[O-])ccc6F)c6nc(c(-c7cc(S(=O)(=O)[O-])ccc7F)c7ccc4[nH]7)C=C6)C=C5)cc3)ccc2N2CCC[C@H](C[NH+]3CCCC3)C2)c1
REMARK SMILES IDX 19 1 18 2 17 3 16 4 14 5 15 6 13 7 11 8 12 9 90 10 89 11
REMARK SMILES IDX 88 12 10 13 7 15 8 16 9 17 6 18 1 19 2 20 3 21 103 22 4 23
REMARK SMILES IDX 5 24 91 25 92 26 102 27 93 28 95 29 94 30 96 31 97 32 98 33
REMARK SMILES IDX 101 34 99 36 100 37 20 38 21 39 22 40 23 41 24 42 25 43
REMARK SMILES IDX 26 44 87 45 27 46 86 47 28 48 29 49 30 50 80 51 31 52 85 53
REMARK SMILES IDX 79 54 81 55 32 56 84 57 78 58 77 59 33 61 65 62 45 63 64 64
REMARK SMILES IDX 46 65 49 66 63 67 82 68 47 69 48 70 62 72 83 73 50 74 34 75
REMARK SMILES IDX 35 76 43 77 36 78 42 79 44 80 41 81 37 82 38 83 39 84 40 85
REMARK SMILES IDX 66 86 67 87 75 88 68 89 74 90 76 91 73 92 69 93 70 94 71 95
REMARK SMILES IDX 72 96 51 97 52 98 60 99 53 100 59 101 61 102 58 103 54 104
REMARK SMILES IDX 55 105 56 106 57 107
REMARK H PARENT 10 14 97 35 81 60 49 71
REMARK Flexibility Score: inf
ROOT
ATOM      1  O   UNL A   1      32.355  27.764  27.261  1.00  0.00    -0.374 OA
ENDROOT
BRANCH   1   2
ATOM      2  C   UNL A   1      32.775  26.664  26.489  1.00  0.00     0.202 C 
BRANCH   2   3
ATOM      3  C   UNL A   1      31.640  25.742  26.491  1.00  0.00     0.261 C 
BRANCH   3   4
ATOM      4  O   UNL A   1      31.885  24.580  27.249  1.00  0.00    -0.460 OA
BRANCH   4   5
ATOM      5  C   UNL A   1      31.513  23.308  27.071  1.00  0.00     0.338 C 
ATOM      6  O   UNL A   1      30.490  22.709  27.329  1.00  0.00    -0.246 OA
BRANCH   5   7
ATOM      7  C   UNL A   1      32.805  22.700  26.737  1.00  0.00     0.062 A 
ATOM      8  C   UNL A   1      34.058  22.277  24.760  1.00  0.00     0.073 A 
ATOM      9  C   UNL A   1      32.913  22.090  25.465  1.00  0.00     0.044 A 
ATOM     10  C   UNL A   1      35.217  22.564  25.496  1.00  0.00     0.061 A 
ATOM     11  C   UNL A   1      35.128  22.989  26.845  1.00  0.00     0.029 A 
ATOM     12  C   UNL A   1      33.905  23.144  27.451  1.00  0.00     0.018 A 
BRANCH   8  13
ATOM     13  N   UNL A   1      33.980  22.147  23.326  1.00  0.00    -0.277 N 
ATOM     14  H   UNL A   1      34.654  21.600  22.861  1.00  0.00     0.180 HD
BRANCH  13  15
ATOM     15  S   UNL A   1      32.728  22.927  22.379  1.00  0.00     0.261 S 
ATOM     16  O   UNL A   1      31.609  22.004  22.364  1.00  0.00    -0.201 OA
ATOM     17  O   UNL A   1      33.378  23.235  21.117  1.00  0.00    -0.201 OA
BRANCH  15  18
ATOM     18  C   UNL A   1      32.089  24.532  23.021  1.00  0.00     0.088 A 
ATOM     19  C   UNL A   1      34.139  28.927  22.594  1.00  0.00     0.044 C 
ATOM     20  C   UNL A   1      33.035  28.037  23.080  1.00  0.00    -0.050 A 
ATOM     21  C   UNL A   1      30.912  28.305  23.274  1.00  0.00     0.003 A 
ATOM     22  C   UNL A   1      33.481  26.055  22.890  1.00  0.00     0.025 A 
ATOM     23  C   UNL A   1      29.478  26.860  23.513  1.00  0.00     0.002 A 
ATOM     24  C   UNL A   1      30.072  24.798  23.264  1.00  0.00     0.022 A 
ENDBRANCH  15  18
ENDBRANCH  13  15
ENDBRANCH   8  13
BRANCH  10  25
ATOM     25  N   UNL A   1      36.459  22.293  24.960  1.00  0.00    -0.369 N 
ATOM     26  C   UNL A   1      36.970  20.955  25.225  1.00  0.00     0.116 C 
ATOM     27  C   UNL A   1      37.315  23.416  24.622  1.00  0.00     0.126 C 
ATOM     28  C   UNL A   1      38.171  21.027  26.148  1.00  0.00     0.022 C 
ATOM     29  C   UNL A   1      38.586  23.445  25.485  1.00  0.00     0.064 C 
ATOM     30  C   UNL A   1      39.161  22.019  25.555  1.00  0.00     0.013 C 
BRANCH  29  31
ATOM     31  C   UNL A   1      38.322  24.143  26.848  1.00  0.00     0.267 C 
BRANCH  31  32
ATOM     32  N   UNL A   1      39.103  25.330  27.220  1.00  0.00    -0.335 N 
ATOM     33  C   UNL A   1      40.210  25.637  26.317  1.00  0.00     0.262 C 
ATOM     34  C   UNL A   1      39.628  25.369  28.580  1.00  0.00     0.262 C 
ATOM     35  H   UNL A   1      38.375  26.041  27.142  1.00  0.00     0.348 HD
ATOM     36  C   UNL A   1      41.428  25.032  26.989  1.00  0.00     0.067 C 
ATOM     37  C   UNL A   1      41.146  25.221  28.471  1.00  0.00     0.067 C 
ENDBRANCH  31  32
ENDBRANCH  29  31
ENDBRANCH  10  25
ENDBRANCH   5   7
ENDBRANCH   4   5
ENDBRANCH   3   4
ENDBRANCH   2   3
ENDBRANCH   1   2
BRANCH   1  38
ATOM     38  C   UNL A   1      31.467  28.651  26.647  1.00  0.00     0.202 C 
BRANCH  38  39
ATOM     39  C   UNL A   1      32.272  29.907  26.374  1.00  0.00     0.261 C 
BRANCH  39  40
ATOM     40  O   UNL A   1      32.840  30.360  27.656  1.00  0.00    -0.460 OA
BRANCH  40  41
ATOM     41  C   UNL A   1      33.509  31.567  27.689  1.00  0.00     0.338 C 
ATOM     42  O   UNL A   1      32.949  32.646  27.558  1.00  0.00    -0.246 OA
BRANCH  41  43
ATOM     43  C   UNL A   1      35.036  31.408  27.666  1.00  0.00     0.060 A 
ATOM     44  C   UNL A   1      35.654  30.202  28.049  1.00  0.00     0.016 A 
ATOM     45  C   UNL A   1      35.815  32.548  27.751  1.00  0.00     0.016 A 
ATOM     46  C   UNL A   1      36.871  30.215  28.800  1.00  0.00     0.010 A 
ATOM     47  C   UNL A   1      36.890  32.553  28.663  1.00  0.00     0.010 A 
ATOM     48  C   UNL A   1      37.371  31.407  29.340  1.00  0.00    -0.014 A 
BRANCH  48  49
ATOM     49  C   UNL A   1      38.525  31.593  30.393  1.00  0.00     0.031 A 
ATOM     50  C   UNL A   1      39.627  30.387  29.888  1.00  0.00     0.074 A 
ATOM     51  C   UNL A   1      38.852  32.743  31.486  1.00  0.00     0.049 A 
ATOM     52  N   UNL A   1      40.864  30.198  30.247  1.00  0.00    -0.248 NA
ATOM     53  C   UNL A   1      39.325  29.435  28.781  1.00  0.00     0.031 C 
ATOM     54  C   UNL A   1      40.740  33.094  32.523  1.00  0.00     0.029 A 
ATOM     55  N   UNL A   1      38.447  33.821  31.863  1.00  0.00    -0.354 N 
ATOM     56  C   UNL A   1      41.554  29.462  29.270  1.00  0.00     0.074 A 
ATOM     57  C   UNL A   1      40.529  29.000  28.382  1.00  0.00     0.031 C 
ATOM     58  C   UNL A   1      41.211  34.245  33.018  1.00  0.00     0.029 A 
ATOM     59  C   UNL A   1      39.891  33.955  33.021  1.00  0.00     0.049 A 
ATOM     60  H   UNL A   1      37.674  34.390  31.644  1.00  0.00     0.167 HD
ATOM     61  C   UNL A   1      42.928  29.398  29.283  1.00  0.00     0.034 A 
ATOM     62  C   UNL A   1      39.405  33.330  33.927  1.00  0.00     0.034 A 
ATOM     63  C   UNL A   1      43.443  29.981  30.536  1.00  0.00     0.049 A 
ATOM     64  C   UNL A   1      40.523  32.436  35.009  1.00  0.00     0.074 A 
ATOM     65  C   UNL A   1      44.263  31.039  30.880  1.00  0.00     0.029 A 
ATOM     66  N   UNL A   1      42.920  29.521  31.732  1.00  0.00    -0.354 N 
ATOM     67  N   UNL A   1      41.738  32.104  34.588  1.00  0.00    -0.248 NA
ATOM     68  C   UNL A   1      40.106  31.561  36.111  1.00  0.00     0.031 C 
ATOM     69  C   UNL A   1      44.087  31.294  32.283  1.00  0.00     0.029 A 
ATOM     70  C   UNL A   1      43.267  30.313  32.817  1.00  0.00     0.049 A 
ATOM     71  H   UNL A   1      42.360  28.714  31.805  1.00  0.00     0.167 HD
ATOM     72  C   UNL A   1      41.914  30.765  34.842  1.00  0.00     0.074 A 
ATOM     73  C   UNL A   1      40.886  30.497  35.856  1.00  0.00     0.031 C 
ATOM     74  C   UNL A   1      42.738  29.913  34.125  1.00  0.00     0.034 A 
BRANCH  61  75
ATOM     75  C   UNL A   1      43.923  28.906  28.195  1.00  0.00     0.023 A 
ATOM     76  C   UNL A   1      44.391  27.570  28.300  1.00  0.00     0.031 A 
ATOM     77  C   UNL A   1      44.499  29.615  27.116  1.00  0.00     0.131 A 
ATOM     78  C   UNL A   1      45.376  27.014  27.455  1.00  0.00     0.055 A 
ATOM     79  C   UNL A   1      45.461  29.048  26.238  1.00  0.00     0.041 A 
ATOM     80  F   UNL A   1      44.177  30.885  26.845  1.00  0.00    -0.206 F 
ATOM     81  C   UNL A   1      45.916  27.746  26.410  1.00  0.00     0.022 A 
BRANCH  78  82
ATOM     82  S   UNL A   1      45.959  25.326  27.798  1.00  0.00     0.124 S 
ATOM     83  O   UNL A   1      46.490  24.919  26.502  1.00  0.00    -0.237 OA
ATOM     84  O   UNL A   1      46.936  25.544  28.859  1.00  0.00    -0.237 OA
ATOM     85  O   UNL A   1      44.746  24.621  28.214  1.00  0.00    -0.744 OA
ENDBRANCH  78  82
ENDBRANCH  61  75
BRANCH  62  86
ATOM     86  C   UNL A   1      37.326  33.010  33.151  1.00  0.00     0.023 A 
ATOM     87  C   UNL A   1      36.203  34.182  33.055  1.00  0.00     0.031 A 
ATOM     88  C   UNL A   1      36.519  31.783  32.805  1.00  0.00     0.131 A 
ATOM     89  C   UNL A   1      34.883  34.132  32.565  1.00  0.00     0.055 A 
ATOM     90  C   UNL A   1      35.149  31.774  32.379  1.00  0.00     0.041 A 
ATOM     91  F   UNL A   1      37.046  30.538  32.825  1.00  0.00    -0.206 F 
ATOM     92  C   UNL A   1      34.379  32.919  32.164  1.00  0.00     0.022 A 
BRANCH  89  93
ATOM     93  S   UNL A   1      34.034  35.706  32.114  1.00  0.00     0.124 S 
ATOM     94  O   UNL A   1      34.169  35.746  30.666  1.00  0.00    -0.237 OA
ATOM     95  O   UNL A   1      32.677  35.516  32.627  1.00  0.00    -0.237 OA
ATOM     96  O   UNL A   1      34.808  36.698  32.860  1.00  0.00    -0.744 OA
ENDBRANCH  89  93
ENDBRANCH  62  86
BRANCH  74  97
ATOM     97  C   UNL A   1      43.110  28.530  34.636  1.00  0.00     0.023 A 
ATOM     98  C   UNL A   1      44.388  28.326  35.141  1.00  0.00     0.031 A 
ATOM     99  C   UNL A   1      42.345  27.348  34.480  1.00  0.00     0.131 A 
ATOM    100  C   UNL A   1      44.856  27.084  35.556  1.00  0.00     0.055 A 
ATOM    101  C   UNL A   1      42.837  26.078  34.813  1.00  0.00     0.041 A 
ATOM    102  F   UNL A   1      41.112  27.344  33.956  1.00  0.00    -0.206 F 
ATOM    103  C   UNL A   1      44.104  25.938  35.365  1.00  0.00     0.022 A 
BRANCH 100 104
ATOM    104  S   UNL A   1      46.502  27.090  36.286  1.00  0.00     0.124 S 
ATOM    105  O   UNL A   1      47.364  27.187  35.111  1.00  0.00    -0.237 OA
ATOM    106  O   UNL A   1      46.447  28.288  37.120  1.00  0.00    -0.237 OA
ATOM    107  O   UNL A   1      46.562  25.821  37.003  1.00  0.00    -0.744 OA
ENDBRANCH 100 104
ENDBRANCH  74  97
ENDBRANCH  48  49
ENDBRANCH  41  43
ENDBRANCH  40  41
ENDBRANCH  39  40
ENDBRANCH  38  39
ENDBRANCH   1  38
TORSDOF 23
ENDMDL
