MODEL 1
REMARK VINA RESULT:     -10.2      0.000      0.000
REMARK SMILES COc1ccccc1S(=O)(=O)[C@@H](C)[C@H](C)C(=O)OCCOCCOC(=O)c1ccc(-c2c3nc(c(-c4cc(S(=O)(=O)[O-])ccc4F)c4ccc([nH]4)c(-c4cc(S(=O)(=O)[O-])ccc4F)c4nc(c(-c5cc(S(=O)(=O)[O-])ccc5F)c5ccc2[nH]5)C=C4)C=C3)cc1
REMARK SMILES IDX 20 1 19 2 18 3 16 4 17 5 14 6 15 7 12 8 13 9 9 10 10 11
REMARK SMILES IDX 11 12 8 13 3 14 4 15 5 16 7 17 6 18 2 19 1 20 21 21 22 22
REMARK SMILES IDX 23 23 24 24 25 25 26 26 27 27 28 28 89 29 29 30 88 31 30 32
REMARK SMILES IDX 31 33 32 34 82 35 33 36 87 37 81 38 83 39 34 40 86 41 80 42
REMARK SMILES IDX 79 43 35 45 67 46 47 47 66 48 48 49 51 50 65 51 84 52 49 53
REMARK SMILES IDX 50 54 64 56 85 57 52 58 36 59 37 60 45 61 38 62 44 63 46 64
REMARK SMILES IDX 43 65 39 66 40 67 41 68 42 69 68 70 69 71 77 72 70 73 76 74
REMARK SMILES IDX 78 75 75 76 71 77 72 78 73 79 74 80 53 81 54 82 62 83 55 84
REMARK SMILES IDX 61 85 63 86 60 87 56 88 57 89 58 90 59 91
REMARK H PARENT 83 44 51 55
REMARK Flexibility Score: inf
ROOT
ATOM      1  C   UNL A   1      37.033  23.011  24.710  1.00  0.00     0.202 C 
ENDROOT
BRANCH   1   2
ATOM      2  C   UNL A   1      36.438  23.076  23.300  1.00  0.00     0.261 C 
BRANCH   2   3
ATOM      3  O   UNL A   1      35.017  22.850  23.317  1.00  0.00    -0.463 OA
BRANCH   3   4
ATOM      4  C   UNL A   1      34.240  23.958  23.273  1.00  0.00     0.310 C 
ATOM      5  O   UNL A   1      34.032  24.652  22.287  1.00  0.00    -0.252 OA
BRANCH   4   6
ATOM      6  C   UNL A   1      33.595  24.256  24.612  1.00  0.00     0.114 C 
ATOM      7  C   UNL A   1      33.560  25.755  24.951  1.00  0.00     0.021 C 
BRANCH   6   8
ATOM      8  C   UNL A   1      32.219  23.579  24.672  1.00  0.00     0.124 C 
ATOM      9  C   UNL A   1      31.101  24.431  25.284  1.00  0.00     0.026 C 
BRANCH   8  10
ATOM     10  S   UNL A   1      32.188  21.901  25.309  1.00  0.00     0.185 S 
ATOM     11  O   UNL A   1      30.885  21.748  25.939  1.00  0.00    -0.223 OA
ATOM     12  O   UNL A   1      33.376  21.702  26.125  1.00  0.00    -0.223 OA
BRANCH  10  13
ATOM     13  C   UNL A   1      32.299  20.612  24.091  1.00  0.00     0.109 A 
ATOM     14  C   UNL A   1      32.404  19.257  24.390  1.00  0.00     0.137 A 
ATOM     15  C   UNL A   1      32.412  18.316  23.349  1.00  0.00     0.048 A 
ATOM     16  C   UNL A   1      32.219  18.716  22.025  1.00  0.00     0.004 A 
ATOM     17  C   UNL A   1      32.107  21.009  22.754  1.00  0.00     0.024 A 
ATOM     18  C   UNL A   1      32.053  20.065  21.728  1.00  0.00     0.002 A 
BRANCH  14  19
ATOM     19  O   UNL A   1      32.581  18.821  25.671  1.00  0.00    -0.495 OA
ATOM     20  C   UNL A   1      32.694  17.403  25.751  1.00  0.00     0.278 C 
ENDBRANCH  14  19
ENDBRANCH  10  13
ENDBRANCH   8  10
ENDBRANCH   6   8
ENDBRANCH   4   6
ENDBRANCH   3   4
ENDBRANCH   2   3
ENDBRANCH   1   2
BRANCH   1  21
ATOM     21  O   UNL A   1      36.772  21.825  25.462  1.00  0.00    -0.374 OA
BRANCH  21  22
ATOM     22  C   UNL A   1      37.177  20.581  24.899  1.00  0.00     0.202 C 
BRANCH  22  23
ATOM     23  C   UNL A   1      38.531  20.017  25.353  1.00  0.00     0.261 C 
BRANCH  23  24
ATOM     24  O   UNL A   1      39.533  21.041  25.498  1.00  0.00    -0.460 OA
BRANCH  24  25
ATOM     25  C   UNL A   1      40.336  20.884  26.578  1.00  0.00     0.338 C 
ATOM     26  O   UNL A   1      40.905  19.856  26.924  1.00  0.00    -0.246 OA
BRANCH  25  27
ATOM     27  C   UNL A   1      40.614  22.186  27.212  1.00  0.00     0.060 A 
ATOM     28  C   UNL A   1      39.996  23.310  26.651  1.00  0.00     0.016 A 
ATOM     29  C   UNL A   1      41.516  22.327  28.271  1.00  0.00     0.016 A 
ATOM     30  C   UNL A   1      40.319  24.583  27.107  1.00  0.00     0.010 A 
ATOM     31  C   UNL A   1      41.844  23.611  28.724  1.00  0.00     0.010 A 
ATOM     32  C   UNL A   1      41.276  24.747  28.116  1.00  0.00    -0.014 A 
BRANCH  32  33
ATOM     33  C   UNL A   1      41.770  26.116  28.408  1.00  0.00     0.031 A 
ATOM     34  C   UNL A   1      43.125  26.530  27.901  1.00  0.00     0.074 A 
ATOM     35  C   UNL A   1      40.982  27.008  29.033  1.00  0.00     0.049 A 
ATOM     36  N   UNL A   1      43.712  27.699  27.948  1.00  0.00    -0.248 NA
ATOM     37  C   UNL A   1      43.925  25.480  27.254  1.00  0.00     0.031 C 
ATOM     38  C   UNL A   1      39.636  26.733  29.535  1.00  0.00     0.029 A 
ATOM     39  N   UNL A   1      41.190  28.330  29.332  1.00  0.00    -0.354 N 
ATOM     40  C   UNL A   1      44.944  27.531  27.324  1.00  0.00     0.074 A 
ATOM     41  C   UNL A   1      45.040  26.132  26.965  1.00  0.00     0.031 C 
ATOM     42  C   UNL A   1      39.133  27.860  30.066  1.00  0.00     0.029 A 
ATOM     43  C   UNL A   1      40.126  28.926  29.963  1.00  0.00     0.049 A 
ATOM     44  H   UNL A   1      42.025  28.806  29.115  1.00  0.00     0.167 HD
ATOM     45  C   UNL A   1      45.898  28.460  27.061  1.00  0.00     0.034 A 
ATOM     46  C   UNL A   1      39.972  30.189  30.407  1.00  0.00     0.034 A 
ATOM     47  C   UNL A   1      45.798  29.847  27.452  1.00  0.00     0.049 A 
ATOM     48  C   UNL A   1      41.083  31.184  30.186  1.00  0.00     0.074 A 
ATOM     49  C   UNL A   1      46.696  30.877  27.228  1.00  0.00     0.029 A 
ATOM     50  N   UNL A   1      44.742  30.397  28.170  1.00  0.00    -0.354 N 
ATOM     51  N   UNL A   1      42.234  31.020  29.576  1.00  0.00    -0.248 NA
ATOM     52  C   UNL A   1      40.862  32.539  30.706  1.00  0.00     0.031 C 
ATOM     53  C   UNL A   1      46.220  32.025  27.873  1.00  0.00     0.029 A 
ATOM     54  C   UNL A   1      44.986  31.738  28.433  1.00  0.00     0.049 A 
ATOM     55  H   UNL A   1      43.936  29.906  28.450  1.00  0.00     0.167 HD
ATOM     56  C   UNL A   1      42.868  32.260  29.623  1.00  0.00     0.074 A 
ATOM     57  C   UNL A   1      41.957  33.163  30.298  1.00  0.00     0.031 C 
ATOM     58  C   UNL A   1      44.089  32.621  29.146  1.00  0.00     0.034 A 
BRANCH  45  59
ATOM     59  C   UNL A   1      47.152  27.975  26.367  1.00  0.00     0.023 A 
ATOM     60  C   UNL A   1      47.345  28.143  24.984  1.00  0.00     0.031 A 
ATOM     61  C   UNL A   1      48.136  27.272  27.084  1.00  0.00     0.131 A 
ATOM     62  C   UNL A   1      48.441  27.538  24.349  1.00  0.00     0.055 A 
ATOM     63  C   UNL A   1      49.270  26.747  26.460  1.00  0.00     0.041 A 
ATOM     64  F   UNL A   1      48.000  27.057  28.403  1.00  0.00    -0.206 F 
ATOM     65  C   UNL A   1      49.417  26.860  25.081  1.00  0.00     0.022 A 
BRANCH  62  66
ATOM     66  S   UNL A   1      48.473  27.487  22.534  1.00  0.00     0.124 S 
ATOM     67  O   UNL A   1      48.460  26.049  22.279  1.00  0.00    -0.237 OA
ATOM     68  O   UNL A   1      47.259  28.211  22.179  1.00  0.00    -0.237 OA
ATOM     69  O   UNL A   1      49.724  28.161  22.195  1.00  0.00    -0.744 OA
ENDBRANCH  62  66
ENDBRANCH  45  59
BRANCH  46  70
ATOM     70  C   UNL A   1      38.724  30.585  31.118  1.00  0.00     0.023 A 
ATOM     71  C   UNL A   1      37.685  31.250  30.450  1.00  0.00     0.031 A 
ATOM     72  C   UNL A   1      38.568  30.326  32.492  1.00  0.00     0.131 A 
ATOM     73  C   UNL A   1      36.547  31.661  31.162  1.00  0.00     0.055 A 
ATOM     74  C   UNL A   1      37.416  30.697  33.186  1.00  0.00     0.041 A 
ATOM     75  F   UNL A   1      39.534  29.691  33.176  1.00  0.00    -0.206 F 
ATOM     76  C   UNL A   1      36.400  31.376  32.521  1.00  0.00     0.022 A 
BRANCH  73  77
ATOM     77  S   UNL A   1      35.275  32.617  30.293  1.00  0.00     0.124 S 
ATOM     78  O   UNL A   1      35.091  31.832  29.077  1.00  0.00    -0.237 OA
ATOM     79  O   UNL A   1      34.171  32.592  31.247  1.00  0.00    -0.237 OA
ATOM     80  O   UNL A   1      35.901  33.925  30.104  1.00  0.00    -0.744 OA
ENDBRANCH  73  77
ENDBRANCH  46  70
BRANCH  58  81
ATOM     81  C   UNL A   1      44.491  34.066  29.337  1.00  0.00     0.023 A 
ATOM     82  C   UNL A   1      45.173  34.493  30.492  1.00  0.00     0.031 A 
ATOM     83  C   UNL A   1      44.147  35.035  28.379  1.00  0.00     0.131 A 
ATOM     84  C   UNL A   1      45.419  35.860  30.694  1.00  0.00     0.055 A 
ATOM     85  C   UNL A   1      44.456  36.385  28.553  1.00  0.00     0.041 A 
ATOM     86  F   UNL A   1      43.493  34.688  27.259  1.00  0.00    -0.206 F 
ATOM     87  C   UNL A   1      45.079  36.807  29.725  1.00  0.00     0.022 A 
BRANCH  84  88
ATOM     88  S   UNL A   1      46.075  36.399  32.298  1.00  0.00     0.124 S 
ATOM     89  O   UNL A   1      45.006  37.266  32.786  1.00  0.00    -0.237 OA
ATOM     90  O   UNL A   1      46.242  35.134  33.007  1.00  0.00    -0.237 OA
ATOM     91  O   UNL A   1      47.318  37.084  31.949  1.00  0.00    -0.744 OA
ENDBRANCH  84  88
ENDBRANCH  58  81
ENDBRANCH  32  33
ENDBRANCH  25  27
ENDBRANCH  24  25
ENDBRANCH  23  24
ENDBRANCH  22  23
ENDBRANCH  21  22
ENDBRANCH   1  21
TORSDOF 21
ENDMDL
MODEL 2
REMARK VINA RESULT:     -10.1      2.148      8.242
REMARK SMILES COc1ccccc1S(=O)(=O)[C@@H](C)[C@H](C)C(=O)OCCOCCOC(=O)c1ccc(-c2c3nc(c(-c4cc(S(=O)(=O)[O-])ccc4F)c4ccc([nH]4)c(-c4cc(S(=O)(=O)[O-])ccc4F)c4nc(c(-c5cc(S(=O)(=O)[O-])ccc5F)c5ccc2[nH]5)C=C4)C=C3)cc1
REMARK SMILES IDX 20 1 19 2 18 3 16 4 17 5 14 6 15 7 12 8 13 9 9 10 10 11
REMARK SMILES IDX 11 12 8 13 3 14 4 15 5 16 7 17 6 18 2 19 1 20 21 21 22 22
REMARK SMILES IDX 23 23 24 24 25 25 26 26 27 27 28 28 89 29 29 30 88 31 30 32
REMARK SMILES IDX 31 33 32 34 82 35 33 36 87 37 81 38 83 39 34 40 86 41 80 42
REMARK SMILES IDX 79 43 35 45 67 46 47 47 66 48 48 49 51 50 65 51 84 52 49 53
REMARK SMILES IDX 50 54 64 56 85 57 52 58 36 59 37 60 45 61 38 62 44 63 46 64
REMARK SMILES IDX 43 65 39 66 40 67 41 68 42 69 68 70 69 71 77 72 70 73 76 74
REMARK SMILES IDX 78 75 75 76 71 77 72 78 73 79 74 80 53 81 54 82 62 83 55 84
REMARK SMILES IDX 61 85 63 86 60 87 56 88 57 89 58 90 59 91
REMARK H PARENT 83 44 51 55
REMARK Flexibility Score: inf
ROOT
ATOM      1  C   UNL A   1      35.845  23.166  24.854  1.00  0.00     0.202 C 
ENDROOT
BRANCH   1   2
ATOM      2  C   UNL A   1      35.454  23.257  23.376  1.00  0.00     0.261 C 
BRANCH   2   3
ATOM      3  O   UNL A   1      34.033  23.120  23.197  1.00  0.00    -0.463 OA
BRANCH   3   4
ATOM      4  C   UNL A   1      33.368  24.247  22.848  1.00  0.00     0.310 C 
ATOM      5  O   UNL A   1      33.752  25.088  22.047  1.00  0.00    -0.252 OA
BRANCH   4   6
ATOM      6  C   UNL A   1      32.029  24.360  23.549  1.00  0.00     0.114 C 
ATOM      7  C   UNL A   1      31.074  23.200  23.228  1.00  0.00     0.021 C 
BRANCH   6   8
ATOM      8  C   UNL A   1      32.261  24.570  25.051  1.00  0.00     0.124 C 
ATOM      9  C   UNL A   1      31.526  23.583  25.966  1.00  0.00     0.026 C 
BRANCH   8  10
ATOM     10  S   UNL A   1      32.109  26.255  25.649  1.00  0.00     0.185 S 
ATOM     11  O   UNL A   1      33.433  26.843  25.499  1.00  0.00    -0.223 OA
ATOM     12  O   UNL A   1      31.521  26.215  26.979  1.00  0.00    -0.223 OA
BRANCH  10  13
ATOM     13  C   UNL A   1      31.001  27.301  24.735  1.00  0.00     0.109 A 
ATOM     14  C   UNL A   1      31.294  28.606  24.347  1.00  0.00     0.137 A 
ATOM     15  C   UNL A   1      30.373  29.318  23.564  1.00  0.00     0.048 A 
ATOM     16  C   UNL A   1      29.213  28.703  23.090  1.00  0.00     0.004 A 
ATOM     17  C   UNL A   1      29.828  26.687  24.256  1.00  0.00     0.024 A 
ATOM     18  C   UNL A   1      28.946  27.380  23.426  1.00  0.00     0.002 A 
BRANCH  14  19
ATOM     19  O   UNL A   1      32.422  29.242  24.777  1.00  0.00    -0.495 OA
ATOM     20  C   UNL A   1      32.163  30.137  25.854  1.00  0.00     0.278 C 
ENDBRANCH  14  19
ENDBRANCH  10  13
ENDBRANCH   8  10
ENDBRANCH   6   8
ENDBRANCH   4   6
ENDBRANCH   3   4
ENDBRANCH   2   3
ENDBRANCH   1   2
BRANCH   1  21
ATOM     21  O   UNL A   1      36.013  21.854  25.393  1.00  0.00    -0.374 OA
BRANCH  21  22
ATOM     22  C   UNL A   1      36.418  20.819  24.503  1.00  0.00     0.202 C 
BRANCH  22  23
ATOM     23  C   UNL A   1      37.675  20.024  24.882  1.00  0.00     0.261 C 
BRANCH  23  24
ATOM     24  O   UNL A   1      38.199  20.401  26.168  1.00  0.00    -0.460 OA
BRANCH  24  25
ATOM     25  C   UNL A   1      39.550  20.481  26.218  1.00  0.00     0.338 C 
ATOM     26  O   UNL A   1      40.349  19.671  25.763  1.00  0.00    -0.246 OA
BRANCH  25  27
ATOM     27  C   UNL A   1      39.974  21.796  26.732  1.00  0.00     0.060 A 
ATOM     28  C   UNL A   1      39.347  22.923  26.188  1.00  0.00     0.016 A 
ATOM     29  C   UNL A   1      41.012  21.939  27.659  1.00  0.00     0.016 A 
ATOM     30  C   UNL A   1      39.791  24.198  26.523  1.00  0.00     0.010 A 
ATOM     31  C   UNL A   1      41.461  23.224  27.990  1.00  0.00     0.010 A 
ATOM     32  C   UNL A   1      40.878  24.358  27.391  1.00  0.00    -0.014 A 
BRANCH  32  33
ATOM     33  C   UNL A   1      41.475  25.709  27.536  1.00  0.00     0.031 A 
ATOM     34  C   UNL A   1      40.733  26.759  28.317  1.00  0.00     0.074 A 
ATOM     35  C   UNL A   1      42.706  25.966  27.060  1.00  0.00     0.049 A 
ATOM     36  N   UNL A   1      41.107  27.967  28.656  1.00  0.00    -0.248 NA
ATOM     37  C   UNL A   1      39.384  26.395  28.775  1.00  0.00     0.031 C 
ATOM     38  C   UNL A   1      43.537  25.017  26.321  1.00  0.00     0.029 A 
ATOM     39  N   UNL A   1      43.479  27.096  27.145  1.00  0.00    -0.354 N 
ATOM     40  C   UNL A   1      40.047  28.503  29.380  1.00  0.00     0.074 A 
ATOM     41  C   UNL A   1      38.995  27.508  29.375  1.00  0.00     0.031 C 
ATOM     42  C   UNL A   1      44.713  25.599  26.034  1.00  0.00     0.029 A 
ATOM     43  C   UNL A   1      44.710  26.968  26.547  1.00  0.00     0.049 A 
ATOM     44  H   UNL A   1      43.180  27.921  27.592  1.00  0.00     0.167 HD
ATOM     45  C   UNL A   1      39.966  29.706  30.005  1.00  0.00     0.034 A 
ATOM     46  C   UNL A   1      45.718  27.853  26.429  1.00  0.00     0.034 A 
ATOM     47  C   UNL A   1      41.015  30.698  29.977  1.00  0.00     0.049 A 
ATOM     48  C   UNL A   1      45.571  29.219  27.052  1.00  0.00     0.074 A 
ATOM     49  C   UNL A   1      41.047  31.942  30.583  1.00  0.00     0.029 A 
ATOM     50  N   UNL A   1      42.215  30.568  29.286  1.00  0.00    -0.354 N 
ATOM     51  N   UNL A   1      44.574  29.707  27.753  1.00  0.00    -0.248 NA
ATOM     52  C   UNL A   1      46.697  30.144  26.876  1.00  0.00     0.031 C 
ATOM     53  C   UNL A   1      42.227  32.591  30.197  1.00  0.00     0.029 A 
ATOM     54  C   UNL A   1      42.972  31.724  29.415  1.00  0.00     0.049 A 
ATOM     55  H   UNL A   1      42.488  29.770  28.778  1.00  0.00     0.167 HD
ATOM     56  C   UNL A   1      44.961  30.995  28.118  1.00  0.00     0.074 A 
ATOM     57  C   UNL A   1      46.293  31.192  27.579  1.00  0.00     0.031 C 
ATOM     58  C   UNL A   1      44.282  31.927  28.837  1.00  0.00     0.034 A 
BRANCH  45  59
ATOM     59  C   UNL A   1      38.669  30.019  30.718  1.00  0.00     0.023 A 
ATOM     60  C   UNL A   1      37.623  30.714  30.083  1.00  0.00     0.031 A 
ATOM     61  C   UNL A   1      38.502  29.682  32.073  1.00  0.00     0.131 A 
ATOM     62  C   UNL A   1      36.505  31.129  30.822  1.00  0.00     0.055 A 
ATOM     63  C   UNL A   1      37.346  30.021  32.781  1.00  0.00     0.041 A 
ATOM     64  F   UNL A   1      39.472  29.039  32.743  1.00  0.00    -0.206 F 
ATOM     65  C   UNL A   1      36.348  30.767  32.161  1.00  0.00     0.022 A 
BRANCH  62  66
ATOM     66  S   UNL A   1      35.350  32.306  30.062  1.00  0.00     0.124 S 
ATOM     67  O   UNL A   1      34.468  32.621  31.184  1.00  0.00    -0.237 OA
ATOM     68  O   UNL A   1      36.236  33.377  29.624  1.00  0.00    -0.237 OA
ATOM     69  O   UNL A   1      34.728  31.532  28.990  1.00  0.00    -0.744 OA
ENDBRANCH  62  66
ENDBRANCH  45  59
BRANCH  46  70
ATOM     70  C   UNL A   1      46.951  27.487  25.677  1.00  0.00     0.023 A 
ATOM     71  C   UNL A   1      47.097  27.806  24.319  1.00  0.00     0.031 A 
ATOM     72  C   UNL A   1      47.994  26.785  26.308  1.00  0.00     0.131 A 
ATOM     73  C   UNL A   1      48.247  27.396  23.625  1.00  0.00     0.055 A 
ATOM     74  C   UNL A   1      49.154  26.418  25.626  1.00  0.00     0.041 A 
ATOM     75  F   UNL A   1      47.902  26.458  27.608  1.00  0.00    -0.206 F 
ATOM     76  C   UNL A   1      49.281  26.717  24.273  1.00  0.00     0.022 A 
BRANCH  73  77
ATOM     77  S   UNL A   1      48.352  27.723  21.845  1.00  0.00     0.124 S 
ATOM     78  O   UNL A   1      48.532  26.379  21.305  1.00  0.00    -0.237 OA
ATOM     79  O   UNL A   1      47.065  28.356  21.575  1.00  0.00    -0.237 OA
ATOM     80  O   UNL A   1      49.512  28.604  21.728  1.00  0.00    -0.744 OA
ENDBRANCH  73  77
ENDBRANCH  46  70
BRANCH  58  81
ATOM     81  C   UNL A   1      44.990  33.240  29.084  1.00  0.00     0.023 A 
ATOM     82  C   UNL A   1      44.689  34.391  28.333  1.00  0.00     0.031 A 
ATOM     83  C   UNL A   1      46.011  33.330  30.047  1.00  0.00     0.131 A 
ATOM     84  C   UNL A   1      45.451  35.558  28.503  1.00  0.00     0.055 A 
ATOM     85  C   UNL A   1      46.720  34.514  30.260  1.00  0.00     0.041 A 
ATOM     86  F   UNL A   1      46.345  32.264  30.791  1.00  0.00    -0.206 F 
ATOM     87  C   UNL A   1      46.454  35.631  29.472  1.00  0.00     0.022 A 
BRANCH  84  88
ATOM     88  S   UNL A   1      45.200  36.937  27.351  1.00  0.00     0.124 S 
ATOM     89  O   UNL A   1      44.044  36.485  26.584  1.00  0.00    -0.237 OA
ATOM     90  O   UNL A   1      44.966  38.059  28.255  1.00  0.00    -0.237 OA
ATOM     91  O   UNL A   1      46.455  36.994  26.604  1.00  0.00    -0.744 OA
ENDBRANCH  84  88
ENDBRANCH  58  81
ENDBRANCH  32  33
ENDBRANCH  25  27
ENDBRANCH  24  25
ENDBRANCH  23  24
ENDBRANCH  22  23
ENDBRANCH  21  22
ENDBRANCH   1  21
TORSDOF 21
ENDMDL
MODEL 3
REMARK VINA RESULT:      -9.8      2.658      4.352
REMARK SMILES COc1ccccc1S(=O)(=O)[C@@H](C)[C@H](C)C(=O)OCCOCCOC(=O)c1ccc(-c2c3nc(c(-c4cc(S(=O)(=O)[O-])ccc4F)c4ccc([nH]4)c(-c4cc(S(=O)(=O)[O-])ccc4F)c4nc(c(-c5cc(S(=O)(=O)[O-])ccc5F)c5ccc2[nH]5)C=C4)C=C3)cc1
REMARK SMILES IDX 20 1 19 2 18 3 16 4 17 5 14 6 15 7 12 8 13 9 9 10 10 11
REMARK SMILES IDX 11 12 8 13 3 14 4 15 5 16 7 17 6 18 2 19 1 20 21 21 22 22
REMARK SMILES IDX 23 23 24 24 25 25 26 26 27 27 28 28 89 29 29 30 88 31 30 32
REMARK SMILES IDX 31 33 32 34 82 35 33 36 87 37 81 38 83 39 34 40 86 41 80 42
REMARK SMILES IDX 79 43 35 45 67 46 47 47 66 48 48 49 51 50 65 51 84 52 49 53
REMARK SMILES IDX 50 54 64 56 85 57 52 58 36 59 37 60 45 61 38 62 44 63 46 64
REMARK SMILES IDX 43 65 39 66 40 67 41 68 42 69 68 70 69 71 77 72 70 73 76 74
REMARK SMILES IDX 78 75 75 76 71 77 72 78 73 79 74 80 53 81 54 82 62 83 55 84
REMARK SMILES IDX 61 85 63 86 60 87 56 88 57 89 58 90 59 91
REMARK H PARENT 83 44 51 55
REMARK Flexibility Score: inf
ROOT
ATOM      1  C   UNL A   1      34.193  21.461  26.211  1.00  0.00     0.202 C 
ENDROOT
BRANCH   1   2
ATOM      2  C   UNL A   1      33.786  21.876  27.628  1.00  0.00     0.261 C 
BRANCH   2   3
ATOM      3  O   UNL A   1      32.630  22.732  27.616  1.00  0.00    -0.463 OA
BRANCH   3   4
ATOM      4  C   UNL A   1      32.626  23.709  26.678  1.00  0.00     0.310 C 
ATOM      5  O   UNL A   1      33.534  24.501  26.462  1.00  0.00    -0.252 OA
BRANCH   4   6
ATOM      6  C   UNL A   1      31.350  23.711  25.860  1.00  0.00     0.114 C 
ATOM      7  C   UNL A   1      30.493  22.452  26.067  1.00  0.00     0.021 C 
BRANCH   6   8
ATOM      8  C   UNL A   1      30.591  25.021  26.111  1.00  0.00     0.124 C 
ATOM      9  C   UNL A   1      29.128  24.854  26.537  1.00  0.00     0.026 C 
BRANCH   8  10
ATOM     10  S   UNL A   1      30.767  26.292  24.856  1.00  0.00     0.185 S 
ATOM     11  O   UNL A   1      29.433  26.487  24.309  1.00  0.00    -0.223 OA
ATOM     12  O   UNL A   1      31.832  25.892  23.948  1.00  0.00    -0.223 OA
BRANCH  10  13
ATOM     13  C   UNL A   1      31.296  27.884  25.441  1.00  0.00     0.109 A 
ATOM     14  C   UNL A   1      31.186  29.065  24.710  1.00  0.00     0.137 A 
ATOM     15  C   UNL A   1      31.569  30.280  25.297  1.00  0.00     0.048 A 
ATOM     16  C   UNL A   1      31.966  30.333  26.635  1.00  0.00     0.004 A 
ATOM     17  C   UNL A   1      31.699  27.944  26.789  1.00  0.00     0.024 A 
ATOM     18  C   UNL A   1      32.019  29.163  27.386  1.00  0.00     0.002 A 
BRANCH  14  19
ATOM     19  O   UNL A   1      30.791  29.061  23.404  1.00  0.00    -0.495 OA
ATOM     20  C   UNL A   1      29.662  29.899  23.176  1.00  0.00     0.278 C 
ENDBRANCH  14  19
ENDBRANCH  10  13
ENDBRANCH   8  10
ENDBRANCH   6   8
ENDBRANCH   4   6
ENDBRANCH   3   4
ENDBRANCH   2   3
ENDBRANCH   1   2
BRANCH   1  21
ATOM     21  O   UNL A   1      35.589  21.491  25.910  1.00  0.00    -0.374 OA
BRANCH  21  22
ATOM     22  C   UNL A   1      36.073  22.569  25.115  1.00  0.00     0.202 C 
BRANCH  22  23
ATOM     23  C   UNL A   1      37.537  22.983  25.317  1.00  0.00     0.261 C 
BRANCH  23  24
ATOM     24  O   UNL A   1      38.246  22.090  26.197  1.00  0.00    -0.460 OA
BRANCH  24  25
ATOM     25  C   UNL A   1      39.525  22.457  26.450  1.00  0.00     0.338 C 
ATOM     26  O   UNL A   1      40.537  21.817  26.186  1.00  0.00    -0.246 OA
BRANCH  25  27
ATOM     27  C   UNL A   1      39.581  23.851  26.925  1.00  0.00     0.060 A 
ATOM     28  C   UNL A   1      39.991  24.820  26.002  1.00  0.00     0.016 A 
ATOM     29  C   UNL A   1      39.323  24.201  28.254  1.00  0.00     0.016 A 
ATOM     30  C   UNL A   1      40.199  26.132  26.415  1.00  0.00     0.010 A 
ATOM     31  C   UNL A   1      39.540  25.522  28.669  1.00  0.00     0.010 A 
ATOM     32  C   UNL A   1      40.018  26.484  27.759  1.00  0.00    -0.014 A 
BRANCH  32  33
ATOM     33  C   UNL A   1      40.479  27.821  28.209  1.00  0.00     0.031 A 
ATOM     34  C   UNL A   1      41.915  28.213  27.993  1.00  0.00     0.074 A 
ATOM     35  C   UNL A   1      39.605  28.709  28.715  1.00  0.00     0.049 A 
ATOM     36  N   UNL A   1      42.509  29.358  28.211  1.00  0.00    -0.248 NA
ATOM     37  C   UNL A   1      42.800  27.167  27.459  1.00  0.00     0.031 C 
ATOM     38  C   UNL A   1      38.182  28.457  28.935  1.00  0.00     0.029 A 
ATOM     39  N   UNL A   1      39.784  30.009  29.115  1.00  0.00    -0.354 N 
ATOM     40  C   UNL A   1      43.835  29.178  27.828  1.00  0.00     0.074 A 
ATOM     41  C   UNL A   1      43.965  27.794  27.422  1.00  0.00     0.031 C 
ATOM     42  C   UNL A   1      37.612  29.574  29.416  1.00  0.00     0.029 A 
ATOM     43  C   UNL A   1      38.632  30.611  29.560  1.00  0.00     0.049 A 
ATOM     44  H   UNL A   1      40.655  30.466  29.086  1.00  0.00     0.167 HD
ATOM     45  C   UNL A   1      44.844  30.086  27.800  1.00  0.00     0.034 A 
ATOM     46  C   UNL A   1      38.425  31.857  30.029  1.00  0.00     0.034 A 
ATOM     47  C   UNL A   1      44.703  31.456  28.234  1.00  0.00     0.049 A 
ATOM     48  C   UNL A   1      39.581  32.824  30.077  1.00  0.00     0.074 A 
ATOM     49  C   UNL A   1      45.651  32.465  28.239  1.00  0.00     0.029 A 
ATOM     50  N   UNL A   1      43.541  32.008  28.763  1.00  0.00    -0.354 N 
ATOM     51  N   UNL A   1      40.824  32.649  29.691  1.00  0.00    -0.248 NA
ATOM     52  C   UNL A   1      39.296  34.160  30.612  1.00  0.00     0.031 C 
ATOM     53  C   UNL A   1      45.087  33.598  28.839  1.00  0.00     0.029 A 
ATOM     54  C   UNL A   1      43.761  33.327  29.136  1.00  0.00     0.049 A 
ATOM     55  H   UNL A   1      42.685  31.532  28.858  1.00  0.00     0.167 HD
ATOM     56  C   UNL A   1      41.467  33.864  29.922  1.00  0.00     0.074 A 
ATOM     57  C   UNL A   1      40.464  34.765  30.455  1.00  0.00     0.031 C 
ATOM     58  C   UNL A   1      42.765  34.205  29.707  1.00  0.00     0.034 A 
BRANCH  45  59
ATOM     59  C   UNL A   1      46.196  29.591  27.336  1.00  0.00     0.023 A 
ATOM     60  C   UNL A   1      46.418  29.179  26.009  1.00  0.00     0.031 A 
ATOM     61  C   UNL A   1      47.258  29.463  28.248  1.00  0.00     0.131 A 
ATOM     62  C   UNL A   1      47.635  28.575  25.656  1.00  0.00     0.055 A 
ATOM     63  C   UNL A   1      48.498  28.941  27.868  1.00  0.00     0.041 A 
ATOM     64  F   UNL A   1      47.103  29.817  29.534  1.00  0.00    -0.206 F 
ATOM     65  C   UNL A   1      48.685  28.474  26.571  1.00  0.00     0.022 A 
BRANCH  62  66
ATOM     66  S   UNL A   1      47.760  27.754  24.042  1.00  0.00     0.124 S 
ATOM     67  O   UNL A   1      47.107  26.474  24.310  1.00  0.00    -0.237 OA
ATOM     68  O   UNL A   1      47.038  28.669  23.167  1.00  0.00    -0.237 OA
ATOM     69  O   UNL A   1      49.200  27.671  23.809  1.00  0.00    -0.744 OA
ENDBRANCH  62  66
ENDBRANCH  45  59
BRANCH  46  70
ATOM     70  C   UNL A   1      37.073  32.262  30.507  1.00  0.00     0.023 A 
ATOM     71  C   UNL A   1      36.177  32.940  29.667  1.00  0.00     0.031 A 
ATOM     72  C   UNL A   1      36.669  31.996  31.828  1.00  0.00     0.131 A 
ATOM     73  C   UNL A   1      34.933  33.358  30.165  1.00  0.00     0.055 A 
ATOM     74  C   UNL A   1      35.415  32.375  32.306  1.00  0.00     0.041 A 
ATOM     75  F   UNL A   1      37.491  31.348  32.671  1.00  0.00    -0.206 F 
ATOM     76  C   UNL A   1      34.541  33.068  31.474  1.00  0.00     0.022 A 
BRANCH  73  77
ATOM     77  S   UNL A   1      33.847  34.333  29.088  1.00  0.00     0.124 S 
ATOM     78  O   UNL A   1      32.972  34.983  30.058  1.00  0.00    -0.237 OA
ATOM     79  O   UNL A   1      34.798  35.199  28.401  1.00  0.00    -0.237 OA
ATOM     80  O   UNL A   1      33.207  33.324  28.247  1.00  0.00    -0.744 OA
ENDBRANCH  73  77
ENDBRANCH  46  70
BRANCH  58  81
ATOM     81  C   UNL A   1      43.156  35.626  30.045  1.00  0.00     0.023 A 
ATOM     82  C   UNL A   1      43.073  36.659  29.093  1.00  0.00     0.031 A 
ATOM     83  C   UNL A   1      43.663  35.943  31.318  1.00  0.00     0.131 A 
ATOM     84  C   UNL A   1      43.562  37.938  29.402  1.00  0.00     0.055 A 
ATOM     85  C   UNL A   1      44.084  37.234  31.642  1.00  0.00     0.041 A 
ATOM     86  F   UNL A   1      43.769  34.999  32.266  1.00  0.00    -0.206 F 
ATOM     87  C   UNL A   1      44.052  38.236  30.675  1.00  0.00     0.022 A 
BRANCH  84  88
ATOM     88  S   UNL A   1      43.667  39.174  28.077  1.00  0.00     0.124 S 
ATOM     89  O   UNL A   1      45.100  39.448  28.032  1.00  0.00    -0.237 OA
ATOM     90  O   UNL A   1      43.120  38.451  26.933  1.00  0.00    -0.237 OA
ATOM     91  O   UNL A   1      42.840  40.275  28.568  1.00  0.00    -0.744 OA
ENDBRANCH  84  88
ENDBRANCH  58  81
ENDBRANCH  32  33
ENDBRANCH  25  27
ENDBRANCH  24  25
ENDBRANCH  23  24
ENDBRANCH  22  23
ENDBRANCH  21  22
ENDBRANCH   1  21
TORSDOF 21
ENDMDL
