MODEL 1
REMARK VINA RESULT:     -11.0      0.000      0.000
REMARK SMILES O=C(CN(CC(=O)OCCOCCOC(=O)c1ccc(-c2c3nc(c(-c4cc(S(=O)(=O)[O-])ccc4F)c4ccc([nH]4)c(-c4cc(S(=O)(=O)[O-])ccc4F)c4nc(c(-c5cc(S(=O)(=O)[O-])ccc5F)c5ccc2[nH]5)C=C4)C=C3)cc1)c1ccccc1)NCc1ccccc1
REMARK SMILES IDX 10 1 9 2 8 3 6 4 7 5 5 6 4 7 3 8 2 9 1 10 86 11 87 13 88 14
REMARK SMILES IDX 89 15 93 16 90 17 92 18 91 19 80 20 81 21 85 22 82 23 84 24
REMARK SMILES IDX 83 25 11 26 12 27 13 28 14 29 15 30 16 31 17 32 18 33 79 34
REMARK SMILES IDX 19 35 78 36 20 37 21 38 22 39 72 40 23 41 77 42 71 43 73 44
REMARK SMILES IDX 24 45 76 46 70 47 69 48 25 50 57 51 37 52 56 53 38 54 41 55
REMARK SMILES IDX 55 56 74 57 39 58 40 59 54 61 75 62 42 63 26 64 27 65 35 66
REMARK SMILES IDX 28 67 34 68 36 69 33 70 29 71 30 72 31 73 32 74 58 75 59 76
REMARK SMILES IDX 67 77 60 78 66 79 68 80 65 81 61 82 62 83 63 84 64 85 43 86
REMARK SMILES IDX 44 87 52 88 45 89 51 90 53 91 50 92 46 93 47 94 48 95 49 96
REMARK H PARENT 86 12 73 49 41 60
REMARK Flexibility Score: inf
ROOT
ATOM      1  C   UNL A   1      35.322  23.089  24.695  1.00  0.00     0.202 C 
ENDROOT
BRANCH   1   2
ATOM      2  C   UNL A   1      34.127  24.035  24.893  1.00  0.00     0.261 C 
BRANCH   2   3
ATOM      3  O   UNL A   1      34.331  25.402  24.473  1.00  0.00    -0.462 OA
BRANCH   3   4
ATOM      4  C   UNL A   1      33.639  25.774  23.360  1.00  0.00     0.325 C 
ATOM      5  O   UNL A   1      33.398  25.028  22.412  1.00  0.00    -0.250 OA
BRANCH   4   6
ATOM      6  C   UNL A   1      33.250  27.250  23.303  1.00  0.00     0.239 C 
BRANCH   6   7
ATOM      7  N   UNL A   1      32.212  27.736  24.239  1.00  0.00    -0.351 N 
BRANCH   7   8
ATOM      8  C   UNL A   1      30.902  27.029  24.171  1.00  0.00     0.217 C 
BRANCH   8   9
ATOM      9  C   UNL A   1      29.991  27.574  23.048  1.00  0.00     0.239 C 
ATOM     10  O   UNL A   1      30.407  27.792  21.914  1.00  0.00    -0.273 OA
ATOM     11  N   UNL A   1      28.689  27.810  23.437  1.00  0.00    -0.350 N 
ATOM     12  H   UNL A   1      28.381  27.443  24.297  1.00  0.00     0.163 HD
BRANCH  11  13
ATOM     13  C   UNL A   1      27.759  28.571  22.640  1.00  0.00     0.151 C 
BRANCH  13  14
ATOM     14  C   UNL A   1      28.118  30.025  22.469  1.00  0.00    -0.029 A 
ATOM     15  C   UNL A   1      28.403  30.792  23.611  1.00  0.00     0.005 A 
ATOM     16  C   UNL A   1      28.089  30.666  21.223  1.00  0.00     0.005 A 
ATOM     17  C   UNL A   1      28.674  32.157  23.508  1.00  0.00     0.000 A 
ATOM     18  C   UNL A   1      28.364  32.033  21.120  1.00  0.00     0.000 A 
ATOM     19  C   UNL A   1      28.657  32.777  22.262  1.00  0.00     0.000 A 
ENDBRANCH  13  14
ENDBRANCH  11  13
ENDBRANCH   8   9
ENDBRANCH   7   8
BRANCH   7  20
ATOM     20  C   UNL A   1      32.429  28.754  25.166  1.00  0.00     0.038 A 
ATOM     21  C   UNL A   1      31.556  29.845  25.310  1.00  0.00     0.026 A 
ATOM     22  C   UNL A   1      33.550  28.758  26.023  1.00  0.00     0.026 A 
ATOM     23  C   UNL A   1      31.745  30.832  26.293  1.00  0.00     0.002 A 
ATOM     24  C   UNL A   1      33.767  29.756  26.983  1.00  0.00     0.002 A 
ATOM     25  C   UNL A   1      32.850  30.784  27.133  1.00  0.00     0.000 A 
ENDBRANCH   7  20
ENDBRANCH   6   7
ENDBRANCH   4   6
ENDBRANCH   3   4
ENDBRANCH   2   3
ENDBRANCH   1   2
BRANCH   1  26
ATOM     26  O   UNL A   1      35.524  22.016  25.611  1.00  0.00    -0.374 OA
BRANCH  26  27
ATOM     27  C   UNL A   1      35.849  20.740  25.077  1.00  0.00     0.202 C 
BRANCH  27  28
ATOM     28  C   UNL A   1      37.307  20.259  25.094  1.00  0.00     0.261 C 
BRANCH  28  29
ATOM     29  O   UNL A   1      38.283  21.288  25.207  1.00  0.00    -0.460 OA
BRANCH  29  30
ATOM     30  C   UNL A   1      39.284  20.993  26.073  1.00  0.00     0.338 C 
ATOM     31  O   UNL A   1      39.762  19.903  26.316  1.00  0.00    -0.246 OA
BRANCH  30  32
ATOM     32  C   UNL A   1      39.826  22.263  26.572  1.00  0.00     0.060 A 
ATOM     33  C   UNL A   1      39.267  23.445  26.079  1.00  0.00     0.016 A 
ATOM     34  C   UNL A   1      40.868  22.280  27.502  1.00  0.00     0.016 A 
ATOM     35  C   UNL A   1      39.784  24.666  26.490  1.00  0.00     0.010 A 
ATOM     36  C   UNL A   1      41.387  23.505  27.910  1.00  0.00     0.010 A 
ATOM     37  C   UNL A   1      40.865  24.697  27.380  1.00  0.00    -0.014 A 
BRANCH  37  38
ATOM     38  C   UNL A   1      41.554  25.979  27.631  1.00  0.00     0.031 A 
ATOM     39  C   UNL A   1      40.849  27.017  28.453  1.00  0.00     0.074 A 
ATOM     40  C   UNL A   1      42.796  26.178  27.159  1.00  0.00     0.049 A 
ATOM     41  N   UNL A   1      41.246  28.211  28.799  1.00  0.00    -0.248 NA
ATOM     42  C   UNL A   1      39.509  26.657  28.943  1.00  0.00     0.031 C 
ATOM     43  C   UNL A   1      43.568  25.203  26.388  1.00  0.00     0.029 A 
ATOM     44  N   UNL A   1      43.627  27.259  27.266  1.00  0.00    -0.354 N 
ATOM     45  C   UNL A   1      40.207  28.746  29.555  1.00  0.00     0.074 A 
ATOM     46  C   UNL A   1      39.142  27.767  29.564  1.00  0.00     0.031 C 
ATOM     47  C   UNL A   1      44.769  25.731  26.099  1.00  0.00     0.029 A 
ATOM     48  C   UNL A   1      44.833  27.091  26.630  1.00  0.00     0.049 A 
ATOM     49  H   UNL A   1      43.384  28.079  27.754  1.00  0.00     0.167 HD
ATOM     50  C   UNL A   1      40.161  29.939  30.195  1.00  0.00     0.034 A 
ATOM     51  C   UNL A   1      45.859  27.950  26.482  1.00  0.00     0.034 A 
ATOM     52  C   UNL A   1      41.232  30.903  30.140  1.00  0.00     0.049 A 
ATOM     53  C   UNL A   1      45.742  29.316  27.114  1.00  0.00     0.074 A 
ATOM     54  C   UNL A   1      41.308  32.150  30.733  1.00  0.00     0.029 A 
ATOM     55  N   UNL A   1      42.416  30.730  29.429  1.00  0.00    -0.354 N 
ATOM     56  N   UNL A   1      44.761  29.813  27.834  1.00  0.00    -0.248 NA
ATOM     57  C   UNL A   1      46.871  30.233  26.919  1.00  0.00     0.031 C 
ATOM     58  C   UNL A   1      42.499  32.758  30.320  1.00  0.00     0.029 A 
ATOM     59  C   UNL A   1      43.211  31.860  29.539  1.00  0.00     0.049 A 
ATOM     60  H   UNL A   1      42.655  29.920  28.921  1.00  0.00     0.167 HD
ATOM     61  C   UNL A   1      45.170  31.091  28.205  1.00  0.00     0.074 A 
ATOM     62  C   UNL A   1      46.491  31.279  27.638  1.00  0.00     0.031 C 
ATOM     63  C   UNL A   1      44.520  32.024  28.949  1.00  0.00     0.034 A 
BRANCH  50  64
ATOM     64  C   UNL A   1      38.893  30.269  30.949  1.00  0.00     0.023 A 
ATOM     65  C   UNL A   1      37.899  31.098  30.395  1.00  0.00     0.031 A 
ATOM     66  C   UNL A   1      38.703  29.807  32.262  1.00  0.00     0.131 A 
ATOM     67  C   UNL A   1      36.812  31.512  31.181  1.00  0.00     0.055 A 
ATOM     68  C   UNL A   1      37.572  30.148  33.008  1.00  0.00     0.041 A 
ATOM     69  F   UNL A   1      39.626  29.035  32.857  1.00  0.00    -0.206 F 
ATOM     70  C   UNL A   1      36.628  31.021  32.476  1.00  0.00     0.022 A 
BRANCH  67  71
ATOM     71  S   UNL A   1      35.740  32.833  30.550  1.00  0.00     0.124 S 
ATOM     72  O   UNL A   1      34.836  32.086  29.678  1.00  0.00    -0.237 OA
ATOM     73  O   UNL A   1      35.151  33.371  31.770  1.00  0.00    -0.237 OA
ATOM     74  O   UNL A   1      36.666  33.724  29.857  1.00  0.00    -0.744 OA
ENDBRANCH  67  71
ENDBRANCH  50  64
BRANCH  51  75
ATOM     75  C   UNL A   1      47.066  27.559  25.701  1.00  0.00     0.023 A 
ATOM     76  C   UNL A   1      47.180  27.877  24.338  1.00  0.00     0.031 A 
ATOM     77  C   UNL A   1      48.115  26.835  26.297  1.00  0.00     0.131 A 
ATOM     78  C   UNL A   1      48.296  27.440  23.609  1.00  0.00     0.055 A 
ATOM     79  C   UNL A   1      49.247  26.448  25.580  1.00  0.00     0.041 A 
ATOM     80  F   UNL A   1      48.058  26.504  27.598  1.00  0.00    -0.206 F 
ATOM     81  C   UNL A   1      49.337  26.740  24.222  1.00  0.00     0.022 A 
BRANCH  78  82
ATOM     82  S   UNL A   1      48.331  27.732  21.819  1.00  0.00     0.124 S 
ATOM     83  O   UNL A   1      48.549  26.387  21.302  1.00  0.00    -0.237 OA
ATOM     84  O   UNL A   1      47.011  28.307  21.581  1.00  0.00    -0.237 OA
ATOM     85  O   UNL A   1      49.451  28.656  21.647  1.00  0.00    -0.744 OA
ENDBRANCH  78  82
ENDBRANCH  51  75
BRANCH  63  86
ATOM     86  C   UNL A   1      45.257  33.311  29.222  1.00  0.00     0.023 A 
ATOM     87  C   UNL A   1      45.200  34.399  28.334  1.00  0.00     0.031 A 
ATOM     88  C   UNL A   1      46.031  33.448  30.388  1.00  0.00     0.131 A 
ATOM     89  C   UNL A   1      45.950  35.555  28.598  1.00  0.00     0.055 A 
ATOM     90  C   UNL A   1      46.720  34.625  30.679  1.00  0.00     0.041 A 
ATOM     91  F   UNL A   1      46.124  32.438  31.270  1.00  0.00    -0.206 F 
ATOM     92  C   UNL A   1      46.693  35.683  29.775  1.00  0.00     0.022 A 
BRANCH  89  93
ATOM     93  S   UNL A   1      46.017  36.854  27.335  1.00  0.00     0.124 S 
ATOM     94  O   UNL A   1      46.040  36.075  26.101  1.00  0.00    -0.237 OA
ATOM     95  O   UNL A   1      44.793  37.605  27.593  1.00  0.00    -0.237 OA
ATOM     96  O   UNL A   1      47.257  37.566  27.641  1.00  0.00    -0.744 OA
ENDBRANCH  89  93
ENDBRANCH  63  86
ENDBRANCH  37  38
ENDBRANCH  30  32
ENDBRANCH  29  30
ENDBRANCH  28  29
ENDBRANCH  27  28
ENDBRANCH  26  27
ENDBRANCH   1  26
TORSDOF 23
ENDMDL
MODEL 2
REMARK VINA RESULT:     -10.7      4.970     11.214
REMARK SMILES O=C(CN(CC(=O)OCCOCCOC(=O)c1ccc(-c2c3nc(c(-c4cc(S(=O)(=O)[O-])ccc4F)c4ccc([nH]4)c(-c4cc(S(=O)(=O)[O-])ccc4F)c4nc(c(-c5cc(S(=O)(=O)[O-])ccc5F)c5ccc2[nH]5)C=C4)C=C3)cc1)c1ccccc1)NCc1ccccc1
REMARK SMILES IDX 10 1 9 2 8 3 6 4 7 5 5 6 4 7 3 8 2 9 1 10 86 11 87 13 88 14
REMARK SMILES IDX 89 15 93 16 90 17 92 18 91 19 80 20 81 21 85 22 82 23 84 24
REMARK SMILES IDX 83 25 11 26 12 27 13 28 14 29 15 30 16 31 17 32 18 33 79 34
REMARK SMILES IDX 19 35 78 36 20 37 21 38 22 39 72 40 23 41 77 42 71 43 73 44
REMARK SMILES IDX 24 45 76 46 70 47 69 48 25 50 57 51 37 52 56 53 38 54 41 55
REMARK SMILES IDX 55 56 74 57 39 58 40 59 54 61 75 62 42 63 26 64 27 65 35 66
REMARK SMILES IDX 28 67 34 68 36 69 33 70 29 71 30 72 31 73 32 74 58 75 59 76
REMARK SMILES IDX 67 77 60 78 66 79 68 80 65 81 61 82 62 83 63 84 64 85 43 86
REMARK SMILES IDX 44 87 52 88 45 89 51 90 53 91 50 92 46 93 47 94 48 95 49 96
REMARK H PARENT 86 12 73 49 41 60
REMARK Flexibility Score: inf
ROOT
ATOM      1  C   UNL A   1      43.372  18.956  25.784  1.00  0.00     0.202 C 
ENDROOT
BRANCH   1   2
ATOM      2  C   UNL A   1      44.482  19.040  24.725  1.00  0.00     0.261 C 
BRANCH   2   3
ATOM      3  O   UNL A   1      44.503  20.247  23.931  1.00  0.00    -0.462 OA
BRANCH   3   4
ATOM      4  C   UNL A   1      45.392  21.193  24.344  1.00  0.00     0.325 C 
ATOM      5  O   UNL A   1      46.567  20.963  24.629  1.00  0.00    -0.250 OA
BRANCH   4   6
ATOM      6  C   UNL A   1      44.807  22.590  24.540  1.00  0.00     0.239 C 
BRANCH   6   7
ATOM      7  N   UNL A   1      45.463  23.493  25.513  1.00  0.00    -0.351 N 
BRANCH   7   8
ATOM      8  C   UNL A   1      45.618  22.950  26.891  1.00  0.00     0.217 C 
BRANCH   8   9
ATOM      9  C   UNL A   1      44.403  23.266  27.793  1.00  0.00     0.239 C 
ATOM     10  O   UNL A   1      43.433  23.901  27.389  1.00  0.00    -0.273 OA
ATOM     11  N   UNL A   1      44.516  22.793  29.084  1.00  0.00    -0.350 N 
ATOM     12  H   UNL A   1      45.225  22.141  29.286  1.00  0.00     0.163 HD
BRANCH  11  13
ATOM     13  C   UNL A   1      43.641  23.212  30.151  1.00  0.00     0.151 C 
BRANCH  13  14
ATOM     14  C   UNL A   1      44.284  24.112  31.176  1.00  0.00    -0.029 A 
ATOM     15  C   UNL A   1      44.351  23.680  32.511  1.00  0.00     0.005 A 
ATOM     16  C   UNL A   1      44.736  25.402  30.867  1.00  0.00     0.005 A 
ATOM     17  C   UNL A   1      44.876  24.506  33.506  1.00  0.00     0.000 A 
ATOM     18  C   UNL A   1      45.265  26.228  31.863  1.00  0.00     0.000 A 
ATOM     19  C   UNL A   1      45.335  25.779  33.181  1.00  0.00     0.000 A 
ENDBRANCH  13  14
ENDBRANCH  11  13
ENDBRANCH   8   9
ENDBRANCH   7   8
BRANCH   7  20
ATOM     20  C   UNL A   1      45.957  24.752  25.180  1.00  0.00     0.038 A 
ATOM     21  C   UNL A   1      47.271  24.955  24.729  1.00  0.00     0.026 A 
ATOM     22  C   UNL A   1      45.165  25.917  25.281  1.00  0.00     0.026 A 
ATOM     23  C   UNL A   1      47.741  26.219  24.331  1.00  0.00     0.002 A 
ATOM     24  C   UNL A   1      45.635  27.187  24.921  1.00  0.00     0.002 A 
ATOM     25  C   UNL A   1      46.919  27.335  24.422  1.00  0.00     0.000 A 
ENDBRANCH   7  20
ENDBRANCH   6   7
ENDBRANCH   4   6
ENDBRANCH   3   4
ENDBRANCH   2   3
ENDBRANCH   1   2
BRANCH   1  26
ATOM     26  O   UNL A   1      42.009  19.066  25.380  1.00  0.00    -0.374 OA
BRANCH  26  27
ATOM     27  C   UNL A   1      41.141  19.854  26.182  1.00  0.00     0.202 C 
BRANCH  27  28
ATOM     28  C   UNL A   1      41.324  21.377  26.228  1.00  0.00     0.261 C 
BRANCH  28  29
ATOM     29  O   UNL A   1      40.503  22.057  27.171  1.00  0.00    -0.460 OA
BRANCH  29  30
ATOM     30  C   UNL A   1      39.522  22.800  26.600  1.00  0.00     0.338 C 
ATOM     31  O   UNL A   1      38.589  22.411  25.926  1.00  0.00    -0.246 OA
BRANCH  30  32
ATOM     32  C   UNL A   1      39.682  24.181  27.071  1.00  0.00     0.060 A 
ATOM     33  C   UNL A   1      40.214  25.114  26.177  1.00  0.00     0.016 A 
ATOM     34  C   UNL A   1      39.319  24.541  28.371  1.00  0.00     0.016 A 
ATOM     35  C   UNL A   1      40.425  26.419  26.599  1.00  0.00     0.010 A 
ATOM     36  C   UNL A   1      39.534  25.848  28.794  1.00  0.00     0.010 A 
ATOM     37  C   UNL A   1      40.117  26.780  27.917  1.00  0.00    -0.014 A 
BRANCH  37  38
ATOM     38  C   UNL A   1      40.556  28.095  28.425  1.00  0.00     0.031 A 
ATOM     39  C   UNL A   1      42.026  28.393  28.453  1.00  0.00     0.074 A 
ATOM     40  C   UNL A   1      39.646  29.004  28.810  1.00  0.00     0.049 A 
ATOM     41  N   UNL A   1      42.647  29.467  28.857  1.00  0.00    -0.248 NA
ATOM     42  C   UNL A   1      42.914  27.326  27.964  1.00  0.00     0.031 C 
ATOM     43  C   UNL A   1      38.196  28.810  28.774  1.00  0.00     0.029 A 
ATOM     44  N   UNL A   1      39.804  30.272  29.300  1.00  0.00    -0.354 N 
ATOM     45  C   UNL A   1      44.002  29.211  28.667  1.00  0.00     0.074 A 
ATOM     46  C   UNL A   1      44.110  27.857  28.166  1.00  0.00     0.031 C 
ATOM     47  C   UNL A   1      37.596  29.928  29.214  1.00  0.00     0.029 A 
ATOM     48  C   UNL A   1      38.618  30.897  29.601  1.00  0.00     0.049 A 
ATOM     49  H   UNL A   1      40.684  30.696  29.423  1.00  0.00     0.167 HD
ATOM     50  C   UNL A   1      45.052  30.041  28.875  1.00  0.00     0.034 A 
ATOM     51  C   UNL A   1      38.395  32.109  30.143  1.00  0.00     0.034 A 
ATOM     52  C   UNL A   1      44.908  31.375  29.402  1.00  0.00     0.049 A 
ATOM     53  C   UNL A   1      39.587  32.977  30.467  1.00  0.00     0.074 A 
ATOM     54  C   UNL A   1      45.888  32.312  29.670  1.00  0.00     0.029 A 
ATOM     55  N   UNL A   1      43.695  31.957  29.761  1.00  0.00    -0.354 N 
ATOM     56  N   UNL A   1      40.864  32.732  30.278  1.00  0.00    -0.248 NA
ATOM     57  C   UNL A   1      39.307  34.284  31.073  1.00  0.00     0.031 C 
ATOM     58  C   UNL A   1      45.278  33.426  30.258  1.00  0.00     0.029 A 
ATOM     59  C   UNL A   1      43.907  33.224  30.280  1.00  0.00     0.049 A 
ATOM     60  H   UNL A   1      42.814  31.529  29.660  1.00  0.00     0.167 HD
ATOM     61  C   UNL A   1      41.538  33.870  30.711  1.00  0.00     0.074 A 
ATOM     62  C   UNL A   1      40.523  34.802  31.159  1.00  0.00     0.031 C 
ATOM     63  C   UNL A   1      42.873  34.127  30.734  1.00  0.00     0.034 A 
BRANCH  50  64
ATOM     64  C   UNL A   1      46.431  29.494  28.583  1.00  0.00     0.023 A 
ATOM     65  C   UNL A   1      47.178  28.811  29.562  1.00  0.00     0.031 A 
ATOM     66  C   UNL A   1      47.037  29.716  27.335  1.00  0.00     0.131 A 
ATOM     67  C   UNL A   1      48.512  28.459  29.308  1.00  0.00     0.055 A 
ATOM     68  C   UNL A   1      48.335  29.281  27.057  1.00  0.00     0.041 A 
ATOM     69  F   UNL A   1      46.389  30.385  26.368  1.00  0.00    -0.206 F 
ATOM     70  C   UNL A   1      49.088  28.665  28.052  1.00  0.00     0.022 A 
BRANCH  67  71
ATOM     71  S   UNL A   1      49.536  27.886  30.693  1.00  0.00     0.124 S 
ATOM     72  O   UNL A   1      48.520  27.515  31.675  1.00  0.00    -0.237 OA
ATOM     73  O   UNL A   1      50.283  26.785  30.099  1.00  0.00    -0.237 OA
ATOM     74  O   UNL A   1      50.328  29.063  31.042  1.00  0.00    -0.744 OA
ENDBRANCH  67  71
ENDBRANCH  50  64
BRANCH  51  75
ATOM     75  C   UNL A   1      37.005  32.566  30.426  1.00  0.00     0.023 A 
ATOM     76  C   UNL A   1      36.241  33.212  29.441  1.00  0.00     0.031 A 
ATOM     77  C   UNL A   1      36.427  32.391  31.696  1.00  0.00     0.131 A 
ATOM     78  C   UNL A   1      34.960  33.692  29.752  1.00  0.00     0.055 A 
ATOM     79  C   UNL A   1      35.132  32.824  31.985  1.00  0.00     0.041 A 
ATOM     80  F   UNL A   1      37.112  31.780  32.676  1.00  0.00    -0.206 F 
ATOM     81  C   UNL A   1      34.394  33.490  31.013  1.00  0.00     0.022 A 
BRANCH  78  82
ATOM     82  S   UNL A   1      34.069  34.659  28.502  1.00  0.00     0.124 S 
ATOM     83  O   UNL A   1      32.692  34.236  28.725  1.00  0.00    -0.237 OA
ATOM     84  O   UNL A   1      34.393  36.028  28.891  1.00  0.00    -0.237 OA
ATOM     85  O   UNL A   1      34.662  34.214  27.242  1.00  0.00    -0.744 OA
ENDBRANCH  78  82
ENDBRANCH  51  75
BRANCH  63  86
ATOM     86  C   UNL A   1      43.296  35.490  31.223  1.00  0.00     0.023 A 
ATOM     87  C   UNL A   1      43.496  36.563  30.338  1.00  0.00     0.031 A 
ATOM     88  C   UNL A   1      43.504  35.714  32.595  1.00  0.00     0.131 A 
ATOM     89  C   UNL A   1      43.947  37.797  30.830  1.00  0.00     0.055 A 
ATOM     90  C   UNL A   1      43.887  36.962  33.086  1.00  0.00     0.041 A 
ATOM     91  F   UNL A   1      43.330  34.722  33.484  1.00  0.00    -0.206 F 
ATOM     92  C   UNL A   1      44.124  38.009  32.201  1.00  0.00     0.022 A 
BRANCH  89  93
ATOM     93  S   UNL A   1      44.392  39.095  29.645  1.00  0.00     0.124 S 
ATOM     94  O   UNL A   1      43.113  39.767  29.437  1.00  0.00    -0.237 OA
ATOM     95  O   UNL A   1      45.400  39.855  30.375  1.00  0.00    -0.237 OA
ATOM     96  O   UNL A   1      44.894  38.349  28.492  1.00  0.00    -0.744 OA
ENDBRANCH  89  93
ENDBRANCH  63  86
ENDBRANCH  37  38
ENDBRANCH  30  32
ENDBRANCH  29  30
ENDBRANCH  28  29
ENDBRANCH  27  28
ENDBRANCH  26  27
ENDBRANCH   1  26
TORSDOF 23
ENDMDL
MODEL 3
REMARK VINA RESULT:     -10.7      5.142     10.918
REMARK SMILES O=C(CN(CC(=O)OCCOCCOC(=O)c1ccc(-c2c3nc(c(-c4cc(S(=O)(=O)[O-])ccc4F)c4ccc([nH]4)c(-c4cc(S(=O)(=O)[O-])ccc4F)c4nc(c(-c5cc(S(=O)(=O)[O-])ccc5F)c5ccc2[nH]5)C=C4)C=C3)cc1)c1ccccc1)NCc1ccccc1
REMARK SMILES IDX 10 1 9 2 8 3 6 4 7 5 5 6 4 7 3 8 2 9 1 10 86 11 87 13 88 14
REMARK SMILES IDX 89 15 93 16 90 17 92 18 91 19 80 20 81 21 85 22 82 23 84 24
REMARK SMILES IDX 83 25 11 26 12 27 13 28 14 29 15 30 16 31 17 32 18 33 79 34
REMARK SMILES IDX 19 35 78 36 20 37 21 38 22 39 72 40 23 41 77 42 71 43 73 44
REMARK SMILES IDX 24 45 76 46 70 47 69 48 25 50 57 51 37 52 56 53 38 54 41 55
REMARK SMILES IDX 55 56 74 57 39 58 40 59 54 61 75 62 42 63 26 64 27 65 35 66
REMARK SMILES IDX 28 67 34 68 36 69 33 70 29 71 30 72 31 73 32 74 58 75 59 76
REMARK SMILES IDX 67 77 60 78 66 79 68 80 65 81 61 82 62 83 63 84 64 85 43 86
REMARK SMILES IDX 44 87 52 88 45 89 51 90 53 91 50 92 46 93 47 94 48 95 49 96
REMARK H PARENT 86 12 73 49 41 60
REMARK Flexibility Score: inf
ROOT
ATOM      1  C   UNL A   1      43.034  18.918  25.899  1.00  0.00     0.202 C 
ENDROOT
BRANCH   1   2
ATOM      2  C   UNL A   1      43.943  19.442  24.777  1.00  0.00     0.261 C 
BRANCH   2   3
ATOM      3  O   UNL A   1      44.293  20.841  24.854  1.00  0.00    -0.462 OA
BRANCH   3   4
ATOM      4  C   UNL A   1      45.579  21.095  25.226  1.00  0.00     0.325 C 
ATOM      5  O   UNL A   1      46.380  20.233  25.586  1.00  0.00    -0.250 OA
BRANCH   4   6
ATOM      6  C   UNL A   1      45.961  22.573  25.272  1.00  0.00     0.239 C 
BRANCH   6   7
ATOM      7  N   UNL A   1      45.000  23.524  25.875  1.00  0.00    -0.351 N 
BRANCH   7   8
ATOM      8  C   UNL A   1      44.583  24.658  25.003  1.00  0.00     0.217 C 
BRANCH   8   9
ATOM      9  C   UNL A   1      45.508  25.888  25.145  1.00  0.00     0.239 C 
ATOM     10  O   UNL A   1      46.502  26.045  24.442  1.00  0.00    -0.273 OA
ATOM     11  N   UNL A   1      45.132  26.770  26.136  1.00  0.00    -0.350 N 
ATOM     12  H   UNL A   1      44.234  26.680  26.530  1.00  0.00     0.163 HD
BRANCH  11  13
ATOM     13  C   UNL A   1      45.994  27.820  26.620  1.00  0.00     0.151 C 
BRANCH  13  14
ATOM     14  C   UNL A   1      45.273  29.041  27.133  1.00  0.00    -0.029 A 
ATOM     15  C   UNL A   1      43.898  29.174  26.876  1.00  0.00     0.005 A 
ATOM     16  C   UNL A   1      45.938  30.093  27.776  1.00  0.00     0.005 A 
ATOM     17  C   UNL A   1      43.203  30.318  27.271  1.00  0.00     0.000 A 
ATOM     18  C   UNL A   1      45.241  31.237  28.175  1.00  0.00     0.000 A 
ATOM     19  C   UNL A   1      43.875  31.348  27.923  1.00  0.00     0.000 A 
ENDBRANCH  13  14
ENDBRANCH  11  13
ENDBRANCH   8   9
ENDBRANCH   7   8
BRANCH   7  20
ATOM     20  C   UNL A   1      44.467  23.371  27.153  1.00  0.00     0.038 A 
ATOM     21  C   UNL A   1      43.101  23.138  27.381  1.00  0.00     0.026 A 
ATOM     22  C   UNL A   1      45.269  23.446  28.313  1.00  0.00     0.026 A 
ATOM     23  C   UNL A   1      42.582  22.917  28.668  1.00  0.00     0.002 A 
ATOM     24  C   UNL A   1      44.756  23.263  29.604  1.00  0.00     0.002 A 
ATOM     25  C   UNL A   1      43.412  22.974  29.780  1.00  0.00     0.000 A 
ENDBRANCH   7  20
ENDBRANCH   6   7
ENDBRANCH   4   6
ENDBRANCH   3   4
ENDBRANCH   2   3
ENDBRANCH   1   2
BRANCH   1  26
ATOM     26  O   UNL A   1      41.619  18.961  25.731  1.00  0.00    -0.374 OA
BRANCH  26  27
ATOM     27  C   UNL A   1      40.880  19.855  26.552  1.00  0.00     0.202 C 
BRANCH  27  28
ATOM     28  C   UNL A   1      40.423  21.206  25.985  1.00  0.00     0.261 C 
BRANCH  28  29
ATOM     29  O   UNL A   1      39.868  22.106  26.936  1.00  0.00    -0.460 OA
BRANCH  29  30
ATOM     30  C   UNL A   1      39.096  23.074  26.382  1.00  0.00     0.338 C 
ATOM     31  O   UNL A   1      38.225  22.944  25.545  1.00  0.00    -0.246 OA
BRANCH  30  32
ATOM     32  C   UNL A   1      39.381  24.327  27.091  1.00  0.00     0.060 A 
ATOM     33  C   UNL A   1      40.140  25.292  26.424  1.00  0.00     0.016 A 
ATOM     34  C   UNL A   1      38.911  24.537  28.390  1.00  0.00     0.016 A 
ATOM     35  C   UNL A   1      40.470  26.471  27.077  1.00  0.00     0.010 A 
ATOM     36  C   UNL A   1      39.246  25.718  29.045  1.00  0.00     0.010 A 
ATOM     37  C   UNL A   1      40.053  26.671  28.400  1.00  0.00    -0.014 A 
BRANCH  37  38
ATOM     38  C   UNL A   1      40.598  27.812  29.162  1.00  0.00     0.031 A 
ATOM     39  C   UNL A   1      42.026  27.746  29.619  1.00  0.00     0.074 A 
ATOM     40  C   UNL A   1      39.833  28.890  29.397  1.00  0.00     0.049 A 
ATOM     41  N   UNL A   1      42.719  28.615  30.302  1.00  0.00    -0.248 NA
ATOM     42  C   UNL A   1      42.767  26.526  29.261  1.00  0.00     0.031 C 
ATOM     43  C   UNL A   1      38.449  29.052  28.950  1.00  0.00     0.029 A 
ATOM     44  N   UNL A   1      40.112  30.054  30.061  1.00  0.00    -0.354 N 
ATOM     45  C   UNL A   1      43.983  28.052  30.451  1.00  0.00     0.074 A 
ATOM     46  C   UNL A   1      43.938  26.742  29.838  1.00  0.00     0.031 C 
ATOM     47  C   UNL A   1      38.002  30.255  29.346  1.00  0.00     0.029 A 
ATOM     48  C   UNL A   1      39.053  30.928  30.106  1.00  0.00     0.049 A 
ATOM     49  H   UNL A   1      40.988  30.246  30.466  1.00  0.00     0.167 HD
ATOM     50  C   UNL A   1      45.081  28.592  31.033  1.00  0.00     0.034 A 
ATOM     51  C   UNL A   1      38.948  32.126  30.711  1.00  0.00     0.034 A 
ATOM     52  C   UNL A   1      45.081  29.891  31.659  1.00  0.00     0.049 A 
ATOM     53  C   UNL A   1      40.152  32.662  31.446  1.00  0.00     0.074 A 
ATOM     54  C   UNL A   1      46.119  30.549  32.292  1.00  0.00     0.029 A 
ATOM     55  N   UNL A   1      43.970  30.726  31.748  1.00  0.00    -0.354 N 
ATOM     56  N   UNL A   1      41.346  32.129  31.577  1.00  0.00    -0.248 NA
ATOM     57  C   UNL A   1      39.997  33.963  32.108  1.00  0.00     0.031 C 
ATOM     58  C   UNL A   1      45.619  31.742  32.825  1.00  0.00     0.029 A 
ATOM     59  C   UNL A   1      44.290  31.874  32.454  1.00  0.00     0.049 A 
ATOM     60  H   UNL A   1      43.085  30.529  31.363  1.00  0.00     0.167 HD
ATOM     61  C   UNL A   1      42.094  33.045  32.310  1.00  0.00     0.074 A 
ATOM     62  C   UNL A   1      41.218  34.168  32.579  1.00  0.00     0.031 C 
ATOM     63  C   UNL A   1      43.388  32.973  32.720  1.00  0.00     0.034 A 
BRANCH  50  64
ATOM     64  C   UNL A   1      46.335  27.748  31.057  1.00  0.00     0.023 A 
ATOM     65  C   UNL A   1      47.319  27.857  30.056  1.00  0.00     0.031 A 
ATOM     66  C   UNL A   1      46.519  26.773  32.053  1.00  0.00     0.131 A 
ATOM     67  C   UNL A   1      48.389  26.949  30.023  1.00  0.00     0.055 A 
ATOM     68  C   UNL A   1      47.635  25.933  32.065  1.00  0.00     0.041 A 
ATOM     69  F   UNL A   1      45.603  26.600  33.019  1.00  0.00    -0.206 F 
ATOM     70  C   UNL A   1      48.568  26.005  31.036  1.00  0.00     0.022 A 
BRANCH  67  71
ATOM     71  S   UNL A   1      49.443  26.908  28.546  1.00  0.00     0.124 S 
ATOM     72  O   UNL A   1      48.727  25.954  27.701  1.00  0.00    -0.237 OA
ATOM     73  O   UNL A   1      49.421  28.297  28.103  1.00  0.00    -0.237 OA
ATOM     74  O   UNL A   1      50.728  26.434  29.056  1.00  0.00    -0.744 OA
ENDBRANCH  67  71
ENDBRANCH  50  64
BRANCH  51  75
ATOM     75  C   UNL A   1      37.667  32.887  30.665  1.00  0.00     0.023 A 
ATOM     76  C   UNL A   1      36.865  33.025  31.808  1.00  0.00     0.031 A 
ATOM     77  C   UNL A   1      37.209  33.466  29.467  1.00  0.00     0.131 A 
ATOM     78  C   UNL A   1      35.632  33.689  31.722  1.00  0.00     0.055 A 
ATOM     79  C   UNL A   1      36.007  34.170  29.399  1.00  0.00     0.041 A 
ATOM     80  F   UNL A   1      37.937  33.365  28.342  1.00  0.00    -0.206 F 
ATOM     81  C   UNL A   1      35.203  34.275  30.529  1.00  0.00     0.022 A 
BRANCH  78  82
ATOM     82  S   UNL A   1      34.554  33.707  33.181  1.00  0.00     0.124 S 
ATOM     83  O   UNL A   1      34.153  35.108  33.236  1.00  0.00    -0.237 OA
ATOM     84  O   UNL A   1      33.515  32.756  32.801  1.00  0.00    -0.237 OA
ATOM     85  O   UNL A   1      35.435  33.267  34.261  1.00  0.00    -0.744 OA
ENDBRANCH  78  82
ENDBRANCH  51  75
BRANCH  63  86
ATOM     86  C   UNL A   1      43.934  34.165  33.466  1.00  0.00     0.023 A 
ATOM     87  C   UNL A   1      44.578  35.222  32.800  1.00  0.00     0.031 A 
ATOM     88  C   UNL A   1      43.810  34.240  34.865  1.00  0.00     0.131 A 
ATOM     89  C   UNL A   1      45.124  36.283  33.539  1.00  0.00     0.055 A 
ATOM     90  C   UNL A   1      44.295  35.330  35.588  1.00  0.00     0.041 A 
ATOM     91  F   UNL A   1      43.207  33.256  35.552  1.00  0.00    -0.206 F 
ATOM     92  C   UNL A   1      44.967  36.353  34.927  1.00  0.00     0.022 A 
BRANCH  89  93
ATOM     93  S   UNL A   1      46.124  37.522  32.673  1.00  0.00     0.124 S 
ATOM     94  O   UNL A   1      47.385  37.458  33.405  1.00  0.00    -0.237 OA
ATOM     95  O   UNL A   1      46.150  37.005  31.309  1.00  0.00    -0.237 OA
ATOM     96  O   UNL A   1      45.366  38.760  32.852  1.00  0.00    -0.744 OA
ENDBRANCH  89  93
ENDBRANCH  63  86
ENDBRANCH  37  38
ENDBRANCH  30  32
ENDBRANCH  29  30
ENDBRANCH  28  29
ENDBRANCH  27  28
ENDBRANCH  26  27
ENDBRANCH   1  26
TORSDOF 23
ENDMDL
