MODEL 1
REMARK VINA RESULT:     -11.4      0.000      0.000
REMARK SMILES N#Cc1ccccc1NC(=O)C[N@H+]1CCCC[C@H]1C(=O)OCCOCCOC(=O)c1ccc(-c2c3nc(c(-c4cc(S(=O)(=O)[O-])ccc4F)c4ccc([nH]4)c(-c4cc(S(=O)(=O)[O-])ccc4F)c4nc(c(-c5cc(S(=O)(=O)[O-])ccc5F)c5ccc2[nH]5)C=C4)C=C3)cc1
REMARK SMILES IDX 23 1 22 2 21 3 19 4 20 5 18 6 13 7 14 8 15 10 17 11 16 12
REMARK SMILES IDX 12 13 10 14 9 15 11 17 8 18 3 19 4 20 5 21 7 22 6 23 2 24
REMARK SMILES IDX 1 25 24 26 25 27 26 28 27 29 28 30 29 31 30 32 31 33 92 34
REMARK SMILES IDX 32 35 91 36 33 37 34 38 35 39 85 40 36 41 90 42 84 43 86 44
REMARK SMILES IDX 37 45 89 46 83 47 82 48 38 50 70 51 50 52 69 53 51 54 54 55
REMARK SMILES IDX 68 56 87 57 52 58 53 59 67 61 88 62 55 63 39 64 40 65 48 66
REMARK SMILES IDX 41 67 47 68 49 69 46 70 42 71 43 72 44 73 45 74 71 75 72 76
REMARK SMILES IDX 80 77 73 78 79 79 81 80 78 81 74 82 75 83 76 84 77 85 56 86
REMARK SMILES IDX 57 87 65 88 58 89 64 90 66 91 63 92 59 93 60 94 61 95 62 96
REMARK H PARENT 13 9 9 16 86 49 54 60
REMARK Flexibility Score: inf
ROOT
ATOM      1  C   UNL A   1      33.888  19.893  25.226  1.00  0.00     0.202 C 
ENDROOT
BRANCH   1   2
ATOM      2  C   UNL A   1      33.319  21.152  25.923  1.00  0.00     0.261 C 
BRANCH   2   3
ATOM      3  O   UNL A   1      32.105  21.751  25.443  1.00  0.00    -0.459 OA
BRANCH   3   4
ATOM      4  C   UNL A   1      32.339  22.459  24.311  1.00  0.00     0.365 C 
ATOM      5  O   UNL A   1      32.249  21.930  23.211  1.00  0.00    -0.245 OA
BRANCH   4   6
ATOM      6  C   UNL A   1      32.809  23.909  24.501  1.00  0.00     0.295 C 
ATOM      7  N   UNL A   1      31.942  24.878  23.798  1.00  0.00    -0.315 N 
ATOM      8  C   UNL A   1      30.638  25.067  24.430  1.00  0.00     0.263 C 
ATOM      9  H   UNL A   1      32.478  25.729  23.962  1.00  0.00     0.349 HD
ATOM     10  C   UNL A   1      30.740  25.380  25.936  1.00  0.00     0.062 C 
ATOM     11  C   UNL A   1      33.028  24.361  25.948  1.00  0.00     0.078 C 
ATOM     12  C   UNL A   1      31.722  24.502  26.706  1.00  0.00     0.013 C 
BRANCH   7  13
ATOM     13  C   UNL A   1      31.964  24.970  22.309  1.00  0.00     0.364 C 
BRANCH  13  14
ATOM     14  C   UNL A   1      32.755  26.061  21.549  1.00  0.00     0.279 C 
ATOM     15  N   UNL A   1      33.044  27.318  22.053  1.00  0.00    -0.320 N 
ATOM     16  H   UNL A   1      33.495  27.924  21.421  1.00  0.00     0.170 HD
ATOM     17  O   UNL A   1      33.151  25.825  20.397  1.00  0.00    -0.268 OA
BRANCH  15  18
ATOM     18  C   UNL A   1      32.798  27.871  23.331  1.00  0.00     0.059 A 
ATOM     19  C   UNL A   1      31.674  28.696  23.558  1.00  0.00     0.076 A 
ATOM     20  C   UNL A   1      31.657  29.548  24.675  1.00  0.00     0.021 A 
ATOM     21  C   UNL A   1      32.682  29.498  25.616  1.00  0.00     0.002 A 
ATOM     22  C   UNL A   1      33.722  27.714  24.364  1.00  0.00     0.027 A 
ATOM     23  C   UNL A   1      33.679  28.536  25.492  1.00  0.00     0.002 A 
BRANCH  19  24
ATOM     24  C   UNL A   1      30.552  28.754  22.662  1.00  0.00     0.101 C 
ATOM     25  N   UNL A   1      29.630  28.833  21.965  1.00  0.00    -0.192 NA
ENDBRANCH  19  24
ENDBRANCH  15  18
ENDBRANCH  13  14
ENDBRANCH   7  13
ENDBRANCH   4   6
ENDBRANCH   3   4
ENDBRANCH   2   3
ENDBRANCH   1   2
BRANCH   1  26
ATOM     26  O   UNL A   1      35.163  19.820  24.614  1.00  0.00    -0.374 OA
BRANCH  26  27
ATOM     27  C   UNL A   1      36.225  20.677  24.993  1.00  0.00     0.202 C 
BRANCH  27  28
ATOM     28  C   UNL A   1      37.656  20.173  25.182  1.00  0.00     0.261 C 
BRANCH  28  29
ATOM     29  O   UNL A   1      38.632  21.217  25.240  1.00  0.00    -0.460 OA
BRANCH  29  30
ATOM     30  C   UNL A   1      39.635  20.959  26.113  1.00  0.00     0.338 C 
ATOM     31  O   UNL A   1      40.331  19.958  26.158  1.00  0.00    -0.246 OA
BRANCH  30  32
ATOM     32  C   UNL A   1      39.949  22.173  26.880  1.00  0.00     0.060 A 
ATOM     33  C   UNL A   1      39.201  23.323  26.590  1.00  0.00     0.016 A 
ATOM     34  C   UNL A   1      41.007  22.210  27.787  1.00  0.00     0.016 A 
ATOM     35  C   UNL A   1      39.544  24.535  27.160  1.00  0.00     0.010 A 
ATOM     36  C   UNL A   1      41.378  23.440  28.331  1.00  0.00     0.010 A 
ATOM     37  C   UNL A   1      40.679  24.607  27.972  1.00  0.00    -0.014 A 
BRANCH  37  38
ATOM     38  C   UNL A   1      41.264  25.941  28.212  1.00  0.00     0.031 A 
ATOM     39  C   UNL A   1      42.644  26.210  27.679  1.00  0.00     0.074 A 
ATOM     40  C   UNL A   1      40.538  26.907  28.795  1.00  0.00     0.049 A 
ATOM     41  N   UNL A   1      43.374  27.288  27.777  1.00  0.00    -0.248 NA
ATOM     42  C   UNL A   1      43.283  25.113  26.935  1.00  0.00     0.031 C 
ATOM     43  C   UNL A   1      39.156  26.761  29.252  1.00  0.00     0.029 A 
ATOM     44  N   UNL A   1      40.859  28.203  29.092  1.00  0.00    -0.354 N 
ATOM     45  C   UNL A   1      44.565  26.995  27.118  1.00  0.00     0.074 A 
ATOM     46  C   UNL A   1      44.470  25.627  26.657  1.00  0.00     0.031 C 
ATOM     47  C   UNL A   1      38.750  27.927  29.782  1.00  0.00     0.029 A 
ATOM     48  C   UNL A   1      39.858  28.880  29.744  1.00  0.00     0.049 A 
ATOM     49  H   UNL A   1      41.723  28.612  28.859  1.00  0.00     0.167 HD
ATOM     50  C   UNL A   1      45.632  27.802  26.915  1.00  0.00     0.034 A 
ATOM     51  C   UNL A   1      39.857  30.117  30.278  1.00  0.00     0.034 A 
ATOM     52  C   UNL A   1      45.694  29.161  27.394  1.00  0.00     0.049 A 
ATOM     53  C   UNL A   1      41.101  30.960  30.136  1.00  0.00     0.074 A 
ATOM     54  C   UNL A   1      46.719  30.078  27.254  1.00  0.00     0.029 A 
ATOM     55  N   UNL A   1      44.691  29.794  28.119  1.00  0.00    -0.354 N 
ATOM     56  N   UNL A   1      42.231  30.671  29.530  1.00  0.00    -0.248 NA
ATOM     57  C   UNL A   1      41.067  32.295  30.742  1.00  0.00     0.031 C 
ATOM     58  C   UNL A   1      46.375  31.229  27.969  1.00  0.00     0.029 A 
ATOM     59  C   UNL A   1      45.091  31.073  28.469  1.00  0.00     0.049 A 
ATOM     60  H   UNL A   1      43.823  29.391  28.350  1.00  0.00     0.167 HD
ATOM     61  C   UNL A   1      43.028  31.808  29.652  1.00  0.00     0.074 A 
ATOM     62  C   UNL A   1      42.241  32.785  30.377  1.00  0.00     0.031 C 
ATOM     63  C   UNL A   1      44.292  32.028  29.203  1.00  0.00     0.034 A 
BRANCH  50  64
ATOM     64  C   UNL A   1      46.833  27.212  26.213  1.00  0.00     0.023 A 
ATOM     65  C   UNL A   1      47.882  26.594  26.915  1.00  0.00     0.031 A 
ATOM     66  C   UNL A   1      46.943  27.301  24.814  1.00  0.00     0.131 A 
ATOM     67  C   UNL A   1      49.021  26.152  26.225  1.00  0.00     0.055 A 
ATOM     68  C   UNL A   1      48.039  26.780  24.125  1.00  0.00     0.041 A 
ATOM     69  F   UNL A   1      45.988  27.909  24.091  1.00  0.00    -0.206 F 
ATOM     70  C   UNL A   1      49.093  26.215  24.832  1.00  0.00     0.022 A 
BRANCH  67  71
ATOM     71  S   UNL A   1      50.472  25.634  27.184  1.00  0.00     0.124 S 
ATOM     72  O   UNL A   1      50.493  26.635  28.249  1.00  0.00    -0.237 OA
ATOM     73  O   UNL A   1      50.117  24.278  27.586  1.00  0.00    -0.237 OA
ATOM     74  O   UNL A   1      51.570  25.733  26.224  1.00  0.00    -0.744 OA
ENDBRANCH  67  71
ENDBRANCH  50  64
BRANCH  51  75
ATOM     75  C   UNL A   1      38.670  30.612  31.031  1.00  0.00     0.023 A 
ATOM     76  C   UNL A   1      37.598  31.231  30.372  1.00  0.00     0.031 A 
ATOM     77  C   UNL A   1      38.614  30.518  32.435  1.00  0.00     0.131 A 
ATOM     78  C   UNL A   1      36.543  31.778  31.118  1.00  0.00     0.055 A 
ATOM     79  C   UNL A   1      37.532  31.006  33.166  1.00  0.00     0.041 A 
ATOM     80  F   UNL A   1      39.615  29.938  33.118  1.00  0.00    -0.206 F 
ATOM     81  C   UNL A   1      36.493  31.655  32.508  1.00  0.00     0.022 A 
BRANCH  78  82
ATOM     82  S   UNL A   1      35.283  32.753  30.250  1.00  0.00     0.124 S 
ATOM     83  O   UNL A   1      34.183  32.734  31.208  1.00  0.00    -0.237 OA
ATOM     84  O   UNL A   1      35.961  34.033  30.075  1.00  0.00    -0.237 OA
ATOM     85  O   UNL A   1      35.056  31.996  29.021  1.00  0.00    -0.744 OA
ENDBRANCH  78  82
ENDBRANCH  51  75
BRANCH  63  86
ATOM     86  C   UNL A   1      44.876  33.400  29.441  1.00  0.00     0.023 A 
ATOM     87  C   UNL A   1      44.782  34.423  28.484  1.00  0.00     0.031 A 
ATOM     88  C   UNL A   1      45.543  33.683  30.647  1.00  0.00     0.131 A 
ATOM     89  C   UNL A   1      45.401  35.659  28.720  1.00  0.00     0.055 A 
ATOM     90  C   UNL A   1      46.089  34.939  30.909  1.00  0.00     0.041 A 
ATOM     91  F   UNL A   1      45.667  32.741  31.597  1.00  0.00    -0.206 F 
ATOM     92  C   UNL A   1      46.034  35.931  29.935  1.00  0.00     0.022 A 
BRANCH  89  93
ATOM     93  S   UNL A   1      45.465  36.870  27.371  1.00  0.00     0.124 S 
ATOM     94  O   UNL A   1      46.284  36.177  26.382  1.00  0.00    -0.237 OA
ATOM     95  O   UNL A   1      44.056  37.033  27.029  1.00  0.00    -0.237 OA
ATOM     96  O   UNL A   1      46.093  38.037  27.989  1.00  0.00    -0.744 OA
ENDBRANCH  89  93
ENDBRANCH  63  86
ENDBRANCH  37  38
ENDBRANCH  30  32
ENDBRANCH  29  30
ENDBRANCH  28  29
ENDBRANCH  27  28
ENDBRANCH  26  27
ENDBRANCH   1  26
TORSDOF 21
ENDMDL
MODEL 2
REMARK VINA RESULT:     -11.4      0.709      7.693
REMARK SMILES N#Cc1ccccc1NC(=O)C[N@H+]1CCCC[C@H]1C(=O)OCCOCCOC(=O)c1ccc(-c2c3nc(c(-c4cc(S(=O)(=O)[O-])ccc4F)c4ccc([nH]4)c(-c4cc(S(=O)(=O)[O-])ccc4F)c4nc(c(-c5cc(S(=O)(=O)[O-])ccc5F)c5ccc2[nH]5)C=C4)C=C3)cc1
REMARK SMILES IDX 23 1 22 2 21 3 19 4 20 5 18 6 13 7 14 8 15 10 17 11 16 12
REMARK SMILES IDX 12 13 10 14 9 15 11 17 8 18 3 19 4 20 5 21 7 22 6 23 2 24
REMARK SMILES IDX 1 25 24 26 25 27 26 28 27 29 28 30 29 31 30 32 31 33 92 34
REMARK SMILES IDX 32 35 91 36 33 37 34 38 35 39 85 40 36 41 90 42 84 43 86 44
REMARK SMILES IDX 37 45 89 46 83 47 82 48 38 50 70 51 50 52 69 53 51 54 54 55
REMARK SMILES IDX 68 56 87 57 52 58 53 59 67 61 88 62 55 63 39 64 40 65 48 66
REMARK SMILES IDX 41 67 47 68 49 69 46 70 42 71 43 72 44 73 45 74 71 75 72 76
REMARK SMILES IDX 80 77 73 78 79 79 81 80 78 81 74 82 75 83 76 84 77 85 56 86
REMARK SMILES IDX 57 87 65 88 58 89 64 90 66 91 63 92 59 93 60 94 61 95 62 96
REMARK H PARENT 13 9 9 16 86 49 54 60
REMARK Flexibility Score: inf
ROOT
ATOM      1  C   UNL A   1      33.569  20.188  25.613  1.00  0.00     0.202 C 
ENDROOT
BRANCH   1   2
ATOM      2  C   UNL A   1      32.720  21.332  26.217  1.00  0.00     0.261 C 
BRANCH   2   3
ATOM      3  O   UNL A   1      31.586  21.841  25.497  1.00  0.00    -0.459 OA
BRANCH   3   4
ATOM      4  C   UNL A   1      31.970  22.792  24.612  1.00  0.00     0.365 C 
ATOM      5  O   UNL A   1      32.146  22.516  23.433  1.00  0.00    -0.245 OA
BRANCH   4   6
ATOM      6  C   UNL A   1      32.260  24.184  25.193  1.00  0.00     0.295 C 
ATOM      7  N   UNL A   1      32.058  25.261  24.200  1.00  0.00    -0.315 N 
ATOM      8  C   UNL A   1      30.653  25.523  23.895  1.00  0.00     0.263 C 
ATOM      9  H   UNL A   1      32.397  26.053  24.745  1.00  0.00     0.349 HD
ATOM     10  C   UNL A   1      29.794  25.740  25.157  1.00  0.00     0.062 C 
ATOM     11  C   UNL A   1      31.533  24.534  26.495  1.00  0.00     0.078 C 
ATOM     12  C   UNL A   1      30.047  24.741  26.281  1.00  0.00     0.013 C 
BRANCH   7  13
ATOM     13  C   UNL A   1      33.014  25.434  23.069  1.00  0.00     0.364 C 
BRANCH  13  14
ATOM     14  C   UNL A   1      33.469  26.824  22.563  1.00  0.00     0.279 C 
ATOM     15  N   UNL A   1      33.416  27.989  23.310  1.00  0.00    -0.320 N 
ATOM     16  H   UNL A   1      33.676  28.805  22.823  1.00  0.00     0.170 HD
ATOM     17  O   UNL A   1      33.896  26.932  21.403  1.00  0.00    -0.268 OA
BRANCH  15  18
ATOM     18  C   UNL A   1      33.049  28.195  24.660  1.00  0.00     0.059 A 
ATOM     19  C   UNL A   1      31.886  28.925  24.990  1.00  0.00     0.076 A 
ATOM     20  C   UNL A   1      31.752  29.464  26.281  1.00  0.00     0.021 A 
ATOM     21  C   UNL A   1      32.699  29.184  27.264  1.00  0.00     0.002 A 
ATOM     22  C   UNL A   1      33.891  27.788  25.695  1.00  0.00     0.027 A 
ATOM     23  C   UNL A   1      33.731  28.294  26.986  1.00  0.00     0.002 A 
BRANCH  19  24
ATOM     24  C   UNL A   1      30.840  29.201  24.044  1.00  0.00     0.101 C 
ATOM     25  N   UNL A   1      29.972  29.392  23.301  1.00  0.00    -0.192 NA
ENDBRANCH  19  24
ENDBRANCH  15  18
ENDBRANCH  13  14
ENDBRANCH   7  13
ENDBRANCH   4   6
ENDBRANCH   3   4
ENDBRANCH   2   3
ENDBRANCH   1   2
BRANCH   1  26
ATOM     26  O   UNL A   1      34.534  20.356  24.590  1.00  0.00    -0.374 OA
BRANCH  26  27
ATOM     27  C   UNL A   1      35.716  21.109  24.794  1.00  0.00     0.202 C 
BRANCH  27  28
ATOM     28  C   UNL A   1      37.079  20.449  25.007  1.00  0.00     0.261 C 
BRANCH  28  29
ATOM     29  O   UNL A   1      38.171  21.373  25.019  1.00  0.00    -0.460 OA
BRANCH  29  30
ATOM     30  C   UNL A   1      39.145  21.032  25.896  1.00  0.00     0.338 C 
ATOM     31  O   UNL A   1      39.731  19.965  25.966  1.00  0.00    -0.246 OA
BRANCH  30  32
ATOM     32  C   UNL A   1      39.591  22.227  26.629  1.00  0.00     0.060 A 
ATOM     33  C   UNL A   1      39.016  23.452  26.264  1.00  0.00     0.016 A 
ATOM     34  C   UNL A   1      40.610  22.162  27.580  1.00  0.00     0.016 A 
ATOM     35  C   UNL A   1      39.498  24.631  26.803  1.00  0.00     0.010 A 
ATOM     36  C   UNL A   1      41.123  23.353  28.092  1.00  0.00     0.010 A 
ATOM     37  C   UNL A   1      40.601  24.587  27.659  1.00  0.00    -0.014 A 
BRANCH  37  38
ATOM     38  C   UNL A   1      41.351  25.839  27.873  1.00  0.00     0.031 A 
ATOM     39  C   UNL A   1      40.681  26.934  28.658  1.00  0.00     0.074 A 
ATOM     40  C   UNL A   1      42.626  25.948  27.468  1.00  0.00     0.049 A 
ATOM     41  N   UNL A   1      41.122  28.125  28.961  1.00  0.00    -0.248 NA
ATOM     42  C   UNL A   1      39.332  26.642  29.168  1.00  0.00     0.031 C 
ATOM     43  C   UNL A   1      43.384  24.898  26.789  1.00  0.00     0.029 A 
ATOM     44  N   UNL A   1      43.508  26.987  27.580  1.00  0.00    -0.354 N 
ATOM     45  C   UNL A   1      40.100  28.729  29.687  1.00  0.00     0.074 A 
ATOM     46  C   UNL A   1      39.005  27.786  29.746  1.00  0.00     0.031 C 
ATOM     47  C   UNL A   1      44.622  25.354  26.536  1.00  0.00     0.029 A 
ATOM     48  C   UNL A   1      44.724  26.739  26.991  1.00  0.00     0.049 A 
ATOM     49  H   UNL A   1      43.293  27.831  28.039  1.00  0.00     0.167 HD
ATOM     50  C   UNL A   1      40.087  29.959  30.255  1.00  0.00     0.034 A 
ATOM     51  C   UNL A   1      45.780  27.556  26.813  1.00  0.00     0.034 A 
ATOM     52  C   UNL A   1      41.196  30.876  30.171  1.00  0.00     0.049 A 
ATOM     53  C   UNL A   1      45.699  28.961  27.358  1.00  0.00     0.074 A 
ATOM     54  C   UNL A   1      41.304  32.148  30.702  1.00  0.00     0.029 A 
ATOM     55  N   UNL A   1      42.388  30.622  29.501  1.00  0.00    -0.354 N 
ATOM     56  N   UNL A   1      44.723  29.535  28.026  1.00  0.00    -0.248 NA
ATOM     57  C   UNL A   1      46.863  29.825  27.133  1.00  0.00     0.031 C 
ATOM     58  C   UNL A   1      42.518  32.695  30.277  1.00  0.00     0.029 A 
ATOM     59  C   UNL A   1      43.217  31.730  29.569  1.00  0.00     0.049 A 
ATOM     60  H   UNL A   1      42.609  29.779  29.044  1.00  0.00     0.167 HD
ATOM     61  C   UNL A   1      45.175  30.817  28.332  1.00  0.00     0.074 A 
ATOM     62  C   UNL A   1      46.513  30.922  27.786  1.00  0.00     0.031 C 
ATOM     63  C   UNL A   1      44.545  31.816  29.006  1.00  0.00     0.034 A 
BRANCH  50  64
ATOM     64  C   UNL A   1      38.817  30.398  30.943  1.00  0.00     0.023 A 
ATOM     65  C   UNL A   1      37.867  31.220  30.311  1.00  0.00     0.031 A 
ATOM     66  C   UNL A   1      38.568  30.012  32.273  1.00  0.00     0.131 A 
ATOM     67  C   UNL A   1      36.753  31.682  31.028  1.00  0.00     0.055 A 
ATOM     68  C   UNL A   1      37.414  30.404  32.952  1.00  0.00     0.041 A 
ATOM     69  F   UNL A   1      39.453  29.254  32.941  1.00  0.00    -0.206 F 
ATOM     70  C   UNL A   1      36.505  31.256  32.335  1.00  0.00     0.022 A 
BRANCH  67  71
ATOM     71  S   UNL A   1      35.713  32.969  30.284  1.00  0.00     0.124 S 
ATOM     72  O   UNL A   1      34.372  32.453  30.548  1.00  0.00    -0.237 OA
ATOM     73  O   UNL A   1      36.100  34.159  31.034  1.00  0.00    -0.237 OA
ATOM     74  O   UNL A   1      36.111  32.961  28.878  1.00  0.00    -0.744 OA
ENDBRANCH  67  71
ENDBRANCH  50  64
BRANCH  51  75
ATOM     75  C   UNL A   1      46.973  27.089  26.053  1.00  0.00     0.023 A 
ATOM     76  C   UNL A   1      48.047  26.461  26.699  1.00  0.00     0.031 A 
ATOM     77  C   UNL A   1      47.079  27.314  24.666  1.00  0.00     0.131 A 
ATOM     78  C   UNL A   1      49.200  26.126  25.973  1.00  0.00     0.055 A 
ATOM     79  C   UNL A   1      48.201  26.921  23.937  1.00  0.00     0.041 A 
ATOM     80  F   UNL A   1      46.083  27.916  23.996  1.00  0.00    -0.206 F 
ATOM     81  C   UNL A   1      49.278  26.336  24.594  1.00  0.00     0.022 A 
BRANCH  78  82
ATOM     82  S   UNL A   1      50.646  25.509  26.878  1.00  0.00     0.124 S 
ATOM     83  O   UNL A   1      50.082  24.369  27.592  1.00  0.00    -0.237 OA
ATOM     84  O   UNL A   1      51.569  25.195  25.792  1.00  0.00    -0.237 OA
ATOM     85  O   UNL A   1      51.032  26.643  27.714  1.00  0.00    -0.744 OA
ENDBRANCH  78  82
ENDBRANCH  51  75
BRANCH  63  86
ATOM     86  C   UNL A   1      45.326  33.089  29.233  1.00  0.00     0.023 A 
ATOM     87  C   UNL A   1      45.179  34.208  28.397  1.00  0.00     0.031 A 
ATOM     88  C   UNL A   1      46.235  33.177  30.303  1.00  0.00     0.131 A 
ATOM     89  C   UNL A   1      45.978  35.343  28.605  1.00  0.00     0.055 A 
ATOM     90  C   UNL A   1      46.970  34.336  30.551  1.00  0.00     0.041 A 
ATOM     91  F   UNL A   1      46.419  32.136  31.131  1.00  0.00    -0.206 F 
ATOM     92  C   UNL A   1      46.854  35.422  29.689  1.00  0.00     0.022 A 
BRANCH  89  93
ATOM     93  S   UNL A   1      45.936  36.671  27.370  1.00  0.00     0.124 S 
ATOM     94  O   UNL A   1      46.289  37.838  28.171  1.00  0.00    -0.237 OA
ATOM     95  O   UNL A   1      46.938  36.234  26.405  1.00  0.00    -0.237 OA
ATOM     96  O   UNL A   1      44.556  36.645  26.886  1.00  0.00    -0.744 OA
ENDBRANCH  89  93
ENDBRANCH  63  86
ENDBRANCH  37  38
ENDBRANCH  30  32
ENDBRANCH  29  30
ENDBRANCH  28  29
ENDBRANCH  27  28
ENDBRANCH  26  27
ENDBRANCH   1  26
TORSDOF 21
ENDMDL
MODEL 3
REMARK VINA RESULT:     -11.2      1.797      7.889
REMARK SMILES N#Cc1ccccc1NC(=O)C[N@H+]1CCCC[C@H]1C(=O)OCCOCCOC(=O)c1ccc(-c2c3nc(c(-c4cc(S(=O)(=O)[O-])ccc4F)c4ccc([nH]4)c(-c4cc(S(=O)(=O)[O-])ccc4F)c4nc(c(-c5cc(S(=O)(=O)[O-])ccc5F)c5ccc2[nH]5)C=C4)C=C3)cc1
REMARK SMILES IDX 23 1 22 2 21 3 19 4 20 5 18 6 13 7 14 8 15 10 17 11 16 12
REMARK SMILES IDX 12 13 10 14 9 15 11 17 8 18 3 19 4 20 5 21 7 22 6 23 2 24
REMARK SMILES IDX 1 25 24 26 25 27 26 28 27 29 28 30 29 31 30 32 31 33 92 34
REMARK SMILES IDX 32 35 91 36 33 37 34 38 35 39 85 40 36 41 90 42 84 43 86 44
REMARK SMILES IDX 37 45 89 46 83 47 82 48 38 50 70 51 50 52 69 53 51 54 54 55
REMARK SMILES IDX 68 56 87 57 52 58 53 59 67 61 88 62 55 63 39 64 40 65 48 66
REMARK SMILES IDX 41 67 47 68 49 69 46 70 42 71 43 72 44 73 45 74 71 75 72 76
REMARK SMILES IDX 80 77 73 78 79 79 81 80 78 81 74 82 75 83 76 84 77 85 56 86
REMARK SMILES IDX 57 87 65 88 58 89 64 90 66 91 63 92 59 93 60 94 61 95 62 96
REMARK H PARENT 13 9 9 16 86 49 54 60
REMARK Flexibility Score: inf
ROOT
ATOM      1  C   UNL A   1      35.161  22.930  26.494  1.00  0.00     0.202 C 
ENDROOT
BRANCH   1   2
ATOM      2  C   UNL A   1      35.464  24.257  25.758  1.00  0.00     0.261 C 
BRANCH   2   3
ATOM      3  O   UNL A   1      34.459  24.864  24.931  1.00  0.00    -0.459 OA
BRANCH   3   4
ATOM      4  C   UNL A   1      33.548  25.518  25.691  1.00  0.00     0.365 C 
ATOM      5  O   UNL A   1      33.146  25.036  26.742  1.00  0.00    -0.245 OA
BRANCH   4   6
ATOM      6  C   UNL A   1      32.993  26.828  25.110  1.00  0.00     0.295 C 
ATOM      7  N   UNL A   1      31.708  27.217  25.728  1.00  0.00    -0.315 N 
ATOM      8  C   UNL A   1      31.840  27.713  27.097  1.00  0.00     0.263 C 
ATOM      9  H   UNL A   1      31.479  28.020  25.142  1.00  0.00     0.349 HD
ATOM     10  C   UNL A   1      32.900  28.824  27.234  1.00  0.00     0.062 C 
ATOM     11  C   UNL A   1      33.953  28.022  25.108  1.00  0.00     0.078 C 
ATOM     12  C   UNL A   1      34.212  28.548  26.505  1.00  0.00     0.013 C 
BRANCH   7  13
ATOM     13  C   UNL A   1      30.463  26.452  25.430  1.00  0.00     0.364 C 
BRANCH  13  14
ATOM     14  C   UNL A   1      29.914  26.272  23.995  1.00  0.00     0.279 C 
ATOM     15  N   UNL A   1      30.352  25.310  23.100  1.00  0.00    -0.320 N 
ATOM     16  H   UNL A   1      29.954  25.369  22.201  1.00  0.00     0.170 HD
ATOM     17  O   UNL A   1      29.033  27.045  23.586  1.00  0.00    -0.268 OA
BRANCH  15  18
ATOM     18  C   UNL A   1      31.278  24.256  23.270  1.00  0.00     0.059 A 
ATOM     19  C   UNL A   1      32.401  24.135  22.421  1.00  0.00     0.076 A 
ATOM     20  C   UNL A   1      33.068  22.902  22.329  1.00  0.00     0.021 A 
ATOM     21  C   UNL A   1      32.703  21.839  23.152  1.00  0.00     0.002 A 
ATOM     22  C   UNL A   1      31.040  23.243  24.199  1.00  0.00     0.027 A 
ATOM     23  C   UNL A   1      31.733  22.033  24.130  1.00  0.00     0.002 A 
BRANCH  19  24
ATOM     24  C   UNL A   1      32.872  25.208  21.589  1.00  0.00     0.101 C 
ATOM     25  N   UNL A   1      33.223  26.060  20.888  1.00  0.00    -0.192 NA
ENDBRANCH  19  24
ENDBRANCH  15  18
ENDBRANCH  13  14
ENDBRANCH   7  13
ENDBRANCH   4   6
ENDBRANCH   3   4
ENDBRANCH   2   3
ENDBRANCH   1   2
BRANCH   1  26
ATOM     26  O   UNL A   1      34.997  21.676  25.857  1.00  0.00    -0.374 OA
BRANCH  26  27
ATOM     27  C   UNL A   1      35.837  21.262  24.794  1.00  0.00     0.202 C 
BRANCH  27  28
ATOM     28  C   UNL A   1      37.200  20.611  25.034  1.00  0.00     0.261 C 
BRANCH  28  29
ATOM     29  O   UNL A   1      38.289  21.539  25.038  1.00  0.00    -0.460 OA
BRANCH  29  30
ATOM     30  C   UNL A   1      39.256  21.219  25.931  1.00  0.00     0.338 C 
ATOM     31  O   UNL A   1      39.863  20.165  26.010  1.00  0.00    -0.246 OA
BRANCH  30  32
ATOM     32  C   UNL A   1      39.664  22.423  26.671  1.00  0.00     0.060 A 
ATOM     33  C   UNL A   1      39.076  23.637  26.289  1.00  0.00     0.016 A 
ATOM     34  C   UNL A   1      40.661  22.378  27.644  1.00  0.00     0.016 A 
ATOM     35  C   UNL A   1      39.525  24.826  26.835  1.00  0.00     0.010 A 
ATOM     36  C   UNL A   1      41.141  23.579  28.164  1.00  0.00     0.010 A 
ATOM     37  C   UNL A   1      40.608  24.803  27.717  1.00  0.00    -0.014 A 
BRANCH  37  38
ATOM     38  C   UNL A   1      41.331  26.069  27.945  1.00  0.00     0.031 A 
ATOM     39  C   UNL A   1      40.614  27.163  28.688  1.00  0.00     0.074 A 
ATOM     40  C   UNL A   1      42.619  26.191  27.590  1.00  0.00     0.049 A 
ATOM     41  N   UNL A   1      41.026  28.364  28.993  1.00  0.00    -0.248 NA
ATOM     42  C   UNL A   1      39.250  26.857  29.147  1.00  0.00     0.031 C 
ATOM     43  C   UNL A   1      43.420  25.144  26.956  1.00  0.00     0.029 A 
ATOM     44  N   UNL A   1      43.481  27.244  27.724  1.00  0.00    -0.354 N 
ATOM     45  C   UNL A   1      39.966  28.962  29.669  1.00  0.00     0.074 A 
ATOM     46  C   UNL A   1      38.884  28.004  29.696  1.00  0.00     0.031 C 
ATOM     47  C   UNL A   1      44.660  25.615  26.747  1.00  0.00     0.029 A 
ATOM     48  C   UNL A   1      44.723  27.007  27.188  1.00  0.00     0.049 A 
ATOM     49  H   UNL A   1      43.236  28.090  28.163  1.00  0.00     0.167 HD
ATOM     50  C   UNL A   1      39.913  30.198  30.220  1.00  0.00     0.034 A 
ATOM     51  C   UNL A   1      45.774  27.837  27.043  1.00  0.00     0.034 A 
ATOM     52  C   UNL A   1      41.012  31.131  30.169  1.00  0.00     0.049 A 
ATOM     53  C   UNL A   1      45.652  29.248  27.565  1.00  0.00     0.074 A 
ATOM     54  C   UNL A   1      41.080  32.411  30.688  1.00  0.00     0.029 A 
ATOM     55  N   UNL A   1      42.233  30.887  29.551  1.00  0.00    -0.354 N 
ATOM     56  N   UNL A   1      44.641  29.815  28.186  1.00  0.00    -0.248 NA
ATOM     57  C   UNL A   1      46.811  30.126  27.377  1.00  0.00     0.031 C 
ATOM     58  C   UNL A   1      42.302  32.970  30.305  1.00  0.00     0.029 A 
ATOM     59  C   UNL A   1      43.042  32.007  29.638  1.00  0.00     0.049 A 
ATOM     60  H   UNL A   1      42.485  30.041  29.115  1.00  0.00     0.167 HD
ATOM     61  C   UNL A   1      45.062  31.108  28.493  1.00  0.00     0.074 A 
ATOM     62  C   UNL A   1      46.419  31.226  28.001  1.00  0.00     0.031 C 
ATOM     63  C   UNL A   1      44.391  32.105  29.128  1.00  0.00     0.034 A 
BRANCH  50  64
ATOM     64  C   UNL A   1      38.609  30.627  30.851  1.00  0.00     0.023 A 
ATOM     65  C   UNL A   1      37.631  31.342  30.138  1.00  0.00     0.031 A 
ATOM     66  C   UNL A   1      38.357  30.342  32.205  1.00  0.00     0.131 A 
ATOM     67  C   UNL A   1      36.482  31.804  30.798  1.00  0.00     0.055 A 
ATOM     68  C   UNL A   1      37.172  30.730  32.833  1.00  0.00     0.041 A 
ATOM     69  F   UNL A   1      39.268  29.692  32.948  1.00  0.00    -0.206 F 
ATOM     70  C   UNL A   1      36.233  31.478  32.133  1.00  0.00     0.022 A 
BRANCH  67  71
ATOM     71  S   UNL A   1      35.392  32.968  29.932  1.00  0.00     0.124 S 
ATOM     72  O   UNL A   1      36.321  33.608  29.003  1.00  0.00    -0.237 OA
ATOM     73  O   UNL A   1      34.398  32.084  29.335  1.00  0.00    -0.237 OA
ATOM     74  O   UNL A   1      34.896  33.833  31.001  1.00  0.00    -0.744 OA
ENDBRANCH  67  71
ENDBRANCH  50  64
BRANCH  51  75
ATOM     75  C   UNL A   1      47.004  27.379  26.337  1.00  0.00     0.023 A 
ATOM     76  C   UNL A   1      47.253  27.737  25.004  1.00  0.00     0.031 A 
ATOM     77  C   UNL A   1      47.929  26.529  26.974  1.00  0.00     0.131 A 
ATOM     78  C   UNL A   1      48.366  27.207  24.335  1.00  0.00     0.055 A 
ATOM     79  C   UNL A   1      49.069  26.057  26.324  1.00  0.00     0.041 A 
ATOM     80  F   UNL A   1      47.739  26.151  28.249  1.00  0.00    -0.206 F 
ATOM     81  C   UNL A   1      49.285  26.384  24.990  1.00  0.00     0.022 A 
BRANCH  78  82
ATOM     82  S   UNL A   1      48.540  27.522  22.557  1.00  0.00     0.124 S 
ATOM     83  O   UNL A   1      47.310  28.248  22.265  1.00  0.00    -0.237 OA
ATOM     84  O   UNL A   1      49.773  28.301  22.509  1.00  0.00    -0.237 OA
ATOM     85  O   UNL A   1      48.628  26.182  21.982  1.00  0.00    -0.744 OA
ENDBRANCH  78  82
ENDBRANCH  51  75
BRANCH  63  86
ATOM     86  C   UNL A   1      45.144  33.392  29.370  1.00  0.00     0.023 A 
ATOM     87  C   UNL A   1      45.104  34.458  28.456  1.00  0.00     0.031 A 
ATOM     88  C   UNL A   1      45.918  33.548  30.534  1.00  0.00     0.131 A 
ATOM     89  C   UNL A   1      45.876  35.606  28.689  1.00  0.00     0.055 A 
ATOM     90  C   UNL A   1      46.621  34.723  30.798  1.00  0.00     0.041 A 
ATOM     91  F   UNL A   1      45.996  32.560  31.441  1.00  0.00    -0.206 F 
ATOM     92  C   UNL A   1      46.615  35.755  29.864  1.00  0.00     0.022 A 
BRANCH  89  93
ATOM     93  S   UNL A   1      45.988  36.856  27.380  1.00  0.00     0.124 S 
ATOM     94  O   UNL A   1      44.874  37.740  27.711  1.00  0.00    -0.237 OA
ATOM     95  O   UNL A   1      47.322  37.409  27.588  1.00  0.00    -0.237 OA
ATOM     96  O   UNL A   1      45.822  36.082  26.151  1.00  0.00    -0.744 OA
ENDBRANCH  89  93
ENDBRANCH  63  86
ENDBRANCH  37  38
ENDBRANCH  30  32
ENDBRANCH  29  30
ENDBRANCH  28  29
ENDBRANCH  27  28
ENDBRANCH  26  27
ENDBRANCH   1  26
TORSDOF 21
ENDMDL
