MODEL 1
REMARK VINA RESULT:     -11.4      0.000      0.000
REMARK SMILES O=C(OCCOCCOC(=O)c1c(C(=O)N2CCc3ccccc32)cccc1[N+](=O)[O-])c1ccc(-c2c3nc(c(-c4cc(S(=O)(=O)[O-])ccc4F)c4ccc([nH]4)c(-c4cc(S(=O)(=O)[O-])ccc4F)c4nc(c(-c5cc(S(=O)(=O)[O-])ccc5F)c5ccc2[nH]5)C=C4)C=C3)cc1
REMARK SMILES IDX 5 1 4 2 3 3 2 4 1 5 32 6 33 7 94 8 34 9 93 10 35 11 36 12
REMARK SMILES IDX 37 13 87 14 38 15 92 16 86 17 88 18 39 19 91 20 85 21 84 22
REMARK SMILES IDX 40 24 72 25 52 26 71 27 53 28 56 29 70 30 89 31 54 32 55 33
REMARK SMILES IDX 69 35 90 36 57 37 41 38 42 39 50 40 43 41 49 42 51 43 48 44
REMARK SMILES IDX 44 45 45 46 46 47 47 48 73 49 74 50 82 51 75 52 81 53 83 54
REMARK SMILES IDX 80 55 76 56 77 57 78 58 79 59 58 60 59 61 67 62 60 63 66 64
REMARK SMILES IDX 68 65 65 66 61 67 62 68 63 69 64 70 6 71 7 72 8 73 9 74
REMARK SMILES IDX 10 75 11 76 12 77 13 78 28 79 25 80 27 81 26 82 14 83 15 84
REMARK SMILES IDX 16 85 17 86 24 87 18 88 19 89 23 90 20 91 22 92 21 93 29 94
REMARK SMILES IDX 30 95 31 96
REMARK H PARENT 88 23 56 34
REMARK Flexibility Score: inf
ROOT
ATOM      1  C   UNL A   1      31.797  29.531  24.827  1.00  0.00     0.202 C 
ENDROOT
BRANCH   1   2
ATOM      2  C   UNL A   1      31.404  30.685  25.735  1.00  0.00     0.261 C 
BRANCH   2   3
ATOM      3  O   UNL A   1      32.211  30.664  26.911  1.00  0.00    -0.460 OA
BRANCH   3   4
ATOM      4  C   UNL A   1      33.085  31.626  27.288  1.00  0.00     0.338 C 
ATOM      5  O   UNL A   1      32.715  32.797  27.233  1.00  0.00    -0.246 OA
BRANCH   4   6
ATOM      6  C   UNL A   1      34.475  31.357  27.777  1.00  0.00     0.060 A 
ATOM      7  C   UNL A   1      35.459  32.325  28.005  1.00  0.00     0.016 A 
ATOM      8  C   UNL A   1      34.750  30.043  28.175  1.00  0.00     0.016 A 
ATOM      9  C   UNL A   1      36.650  32.030  28.648  1.00  0.00     0.010 A 
ATOM     10  C   UNL A   1      35.934  29.736  28.848  1.00  0.00     0.010 A 
ATOM     11  C   UNL A   1      36.868  30.745  29.115  1.00  0.00    -0.014 A 
BRANCH  11  12
ATOM     12  C   UNL A   1      38.122  30.458  29.825  1.00  0.00     0.031 A 
ATOM     13  C   UNL A   1      39.108  29.567  29.156  1.00  0.00     0.074 A 
ATOM     14  C   UNL A   1      38.362  31.037  31.015  1.00  0.00     0.049 A 
ATOM     15  N   UNL A   1      40.162  28.982  29.644  1.00  0.00    -0.248 NA
ATOM     16  C   UNL A   1      38.852  29.288  27.735  1.00  0.00     0.031 C 
ATOM     17  C   UNL A   1      37.501  32.037  31.653  1.00  0.00     0.029 A 
ATOM     18  N   UNL A   1      39.391  30.869  31.900  1.00  0.00    -0.354 N 
ATOM     19  C   UNL A   1      40.672  28.218  28.603  1.00  0.00     0.074 A 
ATOM     20  C   UNL A   1      39.803  28.413  27.463  1.00  0.00     0.031 C 
ATOM     21  C   UNL A   1      38.033  32.383  32.835  1.00  0.00     0.029 A 
ATOM     22  C   UNL A   1      39.209  31.557  33.077  1.00  0.00     0.049 A 
ATOM     23  H   UNL A   1      40.181  30.312  31.713  1.00  0.00     0.167 HD
ATOM     24  C   UNL A   1      41.760  27.412  28.631  1.00  0.00     0.034 A 
ATOM     25  C   UNL A   1      39.879  31.460  34.242  1.00  0.00     0.034 A 
ATOM     26  C   UNL A   1      42.561  27.253  29.818  1.00  0.00     0.049 A 
ATOM     27  C   UNL A   1      41.019  30.475  34.296  1.00  0.00     0.074 A 
ATOM     28  C   UNL A   1      43.653  26.436  30.030  1.00  0.00     0.029 A 
ATOM     29  N   UNL A   1      42.333  27.934  31.015  1.00  0.00    -0.354 N 
ATOM     30  N   UNL A   1      41.460  29.676  33.347  1.00  0.00    -0.248 NA
ATOM     31  C   UNL A   1      41.741  30.359  35.566  1.00  0.00     0.031 C 
ATOM     32  C   UNL A   1      44.031  26.560  31.373  1.00  0.00     0.029 A 
ATOM     33  C   UNL A   1      43.240  27.530  31.977  1.00  0.00     0.049 A 
ATOM     34  H   UNL A   1      41.626  28.606  31.155  1.00  0.00     0.167 HD
ATOM     35  C   UNL A   1      42.529  28.981  33.896  1.00  0.00     0.074 A 
ATOM     36  C   UNL A   1      42.666  29.457  35.261  1.00  0.00     0.031 C 
ATOM     37  C   UNL A   1      43.332  28.042  33.329  1.00  0.00     0.034 A 
BRANCH  24  38
ATOM     38  C   UNL A   1      42.017  26.581  27.396  1.00  0.00     0.023 A 
ATOM     39  C   UNL A   1      41.545  25.260  27.276  1.00  0.00     0.031 A 
ATOM     40  C   UNL A   1      42.885  27.059  26.399  1.00  0.00     0.131 A 
ATOM     41  C   UNL A   1      42.051  24.427  26.265  1.00  0.00     0.055 A 
ATOM     42  C   UNL A   1      43.296  26.257  25.331  1.00  0.00     0.041 A 
ATOM     43  F   UNL A   1      43.397  28.297  26.472  1.00  0.00    -0.206 F 
ATOM     44  C   UNL A   1      42.900  24.924  25.276  1.00  0.00     0.022 A 
BRANCH  41  45
ATOM     45  S   UNL A   1      41.774  22.637  26.404  1.00  0.00     0.124 S 
ATOM     46  O   UNL A   1      42.372  22.347  27.706  1.00  0.00    -0.237 OA
ATOM     47  O   UNL A   1      40.321  22.534  26.333  1.00  0.00    -0.237 OA
ATOM     48  O   UNL A   1      42.497  22.087  25.259  1.00  0.00    -0.744 OA
ENDBRANCH  41  45
ENDBRANCH  24  38
BRANCH  25  49
ATOM     49  C   UNL A   1      39.422  32.225  35.440  1.00  0.00     0.023 A 
ATOM     50  C   UNL A   1      39.842  33.541  35.685  1.00  0.00     0.031 A 
ATOM     51  C   UNL A   1      38.535  31.639  36.367  1.00  0.00     0.131 A 
ATOM     52  C   UNL A   1      39.393  34.219  36.832  1.00  0.00     0.055 A 
ATOM     53  C   UNL A   1      38.051  32.334  37.477  1.00  0.00     0.041 A 
ATOM     54  F   UNL A   1      38.103  30.380  36.191  1.00  0.00    -0.206 F 
ATOM     55  C   UNL A   1      38.486  33.632  37.718  1.00  0.00     0.022 A 
BRANCH  52  56
ATOM     56  S   UNL A   1      40.059  35.868  37.192  1.00  0.00     0.124 S 
ATOM     57  O   UNL A   1      41.471  35.575  37.414  1.00  0.00    -0.237 OA
ATOM     58  O   UNL A   1      39.738  36.600  35.972  1.00  0.00    -0.237 OA
ATOM     59  O   UNL A   1      39.317  36.285  38.381  1.00  0.00    -0.744 OA
ENDBRANCH  52  56
ENDBRANCH  25  49
BRANCH  37  60
ATOM     60  C   UNL A   1      44.467  27.523  34.170  1.00  0.00     0.023 A 
ATOM     61  C   UNL A   1      44.343  26.368  34.958  1.00  0.00     0.031 A 
ATOM     62  C   UNL A   1      45.714  28.173  34.125  1.00  0.00     0.131 A 
ATOM     63  C   UNL A   1      45.445  25.911  35.693  1.00  0.00     0.055 A 
ATOM     64  C   UNL A   1      46.822  27.678  34.809  1.00  0.00     0.041 A 
ATOM     65  F   UNL A   1      45.879  29.283  33.386  1.00  0.00    -0.206 F 
ATOM     66  C   UNL A   1      46.689  26.544  35.604  1.00  0.00     0.022 A 
BRANCH  63  67
ATOM     67  S   UNL A   1      45.221  24.507  36.817  1.00  0.00     0.124 S 
ATOM     68  O   UNL A   1      44.272  25.045  37.786  1.00  0.00    -0.237 OA
ATOM     69  O   UNL A   1      44.708  23.471  35.929  1.00  0.00    -0.237 OA
ATOM     70  O   UNL A   1      46.567  24.266  37.336  1.00  0.00    -0.744 OA
ENDBRANCH  63  67
ENDBRANCH  37  60
ENDBRANCH  11  12
ENDBRANCH   4   6
ENDBRANCH   3   4
ENDBRANCH   2   3
ENDBRANCH   1   2
BRANCH   1  71
ATOM     71  O   UNL A   1      33.205  29.477  24.675  1.00  0.00    -0.374 OA
BRANCH  71  72
ATOM     72  C   UNL A   1      33.808  28.186  24.661  1.00  0.00     0.202 C 
BRANCH  72  73
ATOM     73  C   UNL A   1      33.284  27.429  25.878  1.00  0.00     0.261 C 
BRANCH  73  74
ATOM     74  O   UNL A   1      34.210  26.363  26.161  1.00  0.00    -0.459 OA
BRANCH  74  75
ATOM     75  C   UNL A   1      34.310  25.365  25.242  1.00  0.00     0.346 C 
ATOM     76  O   UNL A   1      34.578  25.531  24.081  1.00  0.00    -0.246 OA
BRANCH  75  77
ATOM     77  C   UNL A   1      34.117  24.038  25.924  1.00  0.00     0.150 A 
ATOM     78  C   UNL A   1      32.849  23.625  26.426  1.00  0.00     0.061 A 
ATOM     79  C   UNL A   1      35.212  23.149  26.113  1.00  0.00     0.284 A 
ATOM     80  C   UNL A   1      32.819  22.471  27.232  1.00  0.00     0.015 A 
ATOM     81  C   UNL A   1      35.113  21.945  26.824  1.00  0.00     0.086 A 
ATOM     82  C   UNL A   1      33.910  21.620  27.406  1.00  0.00     0.008 A 
BRANCH  78  83
ATOM     83  C   UNL A   1      31.516  24.337  26.180  1.00  0.00     0.259 C 
ATOM     84  O   UNL A   1      30.916  24.808  27.137  1.00  0.00    -0.269 OA
BRANCH  83  85
ATOM     85  N   UNL A   1      31.039  24.492  24.859  1.00  0.00    -0.308 N 
ATOM     86  C   UNL A   1      30.422  25.759  24.399  1.00  0.00     0.131 C 
ATOM     87  C   UNL A   1      31.505  23.838  23.717  1.00  0.00     0.047 A 
ATOM     88  C   UNL A   1      30.926  25.975  22.945  1.00  0.00     0.059 C 
ATOM     89  C   UNL A   1      31.757  24.756  22.717  1.00  0.00    -0.022 A 
ATOM     90  C   UNL A   1      31.751  22.497  23.527  1.00  0.00     0.026 A 
ATOM     91  C   UNL A   1      32.669  24.447  21.727  1.00  0.00     0.006 A 
ATOM     92  C   UNL A   1      32.606  22.140  22.492  1.00  0.00     0.002 A 
ATOM     93  C   UNL A   1      33.146  23.132  21.661  1.00  0.00     0.000 A 
ENDBRANCH  83  85
ENDBRANCH  78  83
BRANCH  79  94
ATOM     94  N   UNL A   1      36.531  23.370  25.554  1.00  0.00     0.063 N 
ATOM     95  O   UNL A   1      36.717  22.993  24.389  1.00  0.00    -0.258 OA
ATOM     96  O   UNL A   1      37.321  24.033  26.242  1.00  0.00    -0.258 OA
ENDBRANCH  79  94
ENDBRANCH  75  77
ENDBRANCH  74  75
ENDBRANCH  73  74
ENDBRANCH  72  73
ENDBRANCH  71  72
ENDBRANCH   1  71
TORSDOF 20
ENDMDL
MODEL 2
REMARK VINA RESULT:     -11.4      2.269      3.102
REMARK SMILES O=C(OCCOCCOC(=O)c1c(C(=O)N2CCc3ccccc32)cccc1[N+](=O)[O-])c1ccc(-c2c3nc(c(-c4cc(S(=O)(=O)[O-])ccc4F)c4ccc([nH]4)c(-c4cc(S(=O)(=O)[O-])ccc4F)c4nc(c(-c5cc(S(=O)(=O)[O-])ccc5F)c5ccc2[nH]5)C=C4)C=C3)cc1
REMARK SMILES IDX 5 1 4 2 3 3 2 4 1 5 32 6 33 7 94 8 34 9 93 10 35 11 36 12
REMARK SMILES IDX 37 13 87 14 38 15 92 16 86 17 88 18 39 19 91 20 85 21 84 22
REMARK SMILES IDX 40 24 72 25 52 26 71 27 53 28 56 29 70 30 89 31 54 32 55 33
REMARK SMILES IDX 69 35 90 36 57 37 41 38 42 39 50 40 43 41 49 42 51 43 48 44
REMARK SMILES IDX 44 45 45 46 46 47 47 48 73 49 74 50 82 51 75 52 81 53 83 54
REMARK SMILES IDX 80 55 76 56 77 57 78 58 79 59 58 60 59 61 67 62 60 63 66 64
REMARK SMILES IDX 68 65 65 66 61 67 62 68 63 69 64 70 6 71 7 72 8 73 9 74
REMARK SMILES IDX 10 75 11 76 12 77 13 78 28 79 25 80 27 81 26 82 14 83 15 84
REMARK SMILES IDX 16 85 17 86 24 87 18 88 19 89 23 90 20 91 22 92 21 93 29 94
REMARK SMILES IDX 30 95 31 96
REMARK H PARENT 88 23 56 34
REMARK Flexibility Score: inf
ROOT
ATOM      1  C   UNL A   1      31.646  28.035  26.028  1.00  0.00     0.202 C 
ENDROOT
BRANCH   1   2
ATOM      2  C   UNL A   1      31.754  29.225  26.967  1.00  0.00     0.261 C 
BRANCH   2   3
ATOM      3  O   UNL A   1      32.733  30.138  26.473  1.00  0.00    -0.460 OA
BRANCH   3   4
ATOM      4  C   UNL A   1      33.419  31.040  27.212  1.00  0.00     0.338 C 
ATOM      5  O   UNL A   1      32.848  32.082  27.528  1.00  0.00    -0.246 OA
BRANCH   4   6
ATOM      6  C   UNL A   1      34.829  30.849  27.679  1.00  0.00     0.060 A 
ATOM      7  C   UNL A   1      35.771  31.866  27.865  1.00  0.00     0.016 A 
ATOM      8  C   UNL A   1      35.173  29.559  28.102  1.00  0.00     0.016 A 
ATOM      9  C   UNL A   1      36.986  31.643  28.491  1.00  0.00     0.010 A 
ATOM     10  C   UNL A   1      36.382  29.324  28.759  1.00  0.00     0.010 A 
ATOM     11  C   UNL A   1      37.273  30.381  28.984  1.00  0.00    -0.014 A 
BRANCH  11  12
ATOM     12  C   UNL A   1      38.552  30.171  29.675  1.00  0.00     0.031 A 
ATOM     13  C   UNL A   1      39.551  29.281  29.025  1.00  0.00     0.074 A 
ATOM     14  C   UNL A   1      38.799  30.814  30.829  1.00  0.00     0.049 A 
ATOM     15  N   UNL A   1      40.636  28.756  29.514  1.00  0.00    -0.248 NA
ATOM     16  C   UNL A   1      39.272  28.925  27.625  1.00  0.00     0.031 C 
ATOM     17  C   UNL A   1      37.920  31.816  31.440  1.00  0.00     0.029 A 
ATOM     18  N   UNL A   1      39.854  30.724  31.695  1.00  0.00    -0.354 N 
ATOM     19  C   UNL A   1      41.147  27.958  28.499  1.00  0.00     0.074 A 
ATOM     20  C   UNL A   1      40.246  28.068  27.373  1.00  0.00     0.031 C 
ATOM     21  C   UNL A   1      38.468  32.236  32.590  1.00  0.00     0.029 A 
ATOM     22  C   UNL A   1      39.677  31.463  32.842  1.00  0.00     0.049 A 
ATOM     23  H   UNL A   1      40.658  30.185  31.516  1.00  0.00     0.167 HD
ATOM     24  C   UNL A   1      42.263  27.191  28.538  1.00  0.00     0.034 A 
ATOM     25  C   UNL A   1      40.377  31.445  33.993  1.00  0.00     0.034 A 
ATOM     26  C   UNL A   1      43.096  27.117  29.711  1.00  0.00     0.049 A 
ATOM     27  C   UNL A   1      41.550  30.501  34.066  1.00  0.00     0.074 A 
ATOM     28  C   UNL A   1      44.220  26.347  29.935  1.00  0.00     0.029 A 
ATOM     29  N   UNL A   1      42.873  27.847  30.879  1.00  0.00    -0.354 N 
ATOM     30  N   UNL A   1      41.995  29.672  33.146  1.00  0.00    -0.248 NA
ATOM     31  C   UNL A   1      42.305  30.471  35.322  1.00  0.00     0.031 C 
ATOM     32  C   UNL A   1      44.624  26.549  31.260  1.00  0.00     0.029 A 
ATOM     33  C   UNL A   1      43.815  27.520  31.837  1.00  0.00     0.049 A 
ATOM     34  H   UNL A   1      42.147  28.502  31.004  1.00  0.00     0.167 HD
ATOM     35  C   UNL A   1      43.100  29.039  33.701  1.00  0.00     0.074 A 
ATOM     36  C   UNL A   1      43.252  29.586  35.038  1.00  0.00     0.031 C 
ATOM     37  C   UNL A   1      43.921  28.100  33.160  1.00  0.00     0.034 A 
BRANCH  24  38
ATOM     38  C   UNL A   1      42.518  26.310  27.338  1.00  0.00     0.023 A 
ATOM     39  C   UNL A   1      42.083  24.972  27.291  1.00  0.00     0.031 A 
ATOM     40  C   UNL A   1      43.352  26.764  26.301  1.00  0.00     0.131 A 
ATOM     41  C   UNL A   1      42.593  24.106  26.309  1.00  0.00     0.055 A 
ATOM     42  C   UNL A   1      43.764  25.924  25.264  1.00  0.00     0.041 A 
ATOM     43  F   UNL A   1      43.828  28.018  26.305  1.00  0.00    -0.206 F 
ATOM     44  C   UNL A   1      43.407  24.579  25.280  1.00  0.00     0.022 A 
BRANCH  41  45
ATOM     45  S   UNL A   1      42.372  22.317  26.539  1.00  0.00     0.124 S 
ATOM     46  O   UNL A   1      42.633  22.169  27.970  1.00  0.00    -0.237 OA
ATOM     47  O   UNL A   1      40.991  22.111  26.119  1.00  0.00    -0.237 OA
ATOM     48  O   UNL A   1      43.386  21.731  25.666  1.00  0.00    -0.744 OA
ENDBRANCH  41  45
ENDBRANCH  24  38
BRANCH  25  49
ATOM     49  C   UNL A   1      39.921  32.251  35.164  1.00  0.00     0.023 A 
ATOM     50  C   UNL A   1      39.082  31.715  36.152  1.00  0.00     0.031 A 
ATOM     51  C   UNL A   1      40.336  33.590  35.316  1.00  0.00     0.131 A 
ATOM     52  C   UNL A   1      38.670  32.515  37.234  1.00  0.00     0.055 A 
ATOM     53  C   UNL A   1      39.968  34.364  36.417  1.00  0.00     0.041 A 
ATOM     54  F   UNL A   1      41.135  34.162  34.400  1.00  0.00    -0.206 F 
ATOM     55  C   UNL A   1      39.123  33.829  37.382  1.00  0.00     0.022 A 
BRANCH  52  56
ATOM     56  S   UNL A   1      37.478  31.837  38.421  1.00  0.00     0.124 S 
ATOM     57  O   UNL A   1      38.233  31.897  39.668  1.00  0.00    -0.237 OA
ATOM     58  O   UNL A   1      36.363  32.770  38.300  1.00  0.00    -0.237 OA
ATOM     59  O   UNL A   1      37.219  30.491  37.914  1.00  0.00    -0.744 OA
ENDBRANCH  52  56
ENDBRANCH  25  49
BRANCH  37  60
ATOM     60  C   UNL A   1      45.093  27.661  33.996  1.00  0.00     0.023 A 
ATOM     61  C   UNL A   1      45.028  26.539  34.837  1.00  0.00     0.031 A 
ATOM     62  C   UNL A   1      46.314  28.352  33.894  1.00  0.00     0.131 A 
ATOM     63  C   UNL A   1      46.162  26.155  35.566  1.00  0.00     0.055 A 
ATOM     64  C   UNL A   1      47.453  27.929  34.573  1.00  0.00     0.041 A 
ATOM     65  F   UNL A   1      46.421  29.434  33.103  1.00  0.00    -0.206 F 
ATOM     66  C   UNL A   1      47.379  26.828  35.420  1.00  0.00     0.022 A 
BRANCH  63  67
ATOM     67  S   UNL A   1      46.014  24.795  36.755  1.00  0.00     0.124 S 
ATOM     68  O   UNL A   1      47.184  23.985  36.433  1.00  0.00    -0.237 OA
ATOM     69  O   UNL A   1      46.053  25.491  38.036  1.00  0.00    -0.237 OA
ATOM     70  O   UNL A   1      44.728  24.186  36.420  1.00  0.00    -0.744 OA
ENDBRANCH  63  67
ENDBRANCH  37  60
ENDBRANCH  11  12
ENDBRANCH   4   6
ENDBRANCH   3   4
ENDBRANCH   2   3
ENDBRANCH   1   2
BRANCH   1  71
ATOM     71  O   UNL A   1      31.520  26.831  26.765  1.00  0.00    -0.374 OA
BRANCH  71  72
ATOM     72  C   UNL A   1      30.604  25.859  26.268  1.00  0.00     0.202 C 
BRANCH  72  73
ATOM     73  C   UNL A   1      31.428  24.683  25.752  1.00  0.00     0.261 C 
BRANCH  73  74
ATOM     74  O   UNL A   1      31.388  24.719  24.313  1.00  0.00    -0.459 OA
BRANCH  74  75
ATOM     75  C   UNL A   1      31.495  23.531  23.658  1.00  0.00     0.346 C 
ATOM     76  O   UNL A   1      30.593  22.992  23.071  1.00  0.00    -0.246 OA
BRANCH  75  77
ATOM     77  C   UNL A   1      32.921  23.055  23.716  1.00  0.00     0.150 A 
ATOM     78  C   UNL A   1      33.277  21.812  24.314  1.00  0.00     0.061 A 
ATOM     79  C   UNL A   1      33.977  23.849  23.188  1.00  0.00     0.284 A 
ATOM     80  C   UNL A   1      34.649  21.560  24.510  1.00  0.00     0.015 A 
ATOM     81  C   UNL A   1      35.330  23.503  23.298  1.00  0.00     0.086 A 
ATOM     82  C   UNL A   1      35.665  22.360  23.986  1.00  0.00     0.008 A 
BRANCH  78  83
ATOM     83  C   UNL A   1      32.298  20.732  24.782  1.00  0.00     0.259 C 
ATOM     84  O   UNL A   1      31.652  20.926  25.803  1.00  0.00    -0.269 OA
BRANCH  83  85
ATOM     85  N   UNL A   1      32.113  19.569  24.000  1.00  0.00    -0.308 N 
ATOM     86  C   UNL A   1      31.963  19.640  22.527  1.00  0.00     0.131 C 
ATOM     87  C   UNL A   1      32.564  18.281  24.293  1.00  0.00     0.047 A 
ATOM     88  C   UNL A   1      32.744  18.423  21.960  1.00  0.00     0.059 C 
ATOM     89  C   UNL A   1      33.227  17.753  23.203  1.00  0.00    -0.022 A 
ATOM     90  C   UNL A   1      32.453  17.571  25.467  1.00  0.00     0.026 A 
ATOM     91  C   UNL A   1      34.169  16.762  23.397  1.00  0.00     0.006 A 
ATOM     92  C   UNL A   1      33.335  16.517  25.668  1.00  0.00     0.002 A 
ATOM     93  C   UNL A   1      34.263  16.186  24.671  1.00  0.00     0.000 A 
ENDBRANCH  83  85
ENDBRANCH  78  83
BRANCH  79  94
ATOM     94  N   UNL A   1      33.764  25.074  22.442  1.00  0.00     0.063 N 
ATOM     95  O   UNL A   1      33.365  24.958  21.276  1.00  0.00    -0.258 OA
ATOM     96  O   UNL A   1      33.875  26.135  23.074  1.00  0.00    -0.258 OA
ENDBRANCH  79  94
ENDBRANCH  75  77
ENDBRANCH  74  75
ENDBRANCH  73  74
ENDBRANCH  72  73
ENDBRANCH  71  72
ENDBRANCH   1  71
TORSDOF 20
ENDMDL
MODEL 3
REMARK VINA RESULT:     -11.2      1.186      2.014
REMARK SMILES O=C(OCCOCCOC(=O)c1c(C(=O)N2CCc3ccccc32)cccc1[N+](=O)[O-])c1ccc(-c2c3nc(c(-c4cc(S(=O)(=O)[O-])ccc4F)c4ccc([nH]4)c(-c4cc(S(=O)(=O)[O-])ccc4F)c4nc(c(-c5cc(S(=O)(=O)[O-])ccc5F)c5ccc2[nH]5)C=C4)C=C3)cc1
REMARK SMILES IDX 5 1 4 2 3 3 2 4 1 5 32 6 33 7 94 8 34 9 93 10 35 11 36 12
REMARK SMILES IDX 37 13 87 14 38 15 92 16 86 17 88 18 39 19 91 20 85 21 84 22
REMARK SMILES IDX 40 24 72 25 52 26 71 27 53 28 56 29 70 30 89 31 54 32 55 33
REMARK SMILES IDX 69 35 90 36 57 37 41 38 42 39 50 40 43 41 49 42 51 43 48 44
REMARK SMILES IDX 44 45 45 46 46 47 47 48 73 49 74 50 82 51 75 52 81 53 83 54
REMARK SMILES IDX 80 55 76 56 77 57 78 58 79 59 58 60 59 61 67 62 60 63 66 64
REMARK SMILES IDX 68 65 65 66 61 67 62 68 63 69 64 70 6 71 7 72 8 73 9 74
REMARK SMILES IDX 10 75 11 76 12 77 13 78 28 79 25 80 27 81 26 82 14 83 15 84
REMARK SMILES IDX 16 85 17 86 24 87 18 88 19 89 23 90 20 91 22 92 21 93 29 94
REMARK SMILES IDX 30 95 31 96
REMARK H PARENT 88 23 56 34
REMARK Flexibility Score: inf
ROOT
ATOM      1  C   UNL A   1      31.816  28.762  27.370  1.00  0.00     0.202 C 
ENDROOT
BRANCH   1   2
ATOM      2  C   UNL A   1      31.726  29.521  26.056  1.00  0.00     0.261 C 
BRANCH   2   3
ATOM      3  O   UNL A   1      32.835  30.413  25.943  1.00  0.00    -0.460 OA
BRANCH   3   4
ATOM      4  C   UNL A   1      33.367  31.146  26.947  1.00  0.00     0.338 C 
ATOM      5  O   UNL A   1      32.670  32.022  27.456  1.00  0.00    -0.246 OA
BRANCH   4   6
ATOM      6  C   UNL A   1      34.749  30.954  27.491  1.00  0.00     0.060 A 
ATOM      7  C   UNL A   1      35.629  31.977  27.858  1.00  0.00     0.016 A 
ATOM      8  C   UNL A   1      35.122  29.637  27.787  1.00  0.00     0.016 A 
ATOM      9  C   UNL A   1      36.808  31.728  28.541  1.00  0.00     0.010 A 
ATOM     10  C   UNL A   1      36.294  29.372  28.498  1.00  0.00     0.010 A 
ATOM     11  C   UNL A   1      37.119  30.428  28.905  1.00  0.00    -0.014 A 
BRANCH  11  12
ATOM     12  C   UNL A   1      38.357  30.186  29.658  1.00  0.00     0.031 A 
ATOM     13  C   UNL A   1      39.380  29.301  29.040  1.00  0.00     0.074 A 
ATOM     14  C   UNL A   1      38.549  30.798  30.840  1.00  0.00     0.049 A 
ATOM     15  N   UNL A   1      40.432  28.752  29.573  1.00  0.00    -0.248 NA
ATOM     16  C   UNL A   1      39.173  28.983  27.619  1.00  0.00     0.031 C 
ATOM     17  C   UNL A   1      37.648  31.795  31.428  1.00  0.00     0.029 A 
ATOM     18  N   UNL A   1      39.555  30.675  31.758  1.00  0.00    -0.354 N 
ATOM     19  C   UNL A   1      40.989  27.974  28.566  1.00  0.00     0.074 A 
ATOM     20  C   UNL A   1      40.150  28.122  27.397  1.00  0.00     0.031 C 
ATOM     21  C   UNL A   1      38.138  32.180  32.616  1.00  0.00     0.029 A 
ATOM     22  C   UNL A   1      39.324  31.387  32.912  1.00  0.00     0.049 A 
ATOM     23  H   UNL A   1      40.362  30.131  31.609  1.00  0.00     0.167 HD
ATOM     24  C   UNL A   1      42.093  27.194  28.645  1.00  0.00     0.034 A 
ATOM     25  C   UNL A   1      39.960  31.332  34.098  1.00  0.00     0.034 A 
ATOM     26  C   UNL A   1      42.862  27.081  29.860  1.00  0.00     0.049 A 
ATOM     27  C   UNL A   1      41.118  30.374  34.210  1.00  0.00     0.074 A 
ATOM     28  C   UNL A   1      43.964  26.293  30.123  1.00  0.00     0.029 A 
ATOM     29  N   UNL A   1      42.584  27.785  31.032  1.00  0.00    -0.354 N 
ATOM     30  N   UNL A   1      41.604  29.562  33.294  1.00  0.00    -0.248 NA
ATOM     31  C   UNL A   1      41.805  30.304  35.503  1.00  0.00     0.031 C 
ATOM     32  C   UNL A   1      44.298  26.457  31.473  1.00  0.00     0.029 A 
ATOM     33  C   UNL A   1      43.470  27.423  32.030  1.00  0.00     0.049 A 
ATOM     34  H   UNL A   1      41.859  28.444  31.134  1.00  0.00     0.167 HD
ATOM     35  C   UNL A   1      42.671  28.904  33.891  1.00  0.00     0.074 A 
ATOM     36  C   UNL A   1      42.757  29.416  35.247  1.00  0.00     0.031 C 
ATOM     37  C   UNL A   1      43.510  27.969  33.371  1.00  0.00     0.034 A 
BRANCH  24  38
ATOM     38  C   UNL A   1      42.404  26.339  27.440  1.00  0.00     0.023 A 
ATOM     39  C   UNL A   1      41.873  25.044  27.288  1.00  0.00     0.031 A 
ATOM     40  C   UNL A   1      43.373  26.762  26.513  1.00  0.00     0.131 A 
ATOM     41  C   UNL A   1      42.414  24.176  26.325  1.00  0.00     0.055 A 
ATOM     42  C   UNL A   1      43.826  25.930  25.487  1.00  0.00     0.041 A 
ATOM     43  F   UNL A   1      43.943  27.971  26.622  1.00  0.00    -0.206 F 
ATOM     44  C   UNL A   1      43.366  24.619  25.405  1.00  0.00     0.022 A 
BRANCH  41  45
ATOM     45  S   UNL A   1      42.032  22.404  26.450  1.00  0.00     0.124 S 
ATOM     46  O   UNL A   1      42.527  22.090  27.789  1.00  0.00    -0.237 OA
ATOM     47  O   UNL A   1      40.584  22.379  26.284  1.00  0.00    -0.237 OA
ATOM     48  O   UNL A   1      42.798  21.810  25.356  1.00  0.00    -0.744 OA
ENDBRANCH  41  45
ENDBRANCH  24  38
BRANCH  25  49
ATOM     49  C   UNL A   1      39.451  32.115  35.263  1.00  0.00     0.023 A 
ATOM     50  C   UNL A   1      39.876  33.428  35.517  1.00  0.00     0.031 A 
ATOM     51  C   UNL A   1      38.510  31.550  36.149  1.00  0.00     0.131 A 
ATOM     52  C   UNL A   1      39.376  34.124  36.633  1.00  0.00     0.055 A 
ATOM     53  C   UNL A   1      37.978  32.263  37.225  1.00  0.00     0.041 A 
ATOM     54  F   UNL A   1      38.071  30.295  35.963  1.00  0.00    -0.206 F 
ATOM     55  C   UNL A   1      38.417  33.557  37.476  1.00  0.00     0.022 A 
BRANCH  52  56
ATOM     56  S   UNL A   1      40.045  35.768  37.011  1.00  0.00     0.124 S 
ATOM     57  O   UNL A   1      39.309  36.116  38.221  1.00  0.00    -0.237 OA
ATOM     58  O   UNL A   1      41.466  35.487  37.181  1.00  0.00    -0.237 OA
ATOM     59  O   UNL A   1      39.704  36.556  35.827  1.00  0.00    -0.744 OA
ENDBRANCH  52  56
ENDBRANCH  25  49
BRANCH  37  60
ATOM     60  C   UNL A   1      44.631  27.496  34.257  1.00  0.00     0.023 A 
ATOM     61  C   UNL A   1      44.500  26.371  35.087  1.00  0.00     0.031 A 
ATOM     62  C   UNL A   1      45.873  28.157  34.215  1.00  0.00     0.131 A 
ATOM     63  C   UNL A   1      45.590  25.955  35.864  1.00  0.00     0.055 A 
ATOM     64  C   UNL A   1      46.969  27.701  34.943  1.00  0.00     0.041 A 
ATOM     65  F   UNL A   1      46.043  29.240  33.438  1.00  0.00    -0.206 F 
ATOM     66  C   UNL A   1      46.828  26.598  35.778  1.00  0.00     0.022 A 
BRANCH  63  67
ATOM     67  S   UNL A   1      45.354  24.593  37.036  1.00  0.00     0.124 S 
ATOM     68  O   UNL A   1      44.220  25.066  37.824  1.00  0.00    -0.237 OA
ATOM     69  O   UNL A   1      45.091  23.461  36.155  1.00  0.00    -0.237 OA
ATOM     70  O   UNL A   1      46.626  24.536  37.755  1.00  0.00    -0.744 OA
ENDBRANCH  63  67
ENDBRANCH  37  60
ENDBRANCH  11  12
ENDBRANCH   4   6
ENDBRANCH   3   4
ENDBRANCH   2   3
ENDBRANCH   1   2
BRANCH   1  71
ATOM     71  O   UNL A   1      32.341  27.463  27.157  1.00  0.00    -0.374 OA
BRANCH  71  72
ATOM     72  C   UNL A   1      33.137  27.267  25.992  1.00  0.00     0.202 C 
BRANCH  72  73
ATOM     73  C   UNL A   1      34.086  26.108  26.282  1.00  0.00     0.261 C 
BRANCH  73  74
ATOM     74  O   UNL A   1      33.575  24.945  25.604  1.00  0.00    -0.459 OA
BRANCH  74  75
ATOM     75  C   UNL A   1      34.450  24.236  24.839  1.00  0.00     0.346 C 
ATOM     76  O   UNL A   1      35.633  24.449  24.781  1.00  0.00    -0.246 OA
BRANCH  75  77
ATOM     77  C   UNL A   1      33.719  23.111  24.158  1.00  0.00     0.150 A 
ATOM     78  C   UNL A   1      32.960  23.315  22.970  1.00  0.00     0.061 A 
ATOM     79  C   UNL A   1      33.743  21.794  24.696  1.00  0.00     0.284 A 
ATOM     80  C   UNL A   1      32.144  22.253  22.535  1.00  0.00     0.015 A 
ATOM     81  C   UNL A   1      33.006  20.730  24.161  1.00  0.00     0.086 A 
ATOM     82  C   UNL A   1      32.183  20.972  23.086  1.00  0.00     0.008 A 
BRANCH  78  83
ATOM     83  C   UNL A   1      32.939  24.596  22.131  1.00  0.00     0.259 C 
ATOM     84  O   UNL A   1      33.063  24.507  20.917  1.00  0.00    -0.269 OA
BRANCH  83  85
ATOM     85  N   UNL A   1      32.713  25.841  22.762  1.00  0.00    -0.308 N 
ATOM     86  C   UNL A   1      33.553  27.025  22.466  1.00  0.00     0.131 C 
ATOM     87  C   UNL A   1      31.498  26.325  23.249  1.00  0.00     0.047 A 
ATOM     88  C   UNL A   1      32.584  28.240  22.441  1.00  0.00     0.059 C 
ATOM     89  C   UNL A   1      31.277  27.604  22.778  1.00  0.00    -0.022 A 
ATOM     90  C   UNL A   1      30.572  25.694  24.048  1.00  0.00     0.026 A 
ATOM     91  C   UNL A   1      29.982  28.078  22.687  1.00  0.00     0.006 A 
ATOM     92  C   UNL A   1      29.274  26.187  24.042  1.00  0.00     0.002 A 
ATOM     93  C   UNL A   1      28.962  27.319  23.274  1.00  0.00     0.000 A 
ENDBRANCH  83  85
ENDBRANCH  78  83
BRANCH  79  94
ATOM     94  N   UNL A   1      34.566  21.403  25.825  1.00  0.00     0.063 N 
ATOM     95  O   UNL A   1      35.739  21.092  25.582  1.00  0.00    -0.258 OA
ATOM     96  O   UNL A   1      34.063  21.538  26.950  1.00  0.00    -0.258 OA
ENDBRANCH  79  94
ENDBRANCH  75  77
ENDBRANCH  74  75
ENDBRANCH  73  74
ENDBRANCH  72  73
ENDBRANCH  71  72
ENDBRANCH   1  71
TORSDOF 20
ENDMDL
