MODEL 1
REMARK VINA RESULT:     -11.1      0.000      0.000
REMARK SMILES C[C@@H](C(=O)OCCOCCOC(=O)c1ccc(-c2c3nc(c(-c4cc(S(=O)(=O)[O-])ccc4F)c4ccc([nH]4)c(-c4cc(S(=O)(=O)[O-])ccc4F)c4nc(c(-c5cc(S(=O)(=O)[O-])ccc5F)c5ccc2[nH]5)C=C4)C=C3)cc1)c1ccc(C[C@@H]2CCC[C@@H]2O)cc1F
REMARK SMILES IDX 7 1 6 2 5 3 3 4 4 5 2 6 1 7 77 8 78 9 89 10 79 11 88 12
REMARK SMILES IDX 90 13 80 14 81 15 82 16 83 17 86 18 84 19 85 20 87 21 8 23
REMARK SMILES IDX 9 24 10 25 11 26 12 27 13 28 14 29 15 30 76 31 16 32 75 33
REMARK SMILES IDX 17 34 18 35 19 36 69 37 20 38 74 39 68 40 70 41 21 42 73 43
REMARK SMILES IDX 67 44 66 45 22 47 54 48 34 49 53 50 35 51 38 52 52 53 71 54
REMARK SMILES IDX 36 55 37 56 51 58 72 59 39 60 23 61 24 62 32 63 25 64 31 65
REMARK SMILES IDX 33 66 30 67 26 68 27 69 28 70 29 71 55 72 56 73 64 74 57 75
REMARK SMILES IDX 63 76 65 77 62 78 58 79 59 80 60 81 61 82 40 83 41 84 49 85
REMARK SMILES IDX 42 86 48 87 50 88 47 89 43 90 44 91 45 92 46 93
REMARK H PARENT 87 22 70 46 38 57
REMARK Flexibility Score: inf
ROOT
ATOM      1  C   UNL A   1      32.706  29.243  25.504  1.00  0.00     0.202 C 
ENDROOT
BRANCH   1   2
ATOM      2  C   UNL A   1      32.035  29.468  24.145  1.00  0.00     0.261 C 
BRANCH   2   3
ATOM      3  O   UNL A   1      30.712  28.906  24.151  1.00  0.00    -0.463 OA
BRANCH   3   4
ATOM      4  C   UNL A   1      30.272  28.401  22.969  1.00  0.00     0.313 C 
ATOM      5  O   UNL A   1      30.246  29.028  21.915  1.00  0.00    -0.252 OA
BRANCH   4   6
ATOM      6  C   UNL A   1      29.922  26.912  23.062  1.00  0.00     0.129 C 
ATOM      7  C   UNL A   1      28.752  26.567  23.988  1.00  0.00     0.025 C 
BRANCH   6   8
ATOM      8  C   UNL A   1      31.142  26.061  23.391  1.00  0.00     0.002 A 
ATOM      9  C   UNL A   1      31.379  25.550  24.676  1.00  0.00     0.008 A 
ATOM     10  C   UNL A   1      32.083  25.780  22.398  1.00  0.00     0.127 A 
ATOM     11  C   UNL A   1      32.544  24.837  24.964  1.00  0.00     0.004 A 
ATOM     12  C   UNL A   1      33.264  25.098  22.687  1.00  0.00     0.043 A 
ATOM     13  F   UNL A   1      31.880  26.213  21.146  1.00  0.00    -0.207 F 
ATOM     14  C   UNL A   1      33.532  24.666  23.992  1.00  0.00    -0.045 A 
BRANCH  14  15
ATOM     15  C   UNL A   1      34.884  24.106  24.358  1.00  0.00     0.041 C 
BRANCH  15  16
ATOM     16  C   UNL A   1      35.184  22.650  23.922  1.00  0.00     0.022 C 
ATOM     17  C   UNL A   1      35.018  21.587  25.017  1.00  0.00     0.007 C 
ATOM     18  C   UNL A   1      36.589  22.354  23.382  1.00  0.00     0.117 C 
ATOM     19  C   UNL A   1      36.422  21.245  25.526  1.00  0.00     0.003 C 
ATOM     20  C   UNL A   1      37.409  21.954  24.604  1.00  0.00     0.032 C 
BRANCH  18  21
ATOM     21  O   UNL A   1      37.138  23.431  22.649  1.00  0.00    -0.393 OA
ATOM     22  H   UNL A   1      37.533  23.095  21.829  1.00  0.00     0.210 HD
ENDBRANCH  18  21
ENDBRANCH  15  16
ENDBRANCH  14  15
ENDBRANCH   6   8
ENDBRANCH   4   6
ENDBRANCH   3   4
ENDBRANCH   2   3
ENDBRANCH   1   2
BRANCH   1  23
ATOM     23  O   UNL A   1      32.547  30.301  26.456  1.00  0.00    -0.374 OA
BRANCH  23  24
ATOM     24  C   UNL A   1      31.462  31.204  26.246  1.00  0.00     0.202 C 
BRANCH  24  25
ATOM     25  C   UNL A   1      31.511  32.550  26.971  1.00  0.00     0.261 C 
BRANCH  25  26
ATOM     26  O   UNL A   1      32.750  33.239  26.744  1.00  0.00    -0.460 OA
BRANCH  26  27
ATOM     27  C   UNL A   1      33.304  33.769  27.860  1.00  0.00     0.338 C 
ATOM     28  O   UNL A   1      32.796  34.598  28.607  1.00  0.00    -0.246 OA
BRANCH  27  29
ATOM     29  C   UNL A   1      34.554  33.064  28.191  1.00  0.00     0.060 A 
ATOM     30  C   UNL A   1      34.446  31.725  28.587  1.00  0.00     0.016 A 
ATOM     31  C   UNL A   1      35.798  33.701  28.171  1.00  0.00     0.016 A 
ATOM     32  C   UNL A   1      35.571  31.034  29.026  1.00  0.00     0.010 A 
ATOM     33  C   UNL A   1      36.927  33.007  28.620  1.00  0.00     0.010 A 
ATOM     34  C   UNL A   1      36.809  31.684  29.087  1.00  0.00    -0.014 A 
BRANCH  34  35
ATOM     35  C   UNL A   1      37.932  31.030  29.802  1.00  0.00     0.031 A 
ATOM     36  C   UNL A   1      38.185  31.401  31.238  1.00  0.00     0.074 A 
ATOM     37  C   UNL A   1      38.675  30.086  29.198  1.00  0.00     0.049 A 
ATOM     38  N   UNL A   1      39.110  30.972  32.056  1.00  0.00    -0.248 NA
ATOM     39  C   UNL A   1      37.270  32.391  31.828  1.00  0.00     0.031 C 
ATOM     40  C   UNL A   1      38.482  29.610  27.829  1.00  0.00     0.029 A 
ATOM     41  N   UNL A   1      39.740  29.356  29.662  1.00  0.00    -0.354 N 
ATOM     42  C   UNL A   1      38.894  31.641  33.256  1.00  0.00     0.074 A 
ATOM     43  C   UNL A   1      37.772  32.531  33.045  1.00  0.00     0.031 C 
ATOM     44  C   UNL A   1      39.405  28.670  27.561  1.00  0.00     0.029 A 
ATOM     45  C   UNL A   1      40.274  28.504  28.725  1.00  0.00     0.049 A 
ATOM     46  H   UNL A   1      40.088  29.436  30.579  1.00  0.00     0.167 HD
ATOM     47  C   UNL A   1      39.565  31.517  34.428  1.00  0.00     0.034 A 
ATOM     48  C   UNL A   1      41.356  27.701  28.793  1.00  0.00     0.034 A 
ATOM     49  C   UNL A   1      40.686  30.631  34.617  1.00  0.00     0.049 A 
ATOM     50  C   UNL A   1      42.142  27.648  30.082  1.00  0.00     0.074 A 
ATOM     51  C   UNL A   1      41.430  30.413  35.763  1.00  0.00     0.029 A 
ATOM     52  N   UNL A   1      41.236  29.823  33.629  1.00  0.00    -0.354 N 
ATOM     53  N   UNL A   1      41.923  28.279  31.213  1.00  0.00    -0.248 NA
ATOM     54  C   UNL A   1      43.317  26.767  30.104  1.00  0.00     0.031 C 
ATOM     55  C   UNL A   1      42.472  29.533  35.449  1.00  0.00     0.029 A 
ATOM     56  C   UNL A   1      42.331  29.136  34.129  1.00  0.00     0.049 A 
ATOM     57  H   UNL A   1      40.897  29.749  32.707  1.00  0.00     0.167 HD
ATOM     58  C   UNL A   1      42.914  27.844  32.090  1.00  0.00     0.074 A 
ATOM     59  C   UNL A   1      43.722  26.890  31.360  1.00  0.00     0.031 C 
ATOM     60  C   UNL A   1      43.134  28.195  33.383  1.00  0.00     0.034 A 
BRANCH  47  61
ATOM     61  C   UNL A   1      39.135  32.406  35.571  1.00  0.00     0.023 A 
ATOM     62  C   UNL A   1      39.585  33.733  35.693  1.00  0.00     0.031 A 
ATOM     63  C   UNL A   1      38.283  31.905  36.572  1.00  0.00     0.131 A 
ATOM     64  C   UNL A   1      39.235  34.490  36.821  1.00  0.00     0.055 A 
ATOM     65  C   UNL A   1      37.878  32.689  37.653  1.00  0.00     0.041 A 
ATOM     66  F   UNL A   1      37.843  30.638  36.524  1.00  0.00    -0.206 F 
ATOM     67  C   UNL A   1      38.364  33.985  37.790  1.00  0.00     0.022 A 
BRANCH  64  68
ATOM     68  S   UNL A   1      40.043  36.094  37.076  1.00  0.00     0.124 S 
ATOM     69  O   UNL A   1      39.323  36.605  38.238  1.00  0.00    -0.237 OA
ATOM     70  O   UNL A   1      41.433  35.715  37.300  1.00  0.00    -0.237 OA
ATOM     71  O   UNL A   1      39.785  36.809  35.827  1.00  0.00    -0.744 OA
ENDBRANCH  64  68
ENDBRANCH  47  61
BRANCH  48  72
ATOM     72  C   UNL A   1      41.792  26.914  27.604  1.00  0.00     0.023 A 
ATOM     73  C   UNL A   1      41.571  25.529  27.528  1.00  0.00     0.031 A 
ATOM     74  C   UNL A   1      42.494  27.527  26.552  1.00  0.00     0.131 A 
ATOM     75  C   UNL A   1      42.088  24.797  26.447  1.00  0.00     0.055 A 
ATOM     76  C   UNL A   1      42.958  26.804  25.452  1.00  0.00     0.041 A 
ATOM     77  F   UNL A   1      42.735  28.848  26.575  1.00  0.00    -0.206 F 
ATOM     78  C   UNL A   1      42.768  25.427  25.403  1.00  0.00     0.022 A 
BRANCH  75  79
ATOM     79  S   UNL A   1      41.936  22.989  26.470  1.00  0.00     0.124 S 
ATOM     80  O   UNL A   1      42.837  22.602  25.391  1.00  0.00    -0.237 OA
ATOM     81  O   UNL A   1      42.379  22.668  27.822  1.00  0.00    -0.237 OA
ATOM     82  O   UNL A   1      40.516  22.764  26.212  1.00  0.00    -0.744 OA
ENDBRANCH  75  79
ENDBRANCH  48  72
BRANCH  60  83
ATOM     83  C   UNL A   1      44.267  27.501  34.099  1.00  0.00     0.023 A 
ATOM     84  C   UNL A   1      44.071  26.312  34.822  1.00  0.00     0.031 A 
ATOM     85  C   UNL A   1      45.564  28.046  34.062  1.00  0.00     0.131 A 
ATOM     86  C   UNL A   1      45.140  25.737  35.526  1.00  0.00     0.055 A 
ATOM     87  C   UNL A   1      46.637  27.436  34.712  1.00  0.00     0.041 A 
ATOM     88  F   UNL A   1      45.809  29.180  33.387  1.00  0.00    -0.206 F 
ATOM     89  C   UNL A   1      46.425  26.282  35.461  1.00  0.00     0.022 A 
BRANCH  86  90
ATOM     90  S   UNL A   1      44.812  24.316  36.603  1.00  0.00     0.124 S 
ATOM     91  O   UNL A   1      44.229  24.955  37.780  1.00  0.00    -0.237 OA
ATOM     92  O   UNL A   1      43.897  23.516  35.795  1.00  0.00    -0.237 OA
ATOM     93  O   UNL A   1      46.134  23.727  36.808  1.00  0.00    -0.744 OA
ENDBRANCH  86  90
ENDBRANCH  60  83
ENDBRANCH  34  35
ENDBRANCH  27  29
ENDBRANCH  26  27
ENDBRANCH  25  26
ENDBRANCH  24  25
ENDBRANCH  23  24
ENDBRANCH   1  23
TORSDOF 21
ENDMDL
MODEL 2
REMARK VINA RESULT:     -10.6      4.880     10.829
REMARK SMILES C[C@@H](C(=O)OCCOCCOC(=O)c1ccc(-c2c3nc(c(-c4cc(S(=O)(=O)[O-])ccc4F)c4ccc([nH]4)c(-c4cc(S(=O)(=O)[O-])ccc4F)c4nc(c(-c5cc(S(=O)(=O)[O-])ccc5F)c5ccc2[nH]5)C=C4)C=C3)cc1)c1ccc(C[C@@H]2CCC[C@@H]2O)cc1F
REMARK SMILES IDX 7 1 6 2 5 3 3 4 4 5 2 6 1 7 77 8 78 9 89 10 79 11 88 12
REMARK SMILES IDX 90 13 80 14 81 15 82 16 83 17 86 18 84 19 85 20 87 21 8 23
REMARK SMILES IDX 9 24 10 25 11 26 12 27 13 28 14 29 15 30 76 31 16 32 75 33
REMARK SMILES IDX 17 34 18 35 19 36 69 37 20 38 74 39 68 40 70 41 21 42 73 43
REMARK SMILES IDX 67 44 66 45 22 47 54 48 34 49 53 50 35 51 38 52 52 53 71 54
REMARK SMILES IDX 36 55 37 56 51 58 72 59 39 60 23 61 24 62 32 63 25 64 31 65
REMARK SMILES IDX 33 66 30 67 26 68 27 69 28 70 29 71 55 72 56 73 64 74 57 75
REMARK SMILES IDX 63 76 65 77 62 78 58 79 59 80 60 81 61 82 40 83 41 84 49 85
REMARK SMILES IDX 42 86 48 87 50 88 47 89 43 90 44 91 45 92 46 93
REMARK H PARENT 87 22 70 46 38 57
REMARK Flexibility Score: inf
ROOT
ATOM      1  C   UNL A   1      36.993  21.874  25.785  1.00  0.00     0.202 C 
ENDROOT
BRANCH   1   2
ATOM      2  C   UNL A   1      35.954  22.992  25.927  1.00  0.00     0.261 C 
BRANCH   2   3
ATOM      3  O   UNL A   1      34.680  22.545  25.433  1.00  0.00    -0.463 OA
BRANCH   3   4
ATOM      4  C   UNL A   1      33.720  23.498  25.311  1.00  0.00     0.313 C 
ATOM      5  O   UNL A   1      33.411  24.288  26.198  1.00  0.00    -0.252 OA
BRANCH   4   6
ATOM      6  C   UNL A   1      33.139  23.566  23.895  1.00  0.00     0.129 C 
ATOM      7  C   UNL A   1      34.166  23.539  22.759  1.00  0.00     0.025 C 
BRANCH   6   8
ATOM      8  C   UNL A   1      32.179  24.737  23.730  1.00  0.00     0.002 A 
ATOM      9  C   UNL A   1      32.600  25.998  23.282  1.00  0.00     0.008 A 
ATOM     10  C   UNL A   1      30.828  24.581  24.048  1.00  0.00     0.127 A 
ATOM     11  C   UNL A   1      31.712  27.072  23.213  1.00  0.00     0.004 A 
ATOM     12  C   UNL A   1      29.944  25.657  24.014  1.00  0.00     0.043 A 
ATOM     13  F   UNL A   1      30.371  23.385  24.443  1.00  0.00    -0.207 F 
ATOM     14  C   UNL A   1      30.392  26.932  23.647  1.00  0.00    -0.045 A 
BRANCH  14  15
ATOM     15  C   UNL A   1      29.498  28.138  23.796  1.00  0.00     0.041 C 
BRANCH  15  16
ATOM     16  C   UNL A   1      29.002  28.812  22.492  1.00  0.00     0.022 C 
ATOM     17  C   UNL A   1      29.789  30.056  22.055  1.00  0.00     0.007 C 
ATOM     18  C   UNL A   1      27.552  29.309  22.466  1.00  0.00     0.117 C 
ATOM     19  C   UNL A   1      28.960  31.278  22.466  1.00  0.00     0.003 C 
ATOM     20  C   UNL A   1      27.616  30.751  22.960  1.00  0.00     0.032 C 
BRANCH  18  21
ATOM     21  O   UNL A   1      26.672  28.487  23.205  1.00  0.00    -0.393 OA
ATOM     22  H   UNL A   1      26.510  28.887  24.075  1.00  0.00     0.210 HD
ENDBRANCH  18  21
ENDBRANCH  15  16
ENDBRANCH  14  15
ENDBRANCH   6   8
ENDBRANCH   4   6
ENDBRANCH   3   4
ENDBRANCH   2   3
ENDBRANCH   1   2
BRANCH   1  23
ATOM     23  O   UNL A   1      36.814  21.001  24.665  1.00  0.00    -0.374 OA
BRANCH  23  24
ATOM     24  C   UNL A   1      37.602  19.811  24.638  1.00  0.00     0.202 C 
BRANCH  24  25
ATOM     25  C   UNL A   1      38.643  19.627  25.745  1.00  0.00     0.261 C 
BRANCH  25  26
ATOM     26  O   UNL A   1      39.929  20.136  25.363  1.00  0.00    -0.460 OA
BRANCH  26  27
ATOM     27  C   UNL A   1      40.838  20.160  26.367  1.00  0.00     0.338 C 
ATOM     28  O   UNL A   1      41.585  19.247  26.700  1.00  0.00    -0.246 OA
BRANCH  27  29
ATOM     29  C   UNL A   1      40.964  21.525  26.906  1.00  0.00     0.060 A 
ATOM     30  C   UNL A   1      40.407  22.564  26.149  1.00  0.00     0.016 A 
ATOM     31  C   UNL A   1      41.655  21.799  28.089  1.00  0.00     0.016 A 
ATOM     32  C   UNL A   1      40.591  23.887  26.538  1.00  0.00     0.010 A 
ATOM     33  C   UNL A   1      41.846  23.131  28.475  1.00  0.00     0.010 A 
ATOM     34  C   UNL A   1      41.349  24.180  27.679  1.00  0.00    -0.014 A 
BRANCH  34  35
ATOM     35  C   UNL A   1      41.761  25.582  27.930  1.00  0.00     0.031 A 
ATOM     36  C   UNL A   1      43.097  26.043  27.414  1.00  0.00     0.074 A 
ATOM     37  C   UNL A   1      40.937  26.440  28.557  1.00  0.00     0.049 A 
ATOM     38  N   UNL A   1      43.671  27.213  27.522  1.00  0.00    -0.248 NA
ATOM     39  C   UNL A   1      43.892  25.048  26.676  1.00  0.00     0.031 C 
ATOM     40  C   UNL A   1      39.599  26.115  29.049  1.00  0.00     0.029 A 
ATOM     41  N   UNL A   1      41.105  27.761  28.883  1.00  0.00    -0.354 N 
ATOM     42  C   UNL A   1      44.896  27.096  26.873  1.00  0.00     0.074 A 
ATOM     43  C   UNL A   1      44.995  25.729  26.406  1.00  0.00     0.031 C 
ATOM     44  C   UNL A   1      39.069  27.209  29.622  1.00  0.00     0.029 A 
ATOM     45  C   UNL A   1      40.042  28.299  29.570  1.00  0.00     0.049 A 
ATOM     46  H   UNL A   1      41.910  28.276  28.649  1.00  0.00     0.167 HD
ATOM     47  C   UNL A   1      45.845  28.044  26.678  1.00  0.00     0.034 A 
ATOM     48  C   UNL A   1      39.885  29.523  30.114  1.00  0.00     0.034 A 
ATOM     49  C   UNL A   1      45.732  29.398  27.158  1.00  0.00     0.049 A 
ATOM     50  C   UNL A   1      40.996  30.535  29.961  1.00  0.00     0.074 A 
ATOM     51  C   UNL A   1      46.624  30.445  27.004  1.00  0.00     0.029 A 
ATOM     52  N   UNL A   1      44.666  29.894  27.899  1.00  0.00    -0.354 N 
ATOM     53  N   UNL A   1      42.146  30.416  29.337  1.00  0.00    -0.248 NA
ATOM     54  C   UNL A   1      40.783  31.850  30.579  1.00  0.00     0.031 C 
ATOM     55  C   UNL A   1      46.133  31.548  27.713  1.00  0.00     0.029 A 
ATOM     56  C   UNL A   1      44.895  31.217  28.241  1.00  0.00     0.049 A 
ATOM     57  H   UNL A   1      43.863  29.379  28.144  1.00  0.00     0.167 HD
ATOM     58  C   UNL A   1      42.777  31.651  29.461  1.00  0.00     0.074 A 
ATOM     59  C   UNL A   1      41.874  32.503  30.207  1.00  0.00     0.031 C 
ATOM     60  C   UNL A   1      43.988  32.050  28.995  1.00  0.00     0.034 A 
BRANCH  47  61
ATOM     61  C   UNL A   1      47.109  27.624  25.964  1.00  0.00     0.023 A 
ATOM     62  C   UNL A   1      47.305  27.867  24.593  1.00  0.00     0.031 A 
ATOM     63  C   UNL A   1      48.121  26.944  26.664  1.00  0.00     0.131 A 
ATOM     64  C   UNL A   1      48.453  27.375  23.953  1.00  0.00     0.055 A 
ATOM     65  C   UNL A   1      49.295  26.524  26.038  1.00  0.00     0.041 A 
ATOM     66  F   UNL A   1      47.979  26.661  27.969  1.00  0.00    -0.206 F 
ATOM     67  C   UNL A   1      49.462  26.727  24.672  1.00  0.00     0.022 A 
BRANCH  64  68
ATOM     68  S   UNL A   1      48.549  27.472  22.145  1.00  0.00     0.124 S 
ATOM     69  O   UNL A   1      47.264  28.083  21.814  1.00  0.00    -0.237 OA
ATOM     70  O   UNL A   1      49.726  28.306  21.935  1.00  0.00    -0.237 OA
ATOM     71  O   UNL A   1      48.691  26.076  21.733  1.00  0.00    -0.744 OA
ENDBRANCH  64  68
ENDBRANCH  47  61
BRANCH  48  72
ATOM     72  C   UNL A   1      38.655  29.857  30.889  1.00  0.00     0.023 A 
ATOM     73  C   UNL A   1      37.650  30.671  30.343  1.00  0.00     0.031 A 
ATOM     74  C   UNL A   1      38.496  29.414  32.214  1.00  0.00     0.131 A 
ATOM     75  C   UNL A   1      36.555  31.056  31.134  1.00  0.00     0.055 A 
ATOM     76  C   UNL A   1      37.379  29.754  32.979  1.00  0.00     0.041 A 
ATOM     77  F   UNL A   1      39.428  28.635  32.786  1.00  0.00    -0.206 F 
ATOM     78  C   UNL A   1      36.407  30.593  32.443  1.00  0.00     0.022 A 
BRANCH  75  79
ATOM     79  S   UNL A   1      35.370  32.249  30.454  1.00  0.00     0.124 S 
ATOM     80  O   UNL A   1      34.384  32.331  31.526  1.00  0.00    -0.237 OA
ATOM     81  O   UNL A   1      36.207  33.428  30.261  1.00  0.00    -0.237 OA
ATOM     82  O   UNL A   1      34.908  31.607  29.226  1.00  0.00    -0.744 OA
ENDBRANCH  75  79
ENDBRANCH  48  72
BRANCH  60  83
ATOM     83  C   UNL A   1      44.379  33.487  29.241  1.00  0.00     0.023 A 
ATOM     84  C   UNL A   1      43.907  34.534  28.431  1.00  0.00     0.031 A 
ATOM     85  C   UNL A   1      45.245  33.811  30.302  1.00  0.00     0.131 A 
ATOM     86  C   UNL A   1      44.348  35.846  28.657  1.00  0.00     0.055 A 
ATOM     87  C   UNL A   1      45.632  35.127  30.561  1.00  0.00     0.041 A 
ATOM     88  F   UNL A   1      45.728  32.851  31.108  1.00  0.00    -0.206 F 
ATOM     89  C   UNL A   1      45.193  36.151  29.727  1.00  0.00     0.022 A 
BRANCH  86  90
ATOM     90  S   UNL A   1      43.874  37.141  27.479  1.00  0.00     0.124 S 
ATOM     91  O   UNL A   1      42.946  37.945  28.268  1.00  0.00    -0.237 OA
ATOM     92  O   UNL A   1      45.155  37.768  27.171  1.00  0.00    -0.237 OA
ATOM     93  O   UNL A   1      43.268  36.397  26.376  1.00  0.00    -0.744 OA
ENDBRANCH  86  90
ENDBRANCH  60  83
ENDBRANCH  34  35
ENDBRANCH  27  29
ENDBRANCH  26  27
ENDBRANCH  25  26
ENDBRANCH  24  25
ENDBRANCH  23  24
ENDBRANCH   1  23
TORSDOF 21
ENDMDL
MODEL 3
REMARK VINA RESULT:     -10.6      4.745     10.543
REMARK SMILES C[C@@H](C(=O)OCCOCCOC(=O)c1ccc(-c2c3nc(c(-c4cc(S(=O)(=O)[O-])ccc4F)c4ccc([nH]4)c(-c4cc(S(=O)(=O)[O-])ccc4F)c4nc(c(-c5cc(S(=O)(=O)[O-])ccc5F)c5ccc2[nH]5)C=C4)C=C3)cc1)c1ccc(C[C@@H]2CCC[C@@H]2O)cc1F
REMARK SMILES IDX 7 1 6 2 5 3 3 4 4 5 2 6 1 7 77 8 78 9 89 10 79 11 88 12
REMARK SMILES IDX 90 13 80 14 81 15 82 16 83 17 86 18 84 19 85 20 87 21 8 23
REMARK SMILES IDX 9 24 10 25 11 26 12 27 13 28 14 29 15 30 76 31 16 32 75 33
REMARK SMILES IDX 17 34 18 35 19 36 69 37 20 38 74 39 68 40 70 41 21 42 73 43
REMARK SMILES IDX 67 44 66 45 22 47 54 48 34 49 53 50 35 51 38 52 52 53 71 54
REMARK SMILES IDX 36 55 37 56 51 58 72 59 39 60 23 61 24 62 32 63 25 64 31 65
REMARK SMILES IDX 33 66 30 67 26 68 27 69 28 70 29 71 55 72 56 73 64 74 57 75
REMARK SMILES IDX 63 76 65 77 62 78 58 79 59 80 60 81 61 82 40 83 41 84 49 85
REMARK SMILES IDX 42 86 48 87 50 88 47 89 43 90 44 91 45 92 46 93
REMARK H PARENT 87 22 70 46 38 57
REMARK Flexibility Score: inf
ROOT
ATOM      1  C   UNL A   1      35.548  20.793  24.869  1.00  0.00     0.202 C 
ENDROOT
BRANCH   1   2
ATOM      2  C   UNL A   1      34.236  20.695  25.655  1.00  0.00     0.261 C 
BRANCH   2   3
ATOM      3  O   UNL A   1      33.168  20.290  24.782  1.00  0.00    -0.463 OA
BRANCH   3   4
ATOM      4  C   UNL A   1      32.066  21.084  24.778  1.00  0.00     0.313 C 
ATOM      5  O   UNL A   1      31.430  21.391  25.781  1.00  0.00    -0.252 OA
BRANCH   4   6
ATOM      6  C   UNL A   1      31.767  21.663  23.391  1.00  0.00     0.129 C 
ATOM      7  C   UNL A   1      32.234  20.811  22.207  1.00  0.00     0.025 C 
BRANCH   6   8
ATOM      8  C   UNL A   1      32.261  23.097  23.254  1.00  0.00     0.002 A 
ATOM      9  C   UNL A   1      33.625  23.422  23.207  1.00  0.00     0.008 A 
ATOM     10  C   UNL A   1      31.343  24.147  23.192  1.00  0.00     0.127 A 
ATOM     11  C   UNL A   1      34.048  24.751  23.158  1.00  0.00     0.004 A 
ATOM     12  C   UNL A   1      31.758  25.477  23.177  1.00  0.00     0.043 A 
ATOM     13  F   UNL A   1      30.029  23.884  23.194  1.00  0.00    -0.207 F 
ATOM     14  C   UNL A   1      33.122  25.794  23.216  1.00  0.00    -0.045 A 
BRANCH  14  15
ATOM     15  C   UNL A   1      33.578  27.221  23.399  1.00  0.00     0.041 C 
BRANCH  15  16
ATOM     16  C   UNL A   1      33.782  27.713  24.855  1.00  0.00     0.022 C 
ATOM     17  C   UNL A   1      33.583  26.649  25.943  1.00  0.00     0.007 C 
ATOM     18  C   UNL A   1      32.885  28.858  25.340  1.00  0.00     0.117 C 
ATOM     19  C   UNL A   1      32.191  26.876  26.542  1.00  0.00     0.003 C 
ATOM     20  C   UNL A   1      31.663  28.177  25.947  1.00  0.00     0.032 C 
BRANCH  18  21
ATOM     21  O   UNL A   1      32.577  29.790  24.324  1.00  0.00    -0.393 OA
ATOM     22  H   UNL A   1      32.385  29.317  23.499  1.00  0.00     0.210 HD
ENDBRANCH  18  21
ENDBRANCH  15  16
ENDBRANCH  14  15
ENDBRANCH   6   8
ENDBRANCH   4   6
ENDBRANCH   3   4
ENDBRANCH   2   3
ENDBRANCH   1   2
BRANCH   1  23
ATOM     23  O   UNL A   1      36.744  20.768  25.654  1.00  0.00    -0.374 OA
BRANCH  23  24
ATOM     24  C   UNL A   1      37.978  20.631  24.951  1.00  0.00     0.202 C 
BRANCH  24  25
ATOM     25  C   UNL A   1      38.895  19.472  25.349  1.00  0.00     0.261 C 
BRANCH  25  26
ATOM     26  O   UNL A   1      39.545  19.708  26.608  1.00  0.00    -0.460 OA
BRANCH  26  27
ATOM     27  C   UNL A   1      40.827  20.126  26.501  1.00  0.00     0.338 C 
ATOM     28  O   UNL A   1      41.745  19.539  25.938  1.00  0.00    -0.246 OA
BRANCH  27  29
ATOM     29  C   UNL A   1      40.953  21.510  26.990  1.00  0.00     0.060 A 
ATOM     30  C   UNL A   1      40.505  22.529  26.140  1.00  0.00     0.016 A 
ATOM     31  C   UNL A   1      41.543  21.817  28.219  1.00  0.00     0.016 A 
ATOM     32  C   UNL A   1      40.700  23.863  26.487  1.00  0.00     0.010 A 
ATOM     33  C   UNL A   1      41.746  23.159  28.562  1.00  0.00     0.010 A 
ATOM     34  C   UNL A   1      41.361  24.185  27.678  1.00  0.00    -0.014 A 
BRANCH  34  35
ATOM     35  C   UNL A   1      41.798  25.583  27.905  1.00  0.00     0.031 A 
ATOM     36  C   UNL A   1      43.147  26.008  27.391  1.00  0.00     0.074 A 
ATOM     37  C   UNL A   1      40.986  26.469  28.508  1.00  0.00     0.049 A 
ATOM     38  N   UNL A   1      43.743  27.168  27.481  1.00  0.00    -0.248 NA
ATOM     39  C   UNL A   1      43.928  24.983  26.680  1.00  0.00     0.031 C 
ATOM     40  C   UNL A   1      39.638  26.180  28.995  1.00  0.00     0.029 A 
ATOM     41  N   UNL A   1      41.177  27.793  28.810  1.00  0.00    -0.354 N 
ATOM     42  C   UNL A   1      44.970  27.014  26.845  1.00  0.00     0.074 A 
ATOM     43  C   UNL A   1      45.046  25.637  26.406  1.00  0.00     0.031 C 
ATOM     44  C   UNL A   1      39.125  27.296  29.542  1.00  0.00     0.029 A 
ATOM     45  C   UNL A   1      40.119  28.365  29.477  1.00  0.00     0.049 A 
ATOM     46  H   UNL A   1      41.994  28.287  28.572  1.00  0.00     0.167 HD
ATOM     47  C   UNL A   1      45.940  27.940  26.639  1.00  0.00     0.034 A 
ATOM     48  C   UNL A   1      39.982  29.603  29.995  1.00  0.00     0.034 A 
ATOM     49  C   UNL A   1      45.849  29.306  27.091  1.00  0.00     0.049 A 
ATOM     50  C   UNL A   1      41.114  30.590  29.831  1.00  0.00     0.074 A 
ATOM     51  C   UNL A   1      46.763  30.332  26.925  1.00  0.00     0.029 A 
ATOM     52  N   UNL A   1      44.787  29.836  27.813  1.00  0.00    -0.354 N 
ATOM     53  N   UNL A   1      42.266  30.435  29.219  1.00  0.00    -0.248 NA
ATOM     54  C   UNL A   1      40.921  31.921  30.421  1.00  0.00     0.031 C 
ATOM     55  C   UNL A   1      46.288  31.458  27.607  1.00  0.00     0.029 A 
ATOM     56  C   UNL A   1      45.039  31.161  28.131  1.00  0.00     0.049 A 
ATOM     57  H   UNL A   1      43.972  29.342  28.062  1.00  0.00     0.167 HD
ATOM     58  C   UNL A   1      42.920  31.661  29.324  1.00  0.00     0.074 A 
ATOM     59  C   UNL A   1      42.028  32.545  30.046  1.00  0.00     0.031 C 
ATOM     60  C   UNL A   1      44.142  32.026  28.861  1.00  0.00     0.034 A 
BRANCH  47  61
ATOM     61  C   UNL A   1      47.200  27.482  25.945  1.00  0.00     0.023 A 
ATOM     62  C   UNL A   1      48.309  26.994  26.660  1.00  0.00     0.031 A 
ATOM     63  C   UNL A   1      47.304  27.563  24.544  1.00  0.00     0.131 A 
ATOM     64  C   UNL A   1      49.492  26.669  25.979  1.00  0.00     0.055 A 
ATOM     65  C   UNL A   1      48.458  27.166  23.867  1.00  0.00     0.041 A 
ATOM     66  F   UNL A   1      46.289  28.044  23.811  1.00  0.00    -0.206 F 
ATOM     67  C   UNL A   1      49.566  26.728  24.585  1.00  0.00     0.022 A 
BRANCH  64  68
ATOM     68  S   UNL A   1      50.979  26.299  26.951  1.00  0.00     0.124 S 
ATOM     69  O   UNL A   1      50.720  27.043  28.181  1.00  0.00    -0.237 OA
ATOM     70  O   UNL A   1      50.931  24.846  27.060  1.00  0.00    -0.237 OA
ATOM     71  O   UNL A   1      52.066  26.828  26.128  1.00  0.00    -0.744 OA
ENDBRANCH  64  68
ENDBRANCH  47  61
BRANCH  48  72
ATOM     72  C   UNL A   1      38.753  29.976  30.753  1.00  0.00     0.023 A 
ATOM     73  C   UNL A   1      37.787  30.830  30.197  1.00  0.00     0.031 A 
ATOM     74  C   UNL A   1      38.557  29.529  32.072  1.00  0.00     0.131 A 
ATOM     75  C   UNL A   1      36.694  31.249  30.973  1.00  0.00     0.055 A 
ATOM     76  C   UNL A   1      37.440  29.905  32.821  1.00  0.00     0.041 A 
ATOM     77  F   UNL A   1      39.449  28.712  32.652  1.00  0.00    -0.206 F 
ATOM     78  C   UNL A   1      36.508  30.783  32.276  1.00  0.00     0.022 A 
BRANCH  75  79
ATOM     79  S   UNL A   1      35.564  32.490  30.284  1.00  0.00     0.124 S 
ATOM     80  O   UNL A   1      34.790  32.872  31.460  1.00  0.00    -0.237 OA
ATOM     81  O   UNL A   1      36.493  33.492  29.774  1.00  0.00    -0.237 OA
ATOM     82  O   UNL A   1      34.828  31.748  29.264  1.00  0.00    -0.744 OA
ENDBRANCH  75  79
ENDBRANCH  48  72
BRANCH  60  83
ATOM     83  C   UNL A   1      44.559  33.460  29.082  1.00  0.00     0.023 A 
ATOM     84  C   UNL A   1      44.022  34.515  28.324  1.00  0.00     0.031 A 
ATOM     85  C   UNL A   1      45.518  33.773  30.063  1.00  0.00     0.131 A 
ATOM     86  C   UNL A   1      44.486  35.824  28.520  1.00  0.00     0.055 A 
ATOM     87  C   UNL A   1      45.931  35.086  30.296  1.00  0.00     0.041 A 
ATOM     88  F   UNL A   1      46.066  32.806  30.816  1.00  0.00    -0.206 F 
ATOM     89  C   UNL A   1      45.424  36.118  29.512  1.00  0.00     0.022 A 
BRANCH  86  90
ATOM     90  S   UNL A   1      43.915  37.129  27.398  1.00  0.00     0.124 S 
ATOM     91  O   UNL A   1      43.246  38.047  28.316  1.00  0.00    -0.237 OA
ATOM     92  O   UNL A   1      45.163  37.609  26.814  1.00  0.00    -0.237 OA
ATOM     93  O   UNL A   1      43.030  36.424  26.472  1.00  0.00    -0.744 OA
ENDBRANCH  86  90
ENDBRANCH  60  83
ENDBRANCH  34  35
ENDBRANCH  27  29
ENDBRANCH  26  27
ENDBRANCH  25  26
ENDBRANCH  24  25
ENDBRANCH  23  24
ENDBRANCH   1  23
TORSDOF 21
ENDMDL
