MODEL 1
REMARK VINA RESULT:     -11.0      0.000      0.000
REMARK SMILES CC(C)C[C@H](CNC(=O)c1cc(F)ccc1F)C(=O)OCCOCCOC(=O)c1ccc(-c2c3nc(c(-c4cc(S(=O)(=O)[O-])ccc4F)c4ccc([nH]4)c(-c4cc(S(=O)(=O)[O-])ccc4F)c4nc(c(-c5cc(S(=O)(=O)[O-])ccc5F)c5ccc2[nH]5)C=C4)C=C3)cc1
REMARK SMILES IDX 23 1 22 2 21 3 20 4 18 5 19 6 5 7 4 8 2 9 1 10 3 11 6 12
REMARK SMILES IDX 7 13 8 14 9 16 10 17 11 18 16 19 12 20 15 21 17 22 13 23
REMARK SMILES IDX 14 24 24 25 25 26 26 27 27 28 28 29 29 30 30 31 91 32 31 33
REMARK SMILES IDX 90 34 32 35 33 36 34 37 84 38 35 39 89 40 83 41 85 42 36 43
REMARK SMILES IDX 88 44 82 45 81 46 37 48 69 49 49 50 68 51 50 52 53 53 67 54
REMARK SMILES IDX 86 55 51 56 52 57 66 59 87 60 54 61 38 62 39 63 47 64 40 65
REMARK SMILES IDX 46 66 48 67 45 68 41 69 42 70 43 71 44 72 70 73 71 74 79 75
REMARK SMILES IDX 72 76 78 77 80 78 77 79 73 80 74 81 75 82 76 83 55 84 56 85
REMARK SMILES IDX 64 86 57 87 63 88 65 89 62 90 58 91 59 92 60 93 61 94
REMARK H PARENT 7 15 85 47 53 58
REMARK Flexibility Score: inf
ROOT
ATOM      1  O   UNL A   1      35.529  21.660  26.040  1.00  0.00    -0.374 OA
ENDROOT
BRANCH   1   2
ATOM      2  C   UNL A   1      34.351  21.566  26.842  1.00  0.00     0.202 C 
BRANCH   2   3
ATOM      3  C   UNL A   1      33.023  21.795  26.117  1.00  0.00     0.261 C 
BRANCH   3   4
ATOM      4  O   UNL A   1      33.090  22.910  25.206  1.00  0.00    -0.463 OA
BRANCH   4   5
ATOM      5  C   UNL A   1      32.783  22.638  23.910  1.00  0.00     0.310 C 
ATOM      6  O   UNL A   1      32.973  21.566  23.348  1.00  0.00    -0.252 OA
BRANCH   5   7
ATOM      7  C   UNL A   1      32.195  23.827  23.184  1.00  0.00     0.118 C 
BRANCH   7   8
ATOM      8  C   UNL A   1      33.063  25.092  23.252  1.00  0.00     0.020 C 
BRANCH   8   9
ATOM      9  C   UNL A   1      33.305  25.887  21.952  1.00  0.00    -0.017 C 
ATOM     10  C   UNL A   1      32.087  25.881  21.018  1.00  0.00     0.007 C 
ATOM     11  C   UNL A   1      33.621  27.343  22.320  1.00  0.00     0.007 C 
ENDBRANCH   8   9
ENDBRANCH   7   8
BRANCH   7  12
ATOM     12  C   UNL A   1      30.696  24.075  23.402  1.00  0.00     0.131 C 
BRANCH  12  13
ATOM     13  N   UNL A   1      30.269  24.278  24.771  1.00  0.00    -0.351 N 
ATOM     14  C   UNL A   1      30.000  25.441  25.448  1.00  0.00     0.254 C 
ATOM     15  H   UNL A   1      30.155  23.454  25.298  1.00  0.00     0.163 HD
ATOM     16  O   UNL A   1      29.570  25.407  26.594  1.00  0.00    -0.269 OA
BRANCH  14  17
ATOM     17  C   UNL A   1      30.213  26.745  24.801  1.00  0.00     0.078 A 
ATOM     18  C   UNL A   1      29.385  27.182  23.762  1.00  0.00     0.056 A 
ATOM     19  C   UNL A   1      31.229  27.575  25.278  1.00  0.00     0.136 A 
ATOM     20  C   UNL A   1      29.627  28.424  23.184  1.00  0.00     0.124 A 
ATOM     21  C   UNL A   1      31.451  28.825  24.703  1.00  0.00     0.043 A 
ATOM     22  F   UNL A   1      32.034  27.178  26.272  1.00  0.00    -0.206 F 
ATOM     23  F   UNL A   1      28.867  28.832  22.159  1.00  0.00    -0.207 F 
ATOM     24  C   UNL A   1      30.650  29.250  23.643  1.00  0.00     0.042 A 
ENDBRANCH  14  17
ENDBRANCH  12  13
ENDBRANCH   7  12
ENDBRANCH   5   7
ENDBRANCH   4   5
ENDBRANCH   3   4
ENDBRANCH   2   3
ENDBRANCH   1   2
BRANCH   1  25
ATOM     25  C   UNL A   1      35.812  20.577  25.159  1.00  0.00     0.202 C 
BRANCH  25  26
ATOM     26  C   UNL A   1      37.287  20.207  24.959  1.00  0.00     0.261 C 
BRANCH  26  27
ATOM     27  O   UNL A   1      38.168  21.333  25.116  1.00  0.00    -0.460 OA
BRANCH  27  28
ATOM     28  C   UNL A   1      39.200  21.108  25.966  1.00  0.00     0.338 C 
ATOM     29  O   UNL A   1      39.800  20.047  26.115  1.00  0.00    -0.246 OA
BRANCH  28  30
ATOM     30  C   UNL A   1      39.663  22.357  26.598  1.00  0.00     0.060 A 
ATOM     31  C   UNL A   1      39.082  23.548  26.143  1.00  0.00     0.016 A 
ATOM     32  C   UNL A   1      40.706  22.390  27.527  1.00  0.00     0.016 A 
ATOM     33  C   UNL A   1      39.597  24.776  26.544  1.00  0.00     0.010 A 
ATOM     34  C   UNL A   1      41.227  23.629  27.927  1.00  0.00     0.010 A 
ATOM     35  C   UNL A   1      40.710  24.825  27.395  1.00  0.00    -0.014 A 
BRANCH  35  36
ATOM     36  C   UNL A   1      41.427  26.116  27.547  1.00  0.00     0.031 A 
ATOM     37  C   UNL A   1      40.779  27.214  28.351  1.00  0.00     0.074 A 
ATOM     38  C   UNL A   1      42.670  26.279  27.061  1.00  0.00     0.049 A 
ATOM     39  N   UNL A   1      41.244  28.391  28.682  1.00  0.00    -0.248 NA
ATOM     40  C   UNL A   1      39.424  26.941  28.854  1.00  0.00     0.031 C 
ATOM     41  C   UNL A   1      43.419  25.273  26.308  1.00  0.00     0.029 A 
ATOM     42  N   UNL A   1      43.529  27.346  27.142  1.00  0.00    -0.354 N 
ATOM     43  C   UNL A   1      40.241  29.000  29.430  1.00  0.00     0.074 A 
ATOM     44  C   UNL A   1      39.128  28.076  29.467  1.00  0.00     0.031 C 
ATOM     45  C   UNL A   1      44.630  25.770  26.003  1.00  0.00     0.029 A 
ATOM     46  C   UNL A   1      44.733  27.135  26.513  1.00  0.00     0.049 A 
ATOM     47  H   UNL A   1      43.304  28.184  27.607  1.00  0.00     0.167 HD
ATOM     48  C   UNL A   1      40.250  30.212  30.041  1.00  0.00     0.034 A 
ATOM     49  C   UNL A   1      45.793  27.956  26.360  1.00  0.00     0.034 A 
ATOM     50  C   UNL A   1      41.363  31.129  29.985  1.00  0.00     0.049 A 
ATOM     51  C   UNL A   1      45.747  29.334  26.976  1.00  0.00     0.074 A 
ATOM     52  C   UNL A   1      41.488  32.373  30.579  1.00  0.00     0.029 A 
ATOM     53  N   UNL A   1      42.540  30.910  29.279  1.00  0.00    -0.354 N 
ATOM     54  N   UNL A   1      44.801  29.889  27.699  1.00  0.00    -0.248 NA
ATOM     55  C   UNL A   1      46.921  30.190  26.763  1.00  0.00     0.031 C 
ATOM     56  C   UNL A   1      42.705  32.934  30.175  1.00  0.00     0.029 A 
ATOM     57  C   UNL A   1      43.378  32.010  29.392  1.00  0.00     0.049 A 
ATOM     58  H   UNL A   1      42.749  30.092  28.772  1.00  0.00     0.167 HD
ATOM     59  C   UNL A   1      45.283  31.147  28.054  1.00  0.00     0.074 A 
ATOM     60  C   UNL A   1      46.607  31.261  27.477  1.00  0.00     0.031 C 
ATOM     61  C   UNL A   1      44.691  32.117  28.798  1.00  0.00     0.034 A 
BRANCH  48  62
ATOM     62  C   UNL A   1      38.993  30.629  30.766  1.00  0.00     0.023 A 
ATOM     63  C   UNL A   1      37.993  31.398  30.141  1.00  0.00     0.031 A 
ATOM     64  C   UNL A   1      38.813  30.293  32.120  1.00  0.00     0.131 A 
ATOM     65  C   UNL A   1      36.902  31.868  30.888  1.00  0.00     0.055 A 
ATOM     66  C   UNL A   1      37.684  30.697  32.837  1.00  0.00     0.041 A 
ATOM     67  F   UNL A   1      39.742  29.582  32.777  1.00  0.00    -0.206 F 
ATOM     68  C   UNL A   1      36.728  31.504  32.225  1.00  0.00     0.022 A 
BRANCH  65  69
ATOM     69  S   UNL A   1      35.792  33.089  30.132  1.00  0.00     0.124 S 
ATOM     70  O   UNL A   1      36.545  33.474  28.940  1.00  0.00    -0.237 OA
ATOM     71  O   UNL A   1      34.580  32.313  29.900  1.00  0.00    -0.237 OA
ATOM     72  O   UNL A   1      35.681  34.130  31.152  1.00  0.00    -0.744 OA
ENDBRANCH  65  69
ENDBRANCH  48  62
BRANCH  49  73
ATOM     73  C   UNL A   1      46.980  27.518  25.574  1.00  0.00     0.023 A 
ATOM     74  C   UNL A   1      47.134  27.880  24.226  1.00  0.00     0.031 A 
ATOM     75  C   UNL A   1      47.954  26.681  26.148  1.00  0.00     0.131 A 
ATOM     76  C   UNL A   1      48.212  27.371  23.484  1.00  0.00     0.055 A 
ATOM     77  C   UNL A   1      49.051  26.218  25.419  1.00  0.00     0.041 A 
ATOM     78  F   UNL A   1      47.854  26.304  27.431  1.00  0.00    -0.206 F 
ATOM     79  C   UNL A   1      49.177  26.553  24.075  1.00  0.00     0.022 A 
BRANCH  76  80
ATOM     80  S   UNL A   1      48.294  27.732  21.708  1.00  0.00     0.124 S 
ATOM     81  O   UNL A   1      49.431  28.644  21.641  1.00  0.00    -0.237 OA
ATOM     82  O   UNL A   1      48.501  26.405  21.139  1.00  0.00    -0.237 OA
ATOM     83  O   UNL A   1      46.993  28.334  21.423  1.00  0.00    -0.744 OA
ENDBRANCH  76  80
ENDBRANCH  49  73
BRANCH  61  84
ATOM     84  C   UNL A   1      45.499  33.365  29.066  1.00  0.00     0.023 A 
ATOM     85  C   UNL A   1      45.425  34.491  28.228  1.00  0.00     0.031 A 
ATOM     86  C   UNL A   1      46.376  33.415  30.164  1.00  0.00     0.131 A 
ATOM     87  C   UNL A   1      46.260  35.595  28.464  1.00  0.00     0.055 A 
ATOM     88  C   UNL A   1      47.158  34.540  30.431  1.00  0.00     0.041 A 
ATOM     89  F   UNL A   1      46.489  32.368  30.998  1.00  0.00    -0.206 F 
ATOM     90  C   UNL A   1      47.114  35.632  29.569  1.00  0.00     0.022 A 
BRANCH  87  91
ATOM     91  S   UNL A   1      46.291  36.942  27.250  1.00  0.00     0.124 S 
ATOM     92  O   UNL A   1      47.302  37.834  27.810  1.00  0.00    -0.237 OA
ATOM     93  O   UNL A   1      46.663  36.248  26.022  1.00  0.00    -0.237 OA
ATOM     94  O   UNL A   1      44.925  37.462  27.278  1.00  0.00    -0.744 OA
ENDBRANCH  87  91
ENDBRANCH  61  84
ENDBRANCH  35  36
ENDBRANCH  28  30
ENDBRANCH  27  28
ENDBRANCH  26  27
ENDBRANCH  25  26
ENDBRANCH   1  25
TORSDOF 22
ENDMDL
MODEL 2
REMARK VINA RESULT:     -10.7      5.168      8.208
REMARK SMILES CC(C)C[C@H](CNC(=O)c1cc(F)ccc1F)C(=O)OCCOCCOC(=O)c1ccc(-c2c3nc(c(-c4cc(S(=O)(=O)[O-])ccc4F)c4ccc([nH]4)c(-c4cc(S(=O)(=O)[O-])ccc4F)c4nc(c(-c5cc(S(=O)(=O)[O-])ccc5F)c5ccc2[nH]5)C=C4)C=C3)cc1
REMARK SMILES IDX 23 1 22 2 21 3 20 4 18 5 19 6 5 7 4 8 2 9 1 10 3 11 6 12
REMARK SMILES IDX 7 13 8 14 9 16 10 17 11 18 16 19 12 20 15 21 17 22 13 23
REMARK SMILES IDX 14 24 24 25 25 26 26 27 27 28 28 29 29 30 30 31 91 32 31 33
REMARK SMILES IDX 90 34 32 35 33 36 34 37 84 38 35 39 89 40 83 41 85 42 36 43
REMARK SMILES IDX 88 44 82 45 81 46 37 48 69 49 49 50 68 51 50 52 53 53 67 54
REMARK SMILES IDX 86 55 51 56 52 57 66 59 87 60 54 61 38 62 39 63 47 64 40 65
REMARK SMILES IDX 46 66 48 67 45 68 41 69 42 70 43 71 44 72 70 73 71 74 79 75
REMARK SMILES IDX 72 76 78 77 80 78 77 79 73 80 74 81 75 82 76 83 55 84 56 85
REMARK SMILES IDX 64 86 57 87 63 88 65 89 62 90 58 91 59 92 60 93 61 94
REMARK H PARENT 7 15 85 47 53 58
REMARK Flexibility Score: inf
ROOT
ATOM      1  O   UNL A   1      32.413  31.008  26.753  1.00  0.00    -0.374 OA
ENDROOT
BRANCH   1   2
ATOM      2  C   UNL A   1      31.924  29.688  26.510  1.00  0.00     0.202 C 
BRANCH   2   3
ATOM      3  C   UNL A   1      31.497  29.382  25.073  1.00  0.00     0.261 C 
BRANCH   3   4
ATOM      4  O   UNL A   1      31.550  27.971  24.783  1.00  0.00    -0.463 OA
BRANCH   4   5
ATOM      5  C   UNL A   1      32.782  27.466  24.511  1.00  0.00     0.310 C 
ATOM      6  O   UNL A   1      33.650  28.033  23.857  1.00  0.00    -0.252 OA
BRANCH   5   7
ATOM      7  C   UNL A   1      32.985  26.078  25.074  1.00  0.00     0.118 C 
BRANCH   7   8
ATOM      8  C   UNL A   1      34.434  25.574  24.988  1.00  0.00     0.020 C 
BRANCH   8   9
ATOM      9  C   UNL A   1      34.675  24.063  24.791  1.00  0.00    -0.017 C 
ATOM     10  C   UNL A   1      34.686  23.652  23.313  1.00  0.00     0.007 C 
ATOM     11  C   UNL A   1      36.036  23.701  25.400  1.00  0.00     0.007 C 
ENDBRANCH   8   9
ENDBRANCH   7   8
BRANCH   7  12
ATOM     12  C   UNL A   1      31.929  25.034  24.690  1.00  0.00     0.131 C 
BRANCH  12  13
ATOM     13  N   UNL A   1      30.979  24.668  25.721  1.00  0.00    -0.351 N 
ATOM     14  C   UNL A   1      30.880  23.516  26.460  1.00  0.00     0.254 C 
ATOM     15  H   UNL A   1      30.299  25.351  25.921  1.00  0.00     0.163 HD
ATOM     16  O   UNL A   1      30.046  23.421  27.352  1.00  0.00    -0.269 OA
BRANCH  14  17
ATOM     17  C   UNL A   1      31.783  22.385  26.200  1.00  0.00     0.078 A 
ATOM     18  C   UNL A   1      31.609  21.561  25.083  1.00  0.00     0.056 A 
ATOM     19  C   UNL A   1      32.861  22.173  27.061  1.00  0.00     0.136 A 
ATOM     20  C   UNL A   1      32.491  20.505  24.880  1.00  0.00     0.124 A 
ATOM     21  C   UNL A   1      33.749  21.122  26.838  1.00  0.00     0.043 A 
ATOM     22  F   UNL A   1      33.048  22.949  28.136  1.00  0.00    -0.206 F 
ATOM     23  F   UNL A   1      32.306  19.684  23.838  1.00  0.00    -0.207 F 
ATOM     24  C   UNL A   1      33.559  20.276  25.746  1.00  0.00     0.042 A 
ENDBRANCH  14  17
ENDBRANCH  12  13
ENDBRANCH   7  12
ENDBRANCH   5   7
ENDBRANCH   4   5
ENDBRANCH   3   4
ENDBRANCH   2   3
ENDBRANCH   1   2
BRANCH   1  25
ATOM     25  C   UNL A   1      31.456  32.060  26.834  1.00  0.00     0.202 C 
BRANCH  25  26
ATOM     26  C   UNL A   1      31.944  33.407  27.381  1.00  0.00     0.261 C 
BRANCH  26  27
ATOM     27  O   UNL A   1      33.376  33.532  27.355  1.00  0.00    -0.460 OA
BRANCH  27  28
ATOM     28  C   UNL A   1      33.939  33.658  28.581  1.00  0.00     0.338 C 
ATOM     29  O   UNL A   1      33.429  34.194  29.562  1.00  0.00    -0.246 OA
BRANCH  28  30
ATOM     30  C   UNL A   1      35.205  32.909  28.676  1.00  0.00     0.060 A 
ATOM     31  C   UNL A   1      35.118  31.570  29.079  1.00  0.00     0.016 A 
ATOM     32  C   UNL A   1      36.453  33.510  28.488  1.00  0.00     0.016 A 
ATOM     33  C   UNL A   1      36.272  30.853  29.380  1.00  0.00     0.010 A 
ATOM     34  C   UNL A   1      37.614  32.787  28.796  1.00  0.00     0.010 A 
ATOM     35  C   UNL A   1      37.525  31.474  29.295  1.00  0.00    -0.014 A 
BRANCH  35  36
ATOM     36  C   UNL A   1      38.691  30.800  29.920  1.00  0.00     0.031 A 
ATOM     37  C   UNL A   1      39.034  31.125  31.352  1.00  0.00     0.074 A 
ATOM     38  C   UNL A   1      39.375  29.848  29.262  1.00  0.00     0.049 A 
ATOM     39  N   UNL A   1      39.954  30.611  32.126  1.00  0.00    -0.248 NA
ATOM     40  C   UNL A   1      38.224  32.170  31.994  1.00  0.00     0.031 C 
ATOM     41  C   UNL A   1      39.106  29.413  27.891  1.00  0.00     0.029 A 
ATOM     42  N   UNL A   1      40.426  29.063  29.663  1.00  0.00    -0.354 N 
ATOM     43  C   UNL A   1      39.835  31.268  33.347  1.00  0.00     0.074 A 
ATOM     44  C   UNL A   1      38.780  32.247  33.193  1.00  0.00     0.031 C 
ATOM     45  C   UNL A   1      39.967  28.433  27.569  1.00  0.00     0.029 A 
ATOM     46  C   UNL A   1      40.864  28.189  28.697  1.00  0.00     0.049 A 
ATOM     47  H   UNL A   1      40.830  29.121  30.560  1.00  0.00     0.167 HD
ATOM     48  C   UNL A   1      40.530  31.067  34.495  1.00  0.00     0.034 A 
ATOM     49  C   UNL A   1      41.879  27.300  28.720  1.00  0.00     0.034 A 
ATOM     50  C   UNL A   1      41.589  30.095  34.630  1.00  0.00     0.049 A 
ATOM     51  C   UNL A   1      42.697  27.153  29.981  1.00  0.00     0.074 A 
ATOM     52  C   UNL A   1      42.348  29.795  35.748  1.00  0.00     0.029 A 
ATOM     53  N   UNL A   1      42.052  29.275  33.607  1.00  0.00    -0.354 N 
ATOM     54  N   UNL A   1      42.559  27.766  31.135  1.00  0.00    -0.248 NA
ATOM     55  C   UNL A   1      43.798  26.184  29.942  1.00  0.00     0.031 C 
ATOM     56  C   UNL A   1      43.314  28.849  35.384  1.00  0.00     0.029 A 
ATOM     57  C   UNL A   1      43.109  28.498  34.059  1.00  0.00     0.049 A 
ATOM     58  H   UNL A   1      41.683  29.250  32.696  1.00  0.00     0.167 HD
ATOM     59  C   UNL A   1      43.537  27.229  31.968  1.00  0.00     0.074 A 
ATOM     60  C   UNL A   1      44.247  26.236  31.188  1.00  0.00     0.031 C 
ATOM     61  C   UNL A   1      43.819  27.521  33.265  1.00  0.00     0.034 A 
BRANCH  48  62
ATOM     62  C   UNL A   1      40.201  31.960  35.667  1.00  0.00     0.023 A 
ATOM     63  C   UNL A   1      39.182  31.640  36.584  1.00  0.00     0.031 A 
ATOM     64  C   UNL A   1      40.885  33.176  35.844  1.00  0.00     0.131 A 
ATOM     65  C   UNL A   1      38.826  32.558  37.584  1.00  0.00     0.055 A 
ATOM     66  C   UNL A   1      40.579  34.049  36.890  1.00  0.00     0.041 A 
ATOM     67  F   UNL A   1      41.851  33.548  34.989  1.00  0.00    -0.206 F 
ATOM     68  C   UNL A   1      39.534  33.750  37.758  1.00  0.00     0.022 A 
BRANCH  65  69
ATOM     69  S   UNL A   1      37.328  32.245  38.559  1.00  0.00     0.124 S 
ATOM     70  O   UNL A   1      36.345  33.073  37.864  1.00  0.00    -0.237 OA
ATOM     71  O   UNL A   1      37.160  30.803  38.425  1.00  0.00    -0.237 OA
ATOM     72  O   UNL A   1      37.686  32.711  39.898  1.00  0.00    -0.744 OA
ENDBRANCH  65  69
ENDBRANCH  48  62
BRANCH  49  73
ATOM     73  C   UNL A   1      42.204  26.494  27.509  1.00  0.00     0.023 A 
ATOM     74  C   UNL A   1      41.846  25.139  27.419  1.00  0.00     0.031 A 
ATOM     75  C   UNL A   1      42.932  27.056  26.445  1.00  0.00     0.131 A 
ATOM     76  C   UNL A   1      42.252  24.381  26.310  1.00  0.00     0.055 A 
ATOM     77  C   UNL A   1      43.292  26.310  25.322  1.00  0.00     0.041 A 
ATOM     78  F   UNL A   1      43.302  28.346  26.482  1.00  0.00    -0.206 F 
ATOM     79  C   UNL A   1      42.962  24.960  25.256  1.00  0.00     0.022 A 
BRANCH  76  80
ATOM     80  S   UNL A   1      41.906  22.600  26.299  1.00  0.00     0.124 S 
ATOM     81  O   UNL A   1      42.545  22.180  25.057  1.00  0.00    -0.237 OA
ATOM     82  O   UNL A   1      42.550  22.159  27.532  1.00  0.00    -0.237 OA
ATOM     83  O   UNL A   1      40.447  22.537  26.304  1.00  0.00    -0.744 OA
ENDBRANCH  76  80
ENDBRANCH  49  73
BRANCH  61  84
ATOM     84  C   UNL A   1      44.913  26.718  33.927  1.00  0.00     0.023 A 
ATOM     85  C   UNL A   1      44.662  25.463  34.512  1.00  0.00     0.031 A 
ATOM     86  C   UNL A   1      46.221  27.229  33.997  1.00  0.00     0.131 A 
ATOM     87  C   UNL A   1      45.689  24.792  35.194  1.00  0.00     0.055 A 
ATOM     88  C   UNL A   1      47.253  26.528  34.622  1.00  0.00     0.041 A 
ATOM     89  F   UNL A   1      46.518  28.422  33.456  1.00  0.00    -0.206 F 
ATOM     90  C   UNL A   1      46.986  25.310  35.240  1.00  0.00     0.022 A 
BRANCH  87  91
ATOM     91  S   UNL A   1      45.285  23.280  36.112  1.00  0.00     0.124 S 
ATOM     92  O   UNL A   1      45.218  23.768  37.487  1.00  0.00    -0.237 OA
ATOM     93  O   UNL A   1      44.015  22.882  35.514  1.00  0.00    -0.237 OA
ATOM     94  O   UNL A   1      46.409  22.392  35.825  1.00  0.00    -0.744 OA
ENDBRANCH  87  91
ENDBRANCH  61  84
ENDBRANCH  35  36
ENDBRANCH  28  30
ENDBRANCH  27  28
ENDBRANCH  26  27
ENDBRANCH  25  26
ENDBRANCH   1  25
TORSDOF 22
ENDMDL
MODEL 3
REMARK VINA RESULT:     -10.6      1.851      2.538
REMARK SMILES CC(C)C[C@H](CNC(=O)c1cc(F)ccc1F)C(=O)OCCOCCOC(=O)c1ccc(-c2c3nc(c(-c4cc(S(=O)(=O)[O-])ccc4F)c4ccc([nH]4)c(-c4cc(S(=O)(=O)[O-])ccc4F)c4nc(c(-c5cc(S(=O)(=O)[O-])ccc5F)c5ccc2[nH]5)C=C4)C=C3)cc1
REMARK SMILES IDX 23 1 22 2 21 3 20 4 18 5 19 6 5 7 4 8 2 9 1 10 3 11 6 12
REMARK SMILES IDX 7 13 8 14 9 16 10 17 11 18 16 19 12 20 15 21 17 22 13 23
REMARK SMILES IDX 14 24 24 25 25 26 26 27 27 28 28 29 29 30 30 31 91 32 31 33
REMARK SMILES IDX 90 34 32 35 33 36 34 37 84 38 35 39 89 40 83 41 85 42 36 43
REMARK SMILES IDX 88 44 82 45 81 46 37 48 69 49 49 50 68 51 50 52 53 53 67 54
REMARK SMILES IDX 86 55 51 56 52 57 66 59 87 60 54 61 38 62 39 63 47 64 40 65
REMARK SMILES IDX 46 66 48 67 45 68 41 69 42 70 43 71 44 72 70 73 71 74 79 75
REMARK SMILES IDX 72 76 78 77 80 78 77 79 73 80 74 81 75 82 76 83 55 84 56 85
REMARK SMILES IDX 64 86 57 87 63 88 65 89 62 90 58 91 59 92 60 93 61 94
REMARK H PARENT 7 15 85 47 53 58
REMARK Flexibility Score: inf
ROOT
ATOM      1  O   UNL A   1      35.680  21.595  26.032  1.00  0.00    -0.374 OA
ENDROOT
BRANCH   1   2
ATOM      2  C   UNL A   1      34.484  21.592  26.812  1.00  0.00     0.202 C 
BRANCH   2   3
ATOM      3  C   UNL A   1      34.071  22.936  27.416  1.00  0.00     0.261 C 
BRANCH   3   4
ATOM      4  O   UNL A   1      33.626  23.867  26.410  1.00  0.00    -0.463 OA
BRANCH   4   5
ATOM      5  C   UNL A   1      32.281  24.033  26.307  1.00  0.00     0.310 C 
ATOM      6  O   UNL A   1      31.501  24.087  27.250  1.00  0.00    -0.252 OA
BRANCH   5   7
ATOM      7  C   UNL A   1      31.807  24.112  24.873  1.00  0.00     0.118 C 
BRANCH   7   8
ATOM      8  C   UNL A   1      31.289  22.780  24.311  1.00  0.00     0.020 C 
BRANCH   8   9
ATOM      9  C   UNL A   1      32.319  21.719  23.869  1.00  0.00    -0.017 C 
ATOM     10  C   UNL A   1      32.152  20.386  24.611  1.00  0.00     0.007 C 
ATOM     11  C   UNL A   1      32.139  21.458  22.368  1.00  0.00     0.007 C 
ENDBRANCH   8   9
ENDBRANCH   7   8
BRANCH   7  12
ATOM     12  C   UNL A   1      32.706  24.898  23.909  1.00  0.00     0.131 C 
BRANCH  12  13
ATOM     13  N   UNL A   1      32.068  25.951  23.146  1.00  0.00    -0.351 N 
ATOM     14  C   UNL A   1      31.876  27.273  23.458  1.00  0.00     0.254 C 
ATOM     15  H   UNL A   1      31.716  25.674  22.270  1.00  0.00     0.163 HD
ATOM     16  O   UNL A   1      31.377  28.038  22.641  1.00  0.00    -0.269 OA
BRANCH  14  17
ATOM     17  C   UNL A   1      32.280  27.794  24.773  1.00  0.00     0.078 A 
ATOM     18  C   UNL A   1      31.420  27.726  25.875  1.00  0.00     0.056 A 
ATOM     19  C   UNL A   1      33.566  28.314  24.925  1.00  0.00     0.136 A 
ATOM     20  C   UNL A   1      31.849  28.232  27.097  1.00  0.00     0.124 A 
ATOM     21  C   UNL A   1      33.993  28.801  26.159  1.00  0.00     0.043 A 
ATOM     22  F   UNL A   1      34.407  28.388  23.885  1.00  0.00    -0.206 F 
ATOM     23  F   UNL A   1      31.016  28.212  28.146  1.00  0.00    -0.207 F 
ATOM     24  C   UNL A   1      33.125  28.768  27.251  1.00  0.00     0.042 A 
ENDBRANCH  14  17
ENDBRANCH  12  13
ENDBRANCH   7  12
ENDBRANCH   5   7
ENDBRANCH   4   5
ENDBRANCH   3   4
ENDBRANCH   2   3
ENDBRANCH   1   2
BRANCH   1  25
ATOM     25  C   UNL A   1      35.871  20.520  25.117  1.00  0.00     0.202 C 
BRANCH  25  26
ATOM     26  C   UNL A   1      37.287  19.943  25.003  1.00  0.00     0.261 C 
BRANCH  26  27
ATOM     27  O   UNL A   1      38.304  20.959  25.013  1.00  0.00    -0.460 OA
BRANCH  27  28
ATOM     28  C   UNL A   1      39.283  20.748  25.926  1.00  0.00     0.338 C 
ATOM     29  O   UNL A   1      39.876  19.690  26.123  1.00  0.00    -0.246 OA
BRANCH  28  30
ATOM     30  C   UNL A   1      39.704  22.005  26.570  1.00  0.00     0.060 A 
ATOM     31  C   UNL A   1      39.100  23.183  26.111  1.00  0.00     0.016 A 
ATOM     32  C   UNL A   1      40.732  22.060  27.516  1.00  0.00     0.016 A 
ATOM     33  C   UNL A   1      39.578  24.422  26.525  1.00  0.00     0.010 A 
ATOM     34  C   UNL A   1      41.215  23.311  27.929  1.00  0.00     0.010 A 
ATOM     35  C   UNL A   1      40.676  24.495  27.393  1.00  0.00    -0.014 A 
BRANCH  35  36
ATOM     36  C   UNL A   1      41.357  25.804  27.561  1.00  0.00     0.031 A 
ATOM     37  C   UNL A   1      40.640  26.904  28.300  1.00  0.00     0.074 A 
ATOM     38  C   UNL A   1      42.625  25.982  27.150  1.00  0.00     0.049 A 
ATOM     39  N   UNL A   1      41.061  28.097  28.634  1.00  0.00    -0.248 NA
ATOM     40  C   UNL A   1      39.262  26.614  28.723  1.00  0.00     0.031 C 
ATOM     41  C   UNL A   1      43.438  24.976  26.467  1.00  0.00     0.029 A 
ATOM     42  N   UNL A   1      43.457  27.068  27.261  1.00  0.00    -0.354 N 
ATOM     43  C   UNL A   1      40.002  28.701  29.305  1.00  0.00     0.074 A 
ATOM     44  C   UNL A   1      38.906  27.755  29.292  1.00  0.00     0.031 C 
ATOM     45  C   UNL A   1      44.656  25.491  26.227  1.00  0.00     0.029 A 
ATOM     46  C   UNL A   1      44.702  26.869  26.713  1.00  0.00     0.049 A 
ATOM     47  H   UNL A   1      43.187  27.910  27.693  1.00  0.00     0.167 HD
ATOM     48  C   UNL A   1      39.950  29.925  29.889  1.00  0.00     0.034 A 
ATOM     49  C   UNL A   1      45.753  27.707  26.609  1.00  0.00     0.034 A 
ATOM     50  C   UNL A   1      41.046  30.863  29.883  1.00  0.00     0.049 A 
ATOM     51  C   UNL A   1      45.643  29.097  27.190  1.00  0.00     0.074 A 
ATOM     52  C   UNL A   1      41.110  32.121  30.455  1.00  0.00     0.029 A 
ATOM     53  N   UNL A   1      42.269  30.653  29.255  1.00  0.00    -0.354 N 
ATOM     54  N   UNL A   1      44.643  29.647  27.841  1.00  0.00    -0.248 NA
ATOM     55  C   UNL A   1      46.811  29.971  27.032  1.00  0.00     0.031 C 
ATOM     56  C   UNL A   1      42.339  32.698  30.116  1.00  0.00     0.029 A 
ATOM     57  C   UNL A   1      43.078  31.772  29.397  1.00  0.00     0.049 A 
ATOM     58  H   UNL A   1      42.524  29.830  28.781  1.00  0.00     0.167 HD
ATOM     59  C   UNL A   1      45.078  30.921  28.198  1.00  0.00     0.074 A 
ATOM     60  C   UNL A   1      46.433  31.050  27.702  1.00  0.00     0.031 C 
ATOM     61  C   UNL A   1      44.423  31.894  28.883  1.00  0.00     0.034 A 
BRANCH  48  62
ATOM     62  C   UNL A   1      38.642  30.331  30.525  1.00  0.00     0.023 A 
ATOM     63  C   UNL A   1      37.716  31.157  29.862  1.00  0.00     0.031 A 
ATOM     64  C   UNL A   1      38.337  29.924  31.837  1.00  0.00     0.131 A 
ATOM     65  C   UNL A   1      36.572  31.612  30.537  1.00  0.00     0.055 A 
ATOM     66  C   UNL A   1      37.158  30.316  32.475  1.00  0.00     0.041 A 
ATOM     67  F   UNL A   1      39.191  29.156  32.530  1.00  0.00    -0.206 F 
ATOM     68  C   UNL A   1      36.275  31.177  31.831  1.00  0.00     0.022 A 
BRANCH  65  69
ATOM     69  S   UNL A   1      35.557  32.898  29.759  1.00  0.00     0.124 S 
ATOM     70  O   UNL A   1      36.193  34.117  30.256  1.00  0.00    -0.237 OA
ATOM     71  O   UNL A   1      35.727  32.620  28.338  1.00  0.00    -0.237 OA
ATOM     72  O   UNL A   1      34.218  32.646  30.289  1.00  0.00    -0.744 OA
ENDBRANCH  65  69
ENDBRANCH  48  62
BRANCH  49  73
ATOM     73  C   UNL A   1      46.996  27.278  25.907  1.00  0.00     0.023 A 
ATOM     74  C   UNL A   1      48.057  26.679  26.606  1.00  0.00     0.031 A 
ATOM     75  C   UNL A   1      47.162  27.512  24.531  1.00  0.00     0.131 A 
ATOM     76  C   UNL A   1      49.253  26.375  25.936  1.00  0.00     0.055 A 
ATOM     77  C   UNL A   1      48.335  27.164  23.859  1.00  0.00     0.041 A 
ATOM     78  F   UNL A   1      46.180  28.084  23.816  1.00  0.00    -0.206 F 
ATOM     79  C   UNL A   1      49.394  26.603  24.566  1.00  0.00     0.022 A 
BRANCH  76  80
ATOM     80  S   UNL A   1      50.655  25.748  26.900  1.00  0.00     0.124 S 
ATOM     81  O   UNL A   1      50.168  24.439  27.319  1.00  0.00    -0.237 OA
ATOM     82  O   UNL A   1      51.727  25.747  25.910  1.00  0.00    -0.237 OA
ATOM     83  O   UNL A   1      50.800  26.733  27.971  1.00  0.00    -0.744 OA
ENDBRANCH  76  80
ENDBRANCH  49  73
BRANCH  61  84
ATOM     84  C   UNL A   1      45.189  33.163  29.174  1.00  0.00     0.023 A 
ATOM     85  C   UNL A   1      45.171  34.259  28.293  1.00  0.00     0.031 A 
ATOM     86  C   UNL A   1      45.969  33.265  30.339  1.00  0.00     0.131 A 
ATOM     87  C   UNL A   1      45.968  35.384  28.559  1.00  0.00     0.055 A 
ATOM     88  C   UNL A   1      46.710  34.411  30.630  1.00  0.00     0.041 A 
ATOM     89  F   UNL A   1      46.024  32.249  31.216  1.00  0.00    -0.206 F 
ATOM     90  C   UNL A   1      46.725  35.472  29.730  1.00  0.00     0.022 A 
BRANCH  87  91
ATOM     91  S   UNL A   1      46.083  36.689  27.305  1.00  0.00     0.124 S 
ATOM     92  O   UNL A   1      44.815  37.391  27.478  1.00  0.00    -0.237 OA
ATOM     93  O   UNL A   1      47.277  37.417  27.721  1.00  0.00    -0.237 OA
ATOM     94  O   UNL A   1      46.214  35.950  26.051  1.00  0.00    -0.744 OA
ENDBRANCH  87  91
ENDBRANCH  61  84
ENDBRANCH  35  36
ENDBRANCH  28  30
ENDBRANCH  27  28
ENDBRANCH  26  27
ENDBRANCH  25  26
ENDBRANCH   1  25
TORSDOF 22
ENDMDL
