MODEL 1
REMARK VINA RESULT:     -10.1      0.000      0.000
REMARK SMILES O=C(CCN/C(=[NH+]\S(=O)(=O)c1ccccc1)c1ccccc1)OCCOCCOC(=O)c1ccc(-c2c3nc(c(-c4cc(S(=O)(=O)[O-])ccc4F)c4ccc([nH]4)c(-c4cc(S(=O)(=O)[O-])ccc4F)c4nc(c(-c5cc(S(=O)(=O)[O-])ccc5F)c5ccc2[nH]5)C=C4)C=C3)cc1
REMARK SMILES IDX 25 1 24 2 23 3 2 4 1 5 3 6 4 7 5 8 6 9 7 11 17 13 18 14
REMARK SMILES IDX 22 15 19 16 21 17 20 18 8 19 9 20 10 21 11 22 12 23 16 24
REMARK SMILES IDX 13 25 15 26 14 27 26 28 27 29 28 30 29 31 30 32 31 33 32 34
REMARK SMILES IDX 33 35 94 36 34 37 93 38 35 39 36 40 37 41 87 42 38 43 92 44
REMARK SMILES IDX 86 45 88 46 39 47 91 48 85 49 84 50 40 52 72 53 52 54 71 55
REMARK SMILES IDX 53 56 56 57 70 58 89 59 54 60 55 61 69 63 90 64 57 65 41 66
REMARK SMILES IDX 42 67 50 68 43 69 49 70 51 71 48 72 44 73 45 74 46 75 47 76
REMARK SMILES IDX 73 77 74 78 82 79 75 80 81 81 83 82 80 83 76 84 77 85 78 86
REMARK SMILES IDX 79 87 58 88 59 89 67 90 60 91 66 92 68 93 65 94 61 95 62 96
REMARK SMILES IDX 63 97 64 98
REMARK H PARENT 5 10 7 12 88 51 56 62
REMARK Flexibility Score: inf
ROOT
ATOM      1  C   UNL A   1      35.517  32.559  28.034  1.00  0.00     0.202 C 
ENDROOT
BRANCH   1   2
ATOM      2  C   UNL A   1      35.163  31.106  27.703  1.00  0.00     0.261 C 
BRANCH   2   3
ATOM      3  O   UNL A   1      33.877  30.893  27.092  1.00  0.00    -0.463 OA
BRANCH   3   4
ATOM      4  C   UNL A   1      33.468  29.693  26.641  1.00  0.00     0.309 C 
ATOM      5  O   UNL A   1      33.681  28.677  27.301  1.00  0.00    -0.252 OA
BRANCH   4   6
ATOM      6  C   UNL A   1      32.871  29.601  25.268  1.00  0.00     0.168 C 
BRANCH   6   7
ATOM      7  C   UNL A   1      32.144  28.290  25.052  1.00  0.00     0.245 C 
BRANCH   7   8
ATOM      8  N   UNL A   1      32.317  27.731  23.720  1.00  0.00    -0.273 N 
ATOM      9  C   UNL A   1      31.449  27.631  22.640  1.00  0.00     0.290 C 
ATOM     10  H   UNL A   1      33.211  27.354  23.553  1.00  0.00     0.305 HD
ATOM     11  N   UNL A   1      31.661  26.905  21.577  1.00  0.00    -0.162 N 
ATOM     12  H   UNL A   1      31.038  26.972  20.817  1.00  0.00     0.327 HD
BRANCH   9  13
ATOM     13  C   UNL A   1      30.141  28.380  22.630  1.00  0.00     0.064 A 
ATOM     14  C   UNL A   1      30.108  29.678  22.103  1.00  0.00     0.016 A 
ATOM     15  C   UNL A   1      28.972  27.829  23.162  1.00  0.00     0.016 A 
ATOM     16  C   UNL A   1      28.907  30.392  22.064  1.00  0.00     0.001 A 
ATOM     17  C   UNL A   1      27.766  28.531  23.093  1.00  0.00     0.001 A 
ATOM     18  C   UNL A   1      27.734  29.812  22.542  1.00  0.00     0.000 A 
ENDBRANCH   9  13
BRANCH  11  19
ATOM     19  S   UNL A   1      32.924  25.895  21.480  1.00  0.00     0.328 S 
ATOM     20  O   UNL A   1      32.908  25.263  20.171  1.00  0.00    -0.179 OA
ATOM     21  O   UNL A   1      34.106  26.617  21.910  1.00  0.00    -0.179 OA
BRANCH  19  22
ATOM     22  C   UNL A   1      32.717  24.623  22.698  1.00  0.00     0.109 A 
ATOM     23  C   UNL A   1      31.438  24.156  23.012  1.00  0.00     0.024 A 
ATOM     24  C   UNL A   1      33.832  24.222  23.446  1.00  0.00     0.024 A 
ATOM     25  C   UNL A   1      31.275  23.307  24.108  1.00  0.00     0.001 A 
ATOM     26  C   UNL A   1      33.657  23.375  24.539  1.00  0.00     0.001 A 
ATOM     27  C   UNL A   1      32.380  22.928  24.874  1.00  0.00     0.000 A 
ENDBRANCH  19  22
ENDBRANCH  11  19
ENDBRANCH   7   8
ENDBRANCH   6   7
ENDBRANCH   4   6
ENDBRANCH   3   4
ENDBRANCH   2   3
ENDBRANCH   1   2
BRANCH   1  28
ATOM     28  O   UNL A   1      34.708  33.215  29.010  1.00  0.00    -0.374 OA
BRANCH  28  29
ATOM     29  C   UNL A   1      35.246  33.397  30.317  1.00  0.00     0.202 C 
BRANCH  29  30
ATOM     30  C   UNL A   1      35.073  32.228  31.281  1.00  0.00     0.261 C 
BRANCH  30  31
ATOM     31  O   UNL A   1      36.338  31.732  31.738  1.00  0.00    -0.460 OA
BRANCH  31  32
ATOM     32  C   UNL A   1      36.536  30.407  31.510  1.00  0.00     0.338 C 
ATOM     33  O   UNL A   1      35.824  29.667  30.861  1.00  0.00    -0.246 OA
BRANCH  32  34
ATOM     34  C   UNL A   1      37.848  29.996  32.054  1.00  0.00     0.060 A 
ATOM     35  C   UNL A   1      38.892  30.928  31.993  1.00  0.00     0.016 A 
ATOM     36  C   UNL A   1      38.076  28.702  32.532  1.00  0.00     0.016 A 
ATOM     37  C   UNL A   1      40.188  30.542  32.317  1.00  0.00     0.010 A 
ATOM     38  C   UNL A   1      39.377  28.314  32.855  1.00  0.00     0.010 A 
ATOM     39  C   UNL A   1      40.443  29.216  32.686  1.00  0.00    -0.014 A 
BRANCH  39  40
ATOM     40  C   UNL A   1      41.835  28.716  32.641  1.00  0.00     0.031 A 
ATOM     41  C   UNL A   1      42.304  28.046  31.376  1.00  0.00     0.074 A 
ATOM     42  C   UNL A   1      42.669  28.889  33.680  1.00  0.00     0.049 A 
ATOM     43  N   UNL A   1      43.473  27.539  31.084  1.00  0.00    -0.248 NA
ATOM     44  C   UNL A   1      41.310  27.928  30.298  1.00  0.00     0.031 C 
ATOM     45  C   UNL A   1      42.329  29.558  34.934  1.00  0.00     0.029 A 
ATOM     46  N   UNL A   1      43.977  28.511  33.839  1.00  0.00    -0.354 N 
ATOM     47  C   UNL A   1      43.355  27.044  29.788  1.00  0.00     0.074 A 
ATOM     48  C   UNL A   1      41.987  27.268  29.374  1.00  0.00     0.031 C 
ATOM     49  C   UNL A   1      43.404  29.538  35.741  1.00  0.00     0.029 A 
ATOM     50  C   UNL A   1      44.497  28.838  35.068  1.00  0.00     0.049 A 
ATOM     51  H   UNL A   1      44.494  28.051  33.139  1.00  0.00     0.167 HD
ATOM     52  C   UNL A   1      44.304  26.466  29.011  1.00  0.00     0.034 A 
ATOM     53  C   UNL A   1      45.716  28.588  35.584  1.00  0.00     0.034 A 
ATOM     54  C   UNL A   1      45.657  26.234  29.453  1.00  0.00     0.049 A 
ATOM     55  C   UNL A   1      46.740  27.881  34.728  1.00  0.00     0.074 A 
ATOM     56  C   UNL A   1      46.708  25.663  28.758  1.00  0.00     0.029 A 
ATOM     57  N   UNL A   1      46.142  26.549  30.717  1.00  0.00    -0.354 N 
ATOM     58  N   UNL A   1      46.628  27.439  33.495  1.00  0.00    -0.248 NA
ATOM     59  C   UNL A   1      48.060  27.657  35.329  1.00  0.00     0.031 C 
ATOM     60  C   UNL A   1      47.805  25.572  29.622  1.00  0.00     0.029 A 
ATOM     61  C   UNL A   1      47.468  26.159  30.831  1.00  0.00     0.049 A 
ATOM     62  H   UNL A   1      45.619  26.987  31.428  1.00  0.00     0.167 HD
ATOM     63  C   UNL A   1      47.880  26.928  33.159  1.00  0.00     0.074 A 
ATOM     64  C   UNL A   1      48.728  27.122  34.318  1.00  0.00     0.031 C 
ATOM     65  C   UNL A   1      48.297  26.361  31.997  1.00  0.00     0.034 A 
BRANCH  52  66
ATOM     66  C   UNL A   1      43.879  25.997  27.639  1.00  0.00     0.023 A 
ATOM     67  C   UNL A   1      43.333  24.718  27.428  1.00  0.00     0.031 A 
ATOM     68  C   UNL A   1      44.082  26.817  26.516  1.00  0.00     0.131 A 
ATOM     69  C   UNL A   1      43.089  24.266  26.121  1.00  0.00     0.055 A 
ATOM     70  C   UNL A   1      43.757  26.394  25.225  1.00  0.00     0.041 A 
ATOM     71  F   UNL A   1      44.622  28.039  26.651  1.00  0.00    -0.206 F 
ATOM     72  C   UNL A   1      43.275  25.105  25.020  1.00  0.00     0.022 A 
BRANCH  69  73
ATOM     73  S   UNL A   1      42.680  22.517  25.868  1.00  0.00     0.124 S 
ATOM     74  O   UNL A   1      43.204  22.282  24.525  1.00  0.00    -0.237 OA
ATOM     75  O   UNL A   1      43.395  21.864  26.958  1.00  0.00    -0.237 OA
ATOM     76  O   UNL A   1      41.222  22.487  25.972  1.00  0.00    -0.744 OA
ENDBRANCH  69  73
ENDBRANCH  52  66
BRANCH  53  77
ATOM     77  C   UNL A   1      46.045  29.004  36.976  1.00  0.00     0.023 A 
ATOM     78  C   UNL A   1      45.666  28.216  38.073  1.00  0.00     0.031 A 
ATOM     79  C   UNL A   1      46.700  30.222  37.232  1.00  0.00     0.131 A 
ATOM     80  C   UNL A   1      45.901  28.675  39.378  1.00  0.00     0.055 A 
ATOM     81  C   UNL A   1      46.975  30.652  38.531  1.00  0.00     0.041 A 
ATOM     82  F   UNL A   1      47.087  31.011  36.217  1.00  0.00    -0.206 F 
ATOM     83  C   UNL A   1      46.563  29.883  39.615  1.00  0.00     0.022 A 
BRANCH  80  84
ATOM     84  S   UNL A   1      45.266  27.699  40.768  1.00  0.00     0.124 S 
ATOM     85  O   UNL A   1      44.473  26.686  40.081  1.00  0.00    -0.237 OA
ATOM     86  O   UNL A   1      46.498  27.234  41.396  1.00  0.00    -0.237 OA
ATOM     87  O   UNL A   1      44.502  28.671  41.545  1.00  0.00    -0.744 OA
ENDBRANCH  80  84
ENDBRANCH  53  77
BRANCH  65  88
ATOM     88  C   UNL A   1      49.755  25.977  31.907  1.00  0.00     0.023 A 
ATOM     89  C   UNL A   1      50.224  24.722  32.333  1.00  0.00     0.031 A 
ATOM     90  C   UNL A   1      50.692  26.896  31.401  1.00  0.00     0.131 A 
ATOM     91  C   UNL A   1      51.600  24.446  32.308  1.00  0.00     0.055 A 
ATOM     92  C   UNL A   1      52.050  26.592  31.318  1.00  0.00     0.041 A 
ATOM     93  F   UNL A   1      50.301  28.110  30.980  1.00  0.00    -0.206 F 
ATOM     94  C   UNL A   1      52.514  25.367  31.788  1.00  0.00     0.022 A 
BRANCH  91  95
ATOM     95  S   UNL A   1      52.193  22.911  33.070  1.00  0.00     0.124 S 
ATOM     96  O   UNL A   1      51.753  23.067  34.452  1.00  0.00    -0.237 OA
ATOM     97  O   UNL A   1      51.501  21.889  32.292  1.00  0.00    -0.237 OA
ATOM     98  O   UNL A   1      53.641  22.967  32.871  1.00  0.00    -0.744 OA
ENDBRANCH  91  95
ENDBRANCH  65  88
ENDBRANCH  39  40
ENDBRANCH  32  34
ENDBRANCH  31  32
ENDBRANCH  30  31
ENDBRANCH  29  30
ENDBRANCH  28  29
ENDBRANCH   1  28
TORSDOF 22
ENDMDL
MODEL 2
REMARK VINA RESULT:      -9.9      5.759     10.433
REMARK SMILES O=C(CCN/C(=[NH+]\S(=O)(=O)c1ccccc1)c1ccccc1)OCCOCCOC(=O)c1ccc(-c2c3nc(c(-c4cc(S(=O)(=O)[O-])ccc4F)c4ccc([nH]4)c(-c4cc(S(=O)(=O)[O-])ccc4F)c4nc(c(-c5cc(S(=O)(=O)[O-])ccc5F)c5ccc2[nH]5)C=C4)C=C3)cc1
REMARK SMILES IDX 25 1 24 2 23 3 2 4 1 5 3 6 4 7 5 8 6 9 7 11 17 13 18 14
REMARK SMILES IDX 22 15 19 16 21 17 20 18 8 19 9 20 10 21 11 22 12 23 16 24
REMARK SMILES IDX 13 25 15 26 14 27 26 28 27 29 28 30 29 31 30 32 31 33 32 34
REMARK SMILES IDX 33 35 94 36 34 37 93 38 35 39 36 40 37 41 87 42 38 43 92 44
REMARK SMILES IDX 86 45 88 46 39 47 91 48 85 49 84 50 40 52 72 53 52 54 71 55
REMARK SMILES IDX 53 56 56 57 70 58 89 59 54 60 55 61 69 63 90 64 57 65 41 66
REMARK SMILES IDX 42 67 50 68 43 69 49 70 51 71 48 72 44 73 45 74 46 75 47 76
REMARK SMILES IDX 73 77 74 78 82 79 75 80 81 81 83 82 80 83 76 84 77 85 78 86
REMARK SMILES IDX 79 87 58 88 59 89 67 90 60 91 66 92 68 93 65 94 61 95 62 96
REMARK SMILES IDX 63 97 64 98
REMARK H PARENT 5 10 7 12 88 51 56 62
REMARK Flexibility Score: inf
ROOT
ATOM      1  C   UNL A   1      41.069  21.024  26.736  1.00  0.00     0.202 C 
ENDROOT
BRANCH   1   2
ATOM      2  C   UNL A   1      40.291  22.314  26.459  1.00  0.00     0.261 C 
BRANCH   2   3
ATOM      3  O   UNL A   1      38.865  22.243  26.644  1.00  0.00    -0.463 OA
BRANCH   3   4
ATOM      4  C   UNL A   1      37.988  22.332  25.629  1.00  0.00     0.309 C 
ATOM      5  O   UNL A   1      37.854  21.397  24.840  1.00  0.00    -0.252 OA
BRANCH   4   6
ATOM      6  C   UNL A   1      37.277  23.633  25.398  1.00  0.00     0.168 C 
BRANCH   6   7
ATOM      7  C   UNL A   1      36.209  23.516  24.330  1.00  0.00     0.245 C 
BRANCH   7   8
ATOM      8  N   UNL A   1      35.011  24.294  24.604  1.00  0.00    -0.273 N 
ATOM      9  C   UNL A   1      33.662  23.996  24.454  1.00  0.00     0.290 C 
ATOM     10  H   UNL A   1      35.188  25.194  24.960  1.00  0.00     0.305 HD
ATOM     11  N   UNL A   1      32.694  24.867  24.528  1.00  0.00    -0.162 N 
ATOM     12  H   UNL A   1      31.761  24.552  24.508  1.00  0.00     0.327 HD
BRANCH   9  13
ATOM     13  C   UNL A   1      33.210  22.587  24.173  1.00  0.00     0.064 A 
ATOM     14  C   UNL A   1      32.572  22.310  22.956  1.00  0.00     0.016 A 
ATOM     15  C   UNL A   1      33.379  21.559  25.105  1.00  0.00     0.016 A 
ATOM     16  C   UNL A   1      32.157  21.009  22.658  1.00  0.00     0.001 A 
ATOM     17  C   UNL A   1      32.992  20.252  24.793  1.00  0.00     0.001 A 
ATOM     18  C   UNL A   1      32.384  19.978  23.568  1.00  0.00     0.000 A 
ENDBRANCH   9  13
BRANCH  11  19
ATOM     19  S   UNL A   1      32.991  26.456  24.648  1.00  0.00     0.328 S 
ATOM     20  O   UNL A   1      33.352  26.754  26.025  1.00  0.00    -0.179 OA
ATOM     21  O   UNL A   1      33.898  26.822  23.577  1.00  0.00    -0.179 OA
BRANCH  19  22
ATOM     22  C   UNL A   1      31.495  27.333  24.279  1.00  0.00     0.109 A 
ATOM     23  C   UNL A   1      30.361  26.635  23.856  1.00  0.00     0.024 A 
ATOM     24  C   UNL A   1      31.526  28.734  24.259  1.00  0.00     0.024 A 
ATOM     25  C   UNL A   1      29.261  27.351  23.378  1.00  0.00     0.001 A 
ATOM     26  C   UNL A   1      30.423  29.438  23.779  1.00  0.00     0.001 A 
ATOM     27  C   UNL A   1      29.298  28.747  23.329  1.00  0.00     0.000 A 
ENDBRANCH  19  22
ENDBRANCH  11  19
ENDBRANCH   7   8
ENDBRANCH   6   7
ENDBRANCH   4   6
ENDBRANCH   3   4
ENDBRANCH   2   3
ENDBRANCH   1   2
BRANCH   1  28
ATOM     28  O   UNL A   1      41.781  20.450  25.639  1.00  0.00    -0.374 OA
BRANCH  28  29
ATOM     29  C   UNL A   1      43.166  20.163  25.814  1.00  0.00     0.202 C 
BRANCH  29  30
ATOM     30  C   UNL A   1      44.137  21.066  25.062  1.00  0.00     0.261 C 
BRANCH  30  31
ATOM     31  O   UNL A   1      43.558  22.349  24.789  1.00  0.00    -0.460 OA
BRANCH  31  32
ATOM     32  C   UNL A   1      44.458  23.362  24.693  1.00  0.00     0.338 C 
ATOM     33  O   UNL A   1      45.413  23.417  23.945  1.00  0.00    -0.246 OA
BRANCH  32  34
ATOM     34  C   UNL A   1      44.031  24.493  25.544  1.00  0.00     0.060 A 
ATOM     35  C   UNL A   1      43.495  25.617  24.903  1.00  0.00     0.016 A 
ATOM     36  C   UNL A   1      44.231  24.491  26.928  1.00  0.00     0.016 A 
ATOM     37  C   UNL A   1      43.247  26.779  25.627  1.00  0.00     0.010 A 
ATOM     38  C   UNL A   1      43.984  25.657  27.654  1.00  0.00     0.010 A 
ATOM     39  C   UNL A   1      43.553  26.820  26.992  1.00  0.00    -0.014 A 
BRANCH  39  40
ATOM     40  C   UNL A   1      43.667  28.137  27.660  1.00  0.00     0.031 A 
ATOM     41  C   UNL A   1      42.421  28.737  28.256  1.00  0.00     0.074 A 
ATOM     42  C   UNL A   1      44.852  28.759  27.768  1.00  0.00     0.049 A 
ATOM     43  N   UNL A   1      42.261  29.862  28.900  1.00  0.00    -0.248 NA
ATOM     44  C   UNL A   1      41.184  27.956  28.092  1.00  0.00     0.031 C 
ATOM     45  C   UNL A   1      46.125  28.249  27.262  1.00  0.00     0.029 A 
ATOM     46  N   UNL A   1      45.172  29.962  28.342  1.00  0.00    -0.354 N 
ATOM     47  C   UNL A   1      40.908  29.925  29.221  1.00  0.00     0.074 A 
ATOM     48  C   UNL A   1      40.286  28.748  28.655  1.00  0.00     0.031 C 
ATOM     49  C   UNL A   1      47.092  29.140  27.544  1.00  0.00     0.029 A 
ATOM     50  C   UNL A   1      46.502  30.288  28.229  1.00  0.00     0.049 A 
ATOM     51  H   UNL A   1      44.512  30.536  28.793  1.00  0.00     0.167 HD
ATOM     52  C   UNL A   1      40.248  30.872  29.932  1.00  0.00     0.034 A 
ATOM     53  C   UNL A   1      47.157  31.395  28.631  1.00  0.00     0.034 A 
ATOM     54  C   UNL A   1      40.886  32.048  30.469  1.00  0.00     0.049 A 
ATOM     55  C   UNL A   1      46.391  32.472  29.361  1.00  0.00     0.074 A 
ATOM     56  C   UNL A   1      40.325  33.074  31.209  1.00  0.00     0.029 A 
ATOM     57  N   UNL A   1      42.230  32.362  30.309  1.00  0.00    -0.354 N 
ATOM     58  N   UNL A   1      45.117  32.511  29.682  1.00  0.00    -0.248 NA
ATOM     59  C   UNL A   1      47.158  33.644  29.799  1.00  0.00     0.031 C 
ATOM     60  C   UNL A   1      41.314  34.039  31.437  1.00  0.00     0.029 A 
ATOM     61  C   UNL A   1      42.511  33.580  30.911  1.00  0.00     0.049 A 
ATOM     62  H   UNL A   1      42.888  31.802  29.837  1.00  0.00     0.167 HD
ATOM     63  C   UNL A   1      44.942  33.692  30.402  1.00  0.00     0.074 A 
ATOM     64  C   UNL A   1      46.242  34.329  30.469  1.00  0.00     0.031 C 
ATOM     65  C   UNL A   1      43.816  34.199  30.967  1.00  0.00     0.034 A 
BRANCH  52  66
ATOM     66  C   UNL A   1      38.758  30.689  30.103  1.00  0.00     0.023 A 
ATOM     67  C   UNL A   1      37.832  31.258  29.209  1.00  0.00     0.031 A 
ATOM     68  C   UNL A   1      38.253  29.991  31.213  1.00  0.00     0.131 A 
ATOM     69  C   UNL A   1      36.458  31.190  29.485  1.00  0.00     0.055 A 
ATOM     70  C   UNL A   1      36.881  29.854  31.437  1.00  0.00     0.041 A 
ATOM     71  F   UNL A   1      39.086  29.447  32.115  1.00  0.00    -0.206 F 
ATOM     72  C   UNL A   1      35.975  30.471  30.580  1.00  0.00     0.022 A 
BRANCH  69  73
ATOM     73  S   UNL A   1      35.320  32.190  28.484  1.00  0.00     0.124 S 
ATOM     74  O   UNL A   1      34.386  32.676  29.496  1.00  0.00    -0.237 OA
ATOM     75  O   UNL A   1      36.207  33.188  27.899  1.00  0.00    -0.237 OA
ATOM     76  O   UNL A   1      34.757  31.225  27.541  1.00  0.00    -0.744 OA
ENDBRANCH  69  73
ENDBRANCH  52  66
BRANCH  53  77
ATOM     77  C   UNL A   1      48.613  31.550  28.357  1.00  0.00     0.023 A 
ATOM     78  C   UNL A   1      49.067  32.347  27.296  1.00  0.00     0.031 A 
ATOM     79  C   UNL A   1      49.571  30.862  29.123  1.00  0.00     0.131 A 
ATOM     80  C   UNL A   1      50.437  32.401  26.997  1.00  0.00     0.055 A 
ATOM     81  C   UNL A   1      50.936  30.956  28.852  1.00  0.00     0.041 A 
ATOM     82  F   UNL A   1      49.189  30.089  30.152  1.00  0.00    -0.206 F 
ATOM     83  C   UNL A   1      51.376  31.719  27.774  1.00  0.00     0.022 A 
BRANCH  80  84
ATOM     84  S   UNL A   1      50.968  33.323  25.529  1.00  0.00     0.124 S 
ATOM     85  O   UNL A   1      49.776  34.104  25.221  1.00  0.00    -0.237 OA
ATOM     86  O   UNL A   1      52.111  34.071  26.042  1.00  0.00    -0.237 OA
ATOM     87  O   UNL A   1      51.295  32.274  24.567  1.00  0.00    -0.744 OA
ENDBRANCH  80  84
ENDBRANCH  53  77
BRANCH  65  88
ATOM     88  C   UNL A   1      43.963  35.473  31.765  1.00  0.00     0.023 A 
ATOM     89  C   UNL A   1      43.819  36.742  31.179  1.00  0.00     0.031 A 
ATOM     90  C   UNL A   1      44.274  35.409  33.135  1.00  0.00     0.131 A 
ATOM     91  C   UNL A   1      44.051  37.895  31.944  1.00  0.00     0.055 A 
ATOM     92  C   UNL A   1      44.440  36.559  33.907  1.00  0.00     0.041 A 
ATOM     93  F   UNL A   1      44.425  34.224  33.748  1.00  0.00    -0.206 F 
ATOM     94  C   UNL A   1      44.345  37.812  33.308  1.00  0.00     0.022 A 
BRANCH  91  95
ATOM     95  S   UNL A   1      44.076  39.505  31.108  1.00  0.00     0.124 S 
ATOM     96  O   UNL A   1      45.429  39.973  31.390  1.00  0.00    -0.237 OA
ATOM     97  O   UNL A   1      43.804  39.139  29.722  1.00  0.00    -0.237 OA
ATOM     98  O   UNL A   1      43.010  40.253  31.772  1.00  0.00    -0.744 OA
ENDBRANCH  91  95
ENDBRANCH  65  88
ENDBRANCH  39  40
ENDBRANCH  32  34
ENDBRANCH  31  32
ENDBRANCH  30  31
ENDBRANCH  29  30
ENDBRANCH  28  29
ENDBRANCH   1  28
TORSDOF 22
ENDMDL
MODEL 3
REMARK VINA RESULT:      -9.9      6.108      9.877
REMARK SMILES O=C(CCN/C(=[NH+]\S(=O)(=O)c1ccccc1)c1ccccc1)OCCOCCOC(=O)c1ccc(-c2c3nc(c(-c4cc(S(=O)(=O)[O-])ccc4F)c4ccc([nH]4)c(-c4cc(S(=O)(=O)[O-])ccc4F)c4nc(c(-c5cc(S(=O)(=O)[O-])ccc5F)c5ccc2[nH]5)C=C4)C=C3)cc1
REMARK SMILES IDX 25 1 24 2 23 3 2 4 1 5 3 6 4 7 5 8 6 9 7 11 17 13 18 14
REMARK SMILES IDX 22 15 19 16 21 17 20 18 8 19 9 20 10 21 11 22 12 23 16 24
REMARK SMILES IDX 13 25 15 26 14 27 26 28 27 29 28 30 29 31 30 32 31 33 32 34
REMARK SMILES IDX 33 35 94 36 34 37 93 38 35 39 36 40 37 41 87 42 38 43 92 44
REMARK SMILES IDX 86 45 88 46 39 47 91 48 85 49 84 50 40 52 72 53 52 54 71 55
REMARK SMILES IDX 53 56 56 57 70 58 89 59 54 60 55 61 69 63 90 64 57 65 41 66
REMARK SMILES IDX 42 67 50 68 43 69 49 70 51 71 48 72 44 73 45 74 46 75 47 76
REMARK SMILES IDX 73 77 74 78 82 79 75 80 81 81 83 82 80 83 76 84 77 85 78 86
REMARK SMILES IDX 79 87 58 88 59 89 67 90 60 91 66 92 68 93 65 94 61 95 62 96
REMARK SMILES IDX 63 97 64 98
REMARK H PARENT 5 10 7 12 88 51 56 62
REMARK Flexibility Score: inf
ROOT
ATOM      1  C   UNL A   1      40.579  21.184  26.767  1.00  0.00     0.202 C 
ENDROOT
BRANCH   1   2
ATOM      2  C   UNL A   1      39.454  22.098  26.274  1.00  0.00     0.261 C 
BRANCH   2   3
ATOM      3  O   UNL A   1      38.210  21.450  25.948  1.00  0.00    -0.463 OA
BRANCH   3   4
ATOM      4  C   UNL A   1      37.170  22.095  25.391  1.00  0.00     0.309 C 
ATOM      5  O   UNL A   1      37.363  23.034  24.619  1.00  0.00    -0.252 OA
BRANCH   4   6
ATOM      6  C   UNL A   1      35.779  21.739  25.826  1.00  0.00     0.168 C 
BRANCH   6   7
ATOM      7  C   UNL A   1      34.730  22.561  25.106  1.00  0.00     0.245 C 
BRANCH   7   8
ATOM      8  N   UNL A   1      33.416  22.518  25.728  1.00  0.00    -0.273 N 
ATOM      9  C   UNL A   1      32.273  21.790  25.421  1.00  0.00     0.290 C 
ATOM     10  H   UNL A   1      33.319  23.111  26.507  1.00  0.00     0.305 HD
ATOM     11  N   UNL A   1      31.090  22.012  25.925  1.00  0.00    -0.162 N 
ATOM     12  H   UNL A   1      30.358  21.384  25.727  1.00  0.00     0.327 HD
BRANCH   9  13
ATOM     13  C   UNL A   1      32.324  20.654  24.433  1.00  0.00     0.064 A 
ATOM     14  C   UNL A   1      32.577  19.358  24.904  1.00  0.00     0.016 A 
ATOM     15  C   UNL A   1      32.160  20.862  23.061  1.00  0.00     0.016 A 
ATOM     16  C   UNL A   1      32.614  18.280  24.015  1.00  0.00     0.001 A 
ATOM     17  C   UNL A   1      32.164  19.779  22.177  1.00  0.00     0.001 A 
ATOM     18  C   UNL A   1      32.389  18.488  22.656  1.00  0.00     0.000 A 
ENDBRANCH   9  13
BRANCH  11  19
ATOM     19  S   UNL A   1      30.799  23.298  26.868  1.00  0.00     0.328 S 
ATOM     20  O   UNL A   1      29.429  23.217  27.347  1.00  0.00    -0.179 OA
ATOM     21  O   UNL A   1      31.885  23.403  27.825  1.00  0.00    -0.179 OA
BRANCH  19  22
ATOM     22  C   UNL A   1      30.941  24.761  25.877  1.00  0.00     0.109 A 
ATOM     23  C   UNL A   1      31.642  25.868  26.361  1.00  0.00     0.024 A 
ATOM     24  C   UNL A   1      30.204  24.841  24.688  1.00  0.00     0.024 A 
ATOM     25  C   UNL A   1      31.574  27.075  25.662  1.00  0.00     0.001 A 
ATOM     26  C   UNL A   1      30.142  26.051  23.998  1.00  0.00     0.001 A 
ATOM     27  C   UNL A   1      30.817  27.167  24.491  1.00  0.00     0.000 A 
ENDBRANCH  19  22
ENDBRANCH  11  19
ENDBRANCH   7   8
ENDBRANCH   6   7
ENDBRANCH   4   6
ENDBRANCH   3   4
ENDBRANCH   2   3
ENDBRANCH   1   2
BRANCH   1  28
ATOM     28  O   UNL A   1      41.394  20.566  25.770  1.00  0.00    -0.374 OA
BRANCH  28  29
ATOM     29  C   UNL A   1      42.761  20.313  26.083  1.00  0.00     0.202 C 
BRANCH  29  30
ATOM     30  C   UNL A   1      43.719  21.484  25.888  1.00  0.00     0.261 C 
BRANCH  30  31
ATOM     31  O   UNL A   1      43.331  22.302  24.777  1.00  0.00    -0.460 OA
BRANCH  31  32
ATOM     32  C   UNL A   1      43.167  23.616  25.079  1.00  0.00     0.338 C 
ATOM     33  O   UNL A   1      42.156  24.147  25.492  1.00  0.00    -0.246 OA
BRANCH  32  34
ATOM     34  C   UNL A   1      44.464  24.319  24.971  1.00  0.00     0.060 A 
ATOM     35  C   UNL A   1      45.585  23.555  24.623  1.00  0.00     0.016 A 
ATOM     36  C   UNL A   1      44.597  25.674  25.289  1.00  0.00     0.016 A 
ATOM     37  C   UNL A   1      46.856  24.117  24.685  1.00  0.00     0.010 A 
ATOM     38  C   UNL A   1      45.872  26.238  25.353  1.00  0.00     0.010 A 
ATOM     39  C   UNL A   1      47.006  25.441  25.113  1.00  0.00    -0.014 A 
BRANCH  39  40
ATOM     40  C   UNL A   1      48.341  25.903  25.555  1.00  0.00     0.031 A 
ATOM     41  C   UNL A   1      49.242  26.540  24.529  1.00  0.00     0.074 A 
ATOM     42  C   UNL A   1      48.723  25.797  26.838  1.00  0.00     0.049 A 
ATOM     43  N   UNL A   1      50.444  27.036  24.666  1.00  0.00    -0.248 NA
ATOM     44  C   UNL A   1      48.711  26.620  23.159  1.00  0.00     0.031 C 
ATOM     45  C   UNL A   1      47.914  25.234  27.916  1.00  0.00     0.029 A 
ATOM     46  N   UNL A   1      49.896  26.161  27.446  1.00  0.00    -0.354 N 
ATOM     47  C   UNL A   1      50.812  27.487  23.402  1.00  0.00     0.074 A 
ATOM     48  C   UNL A   1      49.725  27.160  22.505  1.00  0.00     0.031 C 
ATOM     49  C   UNL A   1      48.620  25.284  29.059  1.00  0.00     0.029 A 
ATOM     50  C   UNL A   1      49.935  25.862  28.787  1.00  0.00     0.049 A 
ATOM     51  H   UNL A   1      50.639  26.595  26.969  1.00  0.00     0.167 HD
ATOM     52  C   UNL A   1      51.948  28.126  23.027  1.00  0.00     0.034 A 
ATOM     53  C   UNL A   1      50.927  26.034  29.682  1.00  0.00     0.034 A 
ATOM     54  C   UNL A   1      53.027  28.424  23.935  1.00  0.00     0.049 A 
ATOM     55  C   UNL A   1      52.213  26.685  29.230  1.00  0.00     0.074 A 
ATOM     56  C   UNL A   1      54.223  29.069  23.676  1.00  0.00     0.029 A 
ATOM     57  N   UNL A   1      53.046  28.078  25.282  1.00  0.00    -0.354 N 
ATOM     58  N   UNL A   1      52.542  27.132  28.038  1.00  0.00    -0.248 NA
ATOM     59  C   UNL A   1      53.251  26.871  30.250  1.00  0.00     0.031 C 
ATOM     60  C   UNL A   1      54.991  29.054  24.847  1.00  0.00     0.029 A 
ATOM     61  C   UNL A   1      54.244  28.472  25.859  1.00  0.00     0.049 A 
ATOM     62  H   UNL A   1      52.315  27.621  25.757  1.00  0.00     0.167 HD
ATOM     63  C   UNL A   1      53.809  27.695  28.181  1.00  0.00     0.074 A 
ATOM     64  C   UNL A   1      54.177  27.534  29.573  1.00  0.00     0.031 C 
ATOM     65  C   UNL A   1      54.593  28.301  27.251  1.00  0.00     0.034 A 
BRANCH  52  66
ATOM     66  C   UNL A   1      52.087  28.479  21.565  1.00  0.00     0.023 A 
ATOM     67  C   UNL A   1      52.487  27.530  20.606  1.00  0.00     0.031 A 
ATOM     68  C   UNL A   1      51.880  29.801  21.132  1.00  0.00     0.131 A 
ATOM     69  C   UNL A   1      52.748  27.933  19.287  1.00  0.00     0.055 A 
ATOM     70  C   UNL A   1      52.059  30.177  19.800  1.00  0.00     0.041 A 
ATOM     71  F   UNL A   1      51.522  30.757  22.004  1.00  0.00    -0.206 F 
ATOM     72  C   UNL A   1      52.513  29.246  18.871  1.00  0.00     0.022 A 
BRANCH  69  73
ATOM     73  S   UNL A   1      53.550  26.757  18.162  1.00  0.00     0.124 S 
ATOM     74  O   UNL A   1      52.407  25.994  17.666  1.00  0.00    -0.237 OA
ATOM     75  O   UNL A   1      54.202  27.635  17.198  1.00  0.00    -0.237 OA
ATOM     76  O   UNL A   1      54.454  26.010  19.036  1.00  0.00    -0.744 OA
ENDBRANCH  69  73
ENDBRANCH  52  66
BRANCH  53  77
ATOM     77  C   UNL A   1      50.756  25.587  31.092  1.00  0.00     0.023 A 
ATOM     78  C   UNL A   1      51.158  24.305  31.497  1.00  0.00     0.031 A 
ATOM     79  C   UNL A   1      50.142  26.418  32.045  1.00  0.00     0.131 A 
ATOM     80  C   UNL A   1      50.898  23.871  32.806  1.00  0.00     0.055 A 
ATOM     81  C   UNL A   1      49.929  26.000  33.359  1.00  0.00     0.041 A 
ATOM     82  F   UNL A   1      49.743  27.655  31.710  1.00  0.00    -0.206 F 
ATOM     83  C   UNL A   1      50.296  24.713  33.743  1.00  0.00     0.022 A 
BRANCH  80  84
ATOM     84  S   UNL A   1      51.298  22.158  33.247  1.00  0.00     0.124 S 
ATOM     85  O   UNL A   1      51.968  21.689  32.039  1.00  0.00    -0.237 OA
ATOM     86  O   UNL A   1      52.145  22.341  34.421  1.00  0.00    -0.237 OA
ATOM     87  O   UNL A   1      49.992  21.561  33.510  1.00  0.00    -0.744 OA
ENDBRANCH  80  84
ENDBRANCH  53  77
BRANCH  65  88
ATOM     88  C   UNL A   1      55.895  28.894  27.734  1.00  0.00     0.023 A 
ATOM     89  C   UNL A   1      55.989  30.222  28.186  1.00  0.00     0.031 A 
ATOM     90  C   UNL A   1      57.067  28.116  27.723  1.00  0.00     0.131 A 
ATOM     91  C   UNL A   1      57.239  30.751  28.543  1.00  0.00     0.055 A 
ATOM     92  C   UNL A   1      58.295  28.628  28.140  1.00  0.00     0.041 A 
ATOM     93  F   UNL A   1      57.037  26.841  27.301  1.00  0.00    -0.206 F 
ATOM     94  C   UNL A   1      58.389  29.958  28.538  1.00  0.00     0.022 A 
BRANCH  91  95
ATOM     95  S   UNL A   1      57.362  32.525  28.904  1.00  0.00     0.124 S 
ATOM     96  O   UNL A   1      56.075  33.022  28.431  1.00  0.00    -0.237 OA
ATOM     97  O   UNL A   1      57.556  32.534  30.351  1.00  0.00    -0.237 OA
ATOM     98  O   UNL A   1      58.519  32.954  28.121  1.00  0.00    -0.744 OA
ENDBRANCH  91  95
ENDBRANCH  65  88
ENDBRANCH  39  40
ENDBRANCH  32  34
ENDBRANCH  31  32
ENDBRANCH  30  31
ENDBRANCH  29  30
ENDBRANCH  28  29
ENDBRANCH   1  28
TORSDOF 22
ENDMDL
