MODEL 1
REMARK VINA RESULT:     -11.6      0.000      0.000
REMARK SMILES COc1ccc(Cl)c(NS(=O)(=O)c2ccc(C)c(C(=O)OCCOCCOC(=O)c3ccc(-c4c5nc(c(-c6cc(S(=O)(=O)[O-])ccc6F)c6ccc([nH]6)c(-c6cc(S(=O)(=O)[O-])ccc6F)c6nc(c(-c7cc(S(=O)(=O)[O-])ccc7F)c7ccc4[nH]7)C=C6)C=C5)cc3)c2)c1
REMARK SMILES IDX 23 1 22 2 21 3 19 4 20 5 18 6 13 7 14 8 93 9 15 10 16 11
REMARK SMILES IDX 17 12 10 13 11 14 12 15 9 16 8 18 3 19 4 20 94 21 5 22 6 23
REMARK SMILES IDX 7 24 2 25 1 26 24 27 25 28 26 29 27 30 28 31 29 32 30 33
REMARK SMILES IDX 31 34 92 35 32 36 91 37 33 38 34 39 35 40 85 41 36 42 90 43
REMARK SMILES IDX 84 44 86 45 37 46 89 47 83 48 82 49 38 51 70 52 50 53 69 54
REMARK SMILES IDX 51 55 54 56 68 57 87 58 52 59 53 60 67 62 88 63 55 64 39 65
REMARK SMILES IDX 40 66 48 67 41 68 47 69 49 70 46 71 42 72 43 73 44 74 45 75
REMARK SMILES IDX 71 76 72 77 80 78 73 79 79 80 81 81 78 82 74 83 75 84 76 85
REMARK SMILES IDX 77 86 56 87 57 88 65 89 58 90 64 91 66 92 63 93 59 94 60 95
REMARK SMILES IDX 61 96 62 97
REMARK H PARENT 9 17 86 50 54 61
REMARK Flexibility Score: inf
ROOT
ATOM      1  C   UNL A   1      31.834  29.477  26.883  1.00  0.00     0.202 C 
ENDROOT
BRANCH   1   2
ATOM      2  C   UNL A   1      32.675  28.247  27.167  1.00  0.00     0.261 C 
BRANCH   2   3
ATOM      3  O   UNL A   1      33.559  27.895  26.084  1.00  0.00    -0.460 OA
BRANCH   3   4
ATOM      4  C   UNL A   1      33.109  27.095  25.098  1.00  0.00     0.338 C 
ATOM      5  O   UNL A   1      33.015  27.385  23.918  1.00  0.00    -0.246 OA
BRANCH   4   6
ATOM      6  C   UNL A   1      32.772  25.747  25.637  1.00  0.00     0.064 A 
ATOM      7  C   UNL A   1      33.675  23.611  26.329  1.00  0.00     0.088 A 
ATOM      8  C   UNL A   1      32.397  23.139  26.634  1.00  0.00     0.022 A 
ATOM      9  C   UNL A   1      33.880  24.934  25.929  1.00  0.00     0.038 A 
ATOM     10  C   UNL A   1      31.297  23.957  26.382  1.00  0.00     0.006 A 
ATOM     11  C   UNL A   1      31.461  25.235  25.817  1.00  0.00    -0.036 A 
ATOM     12  C   UNL A   1      30.211  25.951  25.363  1.00  0.00     0.045 C 
BRANCH   7  13
ATOM     13  S   UNL A   1      35.007  22.459  26.177  1.00  0.00     0.261 S 
ATOM     14  O   UNL A   1      34.806  21.453  27.208  1.00  0.00    -0.201 OA
ATOM     15  O   UNL A   1      36.254  23.181  26.109  1.00  0.00    -0.201 OA
BRANCH  13  16
ATOM     16  N   UNL A   1      34.778  21.664  24.693  1.00  0.00    -0.278 N 
ATOM     17  H   UNL A   1      35.174  22.073  23.888  1.00  0.00     0.180 HD
BRANCH  16  18
ATOM     18  C   UNL A   1      34.037  20.420  24.525  1.00  0.00     0.071 A 
ATOM     19  C   UNL A   1      33.980  17.982  24.367  1.00  0.00     0.121 A 
ATOM     20  C   UNL A   1      32.765  18.008  23.708  1.00  0.00     0.048 A 
ATOM     21  C   UNL A   1      34.605  19.169  24.751  1.00  0.00     0.074 A 
ATOM     22  C   UNL A   1      32.184  19.245  23.425  1.00  0.00     0.026 A 
ATOM     23  C   UNL A   1      32.817  20.435  23.823  1.00  0.00     0.065 A 
ATOM     24  Cl  UNL A   1      32.075  21.937  23.384  1.00  0.00    -0.082 Cl
BRANCH  19  25
ATOM     25  O   UNL A   1      34.576  16.812  24.741  1.00  0.00    -0.497 OA
ATOM     26  C   UNL A   1      33.648  15.871  25.268  1.00  0.00     0.278 C 
ENDBRANCH  19  25
ENDBRANCH  16  18
ENDBRANCH  13  16
ENDBRANCH   7  13
ENDBRANCH   4   6
ENDBRANCH   3   4
ENDBRANCH   2   3
ENDBRANCH   1   2
BRANCH   1  27
ATOM     27  O   UNL A   1      32.722  30.513  26.484  1.00  0.00    -0.374 OA
BRANCH  27  28
ATOM     28  C   UNL A   1      33.332  31.255  27.521  1.00  0.00     0.202 C 
BRANCH  28  29
ATOM     29  C   UNL A   1      32.805  32.691  27.588  1.00  0.00     0.261 C 
BRANCH  29  30
ATOM     30  O   UNL A   1      33.872  33.599  27.937  1.00  0.00    -0.460 OA
BRANCH  30  31
ATOM     31  C   UNL A   1      33.893  33.994  29.242  1.00  0.00     0.338 C 
ATOM     32  O   UNL A   1      32.983  34.583  29.801  1.00  0.00    -0.246 OA
BRANCH  31  33
ATOM     33  C   UNL A   1      35.234  33.734  29.839  1.00  0.00     0.060 A 
ATOM     34  C   UNL A   1      36.407  34.089  29.144  1.00  0.00     0.016 A 
ATOM     35  C   UNL A   1      35.315  32.903  30.951  1.00  0.00     0.016 A 
ATOM     36  C   UNL A   1      37.639  33.500  29.483  1.00  0.00     0.010 A 
ATOM     37  C   UNL A   1      36.501  32.249  31.206  1.00  0.00     0.010 A 
ATOM     38  C   UNL A   1      37.671  32.523  30.476  1.00  0.00    -0.014 A 
BRANCH  38  39
ATOM     39  C   UNL A   1      38.790  31.635  30.817  1.00  0.00     0.031 A 
ATOM     40  C   UNL A   1      38.953  30.359  30.068  1.00  0.00     0.074 A 
ATOM     41  C   UNL A   1      39.865  32.119  31.486  1.00  0.00     0.049 A 
ATOM     42  N   UNL A   1      39.884  29.497  30.291  1.00  0.00    -0.248 NA
ATOM     43  C   UNL A   1      38.043  29.919  29.013  1.00  0.00     0.031 C 
ATOM     44  C   UNL A   1      41.259  31.716  31.297  1.00  0.00     0.029 A 
ATOM     45  N   UNL A   1      39.939  33.075  32.505  1.00  0.00    -0.354 N 
ATOM     46  C   UNL A   1      39.945  28.648  29.210  1.00  0.00     0.074 A 
ATOM     47  C   UNL A   1      38.697  28.861  28.522  1.00  0.00     0.031 C 
ATOM     48  C   UNL A   1      42.007  32.196  32.300  1.00  0.00     0.029 A 
ATOM     49  C   UNL A   1      41.103  32.801  33.254  1.00  0.00     0.049 A 
ATOM     50  H   UNL A   1      39.297  33.804  32.669  1.00  0.00     0.167 HD
ATOM     51  C   UNL A   1      41.110  27.975  28.977  1.00  0.00     0.034 A 
ATOM     52  C   UNL A   1      41.062  32.557  34.591  1.00  0.00     0.034 A 
ATOM     53  C   UNL A   1      42.071  28.198  30.069  1.00  0.00     0.049 A 
ATOM     54  C   UNL A   1      41.563  31.167  34.900  1.00  0.00     0.074 A 
ATOM     55  C   UNL A   1      43.274  28.879  30.172  1.00  0.00     0.029 A 
ATOM     56  N   UNL A   1      41.705  27.861  31.368  1.00  0.00    -0.354 N 
ATOM     57  N   UNL A   1      41.727  30.266  33.972  1.00  0.00    -0.248 NA
ATOM     58  C   UNL A   1      41.952  30.670  36.214  1.00  0.00     0.031 C 
ATOM     59  C   UNL A   1      43.605  28.976  31.553  1.00  0.00     0.029 A 
ATOM     60  C   UNL A   1      42.624  28.326  32.285  1.00  0.00     0.049 A 
ATOM     61  H   UNL A   1      40.893  27.355  31.604  1.00  0.00     0.167 HD
ATOM     62  C   UNL A   1      42.223  29.114  34.503  1.00  0.00     0.074 A 
ATOM     63  C   UNL A   1      42.341  29.413  35.920  1.00  0.00     0.031 C 
ATOM     64  C   UNL A   1      42.467  28.029  33.707  1.00  0.00     0.034 A 
BRANCH  51  65
ATOM     65  C   UNL A   1      41.511  27.237  27.706  1.00  0.00     0.023 A 
ATOM     66  C   UNL A   1      41.474  25.821  27.709  1.00  0.00     0.031 A 
ATOM     67  C   UNL A   1      41.972  27.806  26.501  1.00  0.00     0.131 A 
ATOM     68  C   UNL A   1      41.897  25.058  26.602  1.00  0.00     0.055 A 
ATOM     69  C   UNL A   1      42.377  27.048  25.392  1.00  0.00     0.041 A 
ATOM     70  F   UNL A   1      42.061  29.121  26.306  1.00  0.00    -0.206 F 
ATOM     71  C   UNL A   1      42.346  25.668  25.437  1.00  0.00     0.022 A 
BRANCH  68  72
ATOM     72  S   UNL A   1      41.866  23.249  26.706  1.00  0.00     0.124 S 
ATOM     73  O   UNL A   1      40.440  22.973  26.845  1.00  0.00    -0.237 OA
ATOM     74  O   UNL A   1      42.483  22.851  25.446  1.00  0.00    -0.237 OA
ATOM     75  O   UNL A   1      42.665  22.964  27.897  1.00  0.00    -0.744 OA
ENDBRANCH  68  72
ENDBRANCH  51  65
BRANCH  52  76
ATOM     76  C   UNL A   1      40.004  33.358  35.268  1.00  0.00     0.023 A 
ATOM     77  C   UNL A   1      39.054  32.633  36.030  1.00  0.00     0.031 A 
ATOM     78  C   UNL A   1      40.240  34.697  35.621  1.00  0.00     0.131 A 
ATOM     79  C   UNL A   1      38.491  33.196  37.188  1.00  0.00     0.055 A 
ATOM     80  C   UNL A   1      39.674  35.254  36.776  1.00  0.00     0.041 A 
ATOM     81  F   UNL A   1      41.146  35.427  34.952  1.00  0.00    -0.206 F 
ATOM     82  C   UNL A   1      38.830  34.492  37.586  1.00  0.00     0.022 A 
BRANCH  79  83
ATOM     83  S   UNL A   1      37.510  32.155  38.318  1.00  0.00     0.124 S 
ATOM     84  O   UNL A   1      36.269  32.914  38.431  1.00  0.00    -0.237 OA
ATOM     85  O   UNL A   1      37.410  30.884  37.606  1.00  0.00    -0.237 OA
ATOM     86  O   UNL A   1      38.334  32.106  39.524  1.00  0.00    -0.744 OA
ENDBRANCH  79  83
ENDBRANCH  52  76
BRANCH  64  87
ATOM     87  C   UNL A   1      42.633  26.605  34.181  1.00  0.00     0.023 A 
ATOM     88  C   UNL A   1      43.758  25.829  33.882  1.00  0.00     0.031 A 
ATOM     89  C   UNL A   1      41.697  26.007  35.064  1.00  0.00     0.131 A 
ATOM     90  C   UNL A   1      43.894  24.520  34.373  1.00  0.00     0.055 A 
ATOM     91  C   UNL A   1      41.877  24.739  35.623  1.00  0.00     0.041 A 
ATOM     92  F   UNL A   1      40.574  26.632  35.444  1.00  0.00    -0.206 F 
ATOM     93  C   UNL A   1      42.975  23.978  35.266  1.00  0.00     0.022 A 
BRANCH  90  94
ATOM     94  S   UNL A   1      45.270  23.525  33.750  1.00  0.00     0.124 S 
ATOM     95  O   UNL A   1      44.816  22.168  34.043  1.00  0.00    -0.237 OA
ATOM     96  O   UNL A   1      45.306  23.888  32.337  1.00  0.00    -0.237 OA
ATOM     97  O   UNL A   1      46.411  23.981  34.539  1.00  0.00    -0.744 OA
ENDBRANCH  90  94
ENDBRANCH  64  87
ENDBRANCH  38  39
ENDBRANCH  31  33
ENDBRANCH  30  31
ENDBRANCH  29  30
ENDBRANCH  28  29
ENDBRANCH  27  28
ENDBRANCH   1  27
TORSDOF 21
ENDMDL
MODEL 2
REMARK VINA RESULT:     -11.5      2.348      3.186
REMARK SMILES COc1ccc(Cl)c(NS(=O)(=O)c2ccc(C)c(C(=O)OCCOCCOC(=O)c3ccc(-c4c5nc(c(-c6cc(S(=O)(=O)[O-])ccc6F)c6ccc([nH]6)c(-c6cc(S(=O)(=O)[O-])ccc6F)c6nc(c(-c7cc(S(=O)(=O)[O-])ccc7F)c7ccc4[nH]7)C=C6)C=C5)cc3)c2)c1
REMARK SMILES IDX 23 1 22 2 21 3 19 4 20 5 18 6 13 7 14 8 93 9 15 10 16 11
REMARK SMILES IDX 17 12 10 13 11 14 12 15 9 16 8 18 3 19 4 20 94 21 5 22 6 23
REMARK SMILES IDX 7 24 2 25 1 26 24 27 25 28 26 29 27 30 28 31 29 32 30 33
REMARK SMILES IDX 31 34 92 35 32 36 91 37 33 38 34 39 35 40 85 41 36 42 90 43
REMARK SMILES IDX 84 44 86 45 37 46 89 47 83 48 82 49 38 51 70 52 50 53 69 54
REMARK SMILES IDX 51 55 54 56 68 57 87 58 52 59 53 60 67 62 88 63 55 64 39 65
REMARK SMILES IDX 40 66 48 67 41 68 47 69 49 70 46 71 42 72 43 73 44 74 45 75
REMARK SMILES IDX 71 76 72 77 80 78 73 79 79 80 81 81 78 82 74 83 75 84 76 85
REMARK SMILES IDX 77 86 56 87 57 88 65 89 58 90 64 91 66 92 63 93 59 94 60 95
REMARK SMILES IDX 61 96 62 97
REMARK H PARENT 9 17 86 50 54 61
REMARK Flexibility Score: inf
ROOT
ATOM      1  C   UNL A   1      32.212  29.141  23.944  1.00  0.00     0.202 C 
ENDROOT
BRANCH   1   2
ATOM      2  C   UNL A   1      32.228  27.643  23.709  1.00  0.00     0.261 C 
BRANCH   2   3
ATOM      3  O   UNL A   1      33.380  26.986  24.272  1.00  0.00    -0.460 OA
BRANCH   3   4
ATOM      4  C   UNL A   1      33.416  26.734  25.594  1.00  0.00     0.338 C 
ATOM      5  O   UNL A   1      33.946  27.423  26.448  1.00  0.00    -0.246 OA
BRANCH   4   6
ATOM      6  C   UNL A   1      32.660  25.488  25.906  1.00  0.00     0.064 A 
ATOM      7  C   UNL A   1      32.789  23.074  26.031  1.00  0.00     0.088 A 
ATOM      8  C   UNL A   1      31.452  22.996  26.425  1.00  0.00     0.022 A 
ATOM      9  C   UNL A   1      33.423  24.308  25.868  1.00  0.00     0.038 A 
ATOM     10  C   UNL A   1      30.701  24.168  26.501  1.00  0.00     0.006 A 
ATOM     11  C   UNL A   1      31.269  25.414  26.176  1.00  0.00    -0.036 A 
ATOM     12  C   UNL A   1      30.327  26.588  26.060  1.00  0.00     0.045 C 
BRANCH   7  13
ATOM     13  S   UNL A   1      33.608  21.614  25.463  1.00  0.00     0.261 S 
ATOM     14  O   UNL A   1      34.295  21.049  26.613  1.00  0.00    -0.201 OA
ATOM     15  O   UNL A   1      34.346  21.921  24.262  1.00  0.00    -0.201 OA
BRANCH  13  16
ATOM     16  N   UNL A   1      32.381  20.510  25.059  1.00  0.00    -0.278 N 
ATOM     17  H   UNL A   1      31.447  20.795  25.192  1.00  0.00     0.180 HD
BRANCH  16  18
ATOM     18  C   UNL A   1      32.613  19.173  24.529  1.00  0.00     0.071 A 
ATOM     19  C   UNL A   1      33.634  16.960  24.710  1.00  0.00     0.121 A 
ATOM     20  C   UNL A   1      33.527  16.749  23.348  1.00  0.00     0.048 A 
ATOM     21  C   UNL A   1      33.198  18.156  25.280  1.00  0.00     0.074 A 
ATOM     22  C   UNL A   1      32.984  17.761  22.556  1.00  0.00     0.026 A 
ATOM     23  C   UNL A   1      32.540  18.960  23.140  1.00  0.00     0.065 A 
ATOM     24  Cl  UNL A   1      31.937  20.200  22.093  1.00  0.00    -0.082 Cl
BRANCH  19  25
ATOM     25  O   UNL A   1      34.088  15.992  25.559  1.00  0.00    -0.497 OA
ATOM     26  C   UNL A   1      35.468  15.700  25.366  1.00  0.00     0.278 C 
ENDBRANCH  19  25
ENDBRANCH  16  18
ENDBRANCH  13  16
ENDBRANCH   7  13
ENDBRANCH   4   6
ENDBRANCH   3   4
ENDBRANCH   2   3
ENDBRANCH   1   2
BRANCH   1  27
ATOM     27  O   UNL A   1      31.532  29.368  25.171  1.00  0.00    -0.374 OA
BRANCH  27  28
ATOM     28  C   UNL A   1      31.792  30.597  25.819  1.00  0.00     0.202 C 
BRANCH  28  29
ATOM     29  C   UNL A   1      32.653  30.416  27.072  1.00  0.00     0.261 C 
BRANCH  29  30
ATOM     30  O   UNL A   1      33.937  31.052  26.893  1.00  0.00    -0.460 OA
BRANCH  30  31
ATOM     31  C   UNL A   1      34.601  31.351  28.046  1.00  0.00     0.338 C 
ATOM     32  O   UNL A   1      34.443  32.375  28.689  1.00  0.00    -0.246 OA
BRANCH  31  33
ATOM     33  C   UNL A   1      35.644  30.322  28.324  1.00  0.00     0.060 A 
ATOM     34  C   UNL A   1      35.826  29.823  29.629  1.00  0.00     0.016 A 
ATOM     35  C   UNL A   1      36.601  30.067  27.347  1.00  0.00     0.016 A 
ATOM     36  C   UNL A   1      37.030  29.187  29.984  1.00  0.00     0.010 A 
ATOM     37  C   UNL A   1      37.816  29.544  27.730  1.00  0.00     0.010 A 
ATOM     38  C   UNL A   1      38.056  29.110  29.045  1.00  0.00    -0.014 A 
BRANCH  38  39
ATOM     39  C   UNL A   1      39.448  28.702  29.279  1.00  0.00     0.031 A 
ATOM     40  C   UNL A   1      39.861  27.314  28.937  1.00  0.00     0.074 A 
ATOM     41  C   UNL A   1      40.420  29.638  29.409  1.00  0.00     0.049 A 
ATOM     42  N   UNL A   1      41.046  26.841  29.114  1.00  0.00    -0.248 NA
ATOM     43  C   UNL A   1      38.949  26.309  28.395  1.00  0.00     0.031 C 
ATOM     44  C   UNL A   1      41.800  29.529  28.934  1.00  0.00     0.029 A 
ATOM     45  N   UNL A   1      40.385  30.897  30.018  1.00  0.00    -0.354 N 
ATOM     46  C   UNL A   1      41.158  25.686  28.376  1.00  0.00     0.074 A 
ATOM     47  C   UNL A   1      39.797  25.327  28.071  1.00  0.00     0.031 C 
ATOM     48  C   UNL A   1      42.538  30.512  29.467  1.00  0.00     0.029 A 
ATOM     49  C   UNL A   1      41.701  31.205  30.422  1.00  0.00     0.049 A 
ATOM     50  H   UNL A   1      39.589  31.463  30.142  1.00  0.00     0.167 HD
ATOM     51  C   UNL A   1      42.405  25.265  28.013  1.00  0.00     0.034 A 
ATOM     52  C   UNL A   1      42.016  31.482  31.716  1.00  0.00     0.034 A 
ATOM     53  C   UNL A   1      43.443  26.101  28.639  1.00  0.00     0.049 A 
ATOM     54  C   UNL A   1      42.992  30.469  32.262  1.00  0.00     0.074 A 
ATOM     55  C   UNL A   1      44.353  27.029  28.159  1.00  0.00     0.029 A 
ATOM     56  N   UNL A   1      43.479  26.205  30.026  1.00  0.00    -0.354 N 
ATOM     57  N   UNL A   1      43.248  29.348  31.645  1.00  0.00    -0.248 NA
ATOM     58  C   UNL A   1      43.780  30.610  33.480  1.00  0.00     0.031 C 
ATOM     59  C   UNL A   1      44.909  27.714  29.276  1.00  0.00     0.029 A 
ATOM     60  C   UNL A   1      44.364  27.180  30.433  1.00  0.00     0.049 A 
ATOM     61  H   UNL A   1      42.942  25.652  30.639  1.00  0.00     0.167 HD
ATOM     62  C   UNL A   1      44.188  28.632  32.320  1.00  0.00     0.074 A 
ATOM     63  C   UNL A   1      44.488  29.463  33.474  1.00  0.00     0.031 C 
ATOM     64  C   UNL A   1      44.604  27.416  31.854  1.00  0.00     0.034 A 
BRANCH  51  65
ATOM     65  C   UNL A   1      42.757  24.216  26.965  1.00  0.00     0.023 A 
ATOM     66  C   UNL A   1      42.165  22.935  27.070  1.00  0.00     0.031 A 
ATOM     67  C   UNL A   1      43.663  24.355  25.893  1.00  0.00     0.131 A 
ATOM     68  C   UNL A   1      42.490  21.885  26.187  1.00  0.00     0.055 A 
ATOM     69  C   UNL A   1      43.974  23.317  25.003  1.00  0.00     0.041 A 
ATOM     70  F   UNL A   1      44.305  25.492  25.627  1.00  0.00    -0.206 F 
ATOM     71  C   UNL A   1      43.392  22.072  25.147  1.00  0.00     0.022 A 
BRANCH  68  72
ATOM     72  S   UNL A   1      41.725  20.258  26.421  1.00  0.00     0.124 S 
ATOM     73  O   UNL A   1      42.295  19.488  25.320  1.00  0.00    -0.237 OA
ATOM     74  O   UNL A   1      42.165  19.893  27.762  1.00  0.00    -0.237 OA
ATOM     75  O   UNL A   1      40.294  20.536  26.299  1.00  0.00    -0.744 OA
ENDBRANCH  68  72
ENDBRANCH  51  65
BRANCH  52  76
ATOM     76  C   UNL A   1      40.915  32.210  32.409  1.00  0.00     0.023 A 
ATOM     77  C   UNL A   1      40.223  31.495  33.418  1.00  0.00     0.031 A 
ATOM     78  C   UNL A   1      40.932  33.612  32.495  1.00  0.00     0.131 A 
ATOM     79  C   UNL A   1      39.711  32.167  34.541  1.00  0.00     0.055 A 
ATOM     80  C   UNL A   1      40.418  34.276  33.617  1.00  0.00     0.041 A 
ATOM     81  F   UNL A   1      41.592  34.342  31.583  1.00  0.00    -0.206 F 
ATOM     82  C   UNL A   1      39.842  33.552  34.663  1.00  0.00     0.022 A 
BRANCH  79  83
ATOM     83  S   UNL A   1      39.095  31.211  35.966  1.00  0.00     0.124 S 
ATOM     84  O   UNL A   1      39.523  29.857  35.633  1.00  0.00    -0.237 OA
ATOM     85  O   UNL A   1      39.772  31.826  37.104  1.00  0.00    -0.237 OA
ATOM     86  O   UNL A   1      37.652  31.445  35.926  1.00  0.00    -0.744 OA
ENDBRANCH  79  83
ENDBRANCH  52  76
BRANCH  64  87
ATOM     87  C   UNL A   1      45.317  26.356  32.662  1.00  0.00     0.023 A 
ATOM     88  C   UNL A   1      44.640  25.413  33.444  1.00  0.00     0.031 A 
ATOM     89  C   UNL A   1      46.723  26.186  32.580  1.00  0.00     0.131 A 
ATOM     90  C   UNL A   1      45.336  24.418  34.152  1.00  0.00     0.055 A 
ATOM     91  C   UNL A   1      47.403  25.142  33.214  1.00  0.00     0.041 A 
ATOM     92  F   UNL A   1      47.501  27.009  31.866  1.00  0.00    -0.206 F 
ATOM     93  C   UNL A   1      46.711  24.257  34.020  1.00  0.00     0.022 A 
BRANCH  90  94
ATOM     94  S   UNL A   1      44.394  23.391  35.304  1.00  0.00     0.124 S 
ATOM     95  O   UNL A   1      45.284  22.247  35.483  1.00  0.00    -0.237 OA
ATOM     96  O   UNL A   1      44.252  24.268  36.463  1.00  0.00    -0.237 OA
ATOM     97  O   UNL A   1      43.156  23.107  34.583  1.00  0.00    -0.744 OA
ENDBRANCH  90  94
ENDBRANCH  64  87
ENDBRANCH  38  39
ENDBRANCH  31  33
ENDBRANCH  30  31
ENDBRANCH  29  30
ENDBRANCH  28  29
ENDBRANCH  27  28
ENDBRANCH   1  27
TORSDOF 21
ENDMDL
MODEL 3
REMARK VINA RESULT:     -11.3      1.846      2.645
REMARK SMILES COc1ccc(Cl)c(NS(=O)(=O)c2ccc(C)c(C(=O)OCCOCCOC(=O)c3ccc(-c4c5nc(c(-c6cc(S(=O)(=O)[O-])ccc6F)c6ccc([nH]6)c(-c6cc(S(=O)(=O)[O-])ccc6F)c6nc(c(-c7cc(S(=O)(=O)[O-])ccc7F)c7ccc4[nH]7)C=C6)C=C5)cc3)c2)c1
REMARK SMILES IDX 23 1 22 2 21 3 19 4 20 5 18 6 13 7 14 8 93 9 15 10 16 11
REMARK SMILES IDX 17 12 10 13 11 14 12 15 9 16 8 18 3 19 4 20 94 21 5 22 6 23
REMARK SMILES IDX 7 24 2 25 1 26 24 27 25 28 26 29 27 30 28 31 29 32 30 33
REMARK SMILES IDX 31 34 92 35 32 36 91 37 33 38 34 39 35 40 85 41 36 42 90 43
REMARK SMILES IDX 84 44 86 45 37 46 89 47 83 48 82 49 38 51 70 52 50 53 69 54
REMARK SMILES IDX 51 55 54 56 68 57 87 58 52 59 53 60 67 62 88 63 55 64 39 65
REMARK SMILES IDX 40 66 48 67 41 68 47 69 49 70 46 71 42 72 43 73 44 74 45 75
REMARK SMILES IDX 71 76 72 77 80 78 73 79 79 80 81 81 78 82 74 83 75 84 76 85
REMARK SMILES IDX 77 86 56 87 57 88 65 89 58 90 64 91 66 92 63 93 59 94 60 95
REMARK SMILES IDX 61 96 62 97
REMARK H PARENT 9 17 86 50 54 61
REMARK Flexibility Score: inf
ROOT
ATOM      1  C   UNL A   1      34.492  32.572  27.813  1.00  0.00     0.202 C 
ENDROOT
BRANCH   1   2
ATOM      2  C   UNL A   1      33.942  31.185  28.081  1.00  0.00     0.261 C 
BRANCH   2   3
ATOM      3  O   UNL A   1      33.694  30.425  26.882  1.00  0.00    -0.460 OA
BRANCH   3   4
ATOM      4  C   UNL A   1      34.252  29.206  26.746  1.00  0.00     0.338 C 
ATOM      5  O   UNL A   1      35.376  28.883  27.088  1.00  0.00    -0.246 OA
BRANCH   4   6
ATOM      6  C   UNL A   1      33.275  28.252  26.148  1.00  0.00     0.064 A 
ATOM      7  C   UNL A   1      32.734  26.948  24.182  1.00  0.00     0.088 A 
ATOM      8  C   UNL A   1      31.578  26.459  24.793  1.00  0.00     0.022 A 
ATOM      9  C   UNL A   1      33.632  27.758  24.882  1.00  0.00     0.038 A 
ATOM     10  C   UNL A   1      31.240  26.916  26.065  1.00  0.00     0.006 A 
ATOM     11  C   UNL A   1      32.039  27.866  26.728  1.00  0.00    -0.036 A 
ATOM     12  C   UNL A   1      31.477  28.476  27.990  1.00  0.00     0.045 C 
BRANCH   7  13
ATOM     13  S   UNL A   1      32.926  26.775  22.434  1.00  0.00     0.261 S 
ATOM     14  O   UNL A   1      33.860  27.806  22.014  1.00  0.00    -0.201 OA
ATOM     15  O   UNL A   1      31.623  26.691  21.820  1.00  0.00    -0.201 OA
BRANCH  13  16
ATOM     16  N   UNL A   1      33.719  25.293  22.189  1.00  0.00    -0.278 N 
ATOM     17  H   UNL A   1      34.027  25.084  21.277  1.00  0.00     0.180 HD
BRANCH  16  18
ATOM     18  C   UNL A   1      33.975  24.309  23.232  1.00  0.00     0.071 A 
ATOM     19  C   UNL A   1      35.528  22.951  24.543  1.00  0.00     0.121 A 
ATOM     20  C   UNL A   1      34.532  22.051  24.876  1.00  0.00     0.048 A 
ATOM     21  C   UNL A   1      35.251  24.046  23.724  1.00  0.00     0.074 A 
ATOM     22  C   UNL A   1      33.249  22.257  24.368  1.00  0.00     0.026 A 
ATOM     23  C   UNL A   1      32.977  23.368  23.550  1.00  0.00     0.065 A 
ATOM     24  Cl  UNL A   1      31.380  23.528  22.900  1.00  0.00    -0.082 Cl
BRANCH  19  25
ATOM     25  O   UNL A   1      36.789  22.858  25.057  1.00  0.00    -0.497 OA
ATOM     26  C   UNL A   1      37.060  21.574  25.609  1.00  0.00     0.278 C 
ENDBRANCH  19  25
ENDBRANCH  16  18
ENDBRANCH  13  16
ENDBRANCH   7  13
ENDBRANCH   4   6
ENDBRANCH   3   4
ENDBRANCH   2   3
ENDBRANCH   1   2
BRANCH   1  27
ATOM     27  O   UNL A   1      33.382  33.433  27.600  1.00  0.00    -0.374 OA
BRANCH  27  28
ATOM     28  C   UNL A   1      33.535  34.775  28.015  1.00  0.00     0.202 C 
BRANCH  28  29
ATOM     29  C   UNL A   1      32.860  35.043  29.363  1.00  0.00     0.261 C 
BRANCH  29  30
ATOM     30  O   UNL A   1      33.762  35.749  30.242  1.00  0.00    -0.460 OA
BRANCH  30  31
ATOM     31  C   UNL A   1      34.031  35.120  31.423  1.00  0.00     0.338 C 
ATOM     32  O   UNL A   1      33.707  35.541  32.520  1.00  0.00    -0.246 OA
BRANCH  31  33
ATOM     33  C   UNL A   1      34.898  33.929  31.189  1.00  0.00     0.060 A 
ATOM     34  C   UNL A   1      34.654  32.722  31.874  1.00  0.00     0.016 A 
ATOM     35  C   UNL A   1      36.094  34.105  30.503  1.00  0.00     0.016 A 
ATOM     36  C   UNL A   1      35.666  31.751  31.982  1.00  0.00     0.010 A 
ATOM     37  C   UNL A   1      37.114  33.201  30.706  1.00  0.00     0.010 A 
ATOM     38  C   UNL A   1      36.925  32.025  31.452  1.00  0.00    -0.014 A 
BRANCH  38  39
ATOM     39  C   UNL A   1      38.163  31.260  31.655  1.00  0.00     0.031 A 
ATOM     40  C   UNL A   1      38.374  30.008  30.878  1.00  0.00     0.074 A 
ATOM     41  C   UNL A   1      39.249  31.855  32.206  1.00  0.00     0.049 A 
ATOM     42  N   UNL A   1      39.409  29.249  30.986  1.00  0.00    -0.248 NA
ATOM     43  C   UNL A   1      37.403  29.474  29.926  1.00  0.00     0.031 C 
ATOM     44  C   UNL A   1      40.648  31.601  31.859  1.00  0.00     0.029 A 
ATOM     45  N   UNL A   1      39.336  32.813  33.222  1.00  0.00    -0.354 N 
ATOM     46  C   UNL A   1      39.437  28.411  29.895  1.00  0.00     0.074 A 
ATOM     47  C   UNL A   1      38.105  28.491  29.353  1.00  0.00     0.031 C 
ATOM     48  C   UNL A   1      41.448  32.157  32.777  1.00  0.00     0.029 A 
ATOM     49  C   UNL A   1      40.599  32.664  33.833  1.00  0.00     0.049 A 
ATOM     50  H   UNL A   1      38.644  33.470  33.464  1.00  0.00     0.167 HD
ATOM     51  C   UNL A   1      40.633  27.865  29.526  1.00  0.00     0.034 A 
ATOM     52  C   UNL A   1      40.734  32.416  35.164  1.00  0.00     0.034 A 
ATOM     53  C   UNL A   1      41.682  28.188  30.507  1.00  0.00     0.049 A 
ATOM     54  C   UNL A   1      41.408  31.087  35.399  1.00  0.00     0.074 A 
ATOM     55  C   UNL A   1      42.810  28.992  30.484  1.00  0.00     0.029 A 
ATOM     56  N   UNL A   1      41.501  27.815  31.835  1.00  0.00    -0.354 N 
ATOM     57  N   UNL A   1      41.561  30.208  34.448  1.00  0.00    -0.248 NA
ATOM     58  C   UNL A   1      41.992  30.634  36.656  1.00  0.00     0.031 C 
ATOM     59  C   UNL A   1      43.282  29.123  31.820  1.00  0.00     0.029 A 
ATOM     60  C   UNL A   1      42.463  28.373  32.649  1.00  0.00     0.049 A 
ATOM     61  H   UNL A   1      40.778  27.226  32.153  1.00  0.00     0.167 HD
ATOM     62  C   UNL A   1      42.232  29.115  34.906  1.00  0.00     0.074 A 
ATOM     63  C   UNL A   1      42.476  29.426  36.305  1.00  0.00     0.031 C 
ATOM     64  C   UNL A   1      42.498  28.062  34.076  1.00  0.00     0.034 A 
BRANCH  51  65
ATOM     65  C   UNL A   1      40.965  27.173  28.210  1.00  0.00     0.023 A 
ATOM     66  C   UNL A   1      41.111  25.765  28.207  1.00  0.00     0.031 A 
ATOM     67  C   UNL A   1      41.195  27.786  26.961  1.00  0.00     0.131 A 
ATOM     68  C   UNL A   1      41.488  25.052  27.051  1.00  0.00     0.055 A 
ATOM     69  C   UNL A   1      41.554  27.076  25.805  1.00  0.00     0.041 A 
ATOM     70  F   UNL A   1      41.090  29.100  26.766  1.00  0.00    -0.206 F 
ATOM     71  C   UNL A   1      41.707  25.704  25.844  1.00  0.00     0.022 A 
BRANCH  68  72
ATOM     72  S   UNL A   1      41.703  23.255  27.145  1.00  0.00     0.124 S 
ATOM     73  O   UNL A   1      40.468  22.764  26.540  1.00  0.00    -0.237 OA
ATOM     74  O   UNL A   1      42.927  23.044  26.380  1.00  0.00    -0.237 OA
ATOM     75  O   UNL A   1      41.825  23.003  28.581  1.00  0.00    -0.744 OA
ENDBRANCH  68  72
ENDBRANCH  51  65
BRANCH  52  76
ATOM     76  C   UNL A   1      39.679  33.102  35.964  1.00  0.00     0.023 A 
ATOM     77  C   UNL A   1      38.741  32.265  36.618  1.00  0.00     0.031 A 
ATOM     78  C   UNL A   1      39.913  34.374  36.510  1.00  0.00     0.131 A 
ATOM     79  C   UNL A   1      38.188  32.646  37.853  1.00  0.00     0.055 A 
ATOM     80  C   UNL A   1      39.358  34.749  37.741  1.00  0.00     0.041 A 
ATOM     81  F   UNL A   1      40.809  35.201  35.949  1.00  0.00    -0.206 F 
ATOM     82  C   UNL A   1      38.526  33.870  38.436  1.00  0.00     0.022 A 
BRANCH  79  83
ATOM     83  S   UNL A   1      37.224  31.443  38.824  1.00  0.00     0.124 S 
ATOM     84  O   UNL A   1      35.934  32.113  38.948  1.00  0.00    -0.237 OA
ATOM     85  O   UNL A   1      37.236  30.246  37.988  1.00  0.00    -0.237 OA
ATOM     86  O   UNL A   1      37.994  31.320  40.061  1.00  0.00    -0.744 OA
ENDBRANCH  79  83
ENDBRANCH  52  76
BRANCH  64  87
ATOM     87  C   UNL A   1      42.864  26.663  34.512  1.00  0.00     0.023 A 
ATOM     88  C   UNL A   1      44.120  26.096  34.273  1.00  0.00     0.031 A 
ATOM     89  C   UNL A   1      41.981  25.881  35.300  1.00  0.00     0.131 A 
ATOM     90  C   UNL A   1      44.437  24.805  34.728  1.00  0.00     0.055 A 
ATOM     91  C   UNL A   1      42.329  24.634  35.828  1.00  0.00     0.041 A 
ATOM     92  F   UNL A   1      40.746  26.296  35.615  1.00  0.00    -0.206 F 
ATOM     93  C   UNL A   1      43.561  24.079  35.529  1.00  0.00     0.022 A 
BRANCH  90  94
ATOM     94  S   UNL A   1      45.999  24.078  34.178  1.00  0.00     0.124 S 
ATOM     95  O   UNL A   1      46.772  24.054  35.418  1.00  0.00    -0.237 OA
ATOM     96  O   UNL A   1      45.578  22.774  33.672  1.00  0.00    -0.237 OA
ATOM     97  O   UNL A   1      46.479  25.014  33.166  1.00  0.00    -0.744 OA
ENDBRANCH  90  94
ENDBRANCH  64  87
ENDBRANCH  38  39
ENDBRANCH  31  33
ENDBRANCH  30  31
ENDBRANCH  29  30
ENDBRANCH  28  29
ENDBRANCH  27  28
ENDBRANCH   1  27
TORSDOF 21
ENDMDL
