MODEL 1
REMARK VINA RESULT:     -10.1      0.000      0.000
REMARK SMILES C=CCN(CC(=O)OCCOCCOC(=O)c1ccc(-c2c3nc(c(-c4cc(S(=O)(=O)[O-])ccc4F)c4ccc([nH]4)c(-c4cc(S(=O)(=O)[O-])ccc4F)c4nc(c(-c5cc(S(=O)(=O)[O-])ccc5F)c5ccc2[nH]5)C=C4)C=C3)cc1)c1nc2ccccc2s1
REMARK SMILES IDX 11 1 10 2 9 3 8 4 6 5 7 6 5 7 4 8 3 9 2 10 1 11 80 12 81 13
REMARK SMILES IDX 88 14 82 15 87 16 83 17 86 18 84 19 85 20 12 21 13 22 14 23
REMARK SMILES IDX 15 24 16 25 17 26 18 27 79 28 19 29 78 30 20 31 21 32 22 33
REMARK SMILES IDX 72 34 23 35 77 36 71 37 73 38 24 39 76 40 70 41 69 42 25 44
REMARK SMILES IDX 57 45 37 46 56 47 38 48 41 49 55 50 74 51 39 52 40 53 54 55
REMARK SMILES IDX 75 56 42 57 26 58 27 59 35 60 28 61 34 62 36 63 33 64 29 65
REMARK SMILES IDX 30 66 31 67 32 68 58 69 59 70 67 71 60 72 66 73 68 74 65 75
REMARK SMILES IDX 61 76 62 77 63 78 64 79 43 80 44 81 52 82 45 83 51 84 53 85
REMARK SMILES IDX 50 86 46 87 47 88 48 89 49 90
REMARK H PARENT 73 43 41 54
REMARK Flexibility Score: inf
ROOT
ATOM      1  O   UNL A   1      38.527  21.790  26.097  1.00  0.00    -0.374 OA
ENDROOT
BRANCH   1   2
ATOM      2  C   UNL A   1      37.999  22.937  25.444  1.00  0.00     0.202 C 
BRANCH   2   3
ATOM      3  C   UNL A   1      36.737  23.612  26.003  1.00  0.00     0.261 C 
BRANCH   3   4
ATOM      4  O   UNL A   1      35.819  24.138  25.014  1.00  0.00    -0.462 OA
BRANCH   4   5
ATOM      5  C   UNL A   1      34.499  24.032  25.341  1.00  0.00     0.325 C 
ATOM      6  O   UNL A   1      34.046  24.337  26.446  1.00  0.00    -0.250 OA
BRANCH   5   7
ATOM      7  C   UNL A   1      33.568  23.457  24.273  1.00  0.00     0.241 C 
BRANCH   7   8
ATOM      8  N   UNL A   1      32.582  22.430  24.644  1.00  0.00    -0.333 N 
BRANCH   8   9
ATOM      9  C   UNL A   1      31.207  22.868  24.860  1.00  0.00     0.146 C 
BRANCH   9  10
ATOM     10  C   UNL A   1      31.077  24.330  24.523  1.00  0.00    -0.014 C 
ATOM     11  C   UNL A   1      30.279  24.814  23.559  1.00  0.00     0.006 C 
ENDBRANCH   9  10
ENDBRANCH   8   9
BRANCH   8  12
ATOM     12  C   UNL A   1      32.982  21.132  24.822  1.00  0.00     0.187 A 
ATOM     13  N   UNL A   1      32.151  20.113  24.940  1.00  0.00    -0.220 NA
ATOM     14  S   UNL A   1      34.649  20.637  24.879  1.00  0.00    -0.097 S 
ATOM     15  C   UNL A   1      32.817  18.909  24.715  1.00  0.00     0.084 A 
ATOM     16  C   UNL A   1      34.203  19.003  24.644  1.00  0.00     0.056 A 
ATOM     17  C   UNL A   1      32.218  17.660  24.439  1.00  0.00     0.030 A 
ATOM     18  C   UNL A   1      35.022  17.899  24.361  1.00  0.00     0.021 A 
ATOM     19  C   UNL A   1      33.016  16.575  24.052  1.00  0.00     0.002 A 
ATOM     20  C   UNL A   1      34.402  16.692  24.029  1.00  0.00     0.002 A 
ENDBRANCH   8  12
ENDBRANCH   7   8
ENDBRANCH   5   7
ENDBRANCH   4   5
ENDBRANCH   3   4
ENDBRANCH   2   3
ENDBRANCH   1   2
BRANCH   1  21
ATOM     21  C   UNL A   1      38.574  20.571  25.375  1.00  0.00     0.202 C 
BRANCH  21  22
ATOM     22  C   UNL A   1      39.594  19.489  25.758  1.00  0.00     0.261 C 
BRANCH  22  23
ATOM     23  O   UNL A   1      40.931  19.703  25.351  1.00  0.00    -0.460 OA
BRANCH  23  24
ATOM     24  C   UNL A   1      41.806  19.765  26.372  1.00  0.00     0.338 C 
ATOM     25  O   UNL A   1      42.468  18.870  26.868  1.00  0.00    -0.246 OA
BRANCH  24  26
ATOM     26  C   UNL A   1      41.896  21.178  26.721  1.00  0.00     0.060 A 
ATOM     27  C   UNL A   1      41.925  22.103  25.679  1.00  0.00     0.016 A 
ATOM     28  C   UNL A   1      41.924  21.565  28.064  1.00  0.00     0.016 A 
ATOM     29  C   UNL A   1      42.044  23.448  25.985  1.00  0.00     0.010 A 
ATOM     30  C   UNL A   1      42.036  22.915  28.368  1.00  0.00     0.010 A 
ATOM     31  C   UNL A   1      42.136  23.850  27.325  1.00  0.00    -0.014 A 
BRANCH  31  32
ATOM     32  C   UNL A   1      42.502  25.244  27.622  1.00  0.00     0.031 A 
ATOM     33  C   UNL A   1      43.852  25.731  27.187  1.00  0.00     0.074 A 
ATOM     34  C   UNL A   1      41.610  26.048  28.223  1.00  0.00     0.049 A 
ATOM     35  N   UNL A   1      44.393  26.909  27.337  1.00  0.00    -0.248 NA
ATOM     36  C   UNL A   1      44.712  24.755  26.495  1.00  0.00     0.031 C 
ATOM     37  C   UNL A   1      40.266  25.646  28.640  1.00  0.00     0.029 A 
ATOM     38  N   UNL A   1      41.695  27.365  28.577  1.00  0.00    -0.354 N 
ATOM     39  C   UNL A   1      45.656  26.817  26.763  1.00  0.00     0.074 A 
ATOM     40  C   UNL A   1      45.819  25.456  26.306  1.00  0.00     0.031 C 
ATOM     41  C   UNL A   1      39.648  26.705  29.189  1.00  0.00     0.029 A 
ATOM     42  C   UNL A   1      40.567  27.838  29.203  1.00  0.00     0.049 A 
ATOM     43  H   UNL A   1      42.489  27.921  28.403  1.00  0.00     0.167 HD
ATOM     44  C   UNL A   1      46.582  27.794  26.622  1.00  0.00     0.034 A 
ATOM     45  C   UNL A   1      40.325  29.047  29.742  1.00  0.00     0.034 A 
ATOM     46  C   UNL A   1      46.381  29.138  27.102  1.00  0.00     0.049 A 
ATOM     47  C   UNL A   1      41.405  30.096  29.638  1.00  0.00     0.074 A 
ATOM     48  C   UNL A   1      47.235  30.221  27.016  1.00  0.00     0.029 A 
ATOM     49  N   UNL A   1      45.244  29.576  27.771  1.00  0.00    -0.354 N 
ATOM     50  N   UNL A   1      42.594  30.007  29.081  1.00  0.00    -0.248 NA
ATOM     51  C   UNL A   1      41.111  31.409  30.222  1.00  0.00     0.031 C 
ATOM     52  C   UNL A   1      46.651  31.289  27.704  1.00  0.00     0.029 A 
ATOM     53  C   UNL A   1      45.390  30.905  28.136  1.00  0.00     0.049 A 
ATOM     54  H   UNL A   1      44.450  29.025  27.958  1.00  0.00     0.167 HD
ATOM     55  C   UNL A   1      43.172  31.266  29.217  1.00  0.00     0.074 A 
ATOM     56  C   UNL A   1      42.195  32.095  29.894  1.00  0.00     0.031 C 
ATOM     57  C   UNL A   1      44.396  31.701  28.818  1.00  0.00     0.034 A 
BRANCH  44  58
ATOM     58  C   UNL A   1      47.898  27.423  25.981  1.00  0.00     0.023 A 
ATOM     59  C   UNL A   1      48.147  27.633  24.613  1.00  0.00     0.031 A 
ATOM     60  C   UNL A   1      48.912  26.820  26.748  1.00  0.00     0.131 A 
ATOM     61  C   UNL A   1      49.349  27.187  24.042  1.00  0.00     0.055 A 
ATOM     62  C   UNL A   1      50.139  26.454  26.190  1.00  0.00     0.041 A 
ATOM     63  F   UNL A   1      48.721  26.564  28.051  1.00  0.00    -0.206 F 
ATOM     64  C   UNL A   1      50.358  26.625  24.827  1.00  0.00     0.022 A 
BRANCH  61  65
ATOM     65  S   UNL A   1      49.521  27.223  22.237  1.00  0.00     0.124 S 
ATOM     66  O   UNL A   1      48.652  26.118  21.836  1.00  0.00    -0.237 OA
ATOM     67  O   UNL A   1      49.050  28.561  21.901  1.00  0.00    -0.237 OA
ATOM     68  O   UNL A   1      50.948  26.991  22.024  1.00  0.00    -0.744 OA
ENDBRANCH  61  65
ENDBRANCH  44  58
BRANCH  45  69
ATOM     69  C   UNL A   1      39.039  29.322  30.443  1.00  0.00     0.023 A 
ATOM     70  C   UNL A   1      38.054  30.134  29.862  1.00  0.00     0.031 A 
ATOM     71  C   UNL A   1      38.795  28.809  31.730  1.00  0.00     0.131 A 
ATOM     72  C   UNL A   1      36.897  30.457  30.588  1.00  0.00     0.055 A 
ATOM     73  C   UNL A   1      37.613  29.080  32.422  1.00  0.00     0.041 A 
ATOM     74  F   UNL A   1      39.702  28.025  32.334  1.00  0.00    -0.206 F 
ATOM     75  C   UNL A   1      36.662  29.922  31.857  1.00  0.00     0.022 A 
BRANCH  72  76
ATOM     76  S   UNL A   1      35.751  31.677  29.891  1.00  0.00     0.124 S 
ATOM     77  O   UNL A   1      35.137  30.919  28.805  1.00  0.00    -0.237 OA
ATOM     78  O   UNL A   1      34.892  31.971  31.033  1.00  0.00    -0.237 OA
ATOM     79  O   UNL A   1      36.628  32.768  29.473  1.00  0.00    -0.744 OA
ENDBRANCH  72  76
ENDBRANCH  45  69
BRANCH  57  80
ATOM     80  C   UNL A   1      44.712  33.157  29.061  1.00  0.00     0.023 A 
ATOM     81  C   UNL A   1      44.276  34.166  28.187  1.00  0.00     0.031 A 
ATOM     82  C   UNL A   1      45.466  33.534  30.187  1.00  0.00     0.131 A 
ATOM     83  C   UNL A   1      44.652  35.497  28.418  1.00  0.00     0.055 A 
ATOM     84  C   UNL A   1      45.772  34.868  30.452  1.00  0.00     0.041 A 
ATOM     85  F   UNL A   1      45.911  32.609  31.054  1.00  0.00    -0.206 F 
ATOM     86  C   UNL A   1      45.377  35.857  29.556  1.00  0.00     0.022 A 
BRANCH  83  87
ATOM     87  S   UNL A   1      44.271  36.737  27.151  1.00  0.00     0.124 S 
ATOM     88  O   UNL A   1      43.137  36.127  26.463  1.00  0.00    -0.237 OA
ATOM     89  O   UNL A   1      43.971  37.919  27.951  1.00  0.00    -0.237 OA
ATOM     90  O   UNL A   1      45.502  36.815  26.368  1.00  0.00    -0.744 OA
ENDBRANCH  83  87
ENDBRANCH  57  80
ENDBRANCH  31  32
ENDBRANCH  24  26
ENDBRANCH  23  24
ENDBRANCH  22  23
ENDBRANCH  21  22
ENDBRANCH   1  21
TORSDOF 21
ENDMDL
MODEL 2
REMARK VINA RESULT:      -9.8      2.031      8.370
REMARK SMILES C=CCN(CC(=O)OCCOCCOC(=O)c1ccc(-c2c3nc(c(-c4cc(S(=O)(=O)[O-])ccc4F)c4ccc([nH]4)c(-c4cc(S(=O)(=O)[O-])ccc4F)c4nc(c(-c5cc(S(=O)(=O)[O-])ccc5F)c5ccc2[nH]5)C=C4)C=C3)cc1)c1nc2ccccc2s1
REMARK SMILES IDX 11 1 10 2 9 3 8 4 6 5 7 6 5 7 4 8 3 9 2 10 1 11 80 12 81 13
REMARK SMILES IDX 88 14 82 15 87 16 83 17 86 18 84 19 85 20 12 21 13 22 14 23
REMARK SMILES IDX 15 24 16 25 17 26 18 27 79 28 19 29 78 30 20 31 21 32 22 33
REMARK SMILES IDX 72 34 23 35 77 36 71 37 73 38 24 39 76 40 70 41 69 42 25 44
REMARK SMILES IDX 57 45 37 46 56 47 38 48 41 49 55 50 74 51 39 52 40 53 54 55
REMARK SMILES IDX 75 56 42 57 26 58 27 59 35 60 28 61 34 62 36 63 33 64 29 65
REMARK SMILES IDX 30 66 31 67 32 68 58 69 59 70 67 71 60 72 66 73 68 74 65 75
REMARK SMILES IDX 61 76 62 77 63 78 64 79 43 80 44 81 52 82 45 83 51 84 53 85
REMARK SMILES IDX 50 86 46 87 47 88 48 89 49 90
REMARK H PARENT 73 43 41 54
REMARK Flexibility Score: inf
ROOT
ATOM      1  O   UNL A   1      39.062  22.126  26.125  1.00  0.00    -0.374 OA
ENDROOT
BRANCH   1   2
ATOM      2  C   UNL A   1      38.228  23.126  25.555  1.00  0.00     0.202 C 
BRANCH   2   3
ATOM      3  C   UNL A   1      36.875  23.447  26.210  1.00  0.00     0.261 C 
BRANCH   3   4
ATOM      4  O   UNL A   1      35.990  24.290  25.435  1.00  0.00    -0.462 OA
BRANCH   4   5
ATOM      5  C   UNL A   1      35.020  23.623  24.746  1.00  0.00     0.325 C 
ATOM      6  O   UNL A   1      34.915  23.653  23.518  1.00  0.00    -0.250 OA
BRANCH   5   7
ATOM      7  C   UNL A   1      33.996  22.846  25.574  1.00  0.00     0.241 C 
BRANCH   7   8
ATOM      8  N   UNL A   1      32.559  23.027  25.313  1.00  0.00    -0.333 N 
BRANCH   8   9
ATOM      9  C   UNL A   1      31.791  21.845  24.938  1.00  0.00     0.146 C 
BRANCH   9  10
ATOM     10  C   UNL A   1      32.465  21.140  23.792  1.00  0.00    -0.014 C 
ATOM     11  C   UNL A   1      32.153  21.330  22.500  1.00  0.00     0.006 C 
ENDBRANCH   9  10
ENDBRANCH   8   9
BRANCH   8  12
ATOM     12  C   UNL A   1      32.007  24.280  25.377  1.00  0.00     0.187 A 
ATOM     13  N   UNL A   1      32.016  25.035  26.459  1.00  0.00    -0.220 NA
ATOM     14  S   UNL A   1      31.251  25.070  24.025  1.00  0.00    -0.097 S 
ATOM     15  C   UNL A   1      31.752  26.365  26.132  1.00  0.00     0.084 A 
ATOM     16  C   UNL A   1      31.324  26.578  24.826  1.00  0.00     0.056 A 
ATOM     17  C   UNL A   1      31.990  27.492  26.949  1.00  0.00     0.030 A 
ATOM     18  C   UNL A   1      31.075  27.861  24.312  1.00  0.00     0.021 A 
ATOM     19  C   UNL A   1      31.848  28.780  26.417  1.00  0.00     0.002 A 
ATOM     20  C   UNL A   1      31.380  28.960  25.119  1.00  0.00     0.002 A 
ENDBRANCH   8  12
ENDBRANCH   7   8
ENDBRANCH   5   7
ENDBRANCH   4   5
ENDBRANCH   3   4
ENDBRANCH   2   3
ENDBRANCH   1   2
BRANCH   1  21
ATOM     21  C   UNL A   1      38.960  20.804  25.622  1.00  0.00     0.202 C 
BRANCH  21  22
ATOM     22  C   UNL A   1      39.957  19.729  26.078  1.00  0.00     0.261 C 
BRANCH  22  23
ATOM     23  O   UNL A   1      41.150  19.610  25.330  1.00  0.00    -0.460 OA
BRANCH  23  24
ATOM     24  C   UNL A   1      42.267  19.636  26.082  1.00  0.00     0.338 C 
ATOM     25  O   UNL A   1      42.996  18.714  26.400  1.00  0.00    -0.246 OA
BRANCH  24  26
ATOM     26  C   UNL A   1      42.508  21.045  26.369  1.00  0.00     0.060 A 
ATOM     27  C   UNL A   1      42.639  21.915  25.288  1.00  0.00     0.016 A 
ATOM     28  C   UNL A   1      42.576  21.486  27.694  1.00  0.00     0.016 A 
ATOM     29  C   UNL A   1      42.902  23.251  25.535  1.00  0.00     0.010 A 
ATOM     30  C   UNL A   1      42.832  22.828  27.939  1.00  0.00     0.010 A 
ATOM     31  C   UNL A   1      43.035  23.700  26.857  1.00  0.00    -0.014 A 
BRANCH  31  32
ATOM     32  C   UNL A   1      43.549  25.058  27.096  1.00  0.00     0.031 A 
ATOM     33  C   UNL A   1      42.606  26.085  27.648  1.00  0.00     0.074 A 
ATOM     34  C   UNL A   1      44.843  25.326  26.863  1.00  0.00     0.049 A 
ATOM     35  N   UNL A   1      42.827  27.338  27.937  1.00  0.00    -0.248 NA
ATOM     36  C   UNL A   1      41.224  25.641  27.902  1.00  0.00     0.031 C 
ATOM     37  C   UNL A   1      45.823  24.361  26.359  1.00  0.00     0.029 A 
ATOM     38  N   UNL A   1      45.558  26.479  27.027  1.00  0.00    -0.354 N 
ATOM     39  C   UNL A   1      41.615  27.835  28.404  1.00  0.00     0.074 A 
ATOM     40  C   UNL A   1      40.651  26.762  28.312  1.00  0.00     0.031 C 
ATOM     41  C   UNL A   1      47.018  24.967  26.263  1.00  0.00     0.029 A 
ATOM     42  C   UNL A   1      46.875  26.366  26.653  1.00  0.00     0.049 A 
ATOM     43  H   UNL A   1      45.166  27.312  27.378  1.00  0.00     0.167 HD
ATOM     44  C   UNL A   1      41.347  29.073  28.879  1.00  0.00     0.034 A 
ATOM     45  C   UNL A   1      47.842  27.301  26.614  1.00  0.00     0.034 A 
ATOM     46  C   UNL A   1      42.338  30.118  28.944  1.00  0.00     0.049 A 
ATOM     47  C   UNL A   1      47.496  28.695  27.077  1.00  0.00     0.074 A 
ATOM     48  C   UNL A   1      42.198  31.411  29.409  1.00  0.00     0.029 A 
ATOM     49  N   UNL A   1      43.655  29.986  28.516  1.00  0.00    -0.354 N 
ATOM     50  N   UNL A   1      46.350  29.156  27.530  1.00  0.00    -0.248 NA
ATOM     51  C   UNL A   1      48.571  29.692  27.036  1.00  0.00     0.031 C 
ATOM     52  C   UNL A   1      43.404  32.084  29.187  1.00  0.00     0.029 A 
ATOM     53  C   UNL A   1      44.328  31.186  28.673  1.00  0.00     0.049 A 
ATOM     54  H   UNL A   1      44.051  29.160  28.155  1.00  0.00     0.167 HD
ATOM     55  C   UNL A   1      46.580  30.488  27.862  1.00  0.00     0.074 A 
ATOM     56  C   UNL A   1      47.976  30.747  27.571  1.00  0.00     0.031 C 
ATOM     57  C   UNL A   1      45.721  31.413  28.365  1.00  0.00     0.034 A 
BRANCH  44  58
ATOM     58  C   UNL A   1      39.928  29.369  29.300  1.00  0.00     0.023 A 
ATOM     59  C   UNL A   1      39.545  29.410  30.652  1.00  0.00     0.031 A 
ATOM     60  C   UNL A   1      38.933  29.584  28.329  1.00  0.00     0.131 A 
ATOM     61  C   UNL A   1      38.196  29.596  30.994  1.00  0.00     0.055 A 
ATOM     62  C   UNL A   1      37.607  29.851  28.678  1.00  0.00     0.041 A 
ATOM     63  F   UNL A   1      39.230  29.524  27.022  1.00  0.00    -0.206 F 
ATOM     64  C   UNL A   1      37.230  29.846  30.018  1.00  0.00     0.022 A 
BRANCH  61  65
ATOM     65  S   UNL A   1      37.697  29.369  32.724  1.00  0.00     0.124 S 
ATOM     66  O   UNL A   1      38.753  30.089  33.432  1.00  0.00    -0.237 OA
ATOM     67  O   UNL A   1      36.375  29.982  32.754  1.00  0.00    -0.237 OA
ATOM     68  O   UNL A   1      37.717  27.919  32.899  1.00  0.00    -0.744 OA
ENDBRANCH  61  65
ENDBRANCH  44  58
BRANCH  45  69
ATOM     69  C   UNL A   1      49.200  26.967  26.100  1.00  0.00     0.023 A 
ATOM     70  C   UNL A   1      49.618  27.382  24.827  1.00  0.00     0.031 A 
ATOM     71  C   UNL A   1      50.088  26.185  26.861  1.00  0.00     0.131 A 
ATOM     72  C   UNL A   1      50.863  26.967  24.331  1.00  0.00     0.055 A 
ATOM     73  C   UNL A   1      51.352  25.829  26.389  1.00  0.00     0.041 A 
ATOM     74  F   UNL A   1      49.741  25.761  28.087  1.00  0.00    -0.206 F 
ATOM     75  C   UNL A   1      51.740  26.207  25.109  1.00  0.00     0.022 A 
BRANCH  72  76
ATOM     76  S   UNL A   1      51.276  27.344  22.605  1.00  0.00     0.124 S 
ATOM     77  O   UNL A   1      51.331  28.802  22.627  1.00  0.00    -0.237 OA
ATOM     78  O   UNL A   1      52.552  26.656  22.443  1.00  0.00    -0.237 OA
ATOM     79  O   UNL A   1      50.160  26.771  21.856  1.00  0.00    -0.744 OA
ENDBRANCH  72  76
ENDBRANCH  45  69
BRANCH  57  80
ATOM     80  C   UNL A   1      46.294  32.773  28.678  1.00  0.00     0.023 A 
ATOM     81  C   UNL A   1      46.389  33.779  27.703  1.00  0.00     0.031 A 
ATOM     82  C   UNL A   1      46.756  33.060  29.976  1.00  0.00     0.131 A 
ATOM     83  C   UNL A   1      46.991  35.005  28.024  1.00  0.00     0.055 A 
ATOM     84  C   UNL A   1      47.284  34.307  30.308  1.00  0.00     0.041 A 
ATOM     85  F   UNL A   1      46.691  32.133  30.946  1.00  0.00    -0.206 F 
ATOM     86  C   UNL A   1      47.418  35.283  29.325  1.00  0.00     0.022 A 
BRANCH  83  87
ATOM     87  S   UNL A   1      47.308  36.190  26.689  1.00  0.00     0.124 S 
ATOM     88  O   UNL A   1      47.267  35.333  25.508  1.00  0.00    -0.237 OA
ATOM     89  O   UNL A   1      46.201  37.129  26.835  1.00  0.00    -0.237 OA
ATOM     90  O   UNL A   1      48.626  36.731  27.018  1.00  0.00    -0.744 OA
ENDBRANCH  83  87
ENDBRANCH  57  80
ENDBRANCH  31  32
ENDBRANCH  24  26
ENDBRANCH  23  24
ENDBRANCH  22  23
ENDBRANCH  21  22
ENDBRANCH   1  21
TORSDOF 21
ENDMDL
MODEL 3
REMARK VINA RESULT:      -9.7      3.678      5.645
REMARK SMILES C=CCN(CC(=O)OCCOCCOC(=O)c1ccc(-c2c3nc(c(-c4cc(S(=O)(=O)[O-])ccc4F)c4ccc([nH]4)c(-c4cc(S(=O)(=O)[O-])ccc4F)c4nc(c(-c5cc(S(=O)(=O)[O-])ccc5F)c5ccc2[nH]5)C=C4)C=C3)cc1)c1nc2ccccc2s1
REMARK SMILES IDX 11 1 10 2 9 3 8 4 6 5 7 6 5 7 4 8 3 9 2 10 1 11 80 12 81 13
REMARK SMILES IDX 88 14 82 15 87 16 83 17 86 18 84 19 85 20 12 21 13 22 14 23
REMARK SMILES IDX 15 24 16 25 17 26 18 27 79 28 19 29 78 30 20 31 21 32 22 33
REMARK SMILES IDX 72 34 23 35 77 36 71 37 73 38 24 39 76 40 70 41 69 42 25 44
REMARK SMILES IDX 57 45 37 46 56 47 38 48 41 49 55 50 74 51 39 52 40 53 54 55
REMARK SMILES IDX 75 56 42 57 26 58 27 59 35 60 28 61 34 62 36 63 33 64 29 65
REMARK SMILES IDX 30 66 31 67 32 68 58 69 59 70 67 71 60 72 66 73 68 74 65 75
REMARK SMILES IDX 61 76 62 77 63 78 64 79 43 80 44 81 52 82 45 83 51 84 53 85
REMARK SMILES IDX 50 86 46 87 47 88 48 89 49 90
REMARK H PARENT 73 43 41 54
REMARK Flexibility Score: inf
ROOT
ATOM      1  O   UNL A   1      35.069  23.780  25.139  1.00  0.00    -0.374 OA
ENDROOT
BRANCH   1   2
ATOM      2  C   UNL A   1      34.909  23.275  23.820  1.00  0.00     0.202 C 
BRANCH   2   3
ATOM      3  C   UNL A   1      34.038  24.044  22.815  1.00  0.00     0.261 C 
BRANCH   3   4
ATOM      4  O   UNL A   1      32.909  24.753  23.380  1.00  0.00    -0.462 OA
BRANCH   4   5
ATOM      5  C   UNL A   1      33.047  26.109  23.428  1.00  0.00     0.325 C 
ATOM      6  O   UNL A   1      33.627  26.764  22.560  1.00  0.00    -0.250 OA
BRANCH   5   7
ATOM      7  C   UNL A   1      32.482  26.817  24.660  1.00  0.00     0.241 C 
BRANCH   7   8
ATOM      8  N   UNL A   1      32.288  28.275  24.636  1.00  0.00    -0.333 N 
BRANCH   8   9
ATOM      9  C   UNL A   1      33.390  29.106  25.108  1.00  0.00     0.146 C 
BRANCH   9  10
ATOM     10  C   UNL A   1      34.061  28.446  26.283  1.00  0.00    -0.014 C 
ATOM     11  C   UNL A   1      34.443  29.092  27.396  1.00  0.00     0.006 C 
ENDBRANCH   9  10
ENDBRANCH   8   9
BRANCH   8  12
ATOM     12  C   UNL A   1      31.088  28.797  24.230  1.00  0.00     0.187 A 
ATOM     13  N   UNL A   1      30.634  29.979  24.603  1.00  0.00    -0.220 NA
ATOM     14  S   UNL A   1      30.009  27.991  23.130  1.00  0.00    -0.097 S 
ATOM     15  C   UNL A   1      29.615  30.405  23.750  1.00  0.00     0.084 A 
ATOM     16  C   UNL A   1      29.148  29.442  22.861  1.00  0.00     0.056 A 
ATOM     17  C   UNL A   1      29.118  31.721  23.633  1.00  0.00     0.030 A 
ATOM     18  C   UNL A   1      28.171  29.721  21.892  1.00  0.00     0.021 A 
ATOM     19  C   UNL A   1      28.221  32.037  22.603  1.00  0.00     0.002 A 
ATOM     20  C   UNL A   1      27.744  31.044  21.755  1.00  0.00     0.002 A 
ENDBRANCH   8  12
ENDBRANCH   7   8
ENDBRANCH   5   7
ENDBRANCH   4   5
ENDBRANCH   3   4
ENDBRANCH   2   3
ENDBRANCH   1   2
BRANCH   1  21
ATOM     21  C   UNL A   1      36.386  23.978  25.625  1.00  0.00     0.202 C 
BRANCH  21  22
ATOM     22  C   UNL A   1      37.473  22.929  25.348  1.00  0.00     0.261 C 
BRANCH  22  23
ATOM     23  O   UNL A   1      38.178  22.433  26.469  1.00  0.00    -0.460 OA
BRANCH  23  24
ATOM     24  C   UNL A   1      39.505  22.655  26.418  1.00  0.00     0.338 C 
ATOM     25  O   UNL A   1      40.385  21.929  25.991  1.00  0.00    -0.246 OA
BRANCH  24  26
ATOM     26  C   UNL A   1      39.688  24.021  26.892  1.00  0.00     0.060 A 
ATOM     27  C   UNL A   1      40.212  24.953  25.997  1.00  0.00     0.016 A 
ATOM     28  C   UNL A   1      39.319  24.364  28.196  1.00  0.00     0.016 A 
ATOM     29  C   UNL A   1      40.428  26.249  26.434  1.00  0.00     0.010 A 
ATOM     30  C   UNL A   1      39.528  25.666  28.629  1.00  0.00     0.010 A 
ATOM     31  C   UNL A   1      40.121  26.595  27.758  1.00  0.00    -0.014 A 
BRANCH  31  32
ATOM     32  C   UNL A   1      40.575  27.897  28.273  1.00  0.00     0.031 A 
ATOM     33  C   UNL A   1      42.043  28.200  28.237  1.00  0.00     0.074 A 
ATOM     34  C   UNL A   1      39.671  28.788  28.709  1.00  0.00     0.049 A 
ATOM     35  N   UNL A   1      42.676  29.270  28.632  1.00  0.00    -0.248 NA
ATOM     36  C   UNL A   1      42.919  27.150  27.687  1.00  0.00     0.031 C 
ATOM     37  C   UNL A   1      38.223  28.569  28.737  1.00  0.00     0.029 A 
ATOM     38  N   UNL A   1      39.831  30.052  29.201  1.00  0.00    -0.354 N 
ATOM     39  C   UNL A   1      44.022  29.025  28.383  1.00  0.00     0.074 A 
ATOM     40  C   UNL A   1      44.119  27.685  27.849  1.00  0.00     0.031 C 
ATOM     41  C   UNL A   1      37.628  29.674  29.217  1.00  0.00     0.029 A 
ATOM     42  C   UNL A   1      38.652  30.651  29.570  1.00  0.00     0.049 A 
ATOM     43  H   UNL A   1      40.709  30.492  29.285  1.00  0.00     0.167 HD
ATOM     44  C   UNL A   1      45.072  29.856  28.574  1.00  0.00     0.034 A 
ATOM     45  C   UNL A   1      38.438  31.847  30.149  1.00  0.00     0.034 A 
ATOM     46  C   UNL A   1      44.930  31.183  29.119  1.00  0.00     0.049 A 
ATOM     47  C   UNL A   1      39.635  32.725  30.421  1.00  0.00     0.074 A 
ATOM     48  C   UNL A   1      45.911  32.128  29.355  1.00  0.00     0.029 A 
ATOM     49  N   UNL A   1      43.725  31.747  29.525  1.00  0.00    -0.354 N 
ATOM     50  N   UNL A   1      40.905  32.492  30.170  1.00  0.00    -0.248 NA
ATOM     51  C   UNL A   1      39.372  34.029  31.039  1.00  0.00     0.031 C 
ATOM     52  C   UNL A   1      45.312  33.227  29.978  1.00  0.00     0.029 A 
ATOM     53  C   UNL A   1      43.943  33.012  30.043  1.00  0.00     0.049 A 
ATOM     54  H   UNL A   1      42.845  31.311  29.453  1.00  0.00     0.167 HD
ATOM     55  C   UNL A   1      41.588  33.637  30.569  1.00  0.00     0.074 A 
ATOM     56  C   UNL A   1      40.585  34.562  31.060  1.00  0.00     0.031 C 
ATOM     57  C   UNL A   1      42.919  33.907  30.532  1.00  0.00     0.034 A 
BRANCH  44  58
ATOM     58  C   UNL A   1      46.449  29.331  28.247  1.00  0.00     0.023 A 
ATOM     59  C   UNL A   1      47.224  28.634  29.190  1.00  0.00     0.031 A 
ATOM     60  C   UNL A   1      47.007  29.555  26.975  1.00  0.00     0.131 A 
ATOM     61  C   UNL A   1      48.535  28.246  28.871  1.00  0.00     0.055 A 
ATOM     62  C   UNL A   1      48.280  29.093  26.637  1.00  0.00     0.041 A 
ATOM     63  F   UNL A   1      46.329  30.243  26.044  1.00  0.00    -0.206 F 
ATOM     64  C   UNL A   1      49.058  28.445  27.592  1.00  0.00     0.022 A 
BRANCH  61  65
ATOM     65  S   UNL A   1      49.598  27.601  30.192  1.00  0.00     0.124 S 
ATOM     66  O   UNL A   1      50.649  26.935  29.426  1.00  0.00    -0.237 OA
ATOM     67  O   UNL A   1      49.994  28.813  30.899  1.00  0.00    -0.237 OA
ATOM     68  O   UNL A   1      48.716  26.704  30.935  1.00  0.00    -0.744 OA
ENDBRANCH  61  65
ENDBRANCH  44  58
BRANCH  45  69
ATOM     69  C   UNL A   1      37.061  32.270  30.531  1.00  0.00     0.023 A 
ATOM     70  C   UNL A   1      36.182  32.822  29.588  1.00  0.00     0.031 A 
ATOM     71  C   UNL A   1      36.618  32.169  31.863  1.00  0.00     0.131 A 
ATOM     72  C   UNL A   1      34.929  33.303  29.999  1.00  0.00     0.055 A 
ATOM     73  C   UNL A   1      35.346  32.589  32.254  1.00  0.00     0.041 A 
ATOM     74  F   UNL A   1      37.417  31.647  32.808  1.00  0.00    -0.206 F 
ATOM     75  C   UNL A   1      34.498  33.176  31.322  1.00  0.00     0.022 A 
BRANCH  72  76
ATOM     76  S   UNL A   1      33.910  34.201  28.796  1.00  0.00     0.124 S 
ATOM     77  O   UNL A   1      32.776  34.610  29.617  1.00  0.00    -0.237 OA
ATOM     78  O   UNL A   1      34.813  35.265  28.371  1.00  0.00    -0.237 OA
ATOM     79  O   UNL A   1      33.615  33.191  27.781  1.00  0.00    -0.744 OA
ENDBRANCH  72  76
ENDBRANCH  45  69
BRANCH  57  80
ATOM     80  C   UNL A   1      43.348  35.279  30.988  1.00  0.00     0.023 A 
ATOM     81  C   UNL A   1      43.466  36.355  30.092  1.00  0.00     0.031 A 
ATOM     82  C   UNL A   1      43.647  35.509  32.343  1.00  0.00     0.131 A 
ATOM     83  C   UNL A   1      43.933  37.595  30.551  1.00  0.00     0.055 A 
ATOM     84  C   UNL A   1      44.038  36.764  32.806  1.00  0.00     0.041 A 
ATOM     85  F   UNL A   1      43.554  34.515  33.242  1.00  0.00    -0.206 F 
ATOM     86  C   UNL A   1      44.198  37.813  31.905  1.00  0.00     0.022 A 
BRANCH  83  87
ATOM     87  S   UNL A   1      44.294  38.889  29.333  1.00  0.00     0.124 S 
ATOM     88  O   UNL A   1      44.132  38.171  28.073  1.00  0.00    -0.237 OA
ATOM     89  O   UNL A   1      43.278  39.892  29.632  1.00  0.00    -0.237 OA
ATOM     90  O   UNL A   1      45.665  39.283  29.650  1.00  0.00    -0.744 OA
ENDBRANCH  83  87
ENDBRANCH  57  80
ENDBRANCH  31  32
ENDBRANCH  24  26
ENDBRANCH  23  24
ENDBRANCH  22  23
ENDBRANCH  21  22
ENDBRANCH   1  21
TORSDOF 21
ENDMDL
