MODEL 1
REMARK VINA RESULT:     -11.2      0.000      0.000
REMARK SMILES C[C@@H](C(=O)OCCOCCOC(=O)c1ccc(-c2c3nc(c(-c4cc(S(=O)(=O)[O-])ccc4F)c4ccc([nH]4)c(-c4cc(S(=O)(=O)[O-])ccc4F)c4nc(c(-c5cc(S(=O)(=O)[O-])ccc5F)c5ccc2[nH]5)C=C4)C=C3)cc1)c1ccc(OC2CCCC2)cc1F
REMARK SMILES IDX 8 1 7 2 6 3 5 4 3 5 4 6 2 7 1 8 77 9 78 10 88 11 79 12 87 13
REMARK SMILES IDX 89 14 80 15 81 16 82 17 83 18 86 19 84 20 85 21 9 22 10 23
REMARK SMILES IDX 11 24 12 25 13 26 14 27 15 28 76 29 16 30 75 31 17 32 18 33
REMARK SMILES IDX 19 34 69 35 20 36 74 37 68 38 70 39 21 40 73 41 67 42 66 43
REMARK SMILES IDX 22 45 54 46 34 47 53 48 35 49 38 50 52 51 71 52 36 53 37 54
REMARK SMILES IDX 51 56 72 57 39 58 23 59 24 60 32 61 25 62 31 63 33 64 30 65
REMARK SMILES IDX 26 66 27 67 28 68 29 69 55 70 56 71 64 72 57 73 63 74 65 75
REMARK SMILES IDX 62 76 58 77 59 78 60 79 61 80 40 81 41 82 49 83 42 84 48 85
REMARK SMILES IDX 50 86 47 87 43 88 44 89 45 90 46 91
REMARK H PARENT 70 44 38 55
REMARK Flexibility Score: inf
ROOT
ATOM      1  O   UNL A   1      34.408  20.827  24.406  1.00  0.00    -0.374 OA
ENDROOT
BRANCH   1   2
ATOM      2  C   UNL A   1      33.184  20.396  25.003  1.00  0.00     0.202 C 
BRANCH   2   3
ATOM      3  C   UNL A   1      32.441  21.438  25.843  1.00  0.00     0.261 C 
BRANCH   3   4
ATOM      4  O   UNL A   1      33.075  22.724  25.747  1.00  0.00    -0.463 OA
BRANCH   4   5
ATOM      5  C   UNL A   1      32.554  23.576  24.827  1.00  0.00     0.313 C 
ATOM      6  O   UNL A   1      31.407  23.506  24.394  1.00  0.00    -0.252 OA
BRANCH   5   7
ATOM      7  C   UNL A   1      33.541  24.673  24.393  1.00  0.00     0.129 C 
ATOM      8  C   UNL A   1      34.845  24.687  25.202  1.00  0.00     0.025 C 
BRANCH   7   9
ATOM      9  C   UNL A   1      32.828  26.019  24.265  1.00  0.00     0.002 A 
ATOM     10  C   UNL A   1      31.998  26.440  25.315  1.00  0.00     0.011 A 
ATOM     11  C   UNL A   1      32.971  26.895  23.184  1.00  0.00     0.130 A 
ATOM     12  C   UNL A   1      31.365  27.687  25.283  1.00  0.00     0.047 A 
ATOM     13  C   UNL A   1      32.319  28.133  23.138  1.00  0.00     0.086 A 
ATOM     14  F   UNL A   1      33.762  26.583  22.149  1.00  0.00    -0.207 F 
ATOM     15  C   UNL A   1      31.523  28.550  24.197  1.00  0.00     0.122 A 
BRANCH  15  16
ATOM     16  O   UNL A   1      30.853  29.726  24.326  1.00  0.00    -0.490 OA
BRANCH  16  17
ATOM     17  C   UNL A   1      29.782  30.129  23.487  1.00  0.00     0.173 C 
ATOM     18  C   UNL A   1      28.736  29.078  23.134  1.00  0.00     0.045 C 
ATOM     19  C   UNL A   1      29.018  31.373  23.930  1.00  0.00     0.045 C 
ATOM     20  C   UNL A   1      27.591  29.903  22.569  1.00  0.00     0.004 C 
ATOM     21  C   UNL A   1      27.631  31.242  23.305  1.00  0.00     0.004 C 
ENDBRANCH  16  17
ENDBRANCH  15  16
ENDBRANCH   7   9
ENDBRANCH   5   7
ENDBRANCH   4   5
ENDBRANCH   3   4
ENDBRANCH   2   3
ENDBRANCH   1   2
BRANCH   1  22
ATOM     22  C   UNL A   1      35.621  20.293  24.940  1.00  0.00     0.202 C 
BRANCH  22  23
ATOM     23  C   UNL A   1      36.531  21.264  25.704  1.00  0.00     0.261 C 
BRANCH  23  24
ATOM     24  O   UNL A   1      37.808  21.446  25.066  1.00  0.00    -0.460 OA
BRANCH  24  25
ATOM     25  C   UNL A   1      38.877  21.139  25.839  1.00  0.00     0.338 C 
ATOM     26  O   UNL A   1      39.434  20.051  25.920  1.00  0.00    -0.246 OA
BRANCH  25  27
ATOM     27  C   UNL A   1      39.435  22.358  26.457  1.00  0.00     0.060 A 
ATOM     28  C   UNL A   1      38.896  23.587  26.059  1.00  0.00     0.016 A 
ATOM     29  C   UNL A   1      40.510  22.313  27.348  1.00  0.00     0.016 A 
ATOM     30  C   UNL A   1      39.461  24.780  26.508  1.00  0.00     0.010 A 
ATOM     31  C   UNL A   1      41.083  23.513  27.791  1.00  0.00     0.010 A 
ATOM     32  C   UNL A   1      40.584  24.750  27.345  1.00  0.00    -0.014 A 
BRANCH  32  33
ATOM     33  C   UNL A   1      41.320  26.012  27.619  1.00  0.00     0.031 A 
ATOM     34  C   UNL A   1      40.637  27.094  28.412  1.00  0.00     0.074 A 
ATOM     35  C   UNL A   1      42.591  26.173  27.209  1.00  0.00     0.049 A 
ATOM     36  N   UNL A   1      41.076  28.279  28.750  1.00  0.00    -0.248 NA
ATOM     37  C   UNL A   1      39.277  26.797  28.883  1.00  0.00     0.031 C 
ATOM     38  C   UNL A   1      43.373  25.177  26.478  1.00  0.00     0.029 A 
ATOM     39  N   UNL A   1      43.448  27.236  27.350  1.00  0.00    -0.354 N 
ATOM     40  C   UNL A   1      40.046  28.871  29.477  1.00  0.00     0.074 A 
ATOM     41  C   UNL A   1      38.948  27.927  29.490  1.00  0.00     0.031 C 
ATOM     42  C   UNL A   1      44.593  25.682  26.224  1.00  0.00     0.029 A 
ATOM     43  C   UNL A   1      44.667  27.048  26.742  1.00  0.00     0.049 A 
ATOM     44  H   UNL A   1      43.212  28.057  27.840  1.00  0.00     0.167 HD
ATOM     45  C   UNL A   1      40.024  30.082  30.086  1.00  0.00     0.034 A 
ATOM     46  C   UNL A   1      45.712  27.889  26.599  1.00  0.00     0.034 A 
ATOM     47  C   UNL A   1      41.120  31.019  30.051  1.00  0.00     0.049 A 
ATOM     48  C   UNL A   1      45.630  29.269  27.206  1.00  0.00     0.074 A 
ATOM     49  C   UNL A   1      41.205  32.271  30.635  1.00  0.00     0.029 A 
ATOM     50  N   UNL A   1      42.322  30.813  29.383  1.00  0.00    -0.354 N 
ATOM     51  N   UNL A   1      44.652  29.815  27.893  1.00  0.00    -0.248 NA
ATOM     52  C   UNL A   1      46.798  30.143  27.026  1.00  0.00     0.031 C 
ATOM     53  C   UNL A   1      42.425  32.849  30.263  1.00  0.00     0.029 A 
ATOM     54  C   UNL A   1      43.138  31.927  29.513  1.00  0.00     0.049 A 
ATOM     55  H   UNL A   1      42.559  29.995  28.890  1.00  0.00     0.167 HD
ATOM     56  C   UNL A   1      45.102  31.084  28.251  1.00  0.00     0.074 A 
ATOM     57  C   UNL A   1      46.441  31.216  27.716  1.00  0.00     0.031 C 
ATOM     58  C   UNL A   1      44.467  32.051  28.963  1.00  0.00     0.034 A 
BRANCH  45  59
ATOM     59  C   UNL A   1      38.750  30.476  30.794  1.00  0.00     0.023 A 
ATOM     60  C   UNL A   1      37.676  31.075  30.109  1.00  0.00     0.031 A 
ATOM     61  C   UNL A   1      38.619  30.283  32.181  1.00  0.00     0.131 A 
ATOM     62  C   UNL A   1      36.552  31.521  30.823  1.00  0.00     0.055 A 
ATOM     63  C   UNL A   1      37.466  30.657  32.872  1.00  0.00     0.041 A 
ATOM     64  F   UNL A   1      39.619  29.738  32.892  1.00  0.00    -0.206 F 
ATOM     65  C   UNL A   1      36.430  31.294  32.196  1.00  0.00     0.022 A 
BRANCH  62  66
ATOM     66  S   UNL A   1      35.319  32.529  29.956  1.00  0.00     0.124 S 
ATOM     67  O   UNL A   1      36.118  33.678  29.537  1.00  0.00    -0.237 OA
ATOM     68  O   UNL A   1      34.873  31.637  28.893  1.00  0.00    -0.237 OA
ATOM     69  O   UNL A   1      34.324  32.816  30.989  1.00  0.00    -0.744 OA
ENDBRANCH  62  66
ENDBRANCH  45  59
BRANCH  46  70
ATOM     70  C   UNL A   1      46.909  27.477  25.809  1.00  0.00     0.023 A 
ATOM     71  C   UNL A   1      47.065  27.859  24.468  1.00  0.00     0.031 A 
ATOM     72  C   UNL A   1      47.888  26.641  26.375  1.00  0.00     0.131 A 
ATOM     73  C   UNL A   1      48.152  27.371  23.725  1.00  0.00     0.055 A 
ATOM     74  C   UNL A   1      48.994  26.201  25.648  1.00  0.00     0.041 A 
ATOM     75  F   UNL A   1      47.785  26.243  27.654  1.00  0.00    -0.206 F 
ATOM     76  C   UNL A   1      49.124  26.555  24.309  1.00  0.00     0.022 A 
BRANCH  73  77
ATOM     77  S   UNL A   1      48.234  27.749  21.952  1.00  0.00     0.124 S 
ATOM     78  O   UNL A   1      48.419  26.423  21.374  1.00  0.00    -0.237 OA
ATOM     79  O   UNL A   1      46.939  28.378  21.717  1.00  0.00    -0.237 OA
ATOM     80  O   UNL A   1      49.387  28.642  21.848  1.00  0.00    -0.744 OA
ENDBRANCH  73  77
ENDBRANCH  46  70
BRANCH  58  81
ATOM     81  C   UNL A   1      45.240  33.320  29.241  1.00  0.00     0.023 A 
ATOM     82  C   UNL A   1      45.084  34.472  28.452  1.00  0.00     0.031 A 
ATOM     83  C   UNL A   1      46.152  33.369  30.310  1.00  0.00     0.131 A 
ATOM     84  C   UNL A   1      45.868  35.607  28.709  1.00  0.00     0.055 A 
ATOM     85  C   UNL A   1      46.886  34.520  30.598  1.00  0.00     0.041 A 
ATOM     86  F   UNL A   1      46.344  32.297  31.096  1.00  0.00    -0.206 F 
ATOM     87  C   UNL A   1      46.756  35.645  29.787  1.00  0.00     0.022 A 
BRANCH  84  88
ATOM     88  S   UNL A   1      45.778  37.009  27.561  1.00  0.00     0.124 S 
ATOM     89  O   UNL A   1      46.171  38.126  28.414  1.00  0.00    -0.237 OA
ATOM     90  O   UNL A   1      46.736  36.629  26.529  1.00  0.00    -0.237 OA
ATOM     91  O   UNL A   1      44.380  37.015  27.135  1.00  0.00    -0.744 OA
ENDBRANCH  84  88
ENDBRANCH  58  81
ENDBRANCH  32  33
ENDBRANCH  25  27
ENDBRANCH  24  25
ENDBRANCH  23  24
ENDBRANCH  22  23
ENDBRANCH   1  22
TORSDOF 20
ENDMDL
MODEL 2
REMARK VINA RESULT:     -10.6      1.487      2.034
REMARK SMILES C[C@@H](C(=O)OCCOCCOC(=O)c1ccc(-c2c3nc(c(-c4cc(S(=O)(=O)[O-])ccc4F)c4ccc([nH]4)c(-c4cc(S(=O)(=O)[O-])ccc4F)c4nc(c(-c5cc(S(=O)(=O)[O-])ccc5F)c5ccc2[nH]5)C=C4)C=C3)cc1)c1ccc(OC2CCCC2)cc1F
REMARK SMILES IDX 8 1 7 2 6 3 5 4 3 5 4 6 2 7 1 8 77 9 78 10 88 11 79 12 87 13
REMARK SMILES IDX 89 14 80 15 81 16 82 17 83 18 86 19 84 20 85 21 9 22 10 23
REMARK SMILES IDX 11 24 12 25 13 26 14 27 15 28 76 29 16 30 75 31 17 32 18 33
REMARK SMILES IDX 19 34 69 35 20 36 74 37 68 38 70 39 21 40 73 41 67 42 66 43
REMARK SMILES IDX 22 45 54 46 34 47 53 48 35 49 38 50 52 51 71 52 36 53 37 54
REMARK SMILES IDX 51 56 72 57 39 58 23 59 24 60 32 61 25 62 31 63 33 64 30 65
REMARK SMILES IDX 26 66 27 67 28 68 29 69 55 70 56 71 64 72 57 73 63 74 65 75
REMARK SMILES IDX 62 76 58 77 59 78 60 79 61 80 40 81 41 82 49 83 42 84 48 85
REMARK SMILES IDX 50 86 47 87 43 88 44 89 45 90 46 91
REMARK H PARENT 70 44 38 55
REMARK Flexibility Score: inf
ROOT
ATOM      1  O   UNL A   1      37.794  21.337  25.094  1.00  0.00    -0.374 OA
ENDROOT
BRANCH   1   2
ATOM      2  C   UNL A   1      36.411  21.609  24.864  1.00  0.00     0.202 C 
BRANCH   2   3
ATOM      3  C   UNL A   1      35.942  23.030  25.187  1.00  0.00     0.261 C 
BRANCH   3   4
ATOM      4  O   UNL A   1      34.519  23.067  25.389  1.00  0.00    -0.463 OA
BRANCH   4   5
ATOM      5  C   UNL A   1      33.880  24.166  24.910  1.00  0.00     0.313 C 
ATOM      6  O   UNL A   1      34.032  24.612  23.776  1.00  0.00    -0.252 OA
BRANCH   5   7
ATOM      7  C   UNL A   1      32.910  24.791  25.927  1.00  0.00     0.129 C 
ATOM      8  C   UNL A   1      31.772  23.854  26.353  1.00  0.00     0.025 C 
BRANCH   7   9
ATOM      9  C   UNL A   1      32.482  26.187  25.476  1.00  0.00     0.002 A 
ATOM     10  C   UNL A   1      31.240  26.335  24.839  1.00  0.00     0.011 A 
ATOM     11  C   UNL A   1      33.226  27.353  25.685  1.00  0.00     0.130 A 
ATOM     12  C   UNL A   1      30.767  27.595  24.457  1.00  0.00     0.047 A 
ATOM     13  C   UNL A   1      32.766  28.613  25.280  1.00  0.00     0.086 A 
ATOM     14  F   UNL A   1      34.412  27.308  26.306  1.00  0.00    -0.207 F 
ATOM     15  C   UNL A   1      31.522  28.747  24.678  1.00  0.00     0.122 A 
BRANCH  15  16
ATOM     16  O   UNL A   1      30.917  29.891  24.260  1.00  0.00    -0.490 OA
BRANCH  16  17
ATOM     17  C   UNL A   1      29.709  29.928  23.516  1.00  0.00     0.173 C 
ATOM     18  C   UNL A   1      28.761  31.092  23.776  1.00  0.00     0.045 C 
ATOM     19  C   UNL A   1      29.856  29.815  22.001  1.00  0.00     0.045 C 
ATOM     20  C   UNL A   1      27.802  31.030  22.598  1.00  0.00     0.004 C 
ATOM     21  C   UNL A   1      28.611  30.485  21.422  1.00  0.00     0.004 C 
ENDBRANCH  16  17
ENDBRANCH  15  16
ENDBRANCH   7   9
ENDBRANCH   5   7
ENDBRANCH   4   5
ENDBRANCH   3   4
ENDBRANCH   2   3
ENDBRANCH   1   2
BRANCH   1  22
ATOM     22  C   UNL A   1      38.210  19.971  25.052  1.00  0.00     0.202 C 
BRANCH  22  23
ATOM     23  C   UNL A   1      39.302  19.546  26.043  1.00  0.00     0.261 C 
BRANCH  23  24
ATOM     24  O   UNL A   1      40.568  19.302  25.403  1.00  0.00    -0.460 OA
BRANCH  24  25
ATOM     25  C   UNL A   1      41.649  19.470  26.202  1.00  0.00     0.338 C 
ATOM     26  O   UNL A   1      42.510  18.636  26.454  1.00  0.00    -0.246 OA
BRANCH  25  27
ATOM     27  C   UNL A   1      41.781  20.884  26.602  1.00  0.00     0.060 A 
ATOM     28  C   UNL A   1      41.730  21.848  25.588  1.00  0.00     0.016 A 
ATOM     29  C   UNL A   1      42.026  21.262  27.924  1.00  0.00     0.016 A 
ATOM     30  C   UNL A   1      41.974  23.189  25.882  1.00  0.00     0.010 A 
ATOM     31  C   UNL A   1      42.279  22.609  28.216  1.00  0.00     0.010 A 
ATOM     32  C   UNL A   1      42.290  23.572  27.191  1.00  0.00    -0.014 A 
BRANCH  32  33
ATOM     33  C   UNL A   1      42.782  24.951  27.446  1.00  0.00     0.031 A 
ATOM     34  C   UNL A   1      41.852  25.950  28.081  1.00  0.00     0.074 A 
ATOM     35  C   UNL A   1      44.052  25.295  27.163  1.00  0.00     0.049 A 
ATOM     36  N   UNL A   1      42.057  27.207  28.375  1.00  0.00    -0.248 NA
ATOM     37  C   UNL A   1      40.509  25.461  28.427  1.00  0.00     0.031 C 
ATOM     38  C   UNL A   1      45.060  24.401  26.594  1.00  0.00     0.029 A 
ATOM     39  N   UNL A   1      44.709  26.490  27.314  1.00  0.00    -0.354 N 
ATOM     40  C   UNL A   1      40.871  27.663  28.943  1.00  0.00     0.074 A 
ATOM     41  C   UNL A   1      39.939  26.554  28.910  1.00  0.00     0.031 C 
ATOM     42  C   UNL A   1      46.206  25.084  26.433  1.00  0.00     0.029 A 
ATOM     43  C   UNL A   1      46.005  26.470  26.854  1.00  0.00     0.049 A 
ATOM     44  H   UNL A   1      44.292  27.287  27.714  1.00  0.00     0.167 HD
ATOM     45  C   UNL A   1      40.589  28.886  29.455  1.00  0.00     0.034 A 
ATOM     46  C   UNL A   1      46.915  27.461  26.759  1.00  0.00     0.034 A 
ATOM     47  C   UNL A   1      41.521  29.986  29.467  1.00  0.00     0.049 A 
ATOM     48  C   UNL A   1      46.549  28.842  27.251  1.00  0.00     0.074 A 
ATOM     49  C   UNL A   1      41.341  31.266  29.962  1.00  0.00     0.029 A 
ATOM     50  N   UNL A   1      42.810  29.943  28.946  1.00  0.00    -0.354 N 
ATOM     51  N   UNL A   1      45.424  29.258  27.788  1.00  0.00    -0.248 NA
ATOM     52  C   UNL A   1      47.578  29.883  27.130  1.00  0.00     0.031 C 
ATOM     53  C   UNL A   1      42.490  32.014  29.679  1.00  0.00     0.029 A 
ATOM     54  C   UNL A   1      43.420  31.181  29.078  1.00  0.00     0.049 A 
ATOM     55  H   UNL A   1      43.227  29.149  28.542  1.00  0.00     0.167 HD
ATOM     56  C   UNL A   1      45.625  30.601  28.097  1.00  0.00     0.074 A 
ATOM     57  C   UNL A   1      46.981  30.920  27.698  1.00  0.00     0.031 C 
ATOM     58  C   UNL A   1      44.769  31.490  28.664  1.00  0.00     0.034 A 
BRANCH  45  59
ATOM     59  C   UNL A   1      39.195  29.106  29.993  1.00  0.00     0.023 A 
ATOM     60  C   UNL A   1      38.170  29.650  29.198  1.00  0.00     0.031 A 
ATOM     61  C   UNL A   1      38.895  28.798  31.333  1.00  0.00     0.131 A 
ATOM     62  C   UNL A   1      36.918  29.934  29.767  1.00  0.00     0.055 A 
ATOM     63  C   UNL A   1      37.625  29.011  31.871  1.00  0.00     0.041 A 
ATOM     64  F   UNL A   1      39.838  28.298  32.147  1.00  0.00    -0.206 F 
ATOM     65  C   UNL A   1      36.632  29.596  31.092  1.00  0.00     0.022 A 
BRANCH  62  66
ATOM     66  S   UNL A   1      35.719  30.884  28.793  1.00  0.00     0.124 S 
ATOM     67  O   UNL A   1      35.055  31.671  29.829  1.00  0.00    -0.237 OA
ATOM     68  O   UNL A   1      36.575  31.627  27.876  1.00  0.00    -0.237 OA
ATOM     69  O   UNL A   1      34.886  29.853  28.175  1.00  0.00    -0.744 OA
ENDBRANCH  62  66
ENDBRANCH  45  59
BRANCH  46  70
ATOM     70  C   UNL A   1      48.245  27.207  26.132  1.00  0.00     0.023 A 
ATOM     71  C   UNL A   1      48.460  27.423  24.763  1.00  0.00     0.031 A 
ATOM     72  C   UNL A   1      49.308  26.685  26.893  1.00  0.00     0.131 A 
ATOM     73  C   UNL A   1      49.693  27.079  24.186  1.00  0.00     0.055 A 
ATOM     74  C   UNL A   1      50.548  26.393  26.326  1.00  0.00     0.041 A 
ATOM     75  F   UNL A   1      49.154  26.456  28.207  1.00  0.00    -0.206 F 
ATOM     76  C   UNL A   1      50.743  26.577  24.961  1.00  0.00     0.022 A 
BRANCH  73  77
ATOM     77  S   UNL A   1      49.881  27.215  22.387  1.00  0.00     0.124 S 
ATOM     78  O   UNL A   1      48.842  26.310  21.910  1.00  0.00    -0.237 OA
ATOM     79  O   UNL A   1      49.647  28.638  22.166  1.00  0.00    -0.237 OA
ATOM     80  O   UNL A   1      51.253  26.768  22.153  1.00  0.00    -0.744 OA
ENDBRANCH  73  77
ENDBRANCH  46  70
BRANCH  58  81
ATOM     81  C   UNL A   1      45.296  32.881  28.927  1.00  0.00     0.023 A 
ATOM     82  C   UNL A   1      45.114  33.930  28.010  1.00  0.00     0.031 A 
ATOM     83  C   UNL A   1      45.999  33.156  30.114  1.00  0.00     0.131 A 
ATOM     84  C   UNL A   1      45.674  35.190  28.268  1.00  0.00     0.055 A 
ATOM     85  C   UNL A   1      46.503  34.427  30.393  1.00  0.00     0.041 A 
ATOM     86  F   UNL A   1      46.205  32.192  31.026  1.00  0.00    -0.206 F 
ATOM     87  C   UNL A   1      46.354  35.450  29.461  1.00  0.00     0.022 A 
BRANCH  84  88
ATOM     88  S   UNL A   1      45.582  36.467  26.982  1.00  0.00     0.124 S 
ATOM     89  O   UNL A   1      46.287  35.833  25.873  1.00  0.00    -0.237 OA
ATOM     90  O   UNL A   1      44.142  36.633  26.811  1.00  0.00    -0.237 OA
ATOM     91  O   UNL A   1      46.268  37.609  27.583  1.00  0.00    -0.744 OA
ENDBRANCH  84  88
ENDBRANCH  58  81
ENDBRANCH  32  33
ENDBRANCH  25  27
ENDBRANCH  24  25
ENDBRANCH  23  24
ENDBRANCH  22  23
ENDBRANCH   1  22
TORSDOF 20
ENDMDL
MODEL 3
REMARK VINA RESULT:     -10.5      2.511      4.341
REMARK SMILES C[C@@H](C(=O)OCCOCCOC(=O)c1ccc(-c2c3nc(c(-c4cc(S(=O)(=O)[O-])ccc4F)c4ccc([nH]4)c(-c4cc(S(=O)(=O)[O-])ccc4F)c4nc(c(-c5cc(S(=O)(=O)[O-])ccc5F)c5ccc2[nH]5)C=C4)C=C3)cc1)c1ccc(OC2CCCC2)cc1F
REMARK SMILES IDX 8 1 7 2 6 3 5 4 3 5 4 6 2 7 1 8 77 9 78 10 88 11 79 12 87 13
REMARK SMILES IDX 89 14 80 15 81 16 82 17 83 18 86 19 84 20 85 21 9 22 10 23
REMARK SMILES IDX 11 24 12 25 13 26 14 27 15 28 76 29 16 30 75 31 17 32 18 33
REMARK SMILES IDX 19 34 69 35 20 36 74 37 68 38 70 39 21 40 73 41 67 42 66 43
REMARK SMILES IDX 22 45 54 46 34 47 53 48 35 49 38 50 52 51 71 52 36 53 37 54
REMARK SMILES IDX 51 56 72 57 39 58 23 59 24 60 32 61 25 62 31 63 33 64 30 65
REMARK SMILES IDX 26 66 27 67 28 68 29 69 55 70 56 71 64 72 57 73 63 74 65 75
REMARK SMILES IDX 62 76 58 77 59 78 60 79 61 80 40 81 41 82 49 83 42 84 48 85
REMARK SMILES IDX 50 86 47 87 43 88 44 89 45 90 46 91
REMARK H PARENT 70 44 38 55
REMARK Flexibility Score: inf
ROOT
ATOM      1  O   UNL A   1      35.463  21.843  25.059  1.00  0.00    -0.374 OA
ENDROOT
BRANCH   1   2
ATOM      2  C   UNL A   1      35.759  22.900  24.146  1.00  0.00     0.202 C 
BRANCH   2   3
ATOM      3  C   UNL A   1      35.601  24.323  24.688  1.00  0.00     0.261 C 
BRANCH   3   4
ATOM      4  O   UNL A   1      34.425  24.433  25.507  1.00  0.00    -0.463 OA
BRANCH   4   5
ATOM      5  C   UNL A   1      33.486  25.320  25.082  1.00  0.00     0.313 C 
ATOM      6  O   UNL A   1      33.735  26.466  24.719  1.00  0.00    -0.252 OA
BRANCH   5   7
ATOM      7  C   UNL A   1      32.065  24.733  25.070  1.00  0.00     0.129 C 
ATOM      8  C   UNL A   1      31.274  24.998  26.357  1.00  0.00     0.025 C 
BRANCH   7   9
ATOM      9  C   UNL A   1      32.087  23.280  24.594  1.00  0.00     0.002 A 
ATOM     10  C   UNL A   1      32.196  23.027  23.218  1.00  0.00     0.011 A 
ATOM     11  C   UNL A   1      32.046  22.166  25.438  1.00  0.00     0.130 A 
ATOM     12  C   UNL A   1      32.280  21.720  22.726  1.00  0.00     0.047 A 
ATOM     13  C   UNL A   1      32.105  20.856  24.947  1.00  0.00     0.086 A 
ATOM     14  F   UNL A   1      31.966  22.315  26.768  1.00  0.00    -0.207 F 
ATOM     15  C   UNL A   1      32.242  20.621  23.585  1.00  0.00     0.122 A 
BRANCH  15  16
ATOM     16  O   UNL A   1      32.348  19.422  22.951  1.00  0.00    -0.490 OA
BRANCH  16  17
ATOM     17  C   UNL A   1      32.488  18.178  23.618  1.00  0.00     0.173 C 
ATOM     18  C   UNL A   1      33.599  17.250  23.143  1.00  0.00     0.045 C 
ATOM     19  C   UNL A   1      32.595  18.245  25.139  1.00  0.00     0.045 C 
ATOM     20  C   UNL A   1      33.705  16.230  24.266  1.00  0.00     0.004 C 
ATOM     21  C   UNL A   1      33.338  16.975  25.549  1.00  0.00     0.004 C 
ENDBRANCH  16  17
ENDBRANCH  15  16
ENDBRANCH   7   9
ENDBRANCH   5   7
ENDBRANCH   4   5
ENDBRANCH   3   4
ENDBRANCH   2   3
ENDBRANCH   1   2
BRANCH   1  22
ATOM     22  C   UNL A   1      35.847  20.520  24.678  1.00  0.00     0.202 C 
BRANCH  22  23
ATOM     23  C   UNL A   1      37.305  20.118  24.939  1.00  0.00     0.261 C 
BRANCH  23  24
ATOM     24  O   UNL A   1      37.860  20.765  26.098  1.00  0.00    -0.460 OA
BRANCH  24  25
ATOM     25  C   UNL A   1      39.213  20.734  26.171  1.00  0.00     0.338 C 
ATOM     26  O   UNL A   1      39.952  19.881  25.696  1.00  0.00    -0.246 OA
BRANCH  25  27
ATOM     27  C   UNL A   1      39.729  21.990  26.749  1.00  0.00     0.060 A 
ATOM     28  C   UNL A   1      39.163  23.188  26.295  1.00  0.00     0.016 A 
ATOM     29  C   UNL A   1      40.791  22.008  27.656  1.00  0.00     0.016 A 
ATOM     30  C   UNL A   1      39.690  24.411  26.706  1.00  0.00     0.010 A 
ATOM     31  C   UNL A   1      41.324  23.239  28.060  1.00  0.00     0.010 A 
ATOM     32  C   UNL A   1      40.799  24.445  27.560  1.00  0.00    -0.014 A 
BRANCH  32  33
ATOM     33  C   UNL A   1      41.497  25.735  27.794  1.00  0.00     0.031 A 
ATOM     34  C   UNL A   1      40.759  26.845  28.495  1.00  0.00     0.074 A 
ATOM     35  C   UNL A   1      42.783  25.902  27.433  1.00  0.00     0.049 A 
ATOM     36  N   UNL A   1      41.158  28.056  28.785  1.00  0.00    -0.248 NA
ATOM     37  C   UNL A   1      39.385  26.543  28.921  1.00  0.00     0.031 C 
ATOM     38  C   UNL A   1      43.616  24.885  26.794  1.00  0.00     0.029 A 
ATOM     39  N   UNL A   1      43.611  26.990  27.552  1.00  0.00    -0.354 N 
ATOM     40  C   UNL A   1      40.085  28.663  29.432  1.00  0.00     0.074 A 
ATOM     41  C   UNL A   1      39.006  27.697  29.449  1.00  0.00     0.031 C 
ATOM     42  C   UNL A   1      44.836  25.402  26.566  1.00  0.00     0.029 A 
ATOM     43  C   UNL A   1      44.860  26.796  27.010  1.00  0.00     0.049 A 
ATOM     44  H   UNL A   1      43.337  27.831  27.985  1.00  0.00     0.167 HD
ATOM     45  C   UNL A   1      40.012  29.906  29.970  1.00  0.00     0.034 A 
ATOM     46  C   UNL A   1      45.894  27.650  26.866  1.00  0.00     0.034 A 
ATOM     47  C   UNL A   1      41.090  30.863  29.932  1.00  0.00     0.049 A 
ATOM     48  C   UNL A   1      45.758  29.060  27.391  1.00  0.00     0.074 A 
ATOM     49  C   UNL A   1      41.124  32.147  30.448  1.00  0.00     0.029 A 
ATOM     50  N   UNL A   1      42.324  30.648  29.330  1.00  0.00    -0.354 N 
ATOM     51  N   UNL A   1      44.739  29.621  28.002  1.00  0.00    -0.248 NA
ATOM     52  C   UNL A   1      46.915  29.948  27.214  1.00  0.00     0.031 C 
ATOM     53  C   UNL A   1      42.347  32.730  30.099  1.00  0.00     0.029 A 
ATOM     54  C   UNL A   1      43.111  31.785  29.433  1.00  0.00     0.049 A 
ATOM     55  H   UNL A   1      42.599  29.809  28.894  1.00  0.00     0.167 HD
ATOM     56  C   UNL A   1      45.147  30.917  28.309  1.00  0.00     0.074 A 
ATOM     57  C   UNL A   1      46.506  31.049  27.827  1.00  0.00     0.031 C 
ATOM     58  C   UNL A   1      44.462  31.908  28.937  1.00  0.00     0.034 A 
BRANCH  45  59
ATOM     59  C   UNL A   1      38.699  30.310  30.598  1.00  0.00     0.023 A 
ATOM     60  C   UNL A   1      37.683  30.936  29.854  1.00  0.00     0.031 A 
ATOM     61  C   UNL A   1      38.473  30.097  31.970  1.00  0.00     0.131 A 
ATOM     62  C   UNL A   1      36.521  31.390  30.498  1.00  0.00     0.055 A 
ATOM     63  C   UNL A   1      37.282  30.480  32.589  1.00  0.00     0.041 A 
ATOM     64  F   UNL A   1      39.415  29.525  32.737  1.00  0.00    -0.206 F 
ATOM     65  C   UNL A   1      36.303  31.144  31.856  1.00  0.00     0.022 A 
BRANCH  62  66
ATOM     66  S   UNL A   1      35.364  32.431  29.568  1.00  0.00     0.124 S 
ATOM     67  O   UNL A   1      36.235  33.515  29.121  1.00  0.00    -0.237 OA
ATOM     68  O   UNL A   1      34.887  31.525  28.531  1.00  0.00    -0.237 OA
ATOM     69  O   UNL A   1      34.368  32.815  30.568  1.00  0.00    -0.744 OA
ENDBRANCH  62  66
ENDBRANCH  45  59
BRANCH  46  70
ATOM     70  C   UNL A   1      47.133  27.222  26.154  1.00  0.00     0.023 A 
ATOM     71  C   UNL A   1      48.138  26.494  26.810  1.00  0.00     0.031 A 
ATOM     72  C   UNL A   1      47.352  27.589  24.813  1.00  0.00     0.131 A 
ATOM     73  C   UNL A   1      49.334  26.194  26.138  1.00  0.00     0.055 A 
ATOM     74  C   UNL A   1      48.520  27.243  24.134  1.00  0.00     0.041 A 
ATOM     75  F   UNL A   1      46.424  28.288  24.140  1.00  0.00    -0.206 F 
ATOM     76  C   UNL A   1      49.527  26.553  24.801  1.00  0.00     0.022 A 
BRANCH  73  77
ATOM     77  S   UNL A   1      50.677  25.400  27.065  1.00  0.00     0.124 S 
ATOM     78  O   UNL A   1      51.156  26.500  27.894  1.00  0.00    -0.237 OA
ATOM     79  O   UNL A   1      49.970  24.330  27.762  1.00  0.00    -0.237 OA
ATOM     80  O   UNL A   1      51.597  24.959  26.019  1.00  0.00    -0.744 OA
ENDBRANCH  73  77
ENDBRANCH  46  70
BRANCH  58  81
ATOM     81  C   UNL A   1      45.196  33.206  29.177  1.00  0.00     0.023 A 
ATOM     82  C   UNL A   1      45.179  34.254  28.240  1.00  0.00     0.031 A 
ATOM     83  C   UNL A   1      45.930  33.392  30.362  1.00  0.00     0.131 A 
ATOM     84  C   UNL A   1      45.926  35.417  28.478  1.00  0.00     0.055 A 
ATOM     85  C   UNL A   1      46.623  34.575  30.620  1.00  0.00     0.041 A 
ATOM     86  F   UNL A   1      45.984  32.424  31.292  1.00  0.00    -0.206 F 
ATOM     87  C   UNL A   1      46.635  35.592  29.669  1.00  0.00     0.022 A 
BRANCH  84  88
ATOM     88  S   UNL A   1      46.033  36.669  27.169  1.00  0.00     0.124 S 
ATOM     89  O   UNL A   1      46.264  35.850  25.983  1.00  0.00    -0.237 OA
ATOM     90  O   UNL A   1      44.728  37.318  27.251  1.00  0.00    -0.237 OA
ATOM     91  O   UNL A   1      47.163  37.499  27.580  1.00  0.00    -0.744 OA
ENDBRANCH  84  88
ENDBRANCH  58  81
ENDBRANCH  32  33
ENDBRANCH  25  27
ENDBRANCH  24  25
ENDBRANCH  23  24
ENDBRANCH  22  23
ENDBRANCH   1  22
TORSDOF 20
ENDMDL
