MODEL 1
REMARK VINA RESULT:      -9.3      0.000      0.000
REMARK SMILES CCC[NH2+][C@]1(C(=O)OCCOCCOC(=O)c2ccc(-c3c4nc(c(-c5cc(S(=O)(=O)[O-])ccc5F)c5ccc([nH]5)c(-c5cc(S(=O)(=O)[O-])ccc5F)c5nc(c(-c6cc(S(=O)(=O)[O-])ccc6F)c6ccc3[nH]6)C=C5)C=C4)cc2)CCC[C@@H]([N@@H+](C)[C@@H](C)C2CC2)C1
REMARK SMILES IDX 11 1 10 2 9 3 8 4 6 5 7 6 5 7 80 8 91 9 81 10 83 11 82 12
REMARK SMILES IDX 4 13 3 16 2 17 1 18 84 19 85 20 86 22 87 23 88 24 89 25
REMARK SMILES IDX 90 26 12 27 13 28 14 29 15 30 16 31 17 32 18 33 79 34 19 35
REMARK SMILES IDX 78 36 20 37 21 38 22 39 72 40 23 41 77 42 71 43 73 44 24 45
REMARK SMILES IDX 76 46 70 47 69 48 25 50 57 51 37 52 56 53 38 54 41 55 55 56
REMARK SMILES IDX 74 57 39 58 40 59 54 61 75 62 42 63 26 64 27 65 35 66 28 67
REMARK SMILES IDX 34 68 36 69 33 70 29 71 30 72 31 73 32 74 58 75 59 76 67 77
REMARK SMILES IDX 60 78 66 79 68 80 65 81 61 82 62 83 63 84 64 85 43 86 44 87
REMARK SMILES IDX 52 88 45 89 51 90 53 91 50 92 46 93 47 94 48 95 49 96
REMARK H PARENT 4 14 4 15 84 21 73 49 41 60
REMARK Flexibility Score: inf
ROOT
ATOM      1  O   UNL A   1      39.105  22.783  26.609  1.00  0.00    -0.374 OA
ENDROOT
BRANCH   1   2
ATOM      2  C   UNL A   1      38.189  23.787  26.190  1.00  0.00     0.202 C 
BRANCH   2   3
ATOM      3  C   UNL A   1      37.066  23.407  25.212  1.00  0.00     0.261 C 
BRANCH   3   4
ATOM      4  O   UNL A   1      35.888  24.236  25.237  1.00  0.00    -0.459 OA
BRANCH   4   5
ATOM      5  C   UNL A   1      34.972  23.857  24.309  1.00  0.00     0.368 C 
ATOM      6  O   UNL A   1      35.235  23.776  23.109  1.00  0.00    -0.245 OA
BRANCH   5   7
ATOM      7  C   UNL A   1      33.573  23.493  24.878  1.00  0.00     0.200 C 
ATOM      8  C   UNL A   1      33.458  23.541  26.411  1.00  0.00     0.081 C 
ATOM      9  C   UNL A   1      32.717  24.656  24.330  1.00  0.00     0.146 C 
ATOM     10  C   UNL A   1      31.995  23.465  26.876  1.00  0.00     0.013 C 
ATOM     11  C   UNL A   1      31.263  24.714  24.765  1.00  0.00     0.190 C 
ATOM     12  C   UNL A   1      31.137  24.599  26.297  1.00  0.00     0.065 C 
BRANCH   7  13
ATOM     13  N   UNL A   1      33.046  22.244  24.262  1.00  0.00    -0.332 N 
ATOM     14  H   UNL A   1      32.056  22.176  24.501  1.00  0.00     0.347 HD
ATOM     15  H   UNL A   1      33.243  22.337  23.266  1.00  0.00     0.347 HD
BRANCH  13  16
ATOM     16  C   UNL A   1      33.678  20.989  24.655  1.00  0.00     0.261 C 
BRANCH  16  17
ATOM     17  C   UNL A   1      32.658  19.841  24.617  1.00  0.00     0.058 C 
ATOM     18  C   UNL A   1      32.296  19.363  23.220  1.00  0.00     0.010 C 
ENDBRANCH  16  17
ENDBRANCH  13  16
ENDBRANCH   7  13
BRANCH  11  19
ATOM     19  N   UNL A   1      30.569  25.830  24.071  1.00  0.00    -0.332 N 
ATOM     20  C   UNL A   1      29.246  26.071  24.645  1.00  0.00     0.333 C 
ATOM     21  H   UNL A   1      30.527  25.431  23.133  1.00  0.00     0.348 HD
BRANCH  19  22
ATOM     22  C   UNL A   1      31.258  27.095  23.737  1.00  0.00     0.184 C 
ATOM     23  C   UNL A   1      30.790  27.778  22.444  1.00  0.00     0.075 C 
BRANCH  22  24
ATOM     24  C   UNL A   1      31.347  28.132  24.852  1.00  0.00     0.047 C 
ATOM     25  C   UNL A   1      31.575  27.845  26.325  1.00  0.00     0.010 C 
ATOM     26  C   UNL A   1      32.689  28.405  25.507  1.00  0.00     0.010 C 
ENDBRANCH  22  24
ENDBRANCH  19  22
ENDBRANCH  11  19
ENDBRANCH   5   7
ENDBRANCH   4   5
ENDBRANCH   3   4
ENDBRANCH   2   3
ENDBRANCH   1   2
BRANCH   1  27
ATOM     27  C   UNL A   1      39.268  21.621  25.795  1.00  0.00     0.202 C 
BRANCH  27  28
ATOM     28  C   UNL A   1      39.793  20.358  26.478  1.00  0.00     0.261 C 
BRANCH  28  29
ATOM     29  O   UNL A   1      40.713  19.653  25.626  1.00  0.00    -0.460 OA
BRANCH  29  30
ATOM     30  C   UNL A   1      41.925  19.422  26.193  1.00  0.00     0.338 C 
ATOM     31  O   UNL A   1      42.466  18.340  26.343  1.00  0.00    -0.246 OA
BRANCH  30  32
ATOM     32  C   UNL A   1      42.622  20.698  26.429  1.00  0.00     0.060 A 
ATOM     33  C   UNL A   1      42.695  21.156  27.751  1.00  0.00     0.016 A 
ATOM     34  C   UNL A   1      43.085  21.483  25.374  1.00  0.00     0.016 A 
ATOM     35  C   UNL A   1      43.165  22.438  28.020  1.00  0.00     0.010 A 
ATOM     36  C   UNL A   1      43.542  22.777  25.644  1.00  0.00     0.010 A 
ATOM     37  C   UNL A   1      43.536  23.275  26.961  1.00  0.00    -0.014 A 
BRANCH  37  38
ATOM     38  C   UNL A   1      43.698  24.730  27.202  1.00  0.00     0.031 A 
ATOM     39  C   UNL A   1      45.037  25.351  26.908  1.00  0.00     0.074 A 
ATOM     40  C   UNL A   1      42.675  25.483  27.639  1.00  0.00     0.049 A 
ATOM     41  N   UNL A   1      45.459  26.568  27.138  1.00  0.00    -0.248 NA
ATOM     42  C   UNL A   1      46.035  24.478  26.269  1.00  0.00     0.031 C 
ATOM     43  C   UNL A   1      41.314  25.005  27.871  1.00  0.00     0.029 A 
ATOM     44  N   UNL A   1      42.628  26.813  27.970  1.00  0.00    -0.354 N 
ATOM     45  C   UNL A   1      46.771  26.605  26.676  1.00  0.00     0.074 A 
ATOM     46  C   UNL A   1      47.085  25.280  26.185  1.00  0.00     0.031 C 
ATOM     47  C   UNL A   1      40.567  26.026  28.327  1.00  0.00     0.029 A 
ATOM     48  C   UNL A   1      41.408  27.214  28.464  1.00  0.00     0.049 A 
ATOM     49  H   UNL A   1      43.393  27.423  27.866  1.00  0.00     0.167 HD
ATOM     50  C   UNL A   1      47.634  27.651  26.661  1.00  0.00     0.034 A 
ATOM     51  C   UNL A   1      41.031  28.394  28.999  1.00  0.00     0.034 A 
ATOM     52  C   UNL A   1      47.309  28.958  27.174  1.00  0.00     0.049 A 
ATOM     53  C   UNL A   1      42.045  29.512  29.085  1.00  0.00     0.074 A 
ATOM     54  C   UNL A   1      48.111  30.083  27.244  1.00  0.00     0.029 A 
ATOM     55  N   UNL A   1      46.078  29.312  27.711  1.00  0.00    -0.354 N 
ATOM     56  N   UNL A   1      43.297  29.525  28.686  1.00  0.00    -0.248 NA
ATOM     57  C   UNL A   1      41.597  30.773  29.691  1.00  0.00     0.031 C 
ATOM     58  C   UNL A   1      47.385  31.098  27.877  1.00  0.00     0.029 A 
ATOM     59  C   UNL A   1      46.106  30.631  28.134  1.00  0.00     0.049 A 
ATOM     60  H   UNL A   1      45.299  28.714  27.780  1.00  0.00     0.167 HD
ATOM     61  C   UNL A   1      43.768  30.808  28.953  1.00  0.00     0.074 A 
ATOM     62  C   UNL A   1      42.670  31.538  29.552  1.00  0.00     0.031 C 
ATOM     63  C   UNL A   1      44.993  31.341  28.715  1.00  0.00     0.034 A 
BRANCH  50  64
ATOM     64  C   UNL A   1      49.022  27.395  26.127  1.00  0.00     0.023 A 
ATOM     65  C   UNL A   1      49.363  27.673  24.792  1.00  0.00     0.031 A 
ATOM     66  C   UNL A   1      50.006  26.826  26.954  1.00  0.00     0.131 A 
ATOM     67  C   UNL A   1      50.632  27.322  24.307  1.00  0.00     0.055 A 
ATOM     68  C   UNL A   1      51.292  26.550  26.486  1.00  0.00     0.041 A 
ATOM     69  F   UNL A   1      49.731  26.514  28.231  1.00  0.00    -0.206 F 
ATOM     70  C   UNL A   1      51.607  26.785  25.150  1.00  0.00     0.022 A 
BRANCH  67  71
ATOM     71  S   UNL A   1      50.945  27.450  22.525  1.00  0.00     0.124 S 
ATOM     72  O   UNL A   1      50.951  28.898  22.330  1.00  0.00    -0.237 OA
ATOM     73  O   UNL A   1      52.231  26.780  22.380  1.00  0.00    -0.237 OA
ATOM     74  O   UNL A   1      49.807  26.754  21.926  1.00  0.00    -0.744 OA
ENDBRANCH  67  71
ENDBRANCH  50  64
BRANCH  51  75
ATOM     75  C   UNL A   1      39.656  28.574  29.546  1.00  0.00     0.023 A 
ATOM     76  C   UNL A   1      38.616  29.073  28.745  1.00  0.00     0.031 A 
ATOM     77  C   UNL A   1      39.375  28.308  30.899  1.00  0.00     0.131 A 
ATOM     78  C   UNL A   1      37.360  29.337  29.315  1.00  0.00     0.055 A 
ATOM     79  C   UNL A   1      38.110  28.521  31.447  1.00  0.00     0.041 A 
ATOM     80  F   UNL A   1      40.334  27.833  31.711  1.00  0.00    -0.206 F 
ATOM     81  C   UNL A   1      37.097  29.052  30.656  1.00  0.00     0.022 A 
BRANCH  78  82
ATOM     82  S   UNL A   1      36.099  30.152  28.296  1.00  0.00     0.124 S 
ATOM     83  O   UNL A   1      34.953  29.270  28.482  1.00  0.00    -0.237 OA
ATOM     84  O   UNL A   1      36.009  31.466  28.925  1.00  0.00    -0.237 OA
ATOM     85  O   UNL A   1      36.686  30.142  26.958  1.00  0.00    -0.744 OA
ENDBRANCH  78  82
ENDBRANCH  51  75
BRANCH  63  86
ATOM     86  C   UNL A   1      45.185  32.804  29.025  1.00  0.00     0.023 A 
ATOM     87  C   UNL A   1      44.878  33.810  28.093  1.00  0.00     0.031 A 
ATOM     88  C   UNL A   1      45.658  33.191  30.291  1.00  0.00     0.131 A 
ATOM     89  C   UNL A   1      45.081  35.156  28.432  1.00  0.00     0.055 A 
ATOM     90  C   UNL A   1      45.812  34.533  30.639  1.00  0.00     0.041 A 
ATOM     91  F   UNL A   1      45.963  32.268  31.217  1.00  0.00    -0.206 F 
ATOM     92  C   UNL A   1      45.529  35.524  29.705  1.00  0.00     0.022 A 
BRANCH  89  93
ATOM     93  S   UNL A   1      44.794  36.428  27.172  1.00  0.00     0.124 S 
ATOM     94  O   UNL A   1      43.612  35.916  26.486  1.00  0.00    -0.237 OA
ATOM     95  O   UNL A   1      44.593  37.628  27.976  1.00  0.00    -0.237 OA
ATOM     96  O   UNL A   1      46.024  36.414  26.382  1.00  0.00    -0.744 OA
ENDBRANCH  89  93
ENDBRANCH  63  86
ENDBRANCH  37  38
ENDBRANCH  30  32
ENDBRANCH  29  30
ENDBRANCH  28  29
ENDBRANCH  27  28
ENDBRANCH   1  27
TORSDOF 23
ENDMDL
MODEL 2
REMARK VINA RESULT:      -8.9      2.992      8.769
REMARK SMILES CCC[NH2+][C@]1(C(=O)OCCOCCOC(=O)c2ccc(-c3c4nc(c(-c5cc(S(=O)(=O)[O-])ccc5F)c5ccc([nH]5)c(-c5cc(S(=O)(=O)[O-])ccc5F)c5nc(c(-c6cc(S(=O)(=O)[O-])ccc6F)c6ccc3[nH]6)C=C5)C=C4)cc2)CCC[C@@H]([N@@H+](C)[C@@H](C)C2CC2)C1
REMARK SMILES IDX 11 1 10 2 9 3 8 4 6 5 7 6 5 7 80 8 91 9 81 10 83 11 82 12
REMARK SMILES IDX 4 13 3 16 2 17 1 18 84 19 85 20 86 22 87 23 88 24 89 25
REMARK SMILES IDX 90 26 12 27 13 28 14 29 15 30 16 31 17 32 18 33 79 34 19 35
REMARK SMILES IDX 78 36 20 37 21 38 22 39 72 40 23 41 77 42 71 43 73 44 24 45
REMARK SMILES IDX 76 46 70 47 69 48 25 50 57 51 37 52 56 53 38 54 41 55 55 56
REMARK SMILES IDX 74 57 39 58 40 59 54 61 75 62 42 63 26 64 27 65 35 66 28 67
REMARK SMILES IDX 34 68 36 69 33 70 29 71 30 72 31 73 32 74 58 75 59 76 67 77
REMARK SMILES IDX 60 78 66 79 68 80 65 81 61 82 62 83 63 84 64 85 43 86 44 87
REMARK SMILES IDX 52 88 45 89 51 90 53 91 50 92 46 93 47 94 48 95 49 96
REMARK H PARENT 4 14 4 15 84 21 73 49 41 60
REMARK Flexibility Score: inf
ROOT
ATOM      1  O   UNL A   1      34.435  33.066  28.645  1.00  0.00    -0.374 OA
ENDROOT
BRANCH   1   2
ATOM      2  C   UNL A   1      33.658  32.250  27.776  1.00  0.00     0.202 C 
BRANCH   2   3
ATOM      3  C   UNL A   1      34.227  30.898  27.320  1.00  0.00     0.261 C 
BRANCH   3   4
ATOM      4  O   UNL A   1      33.340  29.767  27.411  1.00  0.00    -0.459 OA
BRANCH   4   5
ATOM      5  C   UNL A   1      32.358  29.805  26.472  1.00  0.00     0.368 C 
ATOM      6  O   UNL A   1      31.748  30.837  26.189  1.00  0.00    -0.245 OA
BRANCH   5   7
ATOM      7  C   UNL A   1      32.088  28.457  25.749  1.00  0.00     0.200 C 
ATOM      8  C   UNL A   1      31.554  27.329  26.649  1.00  0.00     0.081 C 
ATOM      9  C   UNL A   1      30.935  28.855  24.801  1.00  0.00     0.146 C 
ATOM     10  C   UNL A   1      31.033  26.141  25.824  1.00  0.00     0.013 C 
ATOM     11  C   UNL A   1      30.306  27.750  23.971  1.00  0.00     0.190 C 
ATOM     12  C   UNL A   1      29.916  26.547  24.853  1.00  0.00     0.065 C 
BRANCH   7  13
ATOM     13  N   UNL A   1      33.237  28.063  24.889  1.00  0.00    -0.332 N 
ATOM     14  H   UNL A   1      34.060  27.991  25.487  1.00  0.00     0.347 HD
ATOM     15  H   UNL A   1      32.948  27.191  24.446  1.00  0.00     0.347 HD
BRANCH  13  16
ATOM     16  C   UNL A   1      33.576  28.952  23.782  1.00  0.00     0.261 C 
BRANCH  16  17
ATOM     17  C   UNL A   1      33.867  28.139  22.512  1.00  0.00     0.058 C 
ATOM     18  C   UNL A   1      33.527  26.660  22.616  1.00  0.00     0.010 C 
ENDBRANCH  16  17
ENDBRANCH  13  16
ENDBRANCH   7  13
BRANCH  11  19
ATOM     19  N   UNL A   1      29.290  28.322  23.050  1.00  0.00    -0.332 N 
ATOM     20  C   UNL A   1      27.953  27.808  23.349  1.00  0.00     0.333 C 
ATOM     21  H   UNL A   1      29.660  27.971  22.167  1.00  0.00     0.348 HD
BRANCH  19  22
ATOM     22  C   UNL A   1      29.257  29.762  22.714  1.00  0.00     0.184 C 
ATOM     23  C   UNL A   1      29.906  30.141  21.375  1.00  0.00     0.075 C 
BRANCH  22  24
ATOM     24  C   UNL A   1      27.903  30.455  22.833  1.00  0.00     0.047 C 
ATOM     25  C   UNL A   1      27.419  31.275  24.014  1.00  0.00     0.010 C 
ATOM     26  C   UNL A   1      27.836  31.970  22.763  1.00  0.00     0.010 C 
ENDBRANCH  22  24
ENDBRANCH  19  22
ENDBRANCH  11  19
ENDBRANCH   5   7
ENDBRANCH   4   5
ENDBRANCH   3   4
ENDBRANCH   2   3
ENDBRANCH   1   2
BRANCH   1  27
ATOM     27  C   UNL A   1      34.038  33.184  30.011  1.00  0.00     0.202 C 
BRANCH  27  28
ATOM     28  C   UNL A   1      34.731  34.259  30.850  1.00  0.00     0.261 C 
BRANCH  28  29
ATOM     29  O   UNL A   1      35.312  33.694  32.039  1.00  0.00    -0.460 OA
BRANCH  29  30
ATOM     30  C   UNL A   1      36.634  33.961  32.188  1.00  0.00     0.338 C 
ATOM     31  O   UNL A   1      37.129  34.834  32.879  1.00  0.00    -0.246 OA
BRANCH  30  32
ATOM     32  C   UNL A   1      37.437  32.901  31.553  1.00  0.00     0.060 A 
ATOM     33  C   UNL A   1      38.244  32.117  32.388  1.00  0.00     0.016 A 
ATOM     34  C   UNL A   1      37.492  32.759  30.167  1.00  0.00     0.016 A 
ATOM     35  C   UNL A   1      39.168  31.234  31.837  1.00  0.00     0.010 A 
ATOM     36  C   UNL A   1      38.432  31.882  29.614  1.00  0.00     0.010 A 
ATOM     37  C   UNL A   1      39.305  31.156  30.446  1.00  0.00    -0.014 A 
BRANCH  37  38
ATOM     38  C   UNL A   1      40.501  30.498  29.866  1.00  0.00     0.031 A 
ATOM     39  C   UNL A   1      41.775  31.296  29.777  1.00  0.00     0.074 A 
ATOM     40  C   UNL A   1      40.466  29.218  29.459  1.00  0.00     0.049 A 
ATOM     41  N   UNL A   1      42.914  30.986  29.215  1.00  0.00    -0.248 NA
ATOM     42  C   UNL A   1      41.757  32.625  30.409  1.00  0.00     0.031 C 
ATOM     43  C   UNL A   1      39.314  28.326  29.579  1.00  0.00     0.029 A 
ATOM     44  N   UNL A   1      41.428  28.449  28.855  1.00  0.00    -0.354 N 
ATOM     45  C   UNL A   1      43.746  32.082  29.420  1.00  0.00     0.074 A 
ATOM     46  C   UNL A   1      42.970  33.076  30.129  1.00  0.00     0.031 C 
ATOM     47  C   UNL A   1      39.632  27.133  29.046  1.00  0.00     0.029 A 
ATOM     48  C   UNL A   1      40.990  27.193  28.506  1.00  0.00     0.049 A 
ATOM     49  H   UNL A   1      42.345  28.766  28.687  1.00  0.00     0.167 HD
ATOM     50  C   UNL A   1      45.042  32.242  29.054  1.00  0.00     0.034 A 
ATOM     51  C   UNL A   1      41.604  26.224  27.797  1.00  0.00     0.034 A 
ATOM     52  C   UNL A   1      45.793  31.247  28.330  1.00  0.00     0.049 A 
ATOM     53  C   UNL A   1      43.007  26.468  27.291  1.00  0.00     0.074 A 
ATOM     54  C   UNL A   1      47.098  31.310  27.874  1.00  0.00     0.029 A 
ATOM     55  N   UNL A   1      45.299  30.005  27.951  1.00  0.00    -0.354 N 
ATOM     56  N   UNL A   1      43.772  27.525  27.453  1.00  0.00    -0.248 NA
ATOM     57  C   UNL A   1      43.632  25.392  26.509  1.00  0.00     0.031 C 
ATOM     58  C   UNL A   1      47.372  30.133  27.169  1.00  0.00     0.029 A 
ATOM     59  C   UNL A   1      46.265  29.304  27.249  1.00  0.00     0.049 A 
ATOM     60  H   UNL A   1      44.394  29.672  28.152  1.00  0.00     0.167 HD
ATOM     61  C   UNL A   1      44.980  27.219  26.831  1.00  0.00     0.074 A 
ATOM     62  C   UNL A   1      44.842  25.884  26.288  1.00  0.00     0.031 C 
ATOM     63  C   UNL A   1      46.108  27.967  26.728  1.00  0.00     0.034 A 
BRANCH  50  64
ATOM     64  C   UNL A   1      45.695  33.562  29.381  1.00  0.00     0.023 A 
ATOM     65  C   UNL A   1      45.606  34.665  28.515  1.00  0.00     0.031 A 
ATOM     66  C   UNL A   1      46.452  33.707  30.557  1.00  0.00     0.131 A 
ATOM     67  C   UNL A   1      46.316  35.841  28.804  1.00  0.00     0.055 A 
ATOM     68  C   UNL A   1      47.093  34.905  30.877  1.00  0.00     0.041 A 
ATOM     69  F   UNL A   1      46.594  32.679  31.410  1.00  0.00    -0.206 F 
ATOM     70  C   UNL A   1      47.039  35.977  29.991  1.00  0.00     0.022 A 
BRANCH  67  71
ATOM     71  S   UNL A   1      46.393  37.140  27.541  1.00  0.00     0.124 S 
ATOM     72  O   UNL A   1      47.596  36.763  26.803  1.00  0.00    -0.237 OA
ATOM     73  O   UNL A   1      45.129  36.970  26.834  1.00  0.00    -0.237 OA
ATOM     74  O   UNL A   1      46.510  38.370  28.321  1.00  0.00    -0.744 OA
ENDBRANCH  67  71
ENDBRANCH  50  64
BRANCH  51  75
ATOM     75  C   UNL A   1      40.892  24.954  27.472  1.00  0.00     0.023 A 
ATOM     76  C   UNL A   1      41.515  23.708  27.645  1.00  0.00     0.031 A 
ATOM     77  C   UNL A   1      39.597  24.973  26.923  1.00  0.00     0.131 A 
ATOM     78  C   UNL A   1      40.862  22.537  27.228  1.00  0.00     0.055 A 
ATOM     79  C   UNL A   1      38.931  23.801  26.560  1.00  0.00     0.041 A 
ATOM     80  F   UNL A   1      38.956  26.138  26.733  1.00  0.00    -0.206 F 
ATOM     81  C   UNL A   1      39.571  22.574  26.698  1.00  0.00     0.022 A 
BRANCH  78  82
ATOM     82  S   UNL A   1      41.769  20.967  27.296  1.00  0.00     0.124 S 
ATOM     83  O   UNL A   1      42.908  21.319  28.136  1.00  0.00    -0.237 OA
ATOM     84  O   UNL A   1      40.781  20.074  27.892  1.00  0.00    -0.237 OA
ATOM     85  O   UNL A   1      42.086  20.697  25.895  1.00  0.00    -0.744 OA
ENDBRANCH  78  82
ENDBRANCH  51  75
BRANCH  63  86
ATOM     86  C   UNL A   1      47.306  27.328  26.075  1.00  0.00     0.023 A 
ATOM     87  C   UNL A   1      48.288  26.651  26.818  1.00  0.00     0.031 A 
ATOM     88  C   UNL A   1      47.446  27.378  24.677  1.00  0.00     0.131 A 
ATOM     89  C   UNL A   1      49.387  26.079  26.159  1.00  0.00     0.055 A 
ATOM     90  C   UNL A   1      48.515  26.766  24.023  1.00  0.00     0.041 A 
ATOM     91  F   UNL A   1      46.533  28.011  23.922  1.00  0.00    -0.206 F 
ATOM     92  C   UNL A   1      49.497  26.118  24.765  1.00  0.00     0.022 A 
BRANCH  89  93
ATOM     93  S   UNL A   1      50.702  25.318  27.149  1.00  0.00     0.124 S 
ATOM     94  O   UNL A   1      51.637  24.872  26.122  1.00  0.00    -0.237 OA
ATOM     95  O   UNL A   1      51.152  26.430  27.980  1.00  0.00    -0.237 OA
ATOM     96  O   UNL A   1      50.015  24.248  27.870  1.00  0.00    -0.744 OA
ENDBRANCH  89  93
ENDBRANCH  63  86
ENDBRANCH  37  38
ENDBRANCH  30  32
ENDBRANCH  29  30
ENDBRANCH  28  29
ENDBRANCH  27  28
ENDBRANCH   1  27
TORSDOF 23
ENDMDL
MODEL 3
REMARK VINA RESULT:      -8.6      3.481      4.525
REMARK SMILES CCC[NH2+][C@]1(C(=O)OCCOCCOC(=O)c2ccc(-c3c4nc(c(-c5cc(S(=O)(=O)[O-])ccc5F)c5ccc([nH]5)c(-c5cc(S(=O)(=O)[O-])ccc5F)c5nc(c(-c6cc(S(=O)(=O)[O-])ccc6F)c6ccc3[nH]6)C=C5)C=C4)cc2)CCC[C@@H]([N@@H+](C)[C@@H](C)C2CC2)C1
REMARK SMILES IDX 11 1 10 2 9 3 8 4 6 5 7 6 5 7 80 8 91 9 81 10 83 11 82 12
REMARK SMILES IDX 4 13 3 16 2 17 1 18 84 19 85 20 86 22 87 23 88 24 89 25
REMARK SMILES IDX 90 26 12 27 13 28 14 29 15 30 16 31 17 32 18 33 79 34 19 35
REMARK SMILES IDX 78 36 20 37 21 38 22 39 72 40 23 41 77 42 71 43 73 44 24 45
REMARK SMILES IDX 76 46 70 47 69 48 25 50 57 51 37 52 56 53 38 54 41 55 55 56
REMARK SMILES IDX 74 57 39 58 40 59 54 61 75 62 42 63 26 64 27 65 35 66 28 67
REMARK SMILES IDX 34 68 36 69 33 70 29 71 30 72 31 73 32 74 58 75 59 76 67 77
REMARK SMILES IDX 60 78 66 79 68 80 65 81 61 82 62 83 63 84 64 85 43 86 44 87
REMARK SMILES IDX 52 88 45 89 51 90 53 91 50 92 46 93 47 94 48 95 49 96
REMARK H PARENT 4 14 4 15 84 21 73 49 41 60
REMARK Flexibility Score: inf
ROOT
ATOM      1  O   UNL A   1      39.204  21.390  26.409  1.00  0.00    -0.374 OA
ENDROOT
BRANCH   1   2
ATOM      2  C   UNL A   1      38.112  22.092  25.827  1.00  0.00     0.202 C 
BRANCH   2   3
ATOM      3  C   UNL A   1      37.441  21.512  24.572  1.00  0.00     0.261 C 
BRANCH   3   4
ATOM      4  O   UNL A   1      36.011  21.660  24.485  1.00  0.00    -0.459 OA
BRANCH   4   5
ATOM      5  C   UNL A   1      35.350  20.637  25.088  1.00  0.00     0.368 C 
ATOM      6  O   UNL A   1      35.757  19.475  25.063  1.00  0.00    -0.245 OA
BRANCH   5   7
ATOM      7  C   UNL A   1      34.060  21.048  25.850  1.00  0.00     0.200 C 
ATOM      8  C   UNL A   1      34.284  21.571  27.279  1.00  0.00     0.081 C 
ATOM      9  C   UNL A   1      33.585  22.251  25.005  1.00  0.00     0.146 C 
ATOM     10  C   UNL A   1      33.018  22.228  27.851  1.00  0.00     0.013 C 
ATOM     11  C   UNL A   1      32.369  23.012  25.502  1.00  0.00     0.190 C 
ATOM     12  C   UNL A   1      32.524  23.397  26.986  1.00  0.00     0.065 C 
BRANCH   7  13
ATOM     13  N   UNL A   1      33.008  20.001  25.738  1.00  0.00    -0.332 N 
ATOM     14  H   UNL A   1      33.385  19.141  26.137  1.00  0.00     0.347 HD
ATOM     15  H   UNL A   1      32.200  20.385  26.227  1.00  0.00     0.347 HD
BRANCH  13  16
ATOM     16  C   UNL A   1      32.521  19.686  24.399  1.00  0.00     0.261 C 
BRANCH  16  17
ATOM     17  C   UNL A   1      32.488  18.165  24.186  1.00  0.00     0.058 C 
ATOM     18  C   UNL A   1      33.640  17.616  23.359  1.00  0.00     0.010 C 
ENDBRANCH  16  17
ENDBRANCH  13  16
ENDBRANCH   7  13
BRANCH  11  19
ATOM     19  N   UNL A   1      31.995  24.066  24.523  1.00  0.00    -0.332 N 
ATOM     20  C   UNL A   1      30.776  24.762  24.933  1.00  0.00     0.333 C 
ATOM     21  H   UNL A   1      31.858  23.477  23.701  1.00  0.00     0.348 HD
BRANCH  19  22
ATOM     22  C   UNL A   1      32.992  25.000  23.956  1.00  0.00     0.184 C 
ATOM     23  C   UNL A   1      33.348  24.767  22.481  1.00  0.00     0.075 C 
BRANCH  22  24
ATOM     24  C   UNL A   1      32.734  26.486  24.185  1.00  0.00     0.047 C 
ATOM     25  C   UNL A   1      33.300  27.329  25.312  1.00  0.00     0.010 C 
ATOM     26  C   UNL A   1      33.854  27.480  23.936  1.00  0.00     0.010 C 
ENDBRANCH  22  24
ENDBRANCH  19  22
ENDBRANCH  11  19
ENDBRANCH   5   7
ENDBRANCH   4   5
ENDBRANCH   3   4
ENDBRANCH   2   3
ENDBRANCH   1   2
BRANCH   1  27
ATOM     27  C   UNL A   1      40.400  22.111  26.707  1.00  0.00     0.202 C 
BRANCH  27  28
ATOM     28  C   UNL A   1      41.704  21.576  26.113  1.00  0.00     0.261 C 
BRANCH  28  29
ATOM     29  O   UNL A   1      42.311  22.546  25.241  1.00  0.00    -0.460 OA
BRANCH  29  30
ATOM     30  C   UNL A   1      43.395  23.166  25.773  1.00  0.00     0.338 C 
ATOM     31  O   UNL A   1      44.565  22.901  25.561  1.00  0.00    -0.246 OA
BRANCH  30  32
ATOM     32  C   UNL A   1      42.974  24.373  26.507  1.00  0.00     0.060 A 
ATOM     33  C   UNL A   1      42.562  25.476  25.749  1.00  0.00     0.016 A 
ATOM     34  C   UNL A   1      43.096  24.463  27.893  1.00  0.00     0.016 A 
ATOM     35  C   UNL A   1      42.339  26.703  26.367  1.00  0.00     0.010 A 
ATOM     36  C   UNL A   1      42.887  25.701  28.511  1.00  0.00     0.010 A 
ATOM     37  C   UNL A   1      42.557  26.833  27.743  1.00  0.00    -0.014 A 
BRANCH  37  38
ATOM     38  C   UNL A   1      42.665  28.187  28.341  1.00  0.00     0.031 A 
ATOM     39  C   UNL A   1      44.026  28.828  28.402  1.00  0.00     0.074 A 
ATOM     40  C   UNL A   1      41.580  28.842  28.787  1.00  0.00     0.049 A 
ATOM     41  N   UNL A   1      44.395  29.946  28.971  1.00  0.00    -0.248 NA
ATOM     42  C   UNL A   1      45.117  28.105  27.729  1.00  0.00     0.031 C 
ATOM     43  C   UNL A   1      40.204  28.355  28.698  1.00  0.00     0.029 A 
ATOM     44  N   UNL A   1      41.468  30.058  29.412  1.00  0.00    -0.354 N 
ATOM     45  C   UNL A   1      45.760  30.059  28.729  1.00  0.00     0.074 A 
ATOM     46  C   UNL A   1      46.158  28.879  27.992  1.00  0.00     0.031 C 
ATOM     47  C   UNL A   1      39.386  29.259  29.266  1.00  0.00     0.029 A 
ATOM     48  C   UNL A   1      40.184  30.361  29.801  1.00  0.00     0.049 A 
ATOM     49  H   UNL A   1      42.234  30.657  29.568  1.00  0.00     0.167 HD
ATOM     50  C   UNL A   1      46.604  31.058  29.087  1.00  0.00     0.034 A 
ATOM     51  C   UNL A   1      39.719  31.391  30.537  1.00  0.00     0.034 A 
ATOM     52  C   UNL A   1      46.191  32.216  29.840  1.00  0.00     0.049 A 
ATOM     53  C   UNL A   1      40.696  32.433  31.032  1.00  0.00     0.074 A 
ATOM     54  C   UNL A   1      46.961  33.274  30.290  1.00  0.00     0.029 A 
ATOM     55  N   UNL A   1      44.891  32.465  30.258  1.00  0.00    -0.354 N 
ATOM     56  N   UNL A   1      41.993  32.510  30.836  1.00  0.00    -0.248 NA
ATOM     57  C   UNL A   1      40.148  33.528  31.845  1.00  0.00     0.031 C 
ATOM     58  C   UNL A   1      46.138  34.130  31.030  1.00  0.00     0.029 A 
ATOM     59  C   UNL A   1      44.841  33.646  30.979  1.00  0.00     0.049 A 
ATOM     60  H   UNL A   1      44.117  31.886  30.069  1.00  0.00     0.167 HD
ATOM     61  C   UNL A   1      42.404  33.683  31.464  1.00  0.00     0.074 A 
ATOM     62  C   UNL A   1      41.221  34.279  32.049  1.00  0.00     0.031 C 
ATOM     63  C   UNL A   1      43.645  34.227  31.541  1.00  0.00     0.034 A 
BRANCH  50  64
ATOM     64  C   UNL A   1      48.058  30.901  28.718  1.00  0.00     0.023 A 
ATOM     65  C   UNL A   1      48.979  30.289  29.586  1.00  0.00     0.031 A 
ATOM     66  C   UNL A   1      48.539  31.407  27.497  1.00  0.00     0.131 A 
ATOM     67  C   UNL A   1      50.342  30.258  29.252  1.00  0.00     0.055 A 
ATOM     68  C   UNL A   1      49.883  31.303  27.136  1.00  0.00     0.041 A 
ATOM     69  F   UNL A   1      47.711  32.024  26.639  1.00  0.00    -0.206 F 
ATOM     70  C   UNL A   1      50.797  30.739  28.021  1.00  0.00     0.022 A 
BRANCH  67  71
ATOM     71  S   UNL A   1      51.530  29.705  30.505  1.00  0.00     0.124 S 
ATOM     72  O   UNL A   1      52.649  30.615  30.273  1.00  0.00    -0.237 OA
ATOM     73  O   UNL A   1      50.793  29.901  31.748  1.00  0.00    -0.237 OA
ATOM     74  O   UNL A   1      51.785  28.311  30.144  1.00  0.00    -0.744 OA
ENDBRANCH  67  71
ENDBRANCH  50  64
BRANCH  51  75
ATOM     75  C   UNL A   1      38.275  31.471  30.903  1.00  0.00     0.023 A 
ATOM     76  C   UNL A   1      37.346  32.094  30.055  1.00  0.00     0.031 A 
ATOM     77  C   UNL A   1      37.814  30.981  32.138  1.00  0.00     0.131 A 
ATOM     78  C   UNL A   1      36.015  32.253  30.473  1.00  0.00     0.055 A 
ATOM     79  C   UNL A   1      36.479  31.092  32.526  1.00  0.00     0.041 A 
ATOM     80  F   UNL A   1      38.662  30.379  32.989  1.00  0.00    -0.206 F 
ATOM     81  C   UNL A   1      35.573  31.745  31.697  1.00  0.00     0.022 A 
BRANCH  78  82
ATOM     82  S   UNL A   1      34.888  33.224  29.434  1.00  0.00     0.124 S 
ATOM     83  O   UNL A   1      34.310  32.192  28.581  1.00  0.00    -0.237 OA
ATOM     84  O   UNL A   1      33.996  33.813  30.427  1.00  0.00    -0.237 OA
ATOM     85  O   UNL A   1      35.777  34.167  28.759  1.00  0.00    -0.744 OA
ENDBRANCH  78  82
ENDBRANCH  51  75
BRANCH  63  86
ATOM     86  C   UNL A   1      43.772  35.572  32.210  1.00  0.00     0.023 A 
ATOM     87  C   UNL A   1      43.956  35.700  33.597  1.00  0.00     0.031 A 
ATOM     88  C   UNL A   1      43.735  36.742  31.432  1.00  0.00     0.131 A 
ATOM     89  C   UNL A   1      44.062  36.977  34.169  1.00  0.00     0.055 A 
ATOM     90  C   UNL A   1      43.890  38.007  32.000  1.00  0.00     0.041 A 
ATOM     91  F   UNL A   1      43.564  36.673  30.102  1.00  0.00    -0.206 F 
ATOM     92  C   UNL A   1      44.047  38.130  33.377  1.00  0.00     0.022 A 
BRANCH  89  93
ATOM     93  S   UNL A   1      44.175  37.121  35.973  1.00  0.00     0.124 S 
ATOM     94  O   UNL A   1      42.975  36.415  36.410  1.00  0.00    -0.237 OA
ATOM     95  O   UNL A   1      45.443  36.459  36.262  1.00  0.00    -0.237 OA
ATOM     96  O   UNL A   1      44.165  38.564  36.205  1.00  0.00    -0.744 OA
ENDBRANCH  89  93
ENDBRANCH  63  86
ENDBRANCH  37  38
ENDBRANCH  30  32
ENDBRANCH  29  30
ENDBRANCH  28  29
ENDBRANCH  27  28
ENDBRANCH   1  27
TORSDOF 23
ENDMDL
