MODEL 1
REMARK VINA RESULT:     -11.6      0.000      0.000
REMARK SMILES COc1ccc(C(F)(F)F)cc1-c1cccnc1C(=O)OCCOCCOC(=O)c1ccc(-c2c3nc(c(-c4cc(S(=O)(=O)[O-])ccc4F)c4ccc([nH]4)c(-c4cc(S(=O)(=O)[O-])ccc4F)c4nc(c(-c5cc(S(=O)(=O)[O-])ccc5F)c5ccc2[nH]5)C=C4)C=C3)cc1
REMARK SMILES IDX 25 1 24 2 23 3 22 4 21 5 19 6 20 7 18 8 13 9 14 10 15 11
REMARK SMILES IDX 17 12 16 13 12 14 3 15 4 16 5 17 11 18 6 19 2 20 1 21 7 22
REMARK SMILES IDX 8 23 9 24 10 25 26 26 27 27 28 28 29 29 30 30 31 31 92 32
REMARK SMILES IDX 32 33 91 34 33 35 34 36 35 37 85 38 36 39 90 40 84 41 86 42
REMARK SMILES IDX 37 43 89 44 83 45 82 46 38 48 70 49 50 50 69 51 51 52 54 53
REMARK SMILES IDX 68 54 87 55 52 56 53 57 67 59 88 60 55 61 39 62 40 63 48 64
REMARK SMILES IDX 41 65 47 66 49 67 46 68 42 69 43 70 44 71 45 72 71 73 72 74
REMARK SMILES IDX 80 75 73 76 79 77 81 78 78 79 74 80 75 81 76 82 77 83 56 84
REMARK SMILES IDX 57 85 65 86 58 87 64 88 66 89 63 90 59 91 60 92 61 93 62 94
REMARK H PARENT 86 47 54 58
REMARK Flexibility Score: inf
ROOT
ATOM      1  C   UNL A   1      31.322  31.874  26.486  1.00  0.00     0.202 C 
ENDROOT
BRANCH   1   2
ATOM      2  O   UNL A   1      31.957  30.760  27.114  1.00  0.00    -0.374 OA
BRANCH   2   3
ATOM      3  C   UNL A   1      32.776  29.925  26.294  1.00  0.00     0.202 C 
BRANCH   3   4
ATOM      4  C   UNL A   1      33.509  28.809  27.036  1.00  0.00     0.261 C 
BRANCH   4   5
ATOM      5  O   UNL A   1      33.080  27.529  26.542  1.00  0.00    -0.458 OA
BRANCH   5   6
ATOM      6  C   UNL A   1      31.815  27.165  26.867  1.00  0.00     0.357 C 
ATOM      7  O   UNL A   1      31.074  27.765  27.633  1.00  0.00    -0.244 OA
BRANCH   6   8
ATOM      8  C   UNL A   1      31.386  25.955  26.093  1.00  0.00     0.156 A 
ATOM      9  C   UNL A   1      30.969  25.974  24.748  1.00  0.00     0.019 A 
ATOM     10  C   UNL A   1      30.723  24.707  24.180  1.00  0.00     0.013 A 
ATOM     11  C   UNL A   1      30.815  23.537  24.931  1.00  0.00     0.021 A 
ATOM     12  N   UNL A   1      31.483  24.811  26.844  1.00  0.00    -0.249 NA
ATOM     13  C   UNL A   1      31.181  23.642  26.255  1.00  0.00     0.112 A 
BRANCH   9  14
ATOM     14  C   UNL A   1      30.738  27.196  23.938  1.00  0.00     0.027 A 
ATOM     15  C   UNL A   1      31.767  27.812  23.189  1.00  0.00     0.126 A 
ATOM     16  C   UNL A   1      31.522  28.933  22.389  1.00  0.00     0.048 A 
ATOM     17  C   UNL A   1      30.231  29.439  22.271  1.00  0.00     0.017 A 
ATOM     18  C   UNL A   1      29.458  27.778  23.854  1.00  0.00     0.025 A 
ATOM     19  C   UNL A   1      29.182  28.860  22.995  1.00  0.00     0.056 A 
BRANCH  15  20
ATOM     20  O   UNL A   1      33.078  27.409  23.289  1.00  0.00    -0.496 OA
ATOM     21  C   UNL A   1      33.542  26.845  22.064  1.00  0.00     0.278 C 
ENDBRANCH  15  20
BRANCH  19  22
ATOM     22  C   UNL A   1      27.772  29.379  22.834  1.00  0.00     0.416 C 
ATOM     23  F   UNL A   1      27.549  29.919  21.608  1.00  0.00    -0.166 F 
ATOM     24  F   UNL A   1      26.841  28.402  23.005  1.00  0.00    -0.166 F 
ATOM     25  F   UNL A   1      27.455  30.349  23.737  1.00  0.00    -0.166 F 
ENDBRANCH  19  22
ENDBRANCH   9  14
ENDBRANCH   6   8
ENDBRANCH   5   6
ENDBRANCH   4   5
ENDBRANCH   3   4
ENDBRANCH   2   3
ENDBRANCH   1   2
BRANCH   1  26
ATOM     26  C   UNL A   1      31.942  33.248  26.769  1.00  0.00     0.261 C 
BRANCH  26  27
ATOM     27  O   UNL A   1      32.566  33.328  28.063  1.00  0.00    -0.460 OA
BRANCH  27  28
ATOM     28  C   UNL A   1      33.704  34.066  28.097  1.00  0.00     0.338 C 
ATOM     29  O   UNL A   1      33.785  35.288  28.029  1.00  0.00    -0.246 OA
BRANCH  28  30
ATOM     30  C   UNL A   1      34.872  33.212  28.382  1.00  0.00     0.060 A 
ATOM     31  C   UNL A   1      34.632  31.925  28.876  1.00  0.00     0.016 A 
ATOM     32  C   UNL A   1      36.177  33.694  28.272  1.00  0.00     0.016 A 
ATOM     33  C   UNL A   1      35.694  31.130  29.308  1.00  0.00     0.010 A 
ATOM     34  C   UNL A   1      37.242  32.898  28.710  1.00  0.00     0.010 A 
ATOM     35  C   UNL A   1      37.003  31.626  29.263  1.00  0.00    -0.014 A 
BRANCH  35  36
ATOM     36  C   UNL A   1      38.100  30.887  29.939  1.00  0.00     0.031 A 
ATOM     37  C   UNL A   1      38.426  31.214  31.372  1.00  0.00     0.074 A 
ATOM     38  C   UNL A   1      38.784  29.924  29.296  1.00  0.00     0.049 A 
ATOM     39  N   UNL A   1      39.382  30.752  32.135  1.00  0.00    -0.248 NA
ATOM     40  C   UNL A   1      37.552  32.198  32.028  1.00  0.00     0.031 C 
ATOM     41  C   UNL A   1      38.518  29.469  27.933  1.00  0.00     0.029 A 
ATOM     42  N   UNL A   1      39.851  29.162  29.702  1.00  0.00    -0.354 N 
ATOM     43  C   UNL A   1      39.229  31.388  33.363  1.00  0.00     0.074 A 
ATOM     44  C   UNL A   1      38.111  32.299  33.224  1.00  0.00     0.031 C 
ATOM     45  C   UNL A   1      39.411  28.519  27.608  1.00  0.00     0.029 A 
ATOM     46  C   UNL A   1      40.333  28.321  28.725  1.00  0.00     0.049 A 
ATOM     47  H   UNL A   1      40.234  29.212  30.608  1.00  0.00     0.167 HD
ATOM     48  C   UNL A   1      39.944  31.218  34.503  1.00  0.00     0.034 A 
ATOM     49  C   UNL A   1      41.407  27.506  28.728  1.00  0.00     0.034 A 
ATOM     50  C   UNL A   1      41.062  30.314  34.623  1.00  0.00     0.049 A 
ATOM     51  C   UNL A   1      42.257  27.413  29.973  1.00  0.00     0.074 A 
ATOM     52  C   UNL A   1      41.856  30.065  35.730  1.00  0.00     0.029 A 
ATOM     53  N   UNL A   1      41.556  29.519  33.596  1.00  0.00    -0.354 N 
ATOM     54  N   UNL A   1      42.107  28.026  31.125  1.00  0.00    -0.248 NA
ATOM     55  C   UNL A   1      43.415  26.510  29.920  1.00  0.00     0.031 C 
ATOM     56  C   UNL A   1      42.868  29.173  35.353  1.00  0.00     0.029 A 
ATOM     57  C   UNL A   1      42.660  28.804  34.034  1.00  0.00     0.049 A 
ATOM     58  H   UNL A   1      41.175  29.469  32.689  1.00  0.00     0.167 HD
ATOM     59  C   UNL A   1      43.129  27.551  31.944  1.00  0.00     0.074 A 
ATOM     60  C   UNL A   1      43.886  26.601  31.155  1.00  0.00     0.031 C 
ATOM     61  C   UNL A   1      43.411  27.864  33.235  1.00  0.00     0.034 A 
BRANCH  48  62
ATOM     62  C   UNL A   1      39.564  32.072  35.689  1.00  0.00     0.023 A 
ATOM     63  C   UNL A   1      38.767  31.573  36.735  1.00  0.00     0.031 A 
ATOM     64  C   UNL A   1      39.973  33.415  35.757  1.00  0.00     0.131 A 
ATOM     65  C   UNL A   1      38.341  32.431  37.761  1.00  0.00     0.055 A 
ATOM     66  C   UNL A   1      39.614  34.242  36.824  1.00  0.00     0.041 A 
ATOM     67  F   UNL A   1      40.716  33.954  34.778  1.00  0.00    -0.206 F 
ATOM     68  C   UNL A   1      38.780  33.756  37.826  1.00  0.00     0.022 A 
BRANCH  65  69
ATOM     69  S   UNL A   1      37.086  31.833  38.927  1.00  0.00     0.124 S 
ATOM     70  O   UNL A   1      35.951  32.693  38.603  1.00  0.00    -0.237 OA
ATOM     71  O   UNL A   1      36.953  30.430  38.554  1.00  0.00    -0.237 OA
ATOM     72  O   UNL A   1      37.691  32.077  40.235  1.00  0.00    -0.744 OA
ENDBRANCH  65  69
ENDBRANCH  48  62
BRANCH  49  73
ATOM     73  C   UNL A   1      41.772  26.739  27.504  1.00  0.00     0.023 A 
ATOM     74  C   UNL A   1      41.591  25.348  27.436  1.00  0.00     0.031 A 
ATOM     75  C   UNL A   1      42.363  27.381  26.401  1.00  0.00     0.131 A 
ATOM     76  C   UNL A   1      42.037  24.639  26.310  1.00  0.00     0.055 A 
ATOM     77  C   UNL A   1      42.758  26.679  25.262  1.00  0.00     0.041 A 
ATOM     78  F   UNL A   1      42.559  28.710  26.414  1.00  0.00    -0.206 F 
ATOM     79  C   UNL A   1      42.607  25.296  25.218  1.00  0.00     0.022 A 
BRANCH  76  80
ATOM     80  S   UNL A   1      41.937  22.828  26.331  1.00  0.00     0.124 S 
ATOM     81  O   UNL A   1      42.355  22.523  27.694  1.00  0.00    -0.237 OA
ATOM     82  O   UNL A   1      40.529  22.598  26.023  1.00  0.00    -0.237 OA
ATOM     83  O   UNL A   1      42.876  22.424  25.285  1.00  0.00    -0.744 OA
ENDBRANCH  76  80
ENDBRANCH  49  73
BRANCH  61  84
ATOM     84  C   UNL A   1      44.553  27.125  33.891  1.00  0.00     0.023 A 
ATOM     85  C   UNL A   1      44.397  25.830  34.416  1.00  0.00     0.031 A 
ATOM     86  C   UNL A   1      45.817  27.732  33.990  1.00  0.00     0.131 A 
ATOM     87  C   UNL A   1      45.475  25.204  35.060  1.00  0.00     0.055 A 
ATOM     88  C   UNL A   1      46.901  27.082  34.583  1.00  0.00     0.041 A 
ATOM     89  F   UNL A   1      46.022  28.968  33.506  1.00  0.00    -0.206 F 
ATOM     90  C   UNL A   1      46.730  25.815  35.132  1.00  0.00     0.022 A 
BRANCH  87  91
ATOM     91  S   UNL A   1      45.198  23.606  35.873  1.00  0.00     0.124 S 
ATOM     92  O   UNL A   1      46.203  22.763  35.236  1.00  0.00    -0.237 OA
ATOM     93  O   UNL A   1      45.432  23.925  37.278  1.00  0.00    -0.237 OA
ATOM     94  O   UNL A   1      43.813  23.284  35.535  1.00  0.00    -0.744 OA
ENDBRANCH  87  91
ENDBRANCH  61  84
ENDBRANCH  35  36
ENDBRANCH  28  30
ENDBRANCH  27  28
ENDBRANCH  26  27
ENDBRANCH   1  26
TORSDOF 20
ENDMDL
MODEL 2
REMARK VINA RESULT:     -11.3      1.432      1.660
REMARK SMILES COc1ccc(C(F)(F)F)cc1-c1cccnc1C(=O)OCCOCCOC(=O)c1ccc(-c2c3nc(c(-c4cc(S(=O)(=O)[O-])ccc4F)c4ccc([nH]4)c(-c4cc(S(=O)(=O)[O-])ccc4F)c4nc(c(-c5cc(S(=O)(=O)[O-])ccc5F)c5ccc2[nH]5)C=C4)C=C3)cc1
REMARK SMILES IDX 25 1 24 2 23 3 22 4 21 5 19 6 20 7 18 8 13 9 14 10 15 11
REMARK SMILES IDX 17 12 16 13 12 14 3 15 4 16 5 17 11 18 6 19 2 20 1 21 7 22
REMARK SMILES IDX 8 23 9 24 10 25 26 26 27 27 28 28 29 29 30 30 31 31 92 32
REMARK SMILES IDX 32 33 91 34 33 35 34 36 35 37 85 38 36 39 90 40 84 41 86 42
REMARK SMILES IDX 37 43 89 44 83 45 82 46 38 48 70 49 50 50 69 51 51 52 54 53
REMARK SMILES IDX 68 54 87 55 52 56 53 57 67 59 88 60 55 61 39 62 40 63 48 64
REMARK SMILES IDX 41 65 47 66 49 67 46 68 42 69 43 70 44 71 45 72 71 73 72 74
REMARK SMILES IDX 80 75 73 76 79 77 81 78 78 79 74 80 75 81 76 82 77 83 56 84
REMARK SMILES IDX 57 85 65 86 58 87 64 88 66 89 63 90 59 91 60 92 61 93 62 94
REMARK H PARENT 86 47 54 58
REMARK Flexibility Score: inf
ROOT
ATOM      1  C   UNL A   1      31.401  32.024  26.500  1.00  0.00     0.202 C 
ENDROOT
BRANCH   1   2
ATOM      2  O   UNL A   1      31.595  30.615  26.372  1.00  0.00    -0.374 OA
BRANCH   2   3
ATOM      3  C   UNL A   1      32.935  30.152  26.192  1.00  0.00     0.202 C 
BRANCH   3   4
ATOM      4  C   UNL A   1      33.345  28.993  27.099  1.00  0.00     0.261 C 
BRANCH   4   5
ATOM      5  O   UNL A   1      32.965  27.743  26.500  1.00  0.00    -0.458 OA
BRANCH   5   6
ATOM      6  C   UNL A   1      31.780  27.228  26.912  1.00  0.00     0.357 C 
ATOM      7  O   UNL A   1      31.056  27.706  27.774  1.00  0.00    -0.244 OA
BRANCH   6   8
ATOM      8  C   UNL A   1      31.410  26.018  26.108  1.00  0.00     0.156 A 
ATOM      9  C   UNL A   1      31.037  26.045  24.750  1.00  0.00     0.019 A 
ATOM     10  C   UNL A   1      30.844  24.780  24.157  1.00  0.00     0.013 A 
ATOM     11  C   UNL A   1      30.941  23.603  24.897  1.00  0.00     0.021 A 
ATOM     12  N   UNL A   1      31.511  24.867  26.848  1.00  0.00    -0.249 NA
ATOM     13  C   UNL A   1      31.260  23.699  26.233  1.00  0.00     0.112 A 
BRANCH   9  14
ATOM     14  C   UNL A   1      30.802  27.271  23.948  1.00  0.00     0.027 A 
ATOM     15  C   UNL A   1      31.837  27.918  23.235  1.00  0.00     0.126 A 
ATOM     16  C   UNL A   1      31.590  29.043  22.441  1.00  0.00     0.048 A 
ATOM     17  C   UNL A   1      30.292  29.523  22.295  1.00  0.00     0.017 A 
ATOM     18  C   UNL A   1      29.512  27.828  23.837  1.00  0.00     0.025 A 
ATOM     19  C   UNL A   1      29.237  28.914  22.984  1.00  0.00     0.056 A 
BRANCH  15  20
ATOM     20  O   UNL A   1      33.153  27.542  23.365  1.00  0.00    -0.496 OA
ATOM     21  C   UNL A   1      34.032  28.549  22.865  1.00  0.00     0.278 C 
ENDBRANCH  15  20
BRANCH  19  22
ATOM     22  C   UNL A   1      27.820  29.405  22.791  1.00  0.00     0.416 C 
ATOM     23  F   UNL A   1      27.570  29.798  21.515  1.00  0.00    -0.166 F 
ATOM     24  F   UNL A   1      26.899  28.451  23.093  1.00  0.00    -0.166 F 
ATOM     25  F   UNL A   1      27.515  30.473  23.581  1.00  0.00    -0.166 F 
ENDBRANCH  19  22
ENDBRANCH   9  14
ENDBRANCH   6   8
ENDBRANCH   5   6
ENDBRANCH   4   5
ENDBRANCH   3   4
ENDBRANCH   2   3
ENDBRANCH   1   2
BRANCH   1  26
ATOM     26  C   UNL A   1      32.635  32.837  26.912  1.00  0.00     0.261 C 
BRANCH  26  27
ATOM     27  O   UNL A   1      32.356  33.795  27.950  1.00  0.00    -0.460 OA
BRANCH  27  28
ATOM     28  C   UNL A   1      33.437  34.496  28.376  1.00  0.00     0.338 C 
ATOM     29  O   UNL A   1      33.479  35.698  28.618  1.00  0.00    -0.246 OA
BRANCH  28  30
ATOM     30  C   UNL A   1      34.564  33.592  28.671  1.00  0.00     0.060 A 
ATOM     31  C   UNL A   1      34.291  32.429  29.399  1.00  0.00     0.016 A 
ATOM     32  C   UNL A   1      35.877  33.924  28.337  1.00  0.00     0.016 A 
ATOM     33  C   UNL A   1      35.336  31.616  29.840  1.00  0.00     0.010 A 
ATOM     34  C   UNL A   1      36.926  33.111  28.782  1.00  0.00     0.010 A 
ATOM     35  C   UNL A   1      36.663  31.972  29.566  1.00  0.00    -0.014 A 
BRANCH  35  36
ATOM     36  C   UNL A   1      37.777  31.250  30.231  1.00  0.00     0.031 A 
ATOM     37  C   UNL A   1      38.122  31.592  31.656  1.00  0.00     0.074 A 
ATOM     38  C   UNL A   1      38.462  30.288  29.586  1.00  0.00     0.049 A 
ATOM     39  N   UNL A   1      39.095  31.147  32.408  1.00  0.00    -0.248 NA
ATOM     40  C   UNL A   1      37.249  32.574  32.317  1.00  0.00     0.031 C 
ATOM     41  C   UNL A   1      38.179  29.818  28.231  1.00  0.00     0.029 A 
ATOM     42  N   UNL A   1      39.542  29.540  29.983  1.00  0.00    -0.354 N 
ATOM     43  C   UNL A   1      38.953  31.792  33.633  1.00  0.00     0.074 A 
ATOM     44  C   UNL A   1      37.825  32.691  33.504  1.00  0.00     0.031 C 
ATOM     45  C   UNL A   1      39.077  28.874  27.901  1.00  0.00     0.029 A 
ATOM     46  C   UNL A   1      40.017  28.695  29.006  1.00  0.00     0.049 A 
ATOM     47  H   UNL A   1      39.938  29.602  30.882  1.00  0.00     0.167 HD
ATOM     48  C   UNL A   1      39.687  31.640  34.763  1.00  0.00     0.034 A 
ATOM     49  C   UNL A   1      41.099  27.891  28.999  1.00  0.00     0.034 A 
ATOM     50  C   UNL A   1      40.816  30.747  34.874  1.00  0.00     0.049 A 
ATOM     51  C   UNL A   1      41.968  27.817  30.232  1.00  0.00     0.074 A 
ATOM     52  C   UNL A   1      41.630  30.516  35.971  1.00  0.00     0.029 A 
ATOM     53  N   UNL A   1      41.302  29.948  33.847  1.00  0.00    -0.354 N 
ATOM     54  N   UNL A   1      41.830  28.439  31.381  1.00  0.00    -0.248 NA
ATOM     55  C   UNL A   1      43.135  26.925  30.169  1.00  0.00     0.031 C 
ATOM     56  C   UNL A   1      42.644  29.630  35.586  1.00  0.00     0.029 A 
ATOM     57  C   UNL A   1      42.420  29.248  34.274  1.00  0.00     0.049 A 
ATOM     58  H   UNL A   1      40.908  29.886  32.946  1.00  0.00     0.167 HD
ATOM     59  C   UNL A   1      42.869  27.981  32.188  1.00  0.00     0.074 A 
ATOM     60  C   UNL A   1      43.624  27.031  31.396  1.00  0.00     0.031 C 
ATOM     61  C   UNL A   1      43.168  28.308  33.472  1.00  0.00     0.034 A 
BRANCH  48  62
ATOM     62  C   UNL A   1      39.317  32.500  35.948  1.00  0.00     0.023 A 
ATOM     63  C   UNL A   1      39.917  33.753  36.169  1.00  0.00     0.031 A 
ATOM     64  C   UNL A   1      38.379  32.045  36.890  1.00  0.00     0.131 A 
ATOM     65  C   UNL A   1      39.631  34.469  37.341  1.00  0.00     0.055 A 
ATOM     66  C   UNL A   1      38.038  32.800  38.014  1.00  0.00     0.041 A 
ATOM     67  F   UNL A   1      37.790  30.847  36.746  1.00  0.00    -0.206 F 
ATOM     68  C   UNL A   1      38.676  34.013  38.254  1.00  0.00     0.022 A 
BRANCH  65  69
ATOM     69  S   UNL A   1      40.633  35.930  37.731  1.00  0.00     0.124 S 
ATOM     70  O   UNL A   1      41.494  36.019  36.554  1.00  0.00    -0.237 OA
ATOM     71  O   UNL A   1      39.626  36.976  37.868  1.00  0.00    -0.237 OA
ATOM     72  O   UNL A   1      41.317  35.555  38.967  1.00  0.00    -0.744 OA
ENDBRANCH  65  69
ENDBRANCH  48  62
BRANCH  49  73
ATOM     73  C   UNL A   1      41.453  27.117  27.776  1.00  0.00     0.023 A 
ATOM     74  C   UNL A   1      41.241  25.730  27.707  1.00  0.00     0.031 A 
ATOM     75  C   UNL A   1      42.064  27.746  26.677  1.00  0.00     0.131 A 
ATOM     76  C   UNL A   1      41.677  25.012  26.583  1.00  0.00     0.055 A 
ATOM     77  C   UNL A   1      42.449  27.036  25.539  1.00  0.00     0.041 A 
ATOM     78  F   UNL A   1      42.290  29.070  26.692  1.00  0.00    -0.206 F 
ATOM     79  C   UNL A   1      42.267  25.656  25.494  1.00  0.00     0.022 A 
BRANCH  76  80
ATOM     80  S   UNL A   1      41.537  23.203  26.601  1.00  0.00     0.124 S 
ATOM     81  O   UNL A   1      40.098  23.017  26.449  1.00  0.00    -0.237 OA
ATOM     82  O   UNL A   1      42.359  22.824  25.457  1.00  0.00    -0.237 OA
ATOM     83  O   UNL A   1      42.080  22.834  27.907  1.00  0.00    -0.744 OA
ENDBRANCH  76  80
ENDBRANCH  49  73
BRANCH  61  84
ATOM     84  C   UNL A   1      44.327  27.586  34.117  1.00  0.00     0.023 A 
ATOM     85  C   UNL A   1      44.140  26.443  34.914  1.00  0.00     0.031 A 
ATOM     86  C   UNL A   1      45.639  28.055  33.927  1.00  0.00     0.131 A 
ATOM     87  C   UNL A   1      45.245  25.836  35.532  1.00  0.00     0.055 A 
ATOM     88  C   UNL A   1      46.739  27.414  34.499  1.00  0.00     0.041 A 
ATOM     89  F   UNL A   1      45.875  29.142  33.175  1.00  0.00    -0.206 F 
ATOM     90  C   UNL A   1      46.543  26.304  35.317  1.00  0.00     0.022 A 
BRANCH  87  91
ATOM     91  S   UNL A   1      44.955  24.467  36.687  1.00  0.00     0.124 S 
ATOM     92  O   UNL A   1      46.251  24.344  37.344  1.00  0.00    -0.237 OA
ATOM     93  O   UNL A   1      43.868  24.980  37.514  1.00  0.00    -0.237 OA
ATOM     94  O   UNL A   1      44.594  23.352  35.814  1.00  0.00    -0.744 OA
ENDBRANCH  87  91
ENDBRANCH  61  84
ENDBRANCH  35  36
ENDBRANCH  28  30
ENDBRANCH  27  28
ENDBRANCH  26  27
ENDBRANCH   1  26
TORSDOF 20
ENDMDL
MODEL 3
REMARK VINA RESULT:     -11.2      1.685      2.623
REMARK SMILES COc1ccc(C(F)(F)F)cc1-c1cccnc1C(=O)OCCOCCOC(=O)c1ccc(-c2c3nc(c(-c4cc(S(=O)(=O)[O-])ccc4F)c4ccc([nH]4)c(-c4cc(S(=O)(=O)[O-])ccc4F)c4nc(c(-c5cc(S(=O)(=O)[O-])ccc5F)c5ccc2[nH]5)C=C4)C=C3)cc1
REMARK SMILES IDX 25 1 24 2 23 3 22 4 21 5 19 6 20 7 18 8 13 9 14 10 15 11
REMARK SMILES IDX 17 12 16 13 12 14 3 15 4 16 5 17 11 18 6 19 2 20 1 21 7 22
REMARK SMILES IDX 8 23 9 24 10 25 26 26 27 27 28 28 29 29 30 30 31 31 92 32
REMARK SMILES IDX 32 33 91 34 33 35 34 36 35 37 85 38 36 39 90 40 84 41 86 42
REMARK SMILES IDX 37 43 89 44 83 45 82 46 38 48 70 49 50 50 69 51 51 52 54 53
REMARK SMILES IDX 68 54 87 55 52 56 53 57 67 59 88 60 55 61 39 62 40 63 48 64
REMARK SMILES IDX 41 65 47 66 49 67 46 68 42 69 43 70 44 71 45 72 71 73 72 74
REMARK SMILES IDX 80 75 73 76 79 77 81 78 78 79 74 80 75 81 76 82 77 83 56 84
REMARK SMILES IDX 57 85 65 86 58 87 64 88 66 89 63 90 59 91 60 92 61 93 62 94
REMARK H PARENT 86 47 54 58
REMARK Flexibility Score: inf
ROOT
ATOM      1  C   UNL A   1      31.402  32.015  26.643  1.00  0.00     0.202 C 
ENDROOT
BRANCH   1   2
ATOM      2  O   UNL A   1      32.041  30.893  27.250  1.00  0.00    -0.374 OA
BRANCH   2   3
ATOM      3  C   UNL A   1      33.247  30.420  26.647  1.00  0.00     0.202 C 
BRANCH   3   4
ATOM      4  C   UNL A   1      33.396  28.899  26.608  1.00  0.00     0.261 C 
BRANCH   4   5
ATOM      5  O   UNL A   1      32.300  28.317  25.883  1.00  0.00    -0.458 OA
BRANCH   5   6
ATOM      6  C   UNL A   1      32.345  28.456  24.535  1.00  0.00     0.357 C 
ATOM      7  O   UNL A   1      33.358  28.451  23.851  1.00  0.00    -0.244 OA
BRANCH   6   8
ATOM      8  C   UNL A   1      30.965  28.531  23.955  1.00  0.00     0.156 A 
ATOM      9  C   UNL A   1      30.141  27.416  23.706  1.00  0.00     0.019 A 
ATOM     10  C   UNL A   1      28.836  27.722  23.268  1.00  0.00     0.013 A 
ATOM     11  C   UNL A   1      28.433  29.034  23.029  1.00  0.00     0.021 A 
ATOM     12  N   UNL A   1      30.581  29.828  23.726  1.00  0.00    -0.249 NA
ATOM     13  C   UNL A   1      29.341  30.044  23.257  1.00  0.00     0.112 A 
BRANCH   9  14
ATOM     14  C   UNL A   1      30.557  25.997  23.827  1.00  0.00     0.027 A 
ATOM     15  C   UNL A   1      31.275  25.329  22.808  1.00  0.00     0.126 A 
ATOM     16  C   UNL A   1      31.706  24.007  22.958  1.00  0.00     0.048 A 
ATOM     17  C   UNL A   1      31.479  23.330  24.152  1.00  0.00     0.017 A 
ATOM     18  C   UNL A   1      30.280  25.257  24.994  1.00  0.00     0.025 A 
ATOM     19  C   UNL A   1      30.772  23.952  25.188  1.00  0.00     0.056 A 
BRANCH  15  20
ATOM     20  O   UNL A   1      31.495  25.905  21.579  1.00  0.00    -0.496 OA
ATOM     21  C   UNL A   1      32.889  26.072  21.326  1.00  0.00     0.278 C 
ENDBRANCH  15  20
BRANCH  19  22
ATOM     22  C   UNL A   1      30.565  23.236  26.503  1.00  0.00     0.416 C 
ATOM     23  F   UNL A   1      31.588  23.433  27.375  1.00  0.00    -0.166 F 
ATOM     24  F   UNL A   1      29.430  23.637  27.135  1.00  0.00    -0.166 F 
ATOM     25  F   UNL A   1      30.447  21.885  26.360  1.00  0.00    -0.166 F 
ENDBRANCH  19  22
ENDBRANCH   9  14
ENDBRANCH   6   8
ENDBRANCH   5   6
ENDBRANCH   4   5
ENDBRANCH   3   4
ENDBRANCH   2   3
ENDBRANCH   1   2
BRANCH   1  26
ATOM     26  C   UNL A   1      32.097  33.369  26.834  1.00  0.00     0.261 C 
BRANCH  26  27
ATOM     27  O   UNL A   1      32.492  33.612  28.196  1.00  0.00    -0.460 OA
BRANCH  27  28
ATOM     28  C   UNL A   1      33.644  34.315  28.334  1.00  0.00     0.338 C 
ATOM     29  O   UNL A   1      33.757  35.536  28.353  1.00  0.00    -0.246 OA
BRANCH  28  30
ATOM     30  C   UNL A   1      34.776  33.414  28.617  1.00  0.00     0.060 A 
ATOM     31  C   UNL A   1      34.506  32.227  29.308  1.00  0.00     0.016 A 
ATOM     32  C   UNL A   1      36.091  33.769  28.311  1.00  0.00     0.016 A 
ATOM     33  C   UNL A   1      35.554  31.412  29.738  1.00  0.00     0.010 A 
ATOM     34  C   UNL A   1      37.142  32.953  28.747  1.00  0.00     0.010 A 
ATOM     35  C   UNL A   1      36.880  31.790  29.494  1.00  0.00    -0.014 A 
BRANCH  35  36
ATOM     36  C   UNL A   1      37.993  31.059  30.153  1.00  0.00     0.031 A 
ATOM     37  C   UNL A   1      38.355  31.407  31.572  1.00  0.00     0.074 A 
ATOM     38  C   UNL A   1      38.660  30.085  29.507  1.00  0.00     0.049 A 
ATOM     39  N   UNL A   1      39.330  30.955  32.317  1.00  0.00    -0.248 NA
ATOM     40  C   UNL A   1      37.499  32.402  32.235  1.00  0.00     0.031 C 
ATOM     41  C   UNL A   1      38.359  29.610  28.159  1.00  0.00     0.029 A 
ATOM     42  N   UNL A   1      39.735  29.328  29.899  1.00  0.00    -0.354 N 
ATOM     43  C   UNL A   1      39.208  31.609  33.539  1.00  0.00     0.074 A 
ATOM     44  C   UNL A   1      38.089  32.521  33.415  1.00  0.00     0.031 C 
ATOM     45  C   UNL A   1      39.242  28.653  27.826  1.00  0.00     0.029 A 
ATOM     46  C   UNL A   1      40.191  28.471  28.923  1.00  0.00     0.049 A 
ATOM     47  H   UNL A   1      40.141  29.391  30.793  1.00  0.00     0.167 HD
ATOM     48  C   UNL A   1      39.951  31.456  34.663  1.00  0.00     0.034 A 
ATOM     49  C   UNL A   1      41.264  27.655  28.911  1.00  0.00     0.034 A 
ATOM     50  C   UNL A   1      41.071  30.552  34.769  1.00  0.00     0.049 A 
ATOM     51  C   UNL A   1      42.145  27.579  30.136  1.00  0.00     0.074 A 
ATOM     52  C   UNL A   1      41.892  30.318  35.859  1.00  0.00     0.029 A 
ATOM     53  N   UNL A   1      41.538  29.741  33.743  1.00  0.00    -0.354 N 
ATOM     54  N   UNL A   1      42.025  28.210  31.282  1.00  0.00    -0.248 NA
ATOM     55  C   UNL A   1      43.301  26.673  30.067  1.00  0.00     0.031 C 
ATOM     56  C   UNL A   1      42.893  29.419  35.471  1.00  0.00     0.029 A 
ATOM     57  C   UNL A   1      42.652  29.031  34.163  1.00  0.00     0.049 A 
ATOM     58  H   UNL A   1      41.134  29.677  32.846  1.00  0.00     0.167 HD
ATOM     59  C   UNL A   1      43.067  27.746  32.081  1.00  0.00     0.074 A 
ATOM     60  C   UNL A   1      43.802  26.782  31.288  1.00  0.00     0.031 C 
ATOM     61  C   UNL A   1      43.381  28.077  33.360  1.00  0.00     0.034 A 
BRANCH  48  62
ATOM     62  C   UNL A   1      39.602  32.328  35.846  1.00  0.00     0.023 A 
ATOM     63  C   UNL A   1      38.785  31.864  36.892  1.00  0.00     0.031 A 
ATOM     64  C   UNL A   1      40.062  33.655  35.909  1.00  0.00     0.131 A 
ATOM     65  C   UNL A   1      38.391  32.741  37.915  1.00  0.00     0.055 A 
ATOM     66  C   UNL A   1      39.733  34.499  36.972  1.00  0.00     0.041 A 
ATOM     67  F   UNL A   1      40.826  34.162  34.929  1.00  0.00    -0.206 F 
ATOM     68  C   UNL A   1      38.879  34.049  37.975  1.00  0.00     0.022 A 
BRANCH  65  69
ATOM     69  S   UNL A   1      37.113  32.196  39.080  1.00  0.00     0.124 S 
ATOM     70  O   UNL A   1      35.907  32.759  38.479  1.00  0.00    -0.237 OA
ATOM     71  O   UNL A   1      37.237  30.744  39.028  1.00  0.00    -0.237 OA
ATOM     72  O   UNL A   1      37.516  32.813  40.343  1.00  0.00    -0.744 OA
ENDBRANCH  65  69
ENDBRANCH  48  62
BRANCH  49  73
ATOM     73  C   UNL A   1      41.598  26.868  27.690  1.00  0.00     0.023 A 
ATOM     74  C   UNL A   1      41.327  25.492  27.615  1.00  0.00     0.031 A 
ATOM     75  C   UNL A   1      42.245  27.473  26.598  1.00  0.00     0.131 A 
ATOM     76  C   UNL A   1      41.744  24.759  26.493  1.00  0.00     0.055 A 
ATOM     77  C   UNL A   1      42.612  26.750  25.463  1.00  0.00     0.041 A 
ATOM     78  F   UNL A   1      42.527  28.787  26.619  1.00  0.00    -0.206 F 
ATOM     79  C   UNL A   1      42.372  25.379  25.412  1.00  0.00     0.022 A 
BRANCH  76  80
ATOM     80  S   UNL A   1      41.527  22.958  26.506  1.00  0.00     0.124 S 
ATOM     81  O   UNL A   1      40.075  22.834  26.441  1.00  0.00    -0.237 OA
ATOM     82  O   UNL A   1      42.259  22.555  25.309  1.00  0.00    -0.237 OA
ATOM     83  O   UNL A   1      42.133  22.551  27.772  1.00  0.00    -0.744 OA
ENDBRANCH  76  80
ENDBRANCH  49  73
BRANCH  61  84
ATOM     84  C   UNL A   1      44.538  27.346  33.998  1.00  0.00     0.023 A 
ATOM     85  C   UNL A   1      44.348  26.198  34.787  1.00  0.00     0.031 A 
ATOM     86  C   UNL A   1      45.852  27.812  33.811  1.00  0.00     0.131 A 
ATOM     87  C   UNL A   1      45.451  25.583  35.400  1.00  0.00     0.055 A 
ATOM     88  C   UNL A   1      46.950  27.163  34.377  1.00  0.00     0.041 A 
ATOM     89  F   UNL A   1      46.091  28.904  33.067  1.00  0.00    -0.206 F 
ATOM     90  C   UNL A   1      46.752  26.048  35.187  1.00  0.00     0.022 A 
BRANCH  87  91
ATOM     91  S   UNL A   1      45.158  24.206  36.545  1.00  0.00     0.124 S 
ATOM     92  O   UNL A   1      44.383  23.286  35.721  1.00  0.00    -0.237 OA
ATOM     93  O   UNL A   1      46.514  23.779  36.873  1.00  0.00    -0.237 OA
ATOM     94  O   UNL A   1      44.422  24.826  37.645  1.00  0.00    -0.744 OA
ENDBRANCH  87  91
ENDBRANCH  61  84
ENDBRANCH  35  36
ENDBRANCH  28  30
ENDBRANCH  27  28
ENDBRANCH  26  27
ENDBRANCH   1  26
TORSDOF 20
ENDMDL
