MODEL 1
REMARK VINA RESULT:     -11.3      0.000      0.000
REMARK SMILES O=C(OCCOCCOC(=O)[C@H]1c2[nH]cnc2CC[N@H+]1Cc1ccoc1)c1ccc(-c2c3nc(c(-c4cc(S(=O)(=O)[O-])ccc4F)c4ccc([nH]4)c(-c4cc(S(=O)(=O)[O-])ccc4F)c4nc(c(-c5cc(S(=O)(=O)[O-])ccc5F)c5ccc2[nH]5)C=C4)C=C3)cc1
REMARK SMILES IDX 5 1 4 2 3 3 2 4 1 5 27 6 28 7 89 8 29 9 88 10 30 11 31 12
REMARK SMILES IDX 32 13 82 14 33 15 87 16 81 17 83 18 34 19 86 20 80 21 79 22
REMARK SMILES IDX 35 24 67 25 47 26 66 27 48 28 51 29 65 30 84 31 49 32 50 33
REMARK SMILES IDX 64 35 85 36 52 37 36 38 37 39 45 40 38 41 44 42 46 43 43 44
REMARK SMILES IDX 39 45 40 46 41 47 42 48 68 49 69 50 77 51 70 52 76 53 78 54
REMARK SMILES IDX 75 55 71 56 72 57 73 58 74 59 53 60 54 61 62 62 55 63 61 64
REMARK SMILES IDX 63 65 60 66 56 67 57 68 58 69 59 70 6 71 7 72 8 73 9 74
REMARK SMILES IDX 10 75 11 76 12 77 13 78 20 79 14 80 17 81 19 82 15 84 16 86
REMARK SMILES IDX 18 87 21 88 22 89 23 90 26 91 24 92 25 93
REMARK H PARENT 83 23 51 34 20 83 14 85
REMARK Flexibility Score: inf
ROOT
ATOM      1  C   UNL A   1      37.612  31.103  32.878  1.00  0.00     0.202 C 
ENDROOT
BRANCH   1   2
ATOM      2  C   UNL A   1      36.537  30.379  32.065  1.00  0.00     0.261 C 
BRANCH   2   3
ATOM      3  O   UNL A   1      36.504  30.744  30.689  1.00  0.00    -0.460 OA
BRANCH   3   4
ATOM      4  C   UNL A   1      36.568  29.914  29.627  1.00  0.00     0.338 C 
ATOM      5  O   UNL A   1      35.558  29.812  28.929  1.00  0.00    -0.246 OA
BRANCH   4   6
ATOM      6  C   UNL A   1      37.775  29.102  29.259  1.00  0.00     0.060 A 
ATOM      7  C   UNL A   1      38.397  28.122  30.039  1.00  0.00     0.016 A 
ATOM      8  C   UNL A   1      38.331  29.403  28.001  1.00  0.00     0.016 A 
ATOM      9  C   UNL A   1      39.643  27.637  29.697  1.00  0.00     0.010 A 
ATOM     10  C   UNL A   1      39.562  28.892  27.629  1.00  0.00     0.010 A 
ATOM     11  C   UNL A   1      40.247  28.097  28.537  1.00  0.00    -0.014 A 
BRANCH  11  12
ATOM     12  C   UNL A   1      41.637  27.745  28.341  1.00  0.00     0.031 A 
ATOM     13  C   UNL A   1      41.867  26.428  27.708  1.00  0.00     0.074 A 
ATOM     14  C   UNL A   1      42.608  28.604  28.703  1.00  0.00     0.049 A 
ATOM     15  N   UNL A   1      42.439  25.389  28.220  1.00  0.00    -0.248 NA
ATOM     16  C   UNL A   1      41.246  26.185  26.398  1.00  0.00     0.031 C 
ATOM     17  C   UNL A   1      42.453  29.998  29.131  1.00  0.00     0.029 A 
ATOM     18  N   UNL A   1      43.955  28.449  28.647  1.00  0.00    -0.354 N 
ATOM     19  C   UNL A   1      42.465  24.436  27.207  1.00  0.00     0.074 A 
ATOM     20  C   UNL A   1      41.552  24.902  26.199  1.00  0.00     0.031 C 
ATOM     21  C   UNL A   1      43.646  30.623  29.033  1.00  0.00     0.029 A 
ATOM     22  C   UNL A   1      44.658  29.647  28.665  1.00  0.00     0.049 A 
ATOM     23  H   UNL A   1      44.394  27.569  28.598  1.00  0.00     0.167 HD
ATOM     24  C   UNL A   1      43.425  23.472  27.169  1.00  0.00     0.034 A 
ATOM     25  C   UNL A   1      45.951  29.836  28.294  1.00  0.00     0.034 A 
ATOM     26  C   UNL A   1      44.045  23.303  28.463  1.00  0.00     0.049 A 
ATOM     27  C   UNL A   1      46.622  28.513  28.382  1.00  0.00     0.074 A 
ATOM     28  C   UNL A   1      43.578  22.965  29.719  1.00  0.00     0.029 A 
ATOM     29  N   UNL A   1      45.293  23.850  28.668  1.00  0.00    -0.354 N 
ATOM     30  N   UNL A   1      46.802  27.875  29.508  1.00  0.00    -0.248 NA
ATOM     31  C   UNL A   1      46.643  27.670  27.192  1.00  0.00     0.031 C 
ATOM     32  C   UNL A   1      44.328  23.775  30.620  1.00  0.00     0.029 A 
ATOM     33  C   UNL A   1      45.262  24.502  29.876  1.00  0.00     0.049 A 
ATOM     34  H   UNL A   1      46.066  23.783  28.061  1.00  0.00     0.167 HD
ATOM     35  C   UNL A   1      46.518  26.548  29.222  1.00  0.00     0.074 A 
ATOM     36  C   UNL A   1      46.529  26.466  27.762  1.00  0.00     0.031 C 
ATOM     37  C   UNL A   1      46.015  25.705  30.174  1.00  0.00     0.034 A 
BRANCH  24  38
ATOM     38  C   UNL A   1      44.063  22.956  25.896  1.00  0.00     0.023 A 
ATOM     39  C   UNL A   1      44.073  21.563  25.704  1.00  0.00     0.031 A 
ATOM     40  C   UNL A   1      44.907  23.700  25.038  1.00  0.00     0.131 A 
ATOM     41  C   UNL A   1      44.969  20.965  24.801  1.00  0.00     0.055 A 
ATOM     42  C   UNL A   1      45.742  23.105  24.090  1.00  0.00     0.041 A 
ATOM     43  F   UNL A   1      45.051  25.026  25.127  1.00  0.00    -0.206 F 
ATOM     44  C   UNL A   1      45.806  21.727  23.991  1.00  0.00     0.022 A 
BRANCH  41  45
ATOM     45  S   UNL A   1      45.159  19.165  24.852  1.00  0.00     0.124 S 
ATOM     46  O   UNL A   1      46.502  19.031  25.408  1.00  0.00    -0.237 OA
ATOM     47  O   UNL A   1      44.057  18.773  25.723  1.00  0.00    -0.237 OA
ATOM     48  O   UNL A   1      45.020  18.771  23.452  1.00  0.00    -0.744 OA
ENDBRANCH  41  45
ENDBRANCH  24  38
BRANCH  25  49
ATOM     49  C   UNL A   1      46.479  31.002  27.532  1.00  0.00     0.023 A 
ATOM     50  C   UNL A   1      45.642  31.954  26.917  1.00  0.00     0.031 A 
ATOM     51  C   UNL A   1      47.859  31.315  27.582  1.00  0.00     0.131 A 
ATOM     52  C   UNL A   1      46.192  33.142  26.377  1.00  0.00     0.055 A 
ATOM     53  C   UNL A   1      48.397  32.480  27.036  1.00  0.00     0.041 A 
ATOM     54  F   UNL A   1      48.729  30.532  28.241  1.00  0.00    -0.206 F 
ATOM     55  C   UNL A   1      47.562  33.406  26.436  1.00  0.00     0.022 A 
BRANCH  52  56
ATOM     56  S   UNL A   1      45.106  34.420  25.665  1.00  0.00     0.124 S 
ATOM     57  O   UNL A   1      45.140  34.097  24.244  1.00  0.00    -0.237 OA
ATOM     58  O   UNL A   1      43.844  34.180  26.356  1.00  0.00    -0.237 OA
ATOM     59  O   UNL A   1      45.771  35.673  26.027  1.00  0.00    -0.744 OA
ENDBRANCH  52  56
ENDBRANCH  25  49
BRANCH  37  60
ATOM     60  C   UNL A   1      46.038  26.152  31.623  1.00  0.00     0.023 A 
ATOM     61  C   UNL A   1      44.940  26.716  32.312  1.00  0.00     0.031 A 
ATOM     62  C   UNL A   1      47.195  25.859  32.368  1.00  0.00     0.131 A 
ATOM     63  C   UNL A   1      45.033  26.973  33.695  1.00  0.00     0.055 A 
ATOM     64  C   UNL A   1      47.275  26.098  33.740  1.00  0.00     0.041 A 
ATOM     65  F   UNL A   1      48.259  25.290  31.779  1.00  0.00    -0.206 F 
ATOM     66  C   UNL A   1      46.196  26.662  34.408  1.00  0.00     0.022 A 
BRANCH  63  67
ATOM     67  S   UNL A   1      43.640  27.726  34.598  1.00  0.00     0.124 S 
ATOM     68  O   UNL A   1      43.737  27.141  35.930  1.00  0.00    -0.237 OA
ATOM     69  O   UNL A   1      43.937  29.153  34.501  1.00  0.00    -0.237 OA
ATOM     70  O   UNL A   1      42.469  27.299  33.830  1.00  0.00    -0.744 OA
ENDBRANCH  63  67
ENDBRANCH  37  60
ENDBRANCH  11  12
ENDBRANCH   4   6
ENDBRANCH   3   4
ENDBRANCH   2   3
ENDBRANCH   1   2
BRANCH   1  71
ATOM     71  O   UNL A   1      37.307  32.251  33.664  1.00  0.00    -0.374 OA
BRANCH  71  72
ATOM     72  C   UNL A   1      37.701  33.580  33.301  1.00  0.00     0.202 C 
BRANCH  72  73
ATOM     73  C   UNL A   1      36.730  34.563  32.640  1.00  0.00     0.261 C 
BRANCH  73  74
ATOM     74  O   UNL A   1      35.602  33.890  32.088  1.00  0.00    -0.459 OA
BRANCH  74  75
ATOM     75  C   UNL A   1      35.541  33.939  30.719  1.00  0.00     0.371 C 
ATOM     76  O   UNL A   1      36.506  34.001  29.988  1.00  0.00    -0.245 OA
BRANCH  75  77
ATOM     77  C   UNL A   1      34.053  33.922  30.295  1.00  0.00     0.345 C 
ATOM     78  C   UNL A   1      33.436  35.107  30.930  1.00  0.00     0.108 A 
ATOM     79  N   UNL A   1      33.843  33.999  28.827  1.00  0.00    -0.314 N 
ATOM     80  N   UNL A   1      33.063  35.269  32.231  1.00  0.00    -0.343 N 
ATOM     81  C   UNL A   1      33.229  36.314  30.319  1.00  0.00     0.074 A 
ATOM     82  C   UNL A   1      34.198  35.297  28.224  1.00  0.00     0.270 C 
ATOM     83  H   UNL A   1      32.827  33.980  28.743  1.00  0.00     0.349 HD
ATOM     84  C   UNL A   1      32.692  36.583  32.362  1.00  0.00     0.197 A 
ATOM     85  H   UNL A   1      33.062  34.582  32.937  1.00  0.00     0.167 HD
ATOM     86  N   UNL A   1      32.762  37.235  31.217  1.00  0.00    -0.241 NA
ATOM     87  C   UNL A   1      33.507  36.538  28.879  1.00  0.00     0.120 C 
BRANCH  79  88
ATOM     88  C   UNL A   1      34.180  32.801  28.053  1.00  0.00     0.303 C 
BRANCH  88  89
ATOM     89  C   UNL A   1      33.042  32.093  27.387  1.00  0.00     0.044 A 
ATOM     90  C   UNL A   1      31.836  32.643  26.870  1.00  0.00     0.051 A 
ATOM     91  C   UNL A   1      32.988  30.763  27.012  1.00  0.00     0.204 A 
ATOM     92  C   UNL A   1      31.115  31.619  26.307  1.00  0.00     0.195 A 
ATOM     93  O   UNL A   1      31.824  30.468  26.376  1.00  0.00    -0.472 OA
ENDBRANCH  88  89
ENDBRANCH  79  88
ENDBRANCH  75  77
ENDBRANCH  74  75
ENDBRANCH  73  74
ENDBRANCH  72  73
ENDBRANCH  71  72
ENDBRANCH   1  71
TORSDOF 19
ENDMDL
MODEL 2
REMARK VINA RESULT:     -11.3      3.083      7.843
REMARK SMILES O=C(OCCOCCOC(=O)[C@H]1c2[nH]cnc2CC[N@H+]1Cc1ccoc1)c1ccc(-c2c3nc(c(-c4cc(S(=O)(=O)[O-])ccc4F)c4ccc([nH]4)c(-c4cc(S(=O)(=O)[O-])ccc4F)c4nc(c(-c5cc(S(=O)(=O)[O-])ccc5F)c5ccc2[nH]5)C=C4)C=C3)cc1
REMARK SMILES IDX 5 1 4 2 3 3 2 4 1 5 27 6 28 7 89 8 29 9 88 10 30 11 31 12
REMARK SMILES IDX 32 13 82 14 33 15 87 16 81 17 83 18 34 19 86 20 80 21 79 22
REMARK SMILES IDX 35 24 67 25 47 26 66 27 48 28 51 29 65 30 84 31 49 32 50 33
REMARK SMILES IDX 64 35 85 36 52 37 36 38 37 39 45 40 38 41 44 42 46 43 43 44
REMARK SMILES IDX 39 45 40 46 41 47 42 48 68 49 69 50 77 51 70 52 76 53 78 54
REMARK SMILES IDX 75 55 71 56 72 57 73 58 74 59 53 60 54 61 62 62 55 63 61 64
REMARK SMILES IDX 63 65 60 66 56 67 57 68 58 69 59 70 6 71 7 72 8 73 9 74
REMARK SMILES IDX 10 75 11 76 12 77 13 78 20 79 14 80 17 81 19 82 15 84 16 86
REMARK SMILES IDX 18 87 21 88 22 89 23 90 26 91 24 92 25 93
REMARK H PARENT 83 23 51 34 20 83 14 85
REMARK Flexibility Score: inf
ROOT
ATOM      1  C   UNL A   1      34.453  33.560  29.844  1.00  0.00     0.202 C 
ENDROOT
BRANCH   1   2
ATOM      2  C   UNL A   1      34.771  33.966  28.403  1.00  0.00     0.261 C 
BRANCH   2   3
ATOM      3  O   UNL A   1      35.661  33.079  27.731  1.00  0.00    -0.460 OA
BRANCH   3   4
ATOM      4  C   UNL A   1      35.755  31.744  27.899  1.00  0.00     0.338 C 
ATOM      5  O   UNL A   1      34.873  31.048  27.396  1.00  0.00    -0.246 OA
BRANCH   4   6
ATOM      6  C   UNL A   1      36.848  31.064  28.670  1.00  0.00     0.060 A 
ATOM      7  C   UNL A   1      37.953  31.672  29.275  1.00  0.00     0.016 A 
ATOM      8  C   UNL A   1      36.733  29.663  28.752  1.00  0.00     0.016 A 
ATOM      9  C   UNL A   1      39.014  30.913  29.727  1.00  0.00     0.010 A 
ATOM     10  C   UNL A   1      37.773  28.893  29.241  1.00  0.00     0.010 A 
ATOM     11  C   UNL A   1      38.944  29.533  29.623  1.00  0.00    -0.014 A 
BRANCH  11  12
ATOM     12  C   UNL A   1      40.161  28.795  29.888  1.00  0.00     0.031 A 
ATOM     13  C   UNL A   1      40.480  28.607  31.320  1.00  0.00     0.074 A 
ATOM     14  C   UNL A   1      40.896  28.318  28.867  1.00  0.00     0.049 A 
ATOM     15  N   UNL A   1      41.490  29.072  31.977  1.00  0.00    -0.248 NA
ATOM     16  C   UNL A   1      39.470  27.948  32.161  1.00  0.00     0.031 C 
ATOM     17  C   UNL A   1      40.534  28.279  27.446  1.00  0.00     0.029 A 
ATOM     18  N   UNL A   1      42.077  27.649  28.900  1.00  0.00    -0.354 N 
ATOM     19  C   UNL A   1      41.368  28.561  33.266  1.00  0.00     0.074 A 
ATOM     20  C   UNL A   1      40.025  28.057  33.368  1.00  0.00     0.031 C 
ATOM     21  C   UNL A   1      41.336  27.398  26.811  1.00  0.00     0.029 A 
ATOM     22  C   UNL A   1      42.339  26.918  27.747  1.00  0.00     0.049 A 
ATOM     23  H   UNL A   1      42.691  27.680  29.668  1.00  0.00     0.167 HD
ATOM     24  C   UNL A   1      42.460  28.367  34.054  1.00  0.00     0.034 A 
ATOM     25  C   UNL A   1      43.241  25.912  27.612  1.00  0.00     0.034 A 
ATOM     26  C   UNL A   1      43.583  29.148  33.590  1.00  0.00     0.049 A 
ATOM     27  C   UNL A   1      44.242  26.081  28.697  1.00  0.00     0.074 A 
ATOM     28  C   UNL A   1      43.805  30.499  33.400  1.00  0.00     0.029 A 
ATOM     29  N   UNL A   1      44.583  28.508  32.890  1.00  0.00    -0.354 N 
ATOM     30  N   UNL A   1      45.053  27.102  28.769  1.00  0.00    -0.248 NA
ATOM     31  C   UNL A   1      44.010  25.394  29.962  1.00  0.00     0.031 C 
ATOM     32  C   UNL A   1      44.589  30.579  32.213  1.00  0.00     0.029 A 
ATOM     33  C   UNL A   1      44.869  29.277  31.789  1.00  0.00     0.049 A 
ATOM     34  H   UNL A   1      45.013  27.657  33.136  1.00  0.00     0.167 HD
ATOM     35  C   UNL A   1      45.078  27.452  30.111  1.00  0.00     0.074 A 
ATOM     36  C   UNL A   1      44.502  26.303  30.810  1.00  0.00     0.031 C 
ATOM     37  C   UNL A   1      45.289  28.743  30.507  1.00  0.00     0.034 A 
BRANCH  24  38
ATOM     38  C   UNL A   1      42.628  27.198  35.002  1.00  0.00     0.023 A 
ATOM     39  C   UNL A   1      43.432  26.129  34.564  1.00  0.00     0.031 A 
ATOM     40  C   UNL A   1      41.828  26.939  36.139  1.00  0.00     0.131 A 
ATOM     41  C   UNL A   1      43.329  24.859  35.157  1.00  0.00     0.055 A 
ATOM     42  C   UNL A   1      41.785  25.693  36.771  1.00  0.00     0.041 A 
ATOM     43  F   UNL A   1      40.972  27.831  36.648  1.00  0.00    -0.206 F 
ATOM     44  C   UNL A   1      42.510  24.633  36.259  1.00  0.00     0.022 A 
BRANCH  41  45
ATOM     45  S   UNL A   1      44.136  23.463  34.333  1.00  0.00     0.124 S 
ATOM     46  O   UNL A   1      44.610  22.687  35.474  1.00  0.00    -0.237 OA
ATOM     47  O   UNL A   1      43.032  22.887  33.573  1.00  0.00    -0.237 OA
ATOM     48  O   UNL A   1      45.179  24.101  33.533  1.00  0.00    -0.744 OA
ENDBRANCH  41  45
ENDBRANCH  24  38
BRANCH  25  49
ATOM     49  C   UNL A   1      43.036  24.654  26.840  1.00  0.00     0.023 A 
ATOM     50  C   UNL A   1      44.026  24.098  26.007  1.00  0.00     0.031 A 
ATOM     51  C   UNL A   1      41.896  23.850  27.088  1.00  0.00     0.131 A 
ATOM     52  C   UNL A   1      43.849  22.806  25.455  1.00  0.00     0.055 A 
ATOM     53  C   UNL A   1      41.721  22.583  26.531  1.00  0.00     0.041 A 
ATOM     54  F   UNL A   1      40.945  24.235  27.954  1.00  0.00    -0.206 F 
ATOM     55  C   UNL A   1      42.704  22.050  25.715  1.00  0.00     0.022 A 
BRANCH  52  56
ATOM     56  S   UNL A   1      45.166  22.043  24.454  1.00  0.00     0.124 S 
ATOM     57  O   UNL A   1      45.489  23.103  23.507  1.00  0.00    -0.237 OA
ATOM     58  O   UNL A   1      46.181  21.734  25.455  1.00  0.00    -0.237 OA
ATOM     59  O   UNL A   1      44.513  20.872  23.867  1.00  0.00    -0.744 OA
ENDBRANCH  52  56
ENDBRANCH  25  49
BRANCH  37  60
ATOM     60  C   UNL A   1      45.784  29.745  29.482  1.00  0.00     0.023 A 
ATOM     61  C   UNL A   1      44.965  30.402  28.535  1.00  0.00     0.031 A 
ATOM     62  C   UNL A   1      47.129  30.147  29.571  1.00  0.00     0.131 A 
ATOM     63  C   UNL A   1      45.508  31.413  27.716  1.00  0.00     0.055 A 
ATOM     64  C   UNL A   1      47.656  31.160  28.772  1.00  0.00     0.041 A 
ATOM     65  F   UNL A   1      47.949  29.586  30.475  1.00  0.00    -0.206 F 
ATOM     66  C   UNL A   1      46.848  31.794  27.836  1.00  0.00     0.022 A 
BRANCH  63  67
ATOM     67  S   UNL A   1      44.478  32.254  26.469  1.00  0.00     0.124 S 
ATOM     68  O   UNL A   1      43.421  31.289  26.189  1.00  0.00    -0.237 OA
ATOM     69  O   UNL A   1      44.068  33.470  27.167  1.00  0.00    -0.237 OA
ATOM     70  O   UNL A   1      45.406  32.478  25.359  1.00  0.00    -0.744 OA
ENDBRANCH  63  67
ENDBRANCH  37  60
ENDBRANCH  11  12
ENDBRANCH   4   6
ENDBRANCH   3   4
ENDBRANCH   2   3
ENDBRANCH   1   2
BRANCH   1  71
ATOM     71  O   UNL A   1      35.050  34.222  30.954  1.00  0.00    -0.374 OA
BRANCH  71  72
ATOM     72  C   UNL A   1      34.359  34.474  32.184  1.00  0.00     0.202 C 
BRANCH  72  73
ATOM     73  C   UNL A   1      34.123  33.374  33.224  1.00  0.00     0.261 C 
BRANCH  73  74
ATOM     74  O   UNL A   1      35.175  33.331  34.184  1.00  0.00    -0.459 OA
BRANCH  74  75
ATOM     75  C   UNL A   1      36.299  32.678  33.748  1.00  0.00     0.371 C 
ATOM     76  O   UNL A   1      36.293  31.645  33.113  1.00  0.00    -0.245 OA
BRANCH  75  77
ATOM     77  C   UNL A   1      37.540  33.472  34.221  1.00  0.00     0.345 C 
ATOM     78  C   UNL A   1      37.828  32.998  35.591  1.00  0.00     0.108 A 
ATOM     79  N   UNL A   1      38.745  33.265  33.377  1.00  0.00    -0.314 N 
ATOM     80  N   UNL A   1      37.183  33.318  36.748  1.00  0.00    -0.343 N 
ATOM     81  C   UNL A   1      38.752  32.044  35.920  1.00  0.00     0.074 A 
ATOM     82  C   UNL A   1      39.335  31.917  33.469  1.00  0.00     0.270 C 
ATOM     83  H   UNL A   1      39.444  33.850  33.834  1.00  0.00     0.349 HD
ATOM     84  C   UNL A   1      37.713  32.508  37.719  1.00  0.00     0.197 A 
ATOM     85  H   UNL A   1      36.476  33.995  36.864  1.00  0.00     0.167 HD
ATOM     86  N   UNL A   1      38.680  31.741  37.253  1.00  0.00    -0.241 NA
ATOM     87  C   UNL A   1      39.672  31.444  34.921  1.00  0.00     0.120 C 
BRANCH  79  88
ATOM     88  C   UNL A   1      38.730  33.886  32.049  1.00  0.00     0.303 C 
BRANCH  88  89
ATOM     89  C   UNL A   1      40.062  34.182  31.434  1.00  0.00     0.044 A 
ATOM     90  C   UNL A   1      40.378  34.396  30.064  1.00  0.00     0.051 A 
ATOM     91  C   UNL A   1      41.249  34.445  32.094  1.00  0.00     0.204 A 
ATOM     92  C   UNL A   1      41.718  34.684  29.982  1.00  0.00     0.195 A 
ATOM     93  O   UNL A   1      42.253  34.731  31.224  1.00  0.00    -0.472 OA
ENDBRANCH  88  89
ENDBRANCH  79  88
ENDBRANCH  75  77
ENDBRANCH  74  75
ENDBRANCH  73  74
ENDBRANCH  72  73
ENDBRANCH  71  72
ENDBRANCH   1  71
TORSDOF 19
ENDMDL
MODEL 3
REMARK VINA RESULT:     -11.3      4.685     11.195
REMARK SMILES O=C(OCCOCCOC(=O)[C@H]1c2[nH]cnc2CC[N@H+]1Cc1ccoc1)c1ccc(-c2c3nc(c(-c4cc(S(=O)(=O)[O-])ccc4F)c4ccc([nH]4)c(-c4cc(S(=O)(=O)[O-])ccc4F)c4nc(c(-c5cc(S(=O)(=O)[O-])ccc5F)c5ccc2[nH]5)C=C4)C=C3)cc1
REMARK SMILES IDX 5 1 4 2 3 3 2 4 1 5 27 6 28 7 89 8 29 9 88 10 30 11 31 12
REMARK SMILES IDX 32 13 82 14 33 15 87 16 81 17 83 18 34 19 86 20 80 21 79 22
REMARK SMILES IDX 35 24 67 25 47 26 66 27 48 28 51 29 65 30 84 31 49 32 50 33
REMARK SMILES IDX 64 35 85 36 52 37 36 38 37 39 45 40 38 41 44 42 46 43 43 44
REMARK SMILES IDX 39 45 40 46 41 47 42 48 68 49 69 50 77 51 70 52 76 53 78 54
REMARK SMILES IDX 75 55 71 56 72 57 73 58 74 59 53 60 54 61 62 62 55 63 61 64
REMARK SMILES IDX 63 65 60 66 56 67 57 68 58 69 59 70 6 71 7 72 8 73 9 74
REMARK SMILES IDX 10 75 11 76 12 77 13 78 20 79 14 80 17 81 19 82 15 84 16 86
REMARK SMILES IDX 18 87 21 88 22 89 23 90 26 91 24 92 25 93
REMARK H PARENT 83 23 51 34 20 83 14 85
REMARK Flexibility Score: inf
ROOT
ATOM      1  C   UNL A   1      37.812  21.914  25.663  1.00  0.00     0.202 C 
ENDROOT
BRANCH   1   2
ATOM      2  C   UNL A   1      39.117  22.590  26.087  1.00  0.00     0.261 C 
BRANCH   2   3
ATOM      3  O   UNL A   1      39.000  23.993  26.307  1.00  0.00    -0.460 OA
BRANCH   3   4
ATOM      4  C   UNL A   1      39.969  24.832  26.727  1.00  0.00     0.338 C 
ATOM      5  O   UNL A   1      41.134  24.522  26.474  1.00  0.00    -0.246 OA
BRANCH   4   6
ATOM      6  C   UNL A   1      39.719  26.098  27.493  1.00  0.00     0.060 A 
ATOM      7  C   UNL A   1      39.984  27.403  27.067  1.00  0.00     0.016 A 
ATOM      8  C   UNL A   1      39.185  25.914  28.783  1.00  0.00     0.016 A 
ATOM      9  C   UNL A   1      39.950  28.455  27.960  1.00  0.00     0.010 A 
ATOM     10  C   UNL A   1      39.109  26.969  29.675  1.00  0.00     0.010 A 
ATOM     11  C   UNL A   1      39.596  28.206  29.277  1.00  0.00    -0.014 A 
BRANCH  11  12
ATOM     12  C   UNL A   1      39.799  29.283  30.223  1.00  0.00     0.031 A 
ATOM     13  C   UNL A   1      38.628  30.161  30.435  1.00  0.00     0.074 A 
ATOM     14  C   UNL A   1      40.981  29.412  30.853  1.00  0.00     0.049 A 
ATOM     15  N   UNL A   1      38.514  31.416  30.152  1.00  0.00    -0.248 NA
ATOM     16  C   UNL A   1      37.375  29.530  30.873  1.00  0.00     0.031 C 
ATOM     17  C   UNL A   1      42.100  28.464  30.857  1.00  0.00     0.029 A 
ATOM     18  N   UNL A   1      41.386  30.366  31.731  1.00  0.00    -0.354 N 
ATOM     19  C   UNL A   1      37.251  31.790  30.601  1.00  0.00     0.074 A 
ATOM     20  C   UNL A   1      36.536  30.566  30.842  1.00  0.00     0.031 C 
ATOM     21  C   UNL A   1      42.923  28.758  31.887  1.00  0.00     0.029 A 
ATOM     22  C   UNL A   1      42.459  29.978  32.524  1.00  0.00     0.049 A 
ATOM     23  H   UNL A   1      40.960  31.250  31.797  1.00  0.00     0.167 HD
ATOM     24  C   UNL A   1      36.987  33.070  30.978  1.00  0.00     0.034 A 
ATOM     25  C   UNL A   1      42.862  30.559  33.684  1.00  0.00     0.034 A 
ATOM     26  C   UNL A   1      37.962  33.986  30.431  1.00  0.00     0.049 A 
ATOM     27  C   UNL A   1      42.328  31.946  33.680  1.00  0.00     0.074 A 
ATOM     28  C   UNL A   1      38.366  34.313  29.150  1.00  0.00     0.029 A 
ATOM     29  N   UNL A   1      38.951  34.464  31.263  1.00  0.00    -0.354 N 
ATOM     30  N   UNL A   1      42.714  32.857  32.827  1.00  0.00    -0.248 NA
ATOM     31  C   UNL A   1      41.022  32.184  34.282  1.00  0.00     0.031 C 
ATOM     32  C   UNL A   1      39.775  34.502  29.247  1.00  0.00     0.029 A 
ATOM     33  C   UNL A   1      40.142  34.359  30.587  1.00  0.00     0.049 A 
ATOM     34  H   UNL A   1      38.826  34.818  32.174  1.00  0.00     0.167 HD
ATOM     35  C   UNL A   1      41.553  33.521  32.458  1.00  0.00     0.074 A 
ATOM     36  C   UNL A   1      40.562  33.134  33.462  1.00  0.00     0.031 C 
ATOM     37  C   UNL A   1      41.419  34.086  31.220  1.00  0.00     0.034 A 
BRANCH  24  38
ATOM     38  C   UNL A   1      36.087  33.448  32.135  1.00  0.00     0.023 A 
ATOM     39  C   UNL A   1      34.949  34.220  31.836  1.00  0.00     0.031 A 
ATOM     40  C   UNL A   1      36.429  33.365  33.505  1.00  0.00     0.131 A 
ATOM     41  C   UNL A   1      34.291  34.954  32.838  1.00  0.00     0.055 A 
ATOM     42  C   UNL A   1      35.726  34.038  34.507  1.00  0.00     0.041 A 
ATOM     43  F   UNL A   1      37.510  32.715  33.949  1.00  0.00    -0.206 F 
ATOM     44  C   UNL A   1      34.673  34.869  34.174  1.00  0.00     0.022 A 
BRANCH  41  45
ATOM     45  S   UNL A   1      33.056  36.176  32.330  1.00  0.00     0.124 S 
ATOM     46  O   UNL A   1      33.289  37.244  33.297  1.00  0.00    -0.237 OA
ATOM     47  O   UNL A   1      33.457  36.451  30.954  1.00  0.00    -0.237 OA
ATOM     48  O   UNL A   1      31.792  35.461  32.481  1.00  0.00    -0.744 OA
ENDBRANCH  41  45
ENDBRANCH  24  38
BRANCH  25  49
ATOM     49  C   UNL A   1      43.339  29.840  34.899  1.00  0.00     0.023 A 
ATOM     50  C   UNL A   1      42.658  28.738  35.451  1.00  0.00     0.031 A 
ATOM     51  C   UNL A   1      44.627  30.112  35.422  1.00  0.00     0.131 A 
ATOM     52  C   UNL A   1      43.257  27.975  36.482  1.00  0.00     0.055 A 
ATOM     53  C   UNL A   1      45.206  29.365  36.448  1.00  0.00     0.041 A 
ATOM     54  F   UNL A   1      45.407  31.069  34.894  1.00  0.00    -0.206 F 
ATOM     55  C   UNL A   1      44.525  28.285  36.979  1.00  0.00     0.022 A 
BRANCH  52  56
ATOM     56  S   UNL A   1      42.423  26.492  37.136  1.00  0.00     0.124 S 
ATOM     57  O   UNL A   1      42.608  25.532  36.055  1.00  0.00    -0.237 OA
ATOM     58  O   UNL A   1      43.162  26.235  38.368  1.00  0.00    -0.237 OA
ATOM     59  O   UNL A   1      41.042  26.936  37.335  1.00  0.00    -0.744 OA
ENDBRANCH  52  56
ENDBRANCH  25  49
BRANCH  37  60
ATOM     60  C   UNL A   1      42.654  34.235  30.352  1.00  0.00     0.023 A 
ATOM     61  C   UNL A   1      43.054  33.318  29.354  1.00  0.00     0.031 A 
ATOM     62  C   UNL A   1      43.375  35.437  30.460  1.00  0.00     0.131 A 
ATOM     63  C   UNL A   1      44.146  33.621  28.516  1.00  0.00     0.055 A 
ATOM     64  C   UNL A   1      44.443  35.741  29.616  1.00  0.00     0.041 A 
ATOM     65  F   UNL A   1      43.021  36.365  31.365  1.00  0.00    -0.206 F 
ATOM     66  C   UNL A   1      44.837  34.830  28.644  1.00  0.00     0.022 A 
BRANCH  63  67
ATOM     67  S   UNL A   1      44.698  32.441  27.241  1.00  0.00     0.124 S 
ATOM     68  O   UNL A   1      46.142  32.380  27.429  1.00  0.00    -0.237 OA
ATOM     69  O   UNL A   1      43.954  31.232  27.588  1.00  0.00    -0.237 OA
ATOM     70  O   UNL A   1      44.273  33.072  25.989  1.00  0.00    -0.744 OA
ENDBRANCH  63  67
ENDBRANCH  37  60
ENDBRANCH  11  12
ENDBRANCH   4   6
ENDBRANCH   3   4
ENDBRANCH   2   3
ENDBRANCH   1   2
BRANCH   1  71
ATOM     71  O   UNL A   1      37.295  22.050  24.343  1.00  0.00    -0.374 OA
BRANCH  71  72
ATOM     72  C   UNL A   1      36.549  23.192  23.905  1.00  0.00     0.202 C 
BRANCH  72  73
ATOM     73  C   UNL A   1      35.167  23.528  24.473  1.00  0.00     0.261 C 
BRANCH  73  74
ATOM     74  O   UNL A   1      35.122  24.858  24.980  1.00  0.00    -0.459 OA
BRANCH  74  75
ATOM     75  C   UNL A   1      33.895  25.225  25.471  1.00  0.00     0.371 C 
ATOM     76  O   UNL A   1      33.184  24.514  26.149  1.00  0.00    -0.245 OA
BRANCH  75  77
ATOM     77  C   UNL A   1      33.587  26.664  24.993  1.00  0.00     0.345 C 
ATOM     78  C   UNL A   1      33.094  26.535  23.606  1.00  0.00     0.108 A 
ATOM     79  N   UNL A   1      32.559  27.362  25.807  1.00  0.00    -0.314 N 
ATOM     80  N   UNL A   1      33.815  26.313  22.470  1.00  0.00    -0.343 N 
ATOM     81  C   UNL A   1      31.777  26.509  23.233  1.00  0.00     0.074 A 
ATOM     82  C   UNL A   1      31.195  26.820  25.668  1.00  0.00     0.270 C 
ATOM     83  H   UNL A   1      32.490  28.271  25.351  1.00  0.00     0.349 HD
ATOM     84  C   UNL A   1      32.900  26.115  21.468  1.00  0.00     0.197 A 
ATOM     85  H   UNL A   1      34.797  26.297  22.387  1.00  0.00     0.167 HD
ATOM     86  N   UNL A   1      31.659  26.249  21.895  1.00  0.00    -0.241 NA
ATOM     87  C   UNL A   1      30.670  26.727  24.198  1.00  0.00     0.120 C 
BRANCH  79  88
ATOM     88  C   UNL A   1      32.963  27.788  27.150  1.00  0.00     0.303 C 
BRANCH  88  89
ATOM     89  C   UNL A   1      33.707  29.083  27.246  1.00  0.00     0.044 A 
ATOM     90  C   UNL A   1      33.182  30.401  27.352  1.00  0.00     0.051 A 
ATOM     91  C   UNL A   1      35.072  29.256  27.389  1.00  0.00     0.204 A 
ATOM     92  C   UNL A   1      34.241  31.267  27.465  1.00  0.00     0.195 A 
ATOM     93  O   UNL A   1      35.400  30.569  27.505  1.00  0.00    -0.472 OA
ENDBRANCH  88  89
ENDBRANCH  79  88
ENDBRANCH  75  77
ENDBRANCH  74  75
ENDBRANCH  73  74
ENDBRANCH  72  73
ENDBRANCH  71  72
ENDBRANCH   1  71
TORSDOF 19
ENDMDL
