MODEL 1
REMARK VINA RESULT:     -12.1      0.000      0.000
REMARK SMILES Cc1c(C)c2c(c(C)c1O)CC[C@@](C)(C(=O)OCCOCCOC(=O)c1ccc(-c3c4nc(c(-c5cc(S(=O)(=O)[O-])ccc5F)c5ccc([nH]5)c(-c5cc(S(=O)(=O)[O-])ccc5F)c5nc(c(-c6cc(S(=O)(=O)[O-])ccc6F)c6ccc3[nH]6)C=C5)C=C4)cc1)O2
REMARK SMILES IDX 21 1 20 2 19 3 18 4 17 5 15 6 16 7 13 8 1 9 2 10 3 11 9 12
REMARK SMILES IDX 4 13 5 14 7 15 6 16 89 17 8 18 11 19 12 20 14 21 10 22 22 24
REMARK SMILES IDX 23 25 24 26 25 27 26 28 27 29 88 30 28 31 87 32 29 33 30 34
REMARK SMILES IDX 31 35 81 36 32 37 86 38 80 39 82 40 33 41 85 42 79 43 78 44
REMARK SMILES IDX 34 46 66 47 46 48 65 49 47 50 50 51 64 52 83 53 48 54 49 55
REMARK SMILES IDX 63 57 84 58 51 59 35 60 36 61 44 62 37 63 43 64 45 65 42 66
REMARK SMILES IDX 38 67 39 68 40 69 41 70 67 71 68 72 76 73 69 74 75 75 77 76
REMARK SMILES IDX 74 77 70 78 71 79 72 80 73 81 52 82 53 83 61 84 54 85 60 86
REMARK SMILES IDX 62 87 59 88 55 89 56 90 57 91 58 92
REMARK H PARENT 10 23 82 45 50 56
REMARK Flexibility Score: inf
ROOT
ATOM      1  C   UNL A   1      35.947  20.366  24.852  1.00  0.00     0.202 C 
ENDROOT
BRANCH   1   2
ATOM      2  O   UNL A   1      35.423  21.648  25.193  1.00  0.00    -0.374 OA
BRANCH   2   3
ATOM      3  C   UNL A   1      35.080  21.877  26.558  1.00  0.00     0.202 C 
BRANCH   3   4
ATOM      4  C   UNL A   1      33.617  21.664  26.953  1.00  0.00     0.261 C 
BRANCH   4   5
ATOM      5  O   UNL A   1      32.703  22.209  25.983  1.00  0.00    -0.460 OA
BRANCH   5   6
ATOM      6  C   UNL A   1      32.235  23.457  26.271  1.00  0.00     0.350 C 
ATOM      7  O   UNL A   1      31.538  23.717  27.249  1.00  0.00    -0.247 OA
BRANCH   6   8
ATOM      8  C   UNL A   1      32.642  24.499  25.215  1.00  0.00     0.203 C 
ATOM      9  C   UNL A   1      28.893  28.633  22.635  1.00  0.00     0.049 C 
ATOM     10  C   UNL A   1      30.210  28.087  23.123  1.00  0.00    -0.002 A 
ATOM     11  C   UNL A   1      30.245  26.984  24.000  1.00  0.00    -0.002 A 
ATOM     12  C   UNL A   1      31.433  28.674  22.738  1.00  0.00     0.122 A 
ATOM     13  C   UNL A   1      28.973  26.357  24.523  1.00  0.00     0.049 C 
ATOM     14  C   UNL A   1      31.489  26.435  24.368  1.00  0.00     0.127 A 
ATOM     15  C   UNL A   1      32.675  28.173  23.172  1.00  0.00    -0.002 A 
ATOM     16  C   UNL A   1      32.700  27.052  24.027  1.00  0.00     0.001 A 
ATOM     17  O   UNL A   1      31.432  25.263  25.066  1.00  0.00    -0.475 OA
ATOM     18  C   UNL A   1      33.964  28.826  22.740  1.00  0.00     0.049 C 
ATOM     19  C   UNL A   1      34.001  26.500  24.561  1.00  0.00     0.044 C 
ATOM     20  C   UNL A   1      33.775  25.437  25.633  1.00  0.00     0.065 C 
ATOM     21  C   UNL A   1      32.950  23.712  23.935  1.00  0.00     0.069 C 
BRANCH  12  22
ATOM     22  O   UNL A   1      31.462  29.776  21.919  1.00  0.00    -0.507 OA
ATOM     23  H   UNL A   1      31.831  29.711  21.061  1.00  0.00     0.293 HD
ENDBRANCH  12  22
ENDBRANCH   6   8
ENDBRANCH   5   6
ENDBRANCH   4   5
ENDBRANCH   3   4
ENDBRANCH   2   3
ENDBRANCH   1   2
BRANCH   1  24
ATOM     24  C   UNL A   1      37.450  20.149  25.065  1.00  0.00     0.261 C 
BRANCH  24  25
ATOM     25  O   UNL A   1      38.135  21.360  25.440  1.00  0.00    -0.460 OA
BRANCH  25  26
ATOM     26  C   UNL A   1      39.295  21.167  26.112  1.00  0.00     0.338 C 
ATOM     27  O   UNL A   1      39.994  20.161  26.096  1.00  0.00    -0.246 OA
BRANCH  26  28
ATOM     28  C   UNL A   1      39.738  22.423  26.745  1.00  0.00     0.060 A 
ATOM     29  C   UNL A   1      39.114  23.608  26.331  1.00  0.00     0.016 A 
ATOM     30  C   UNL A   1      40.795  22.459  27.657  1.00  0.00     0.016 A 
ATOM     31  C   UNL A   1      39.578  24.838  26.790  1.00  0.00     0.010 A 
ATOM     32  C   UNL A   1      41.269  23.699  28.106  1.00  0.00     0.010 A 
ATOM     33  C   UNL A   1      40.685  24.894  27.646  1.00  0.00    -0.014 A 
BRANCH  33  34
ATOM     34  C   UNL A   1      41.327  26.206  27.910  1.00  0.00     0.031 A 
ATOM     35  C   UNL A   1      42.698  26.468  27.345  1.00  0.00     0.074 A 
ATOM     36  C   UNL A   1      40.671  27.176  28.573  1.00  0.00     0.049 A 
ATOM     37  N   UNL A   1      43.446  27.535  27.449  1.00  0.00    -0.248 NA
ATOM     38  C   UNL A   1      43.300  25.384  26.553  1.00  0.00     0.031 C 
ATOM     39  C   UNL A   1      39.312  27.066  29.101  1.00  0.00     0.029 A 
ATOM     40  N   UNL A   1      41.058  28.452  28.900  1.00  0.00    -0.354 N 
ATOM     41  C   UNL A   1      44.603  27.257  26.729  1.00  0.00     0.074 A 
ATOM     42  C   UNL A   1      44.473  25.906  26.225  1.00  0.00     0.031 C 
ATOM     43  C   UNL A   1      38.974  28.232  29.678  1.00  0.00     0.029 A 
ATOM     44  C   UNL A   1      40.103  29.158  29.593  1.00  0.00     0.049 A 
ATOM     45  H   UNL A   1      41.936  28.827  28.660  1.00  0.00     0.167 HD
ATOM     46  C   UNL A   1      45.670  28.058  26.497  1.00  0.00     0.034 A 
ATOM     47  C   UNL A   1      40.142  30.402  30.113  1.00  0.00     0.034 A 
ATOM     48  C   UNL A   1      45.797  29.399  27.008  1.00  0.00     0.049 A 
ATOM     49  C   UNL A   1      41.389  31.234  29.942  1.00  0.00     0.074 A 
ATOM     50  C   UNL A   1      46.843  30.288  26.838  1.00  0.00     0.029 A 
ATOM     51  N   UNL A   1      44.849  30.043  27.791  1.00  0.00    -0.354 N 
ATOM     52  N   UNL A   1      42.493  30.940  29.296  1.00  0.00    -0.248 NA
ATOM     53  C   UNL A   1      41.396  32.560  30.576  1.00  0.00     0.031 C 
ATOM     54  C   UNL A   1      46.556  31.446  27.569  1.00  0.00     0.029 A 
ATOM     55  C   UNL A   1      45.301  31.305  28.140  1.00  0.00     0.049 A 
ATOM     56  H   UNL A   1      43.984  29.659  28.060  1.00  0.00     0.167 HD
ATOM     57  C   UNL A   1      43.318  32.053  29.429  1.00  0.00     0.074 A 
ATOM     58  C   UNL A   1      42.584  33.025  30.213  1.00  0.00     0.031 C 
ATOM     59  C   UNL A   1      44.568  32.256  28.940  1.00  0.00     0.034 A 
BRANCH  46  60
ATOM     60  C   UNL A   1      46.804  27.489  25.686  1.00  0.00     0.023 A 
ATOM     61  C   UNL A   1      47.036  27.895  24.361  1.00  0.00     0.031 A 
ATOM     62  C   UNL A   1      47.668  26.534  26.250  1.00  0.00     0.131 A 
ATOM     63  C   UNL A   1      48.084  27.318  23.629  1.00  0.00     0.055 A 
ATOM     64  C   UNL A   1      48.746  26.009  25.536  1.00  0.00     0.041 A 
ATOM     65  F   UNL A   1      47.477  26.098  27.504  1.00  0.00    -0.206 F 
ATOM     66  C   UNL A   1      48.955  26.395  24.216  1.00  0.00     0.022 A 
BRANCH  63  67
ATOM     67  S   UNL A   1      48.250  27.730  21.871  1.00  0.00     0.124 S 
ATOM     68  O   UNL A   1      48.428  26.407  21.277  1.00  0.00    -0.237 OA
ATOM     69  O   UNL A   1      46.986  28.397  21.580  1.00  0.00    -0.237 OA
ATOM     70  O   UNL A   1      49.432  28.589  21.829  1.00  0.00    -0.744 OA
ENDBRANCH  63  67
ENDBRANCH  46  60
BRANCH  47  71
ATOM     71  C   UNL A   1      38.977  30.927  30.877  1.00  0.00     0.023 A 
ATOM     72  C   UNL A   1      37.996  31.713  30.254  1.00  0.00     0.031 A 
ATOM     73  C   UNL A   1      38.840  30.661  32.251  1.00  0.00     0.131 A 
ATOM     74  C   UNL A   1      36.928  32.223  31.010  1.00  0.00     0.055 A 
ATOM     75  C   UNL A   1      37.758  31.139  32.990  1.00  0.00     0.041 A 
ATOM     76  F   UNL A   1      39.753  29.912  32.891  1.00  0.00    -0.206 F 
ATOM     77  C   UNL A   1      36.796  31.931  32.370  1.00  0.00     0.022 A 
BRANCH  74  78
ATOM     78  S   UNL A   1      35.719  33.303  30.196  1.00  0.00     0.124 S 
ATOM     79  O   UNL A   1      36.539  33.952  29.180  1.00  0.00    -0.237 OA
ATOM     80  O   UNL A   1      34.732  32.343  29.711  1.00  0.00    -0.237 OA
ATOM     81  O   UNL A   1      35.258  34.171  31.277  1.00  0.00    -0.744 OA
ENDBRANCH  74  78
ENDBRANCH  47  71
BRANCH  59  82
ATOM     82  C   UNL A   1      45.218  33.585  29.219  1.00  0.00     0.023 A 
ATOM     83  C   UNL A   1      44.996  34.697  28.391  1.00  0.00     0.031 A 
ATOM     84  C   UNL A   1      46.029  33.750  30.356  1.00  0.00     0.131 A 
ATOM     85  C   UNL A   1      45.603  35.925  28.697  1.00  0.00     0.055 A 
ATOM     86  C   UNL A   1      46.591  34.985  30.681  1.00  0.00     0.041 A 
ATOM     87  F   UNL A   1      46.267  32.718  31.181  1.00  0.00    -0.206 F 
ATOM     88  C   UNL A   1      46.384  36.079  29.847  1.00  0.00     0.022 A 
BRANCH  85  89
ATOM     89  S   UNL A   1      45.381  37.317  27.557  1.00  0.00     0.124 S 
ATOM     90  O   UNL A   1      45.331  38.452  28.472  1.00  0.00    -0.237 OA
ATOM     91  O   UNL A   1      46.569  37.229  26.715  1.00  0.00    -0.237 OA
ATOM     92  O   UNL A   1      44.122  37.010  26.881  1.00  0.00    -0.744 OA
ENDBRANCH  85  89
ENDBRANCH  59  82
ENDBRANCH  33  34
ENDBRANCH  26  28
ENDBRANCH  25  26
ENDBRANCH  24  25
ENDBRANCH   1  24
TORSDOF 18
ENDMDL
MODEL 2
REMARK VINA RESULT:     -12.1      5.035      8.096
REMARK SMILES Cc1c(C)c2c(c(C)c1O)CC[C@@](C)(C(=O)OCCOCCOC(=O)c1ccc(-c3c4nc(c(-c5cc(S(=O)(=O)[O-])ccc5F)c5ccc([nH]5)c(-c5cc(S(=O)(=O)[O-])ccc5F)c5nc(c(-c6cc(S(=O)(=O)[O-])ccc6F)c6ccc3[nH]6)C=C5)C=C4)cc1)O2
REMARK SMILES IDX 21 1 20 2 19 3 18 4 17 5 15 6 16 7 13 8 1 9 2 10 3 11 9 12
REMARK SMILES IDX 4 13 5 14 7 15 6 16 89 17 8 18 11 19 12 20 14 21 10 22 22 24
REMARK SMILES IDX 23 25 24 26 25 27 26 28 27 29 88 30 28 31 87 32 29 33 30 34
REMARK SMILES IDX 31 35 81 36 32 37 86 38 80 39 82 40 33 41 85 42 79 43 78 44
REMARK SMILES IDX 34 46 66 47 46 48 65 49 47 50 50 51 64 52 83 53 48 54 49 55
REMARK SMILES IDX 63 57 84 58 51 59 35 60 36 61 44 62 37 63 43 64 45 65 42 66
REMARK SMILES IDX 38 67 39 68 40 69 41 70 67 71 68 72 76 73 69 74 75 75 77 76
REMARK SMILES IDX 74 77 70 78 71 79 72 80 73 81 52 82 53 83 61 84 54 85 60 86
REMARK SMILES IDX 62 87 59 88 55 89 56 90 57 91 58 92
REMARK H PARENT 10 23 82 45 50 56
REMARK Flexibility Score: inf
ROOT
ATOM      1  C   UNL A   1      31.478  29.391  25.170  1.00  0.00     0.202 C 
ENDROOT
BRANCH   1   2
ATOM      2  O   UNL A   1      30.675  29.248  23.999  1.00  0.00    -0.374 OA
BRANCH   2   3
ATOM      3  C   UNL A   1      31.304  28.729  22.829  1.00  0.00     0.202 C 
BRANCH   3   4
ATOM      4  C   UNL A   1      31.158  27.227  22.569  1.00  0.00     0.261 C 
BRANCH   4   5
ATOM      5  O   UNL A   1      32.173  26.454  23.235  1.00  0.00    -0.460 OA
BRANCH   5   6
ATOM      6  C   UNL A   1      33.049  25.818  22.406  1.00  0.00     0.350 C 
ATOM      7  O   UNL A   1      33.782  26.400  21.610  1.00  0.00    -0.247 OA
BRANCH   6   8
ATOM      8  C   UNL A   1      32.991  24.288  22.546  1.00  0.00     0.203 C 
ATOM      9  C   UNL A   1      37.327  20.757  25.102  1.00  0.00     0.049 C 
ATOM     10  C   UNL A   1      35.928  21.131  24.684  1.00  0.00    -0.002 A 
ATOM     11  C   UNL A   1      35.626  22.455  24.304  1.00  0.00    -0.002 A 
ATOM     12  C   UNL A   1      34.887  20.181  24.684  1.00  0.00     0.122 A 
ATOM     13  C   UNL A   1      36.671  23.545  24.361  1.00  0.00     0.049 C 
ATOM     14  C   UNL A   1      34.334  22.757  23.829  1.00  0.00     0.127 A 
ATOM     15  C   UNL A   1      33.575  20.505  24.285  1.00  0.00    -0.002 A 
ATOM     16  C   UNL A   1      33.290  21.825  23.879  1.00  0.00     0.001 A 
ATOM     17  O   UNL A   1      34.178  24.010  23.310  1.00  0.00    -0.475 OA
ATOM     18  C   UNL A   1      32.486  19.463  24.297  1.00  0.00     0.049 C 
ATOM     19  C   UNL A   1      31.892  22.241  23.487  1.00  0.00     0.044 C 
ATOM     20  C   UNL A   1      31.774  23.752  23.302  1.00  0.00     0.065 C 
ATOM     21  C   UNL A   1      33.114  23.723  21.124  1.00  0.00     0.069 C 
BRANCH  12  22
ATOM     22  O   UNL A   1      35.110  18.887  25.083  1.00  0.00    -0.507 OA
ATOM     23  H   UNL A   1      34.741  18.177  24.596  1.00  0.00     0.293 HD
ENDBRANCH  12  22
ENDBRANCH   6   8
ENDBRANCH   5   6
ENDBRANCH   4   5
ENDBRANCH   3   4
ENDBRANCH   2   3
ENDBRANCH   1   2
BRANCH   1  24
ATOM     24  C   UNL A   1      31.543  30.787  25.802  1.00  0.00     0.261 C 
BRANCH  24  25
ATOM     25  O   UNL A   1      32.232  30.788  27.067  1.00  0.00    -0.460 OA
BRANCH  25  26
ATOM     26  C   UNL A   1      32.995  31.885  27.292  1.00  0.00     0.338 C 
ATOM     27  O   UNL A   1      32.626  33.052  27.272  1.00  0.00    -0.246 OA
BRANCH  26  28
ATOM     28  C   UNL A   1      34.334  31.491  27.769  1.00  0.00     0.060 A 
ATOM     29  C   UNL A   1      34.547  30.133  28.043  1.00  0.00     0.016 A 
ATOM     30  C   UNL A   1      35.334  32.431  28.025  1.00  0.00     0.016 A 
ATOM     31  C   UNL A   1      35.743  29.716  28.621  1.00  0.00     0.010 A 
ATOM     32  C   UNL A   1      36.531  32.012  28.620  1.00  0.00     0.010 A 
ATOM     33  C   UNL A   1      36.725  30.658  28.954  1.00  0.00    -0.014 A 
BRANCH  33  34
ATOM     34  C   UNL A   1      37.867  30.240  29.803  1.00  0.00     0.031 A 
ATOM     35  C   UNL A   1      38.919  29.341  29.212  1.00  0.00     0.074 A 
ATOM     36  C   UNL A   1      38.009  30.714  31.055  1.00  0.00     0.049 A 
ATOM     37  N   UNL A   1      39.998  28.851  29.765  1.00  0.00    -0.248 NA
ATOM     38  C   UNL A   1      38.732  28.948  27.805  1.00  0.00     0.031 C 
ATOM     39  C   UNL A   1      37.096  31.649  31.710  1.00  0.00     0.029 A 
ATOM     40  N   UNL A   1      38.986  30.484  31.991  1.00  0.00    -0.354 N 
ATOM     41  C   UNL A   1      40.624  28.100  28.775  1.00  0.00     0.074 A 
ATOM     42  C   UNL A   1      39.784  28.169  27.598  1.00  0.00     0.031 C 
ATOM     43  C   UNL A   1      37.562  31.921  32.942  1.00  0.00     0.029 A 
ATOM     44  C   UNL A   1      38.785  31.154  33.175  1.00  0.00     0.049 A 
ATOM     45  H   UNL A   1      39.758  29.895  31.831  1.00  0.00     0.167 HD
ATOM     46  C   UNL A   1      41.798  27.427  28.837  1.00  0.00     0.034 A 
ATOM     47  C   UNL A   1      39.497  31.137  34.321  1.00  0.00     0.034 A 
ATOM     48  C   UNL A   1      42.625  27.357  30.014  1.00  0.00     0.049 A 
ATOM     49  C   UNL A   1      40.739  30.286  34.404  1.00  0.00     0.074 A 
ATOM     50  C   UNL A   1      43.826  26.691  30.181  1.00  0.00     0.029 A 
ATOM     51  N   UNL A   1      42.335  27.968  31.226  1.00  0.00    -0.354 N 
ATOM     52  N   UNL A   1      41.295  29.546  33.473  1.00  0.00    -0.248 NA
ATOM     53  C   UNL A   1      41.445  30.263  35.693  1.00  0.00     0.031 C 
ATOM     54  C   UNL A   1      44.232  26.850  31.510  1.00  0.00     0.029 A 
ATOM     55  C   UNL A   1      43.318  27.669  32.154  1.00  0.00     0.049 A 
ATOM     56  H   UNL A   1      41.547  28.532  31.399  1.00  0.00     0.167 HD
ATOM     57  C   UNL A   1      42.427  28.985  34.059  1.00  0.00     0.074 A 
ATOM     58  C   UNL A   1      42.478  29.475  35.421  1.00  0.00     0.031 C 
ATOM     59  C   UNL A   1      43.345  28.147  33.516  1.00  0.00     0.034 A 
BRANCH  46  60
ATOM     60  C   UNL A   1      42.235  26.679  27.606  1.00  0.00     0.023 A 
ATOM     61  C   UNL A   1      41.974  25.308  27.446  1.00  0.00     0.031 A 
ATOM     62  C   UNL A   1      42.915  27.350  26.574  1.00  0.00     0.131 A 
ATOM     63  C   UNL A   1      42.424  24.641  26.298  1.00  0.00     0.055 A 
ATOM     64  C   UNL A   1      43.308  26.694  25.407  1.00  0.00     0.041 A 
ATOM     65  F   UNL A   1      43.208  28.655  26.686  1.00  0.00    -0.206 F 
ATOM     66  C   UNL A   1      43.069  25.330  25.267  1.00  0.00     0.022 A 
BRANCH  63  67
ATOM     67  S   UNL A   1      42.228  22.841  26.201  1.00  0.00     0.124 S 
ATOM     68  O   UNL A   1      40.781  22.697  26.337  1.00  0.00    -0.237 OA
ATOM     69  O   UNL A   1      42.781  22.532  24.887  1.00  0.00    -0.237 OA
ATOM     70  O   UNL A   1      43.007  22.349  27.335  1.00  0.00    -0.744 OA
ENDBRANCH  63  67
ENDBRANCH  46  60
BRANCH  47  71
ATOM     71  C   UNL A   1      39.035  31.924  35.497  1.00  0.00     0.023 A 
ATOM     72  C   UNL A   1      38.346  31.313  36.554  1.00  0.00     0.031 A 
ATOM     73  C   UNL A   1      39.265  33.310  35.569  1.00  0.00     0.131 A 
ATOM     74  C   UNL A   1      37.893  32.089  37.633  1.00  0.00     0.055 A 
ATOM     75  C   UNL A   1      38.846  34.072  36.660  1.00  0.00     0.041 A 
ATOM     76  F   UNL A   1      39.923  33.940  34.581  1.00  0.00    -0.206 F 
ATOM     77  C   UNL A   1      38.149  33.462  37.698  1.00  0.00     0.022 A 
BRANCH  74  78
ATOM     78  S   UNL A   1      36.933  31.286  38.946  1.00  0.00     0.124 S 
ATOM     79  O   UNL A   1      37.823  31.426  40.092  1.00  0.00    -0.237 OA
ATOM     80  O   UNL A   1      35.717  32.093  38.971  1.00  0.00    -0.237 OA
ATOM     81  O   UNL A   1      36.759  29.921  38.452  1.00  0.00    -0.744 OA
ENDBRANCH  74  78
ENDBRANCH  47  71
BRANCH  59  82
ATOM     82  C   UNL A   1      44.497  27.718  34.385  1.00  0.00     0.023 A 
ATOM     83  C   UNL A   1      44.410  26.584  35.209  1.00  0.00     0.031 A 
ATOM     84  C   UNL A   1      45.712  28.424  34.349  1.00  0.00     0.131 A 
ATOM     85  C   UNL A   1      45.513  26.203  35.988  1.00  0.00     0.055 A 
ATOM     86  C   UNL A   1      46.821  28.014  35.089  1.00  0.00     0.041 A 
ATOM     87  F   UNL A   1      45.846  29.511  33.572  1.00  0.00    -0.206 F 
ATOM     88  C   UNL A   1      46.724  26.901  35.919  1.00  0.00     0.022 A 
BRANCH  85  89
ATOM     89  S   UNL A   1      45.341  24.796  37.118  1.00  0.00     0.124 S 
ATOM     90  O   UNL A   1      43.978  24.968  37.609  1.00  0.00    -0.237 OA
ATOM     91  O   UNL A   1      45.561  23.653  36.236  1.00  0.00    -0.237 OA
ATOM     92  O   UNL A   1      46.390  25.021  38.110  1.00  0.00    -0.744 OA
ENDBRANCH  85  89
ENDBRANCH  59  82
ENDBRANCH  33  34
ENDBRANCH  26  28
ENDBRANCH  25  26
ENDBRANCH  24  25
ENDBRANCH   1  24
TORSDOF 18
ENDMDL
MODEL 3
REMARK VINA RESULT:     -11.9      1.613      1.873
REMARK SMILES Cc1c(C)c2c(c(C)c1O)CC[C@@](C)(C(=O)OCCOCCOC(=O)c1ccc(-c3c4nc(c(-c5cc(S(=O)(=O)[O-])ccc5F)c5ccc([nH]5)c(-c5cc(S(=O)(=O)[O-])ccc5F)c5nc(c(-c6cc(S(=O)(=O)[O-])ccc6F)c6ccc3[nH]6)C=C5)C=C4)cc1)O2
REMARK SMILES IDX 21 1 20 2 19 3 18 4 17 5 15 6 16 7 13 8 1 9 2 10 3 11 9 12
REMARK SMILES IDX 4 13 5 14 7 15 6 16 89 17 8 18 11 19 12 20 14 21 10 22 22 24
REMARK SMILES IDX 23 25 24 26 25 27 26 28 27 29 88 30 28 31 87 32 29 33 30 34
REMARK SMILES IDX 31 35 81 36 32 37 86 38 80 39 82 40 33 41 85 42 79 43 78 44
REMARK SMILES IDX 34 46 66 47 46 48 65 49 47 50 50 51 64 52 83 53 48 54 49 55
REMARK SMILES IDX 63 57 84 58 51 59 35 60 36 61 44 62 37 63 43 64 45 65 42 66
REMARK SMILES IDX 38 67 39 68 40 69 41 70 67 71 68 72 76 73 69 74 75 75 77 76
REMARK SMILES IDX 74 77 70 78 71 79 72 80 73 81 52 82 53 83 61 84 54 85 60 86
REMARK SMILES IDX 62 87 59 88 55 89 56 90 57 91 58 92
REMARK H PARENT 10 23 82 45 50 56
REMARK Flexibility Score: inf
ROOT
ATOM      1  C   UNL A   1      36.099  20.925  24.747  1.00  0.00     0.202 C 
ENDROOT
BRANCH   1   2
ATOM      2  O   UNL A   1      34.880  20.229  25.001  1.00  0.00    -0.374 OA
BRANCH   2   3
ATOM      3  C   UNL A   1      33.866  20.920  25.728  1.00  0.00     0.202 C 
BRANCH   3   4
ATOM      4  C   UNL A   1      32.414  20.634  25.337  1.00  0.00     0.261 C 
BRANCH   4   5
ATOM      5  O   UNL A   1      31.872  21.643  24.465  1.00  0.00    -0.460 OA
BRANCH   5   6
ATOM      6  C   UNL A   1      31.655  22.855  25.052  1.00  0.00     0.350 C 
ATOM      7  O   UNL A   1      31.098  22.998  26.137  1.00  0.00    -0.247 OA
BRANCH   6   8
ATOM      8  C   UNL A   1      32.150  24.027  24.188  1.00  0.00     0.203 C 
ATOM      9  C   UNL A   1      28.810  28.919  22.540  1.00  0.00     0.049 C 
ATOM     10  C   UNL A   1      30.071  28.164  22.872  1.00  0.00    -0.002 A 
ATOM     11  C   UNL A   1      30.006  26.920  23.533  1.00  0.00    -0.002 A 
ATOM     12  C   UNL A   1      31.341  28.686  22.554  1.00  0.00     0.122 A 
ATOM     13  C   UNL A   1      28.685  26.339  23.981  1.00  0.00     0.049 C 
ATOM     14  C   UNL A   1      31.192  26.191  23.748  1.00  0.00     0.127 A 
ATOM     15  C   UNL A   1      32.532  27.992  22.842  1.00  0.00    -0.002 A 
ATOM     16  C   UNL A   1      32.455  26.735  23.478  1.00  0.00     0.001 A 
ATOM     17  O   UNL A   1      31.024  24.923  24.224  1.00  0.00    -0.475 OA
ATOM     18  C   UNL A   1      33.874  28.580  22.487  1.00  0.00     0.049 C 
ATOM     19  C   UNL A   1      33.700  25.968  23.855  1.00  0.00     0.044 C 
ATOM     20  C   UNL A   1      33.384  24.754  24.724  1.00  0.00     0.065 C 
ATOM     21  C   UNL A   1      32.350  23.461  22.775  1.00  0.00     0.069 C 
BRANCH  12  22
ATOM     22  O   UNL A   1      31.471  29.910  21.947  1.00  0.00    -0.507 OA
ATOM     23  H   UNL A   1      31.056  30.071  21.123  1.00  0.00     0.293 HD
ENDBRANCH  12  22
ENDBRANCH   6   8
ENDBRANCH   5   6
ENDBRANCH   4   5
ENDBRANCH   3   4
ENDBRANCH   2   3
ENDBRANCH   1   2
BRANCH   1  24
ATOM     24  C   UNL A   1      37.403  20.194  25.090  1.00  0.00     0.261 C 
BRANCH  24  25
ATOM     25  O   UNL A   1      38.546  21.071  25.081  1.00  0.00    -0.460 OA
BRANCH  25  26
ATOM     26  C   UNL A   1      39.468  20.803  26.037  1.00  0.00     0.338 C 
ATOM     27  O   UNL A   1      40.030  19.733  26.236  1.00  0.00    -0.246 OA
BRANCH  26  28
ATOM     28  C   UNL A   1      39.875  22.045  26.721  1.00  0.00     0.060 A 
ATOM     29  C   UNL A   1      39.187  23.219  26.388  1.00  0.00     0.016 A 
ATOM     30  C   UNL A   1      40.958  22.083  27.602  1.00  0.00     0.016 A 
ATOM     31  C   UNL A   1      39.610  24.445  26.896  1.00  0.00     0.010 A 
ATOM     32  C   UNL A   1      41.390  23.319  28.101  1.00  0.00     0.010 A 
ATOM     33  C   UNL A   1      40.740  24.508  27.720  1.00  0.00    -0.014 A 
BRANCH  33  34
ATOM     34  C   UNL A   1      41.331  25.833  28.033  1.00  0.00     0.031 A 
ATOM     35  C   UNL A   1      42.735  26.125  27.576  1.00  0.00     0.074 A 
ATOM     36  C   UNL A   1      40.605  26.788  28.643  1.00  0.00     0.049 A 
ATOM     37  N   UNL A   1      43.451  27.207  27.737  1.00  0.00    -0.248 NA
ATOM     38  C   UNL A   1      43.421  25.055  26.832  1.00  0.00     0.031 C 
ATOM     39  C   UNL A   1      39.213  26.648  29.065  1.00  0.00     0.029 A 
ATOM     40  N   UNL A   1      40.938  28.071  28.999  1.00  0.00    -0.354 N 
ATOM     41  C   UNL A   1      44.665  26.956  27.108  1.00  0.00     0.074 A 
ATOM     42  C   UNL A   1      44.603  25.603  26.596  1.00  0.00     0.031 C 
ATOM     43  C   UNL A   1      38.806  27.805  29.615  1.00  0.00     0.029 A 
ATOM     44  C   UNL A   1      39.918  28.755  29.617  1.00  0.00     0.049 A 
ATOM     45  H   UNL A   1      41.824  28.465  28.828  1.00  0.00     0.167 HD
ATOM     46  C   UNL A   1      45.730  27.780  26.959  1.00  0.00     0.034 A 
ATOM     47  C   UNL A   1      39.890  29.999  30.138  1.00  0.00     0.034 A 
ATOM     48  C   UNL A   1      45.788  29.122  27.479  1.00  0.00     0.049 A 
ATOM     49  C   UNL A   1      41.128  30.858  30.063  1.00  0.00     0.074 A 
ATOM     50  C   UNL A   1      46.825  30.034  27.390  1.00  0.00     0.029 A 
ATOM     51  N   UNL A   1      44.769  29.745  28.186  1.00  0.00    -0.354 N 
ATOM     52  N   UNL A   1      42.285  30.589  29.504  1.00  0.00    -0.248 NA
ATOM     53  C   UNL A   1      41.058  32.183  30.696  1.00  0.00     0.031 C 
ATOM     54  C   UNL A   1      46.457  31.184  28.096  1.00  0.00     0.029 A 
ATOM     55  C   UNL A   1      45.165  31.016  28.569  1.00  0.00     0.049 A 
ATOM     56  H   UNL A   1      43.894  29.341  28.388  1.00  0.00     0.167 HD
ATOM     57  C   UNL A   1      43.073  31.719  29.701  1.00  0.00     0.074 A 
ATOM     58  C   UNL A   1      42.260  32.674  30.425  1.00  0.00     0.031 C 
ATOM     59  C   UNL A   1      44.352  31.949  29.310  1.00  0.00     0.034 A 
BRANCH  46  60
ATOM     60  C   UNL A   1      46.934  27.236  26.238  1.00  0.00     0.023 A 
ATOM     61  C   UNL A   1      47.959  26.562  26.924  1.00  0.00     0.031 A 
ATOM     62  C   UNL A   1      47.054  27.387  24.846  1.00  0.00     0.131 A 
ATOM     63  C   UNL A   1      49.079  26.096  26.220  1.00  0.00     0.055 A 
ATOM     64  C   UNL A   1      48.143  26.869  24.143  1.00  0.00     0.041 A 
ATOM     65  F   UNL A   1      46.113  28.041  24.148  1.00  0.00    -0.206 F 
ATOM     66  C   UNL A   1      49.166  26.225  24.831  1.00  0.00     0.022 A 
BRANCH  63  67
ATOM     67  S   UNL A   1      50.464  25.388  27.154  1.00  0.00     0.124 S 
ATOM     68  O   UNL A   1      50.941  26.552  27.896  1.00  0.00    -0.237 OA
ATOM     69  O   UNL A   1      49.815  24.348  27.944  1.00  0.00    -0.237 OA
ATOM     70  O   UNL A   1      51.368  24.907  26.112  1.00  0.00    -0.744 OA
ENDBRANCH  63  67
ENDBRANCH  46  60
BRANCH  47  71
ATOM     71  C   UNL A   1      38.658  30.498  30.809  1.00  0.00     0.023 A 
ATOM     72  C   UNL A   1      37.661  31.172  30.088  1.00  0.00     0.031 A 
ATOM     73  C   UNL A   1      38.472  30.320  32.192  1.00  0.00     0.131 A 
ATOM     74  C   UNL A   1      36.528  31.661  30.757  1.00  0.00     0.055 A 
ATOM     75  C   UNL A   1      37.327  30.775  32.846  1.00  0.00     0.041 A 
ATOM     76  F   UNL A   1      39.398  29.680  32.924  1.00  0.00    -0.206 F 
ATOM     77  C   UNL A   1      36.349  31.457  32.128  1.00  0.00     0.022 A 
BRANCH  74  78
ATOM     78  S   UNL A   1      35.295  32.600  29.814  1.00  0.00     0.124 S 
ATOM     79  O   UNL A   1      34.797  31.589  28.890  1.00  0.00    -0.237 OA
ATOM     80  O   UNL A   1      34.371  33.026  30.862  1.00  0.00    -0.237 OA
ATOM     81  O   UNL A   1      36.078  33.674  29.206  1.00  0.00    -0.744 OA
ENDBRANCH  74  78
ENDBRANCH  47  71
BRANCH  59  82
ATOM     82  C   UNL A   1      44.950  33.291  29.638  1.00  0.00     0.023 A 
ATOM     83  C   UNL A   1      44.828  34.382  28.762  1.00  0.00     0.031 A 
ATOM     84  C   UNL A   1      45.607  33.492  30.865  1.00  0.00     0.131 A 
ATOM     85  C   UNL A   1      45.379  35.623  29.113  1.00  0.00     0.055 A 
ATOM     86  C   UNL A   1      46.113  34.740  31.230  1.00  0.00     0.041 A 
ATOM     87  F   UNL A   1      45.745  32.482  31.738  1.00  0.00    -0.206 F 
ATOM     88  C   UNL A   1      46.005  35.813  30.350  1.00  0.00     0.022 A 
BRANCH  85  89
ATOM     89  S   UNL A   1      45.295  36.986  27.921  1.00  0.00     0.124 S 
ATOM     90  O   UNL A   1      45.894  36.387  26.734  1.00  0.00    -0.237 OA
ATOM     91  O   UNL A   1      43.861  37.252  27.846  1.00  0.00    -0.237 OA
ATOM     92  O   UNL A   1      46.086  38.042  28.549  1.00  0.00    -0.744 OA
ENDBRANCH  85  89
ENDBRANCH  59  82
ENDBRANCH  33  34
ENDBRANCH  26  28
ENDBRANCH  25  26
ENDBRANCH  24  25
ENDBRANCH   1  24
TORSDOF 18
ENDMDL
