MODEL 1
REMARK VINA RESULT:     -11.5      0.000      0.000
REMARK SMILES Cc1ccc(N2CCC[C@@H](Cn3cc(C(=O)OCCOCCOC(=O)c4ccc(-c5c6nc(c(-c7cc(S(=O)(=O)[O-])ccc7F)c7ccc([nH]7)c(-c7cc(S(=O)(=O)[O-])ccc7F)c7nc(c(-c8cc(S(=O)(=O)[O-])ccc8F)c8ccc5[nH]8)C=C7)C=C6)cc4)nn3)C2)nn1
REMARK SMILES IDX 20 1 19 2 18 3 17 4 15 5 16 6 14 7 12 8 13 9 90 10 89 11
REMARK SMILES IDX 11 12 10 13 6 14 7 15 91 16 8 17 9 18 5 19 1 20 2 21 3 22
REMARK SMILES IDX 93 23 4 24 92 25 21 26 22 27 23 28 24 29 25 30 26 31 27 32
REMARK SMILES IDX 88 33 28 34 87 35 29 36 30 37 31 38 81 39 32 40 86 41 80 42
REMARK SMILES IDX 82 43 33 44 85 45 79 46 78 47 34 49 66 50 46 51 65 52 47 53
REMARK SMILES IDX 50 54 64 55 83 56 48 57 49 58 63 60 84 61 51 62 35 63 36 64
REMARK SMILES IDX 44 65 37 66 43 67 45 68 42 69 38 70 39 71 40 72 41 73 67 74
REMARK SMILES IDX 68 75 76 76 69 77 75 78 77 79 74 80 70 81 71 82 72 83 73 84
REMARK SMILES IDX 52 85 53 86 61 87 54 88 60 89 62 90 59 91 55 92 56 93 57 94
REMARK SMILES IDX 58 95
REMARK H PARENT 82 48 50 59
REMARK Flexibility Score: inf
ROOT
ATOM      1  O   UNL A   1      33.936  29.840  26.621  1.00  0.00    -0.374 OA
ENDROOT
BRANCH   1   2
ATOM      2  C   UNL A   1      33.539  28.994  25.543  1.00  0.00     0.202 C 
BRANCH   2   3
ATOM      3  C   UNL A   1      32.046  28.751  25.327  1.00  0.00     0.261 C 
BRANCH   3   4
ATOM      4  O   UNL A   1      31.661  29.021  23.973  1.00  0.00    -0.458 OA
BRANCH   4   5
ATOM      5  C   UNL A   1      30.537  28.363  23.553  1.00  0.00     0.360 C 
ATOM      6  O   UNL A   1      29.465  28.900  23.322  1.00  0.00    -0.244 OA
BRANCH   5   7
ATOM      7  C   UNL A   1      30.783  26.947  23.334  1.00  0.00     0.190 A 
ATOM      8  N   UNL A   1      31.647  25.037  22.850  1.00  0.00    -0.251 N 
ATOM      9  C   UNL A   1      31.650  26.339  22.445  1.00  0.00     0.146 A 
ATOM     10  N   UNL A   1      30.634  24.796  23.700  1.00  0.00    -0.067 NA
ATOM     11  N   UNL A   1      30.125  25.969  24.043  1.00  0.00    -0.123 NA
BRANCH   8  12
ATOM     12  C   UNL A   1      32.731  24.080  22.757  1.00  0.00     0.151 C 
BRANCH  12  13
ATOM     13  C   UNL A   1      32.939  23.256  24.047  1.00  0.00     0.030 C 
ATOM     14  N   UNL A   1      33.437  21.075  24.979  1.00  0.00    -0.355 N 
ATOM     15  C   UNL A   1      34.566  21.510  25.788  1.00  0.00     0.118 C 
ATOM     16  C   UNL A   1      33.277  21.794  23.721  1.00  0.00     0.123 C 
ATOM     17  C   UNL A   1      34.284  22.952  26.217  1.00  0.00     0.022 C 
ATOM     18  C   UNL A   1      33.987  23.859  25.016  1.00  0.00     0.009 C 
BRANCH  14  19
ATOM     19  C   UNL A   1      33.280  19.696  24.831  1.00  0.00     0.151 A 
ATOM     20  C   UNL A   1      33.086  15.488  25.142  1.00  0.00     0.069 C 
ATOM     21  C   UNL A   1      33.162  16.968  24.937  1.00  0.00     0.060 A 
ATOM     22  C   UNL A   1      34.348  17.569  24.549  1.00  0.00     0.029 A 
ATOM     23  N   UNL A   1      32.069  17.705  25.225  1.00  0.00    -0.154 NA
ATOM     24  C   UNL A   1      34.398  18.955  24.482  1.00  0.00     0.051 A 
ATOM     25  N   UNL A   1      32.131  19.077  25.177  1.00  0.00    -0.133 NA
ENDBRANCH  14  19
ENDBRANCH  12  13
ENDBRANCH   8  12
ENDBRANCH   5   7
ENDBRANCH   4   5
ENDBRANCH   3   4
ENDBRANCH   2   3
ENDBRANCH   1   2
BRANCH   1  26
ATOM     26  C   UNL A   1      33.032  30.789  27.180  1.00  0.00     0.202 C 
BRANCH  26  27
ATOM     27  C   UNL A   1      33.541  32.151  27.635  1.00  0.00     0.261 C 
BRANCH  27  28
ATOM     28  O   UNL A   1      34.354  32.081  28.795  1.00  0.00    -0.460 OA
BRANCH  28  29
ATOM     29  C   UNL A   1      35.647  32.379  28.528  1.00  0.00     0.338 C 
ATOM     30  O   UNL A   1      36.062  33.078  27.616  1.00  0.00    -0.246 OA
BRANCH  29  31
ATOM     31  C   UNL A   1      36.523  31.608  29.410  1.00  0.00     0.060 A 
ATOM     32  C   UNL A   1      37.816  32.115  29.532  1.00  0.00     0.016 A 
ATOM     33  C   UNL A   1      36.206  30.273  29.695  1.00  0.00     0.016 A 
ATOM     34  C   UNL A   1      38.839  31.208  29.624  1.00  0.00     0.010 A 
ATOM     35  C   UNL A   1      37.235  29.367  29.790  1.00  0.00     0.010 A 
ATOM     36  C   UNL A   1      38.532  29.840  29.636  1.00  0.00    -0.014 A 
BRANCH  36  37
ATOM     37  C   UNL A   1      39.645  28.924  29.608  1.00  0.00     0.031 A 
ATOM     38  C   UNL A   1      40.061  28.554  30.971  1.00  0.00     0.074 A 
ATOM     39  C   UNL A   1      40.242  28.487  28.486  1.00  0.00     0.049 A 
ATOM     40  N   UNL A   1      40.996  29.115  31.661  1.00  0.00    -0.248 NA
ATOM     41  C   UNL A   1      39.174  27.672  31.741  1.00  0.00     0.031 C 
ATOM     42  C   UNL A   1      39.790  28.559  27.096  1.00  0.00     0.029 A 
ATOM     43  N   UNL A   1      41.419  27.817  28.388  1.00  0.00    -0.354 N 
ATOM     44  C   UNL A   1      40.965  28.483  32.893  1.00  0.00     0.074 A 
ATOM     45  C   UNL A   1      39.702  27.788  32.960  1.00  0.00     0.031 C 
ATOM     46  C   UNL A   1      40.574  27.758  26.331  1.00  0.00     0.029 A 
ATOM     47  C   UNL A   1      41.671  27.260  27.144  1.00  0.00     0.049 A 
ATOM     48  H   UNL A   1      42.045  27.734  29.142  1.00  0.00     0.167 HD
ATOM     49  C   UNL A   1      42.091  28.359  33.646  1.00  0.00     0.034 A 
ATOM     50  C   UNL A   1      42.688  26.409  26.848  1.00  0.00     0.034 A 
ATOM     51  C   UNL A   1      43.145  29.207  33.155  1.00  0.00     0.049 A 
ATOM     52  C   UNL A   1      43.729  26.592  27.893  1.00  0.00     0.074 A 
ATOM     53  C   UNL A   1      43.340  30.569  33.065  1.00  0.00     0.029 A 
ATOM     54  N   UNL A   1      44.027  28.629  32.275  1.00  0.00    -0.354 N 
ATOM     55  N   UNL A   1      44.441  27.677  28.021  1.00  0.00    -0.248 NA
ATOM     56  C   UNL A   1      43.653  25.748  29.076  1.00  0.00     0.031 C 
ATOM     57  C   UNL A   1      44.034  30.768  31.838  1.00  0.00     0.029 A 
ATOM     58  C   UNL A   1      44.285  29.518  31.265  1.00  0.00     0.049 A 
ATOM     59  H   UNL A   1      44.412  27.727  32.356  1.00  0.00     0.167 HD
ATOM     60  C   UNL A   1      44.518  27.880  29.392  1.00  0.00     0.074 A 
ATOM     61  C   UNL A   1      44.098  26.613  29.990  1.00  0.00     0.031 C 
ATOM     62  C   UNL A   1      44.633  29.136  29.909  1.00  0.00     0.034 A 
BRANCH  49  63
ATOM     63  C   UNL A   1      42.343  27.183  34.547  1.00  0.00     0.023 A 
ATOM     64  C   UNL A   1      43.107  26.072  34.141  1.00  0.00     0.031 A 
ATOM     65  C   UNL A   1      42.018  27.245  35.913  1.00  0.00     0.131 A 
ATOM     66  C   UNL A   1      43.475  25.064  35.035  1.00  0.00     0.055 A 
ATOM     67  C   UNL A   1      42.449  26.274  36.825  1.00  0.00     0.041 A 
ATOM     68  F   UNL A   1      41.321  28.279  36.408  1.00  0.00    -0.206 F 
ATOM     69  C   UNL A   1      43.176  25.172  36.387  1.00  0.00     0.022 A 
BRANCH  66  70
ATOM     70  S   UNL A   1      44.381  23.609  34.442  1.00  0.00     0.124 S 
ATOM     71  O   UNL A   1      43.467  23.071  33.440  1.00  0.00    -0.237 OA
ATOM     72  O   UNL A   1      45.605  24.216  33.925  1.00  0.00    -0.237 OA
ATOM     73  O   UNL A   1      44.553  22.798  35.645  1.00  0.00    -0.744 OA
ENDBRANCH  66  70
ENDBRANCH  49  63
BRANCH  50  74
ATOM     74  C   UNL A   1      42.556  25.109  26.141  1.00  0.00     0.023 A 
ATOM     75  C   UNL A   1      41.588  24.178  26.560  1.00  0.00     0.031 A 
ATOM     76  C   UNL A   1      43.587  24.637  25.307  1.00  0.00     0.131 A 
ATOM     77  C   UNL A   1      41.707  22.824  26.213  1.00  0.00     0.055 A 
ATOM     78  C   UNL A   1      43.696  23.287  24.949  1.00  0.00     0.041 A 
ATOM     79  F   UNL A   1      44.560  25.465  24.894  1.00  0.00    -0.206 F 
ATOM     80  C   UNL A   1      42.762  22.369  25.418  1.00  0.00     0.022 A 
BRANCH  77  81
ATOM     81  S   UNL A   1      40.524  21.613  26.862  1.00  0.00     0.124 S 
ATOM     82  O   UNL A   1      40.838  21.603  28.289  1.00  0.00    -0.237 OA
ATOM     83  O   UNL A   1      39.247  22.222  26.504  1.00  0.00    -0.237 OA
ATOM     84  O   UNL A   1      40.866  20.386  26.149  1.00  0.00    -0.744 OA
ENDBRANCH  77  81
ENDBRANCH  50  74
BRANCH  62  85
ATOM     85  C   UNL A   1      44.963  30.270  28.969  1.00  0.00     0.023 A 
ATOM     86  C   UNL A   1      46.326  30.539  28.773  1.00  0.00     0.031 A 
ATOM     87  C   UNL A   1      44.032  31.198  28.463  1.00  0.00     0.131 A 
ATOM     88  C   UNL A   1      46.733  31.721  28.151  1.00  0.00     0.055 A 
ATOM     89  C   UNL A   1      44.442  32.351  27.781  1.00  0.00     0.041 A 
ATOM     90  F   UNL A   1      42.718  31.060  28.682  1.00  0.00    -0.206 F 
ATOM     91  C   UNL A   1      45.799  32.627  27.640  1.00  0.00     0.022 A 
BRANCH  88  92
ATOM     92  S   UNL A   1      48.486  32.162  28.115  1.00  0.00     0.124 S 
ATOM     93  O   UNL A   1      48.962  31.650  29.398  1.00  0.00    -0.237 OA
ATOM     94  O   UNL A   1      48.961  31.440  26.937  1.00  0.00    -0.237 OA
ATOM     95  O   UNL A   1      48.483  33.618  27.989  1.00  0.00    -0.744 OA
ENDBRANCH  88  92
ENDBRANCH  62  85
ENDBRANCH  36  37
ENDBRANCH  29  31
ENDBRANCH  28  29
ENDBRANCH  27  28
ENDBRANCH  26  27
ENDBRANCH   1  26
TORSDOF 20
ENDMDL
MODEL 2
REMARK VINA RESULT:     -11.3      2.562      7.570
REMARK SMILES Cc1ccc(N2CCC[C@@H](Cn3cc(C(=O)OCCOCCOC(=O)c4ccc(-c5c6nc(c(-c7cc(S(=O)(=O)[O-])ccc7F)c7ccc([nH]7)c(-c7cc(S(=O)(=O)[O-])ccc7F)c7nc(c(-c8cc(S(=O)(=O)[O-])ccc8F)c8ccc5[nH]8)C=C7)C=C6)cc4)nn3)C2)nn1
REMARK SMILES IDX 20 1 19 2 18 3 17 4 15 5 16 6 14 7 12 8 13 9 90 10 89 11
REMARK SMILES IDX 11 12 10 13 6 14 7 15 91 16 8 17 9 18 5 19 1 20 2 21 3 22
REMARK SMILES IDX 93 23 4 24 92 25 21 26 22 27 23 28 24 29 25 30 26 31 27 32
REMARK SMILES IDX 88 33 28 34 87 35 29 36 30 37 31 38 81 39 32 40 86 41 80 42
REMARK SMILES IDX 82 43 33 44 85 45 79 46 78 47 34 49 66 50 46 51 65 52 47 53
REMARK SMILES IDX 50 54 64 55 83 56 48 57 49 58 63 60 84 61 51 62 35 63 36 64
REMARK SMILES IDX 44 65 37 66 43 67 45 68 42 69 38 70 39 71 40 72 41 73 67 74
REMARK SMILES IDX 68 75 76 76 69 77 75 78 77 79 74 80 70 81 71 82 72 83 73 84
REMARK SMILES IDX 52 85 53 86 61 87 54 88 60 89 62 90 59 91 55 92 56 93 57 94
REMARK SMILES IDX 58 95
REMARK H PARENT 82 48 50 59
REMARK Flexibility Score: inf
ROOT
ATOM      1  O   UNL A   1      33.243  29.673  25.963  1.00  0.00    -0.374 OA
ENDROOT
BRANCH   1   2
ATOM      2  C   UNL A   1      31.867  30.027  25.832  1.00  0.00     0.202 C 
BRANCH   2   3
ATOM      3  C   UNL A   1      31.099  29.511  24.617  1.00  0.00     0.261 C 
BRANCH   3   4
ATOM      4  O   UNL A   1      31.986  29.014  23.607  1.00  0.00    -0.458 OA
BRANCH   4   5
ATOM      5  C   UNL A   1      31.434  28.095  22.757  1.00  0.00     0.360 C 
ATOM      6  O   UNL A   1      30.393  28.256  22.142  1.00  0.00    -0.244 OA
BRANCH   5   7
ATOM      7  C   UNL A   1      32.276  26.918  22.606  1.00  0.00     0.190 A 
ATOM      8  N   UNL A   1      33.030  24.922  22.329  1.00  0.00    -0.251 N 
ATOM      9  C   UNL A   1      31.990  25.598  22.898  1.00  0.00     0.146 A 
ATOM     10  N   UNL A   1      34.028  25.760  21.999  1.00  0.00    -0.067 NA
ATOM     11  N   UNL A   1      33.559  26.992  22.119  1.00  0.00    -0.123 NA
BRANCH   8  12
ATOM     12  C   UNL A   1      33.015  23.588  21.766  1.00  0.00     0.151 C 
BRANCH  12  13
ATOM     13  C   UNL A   1      33.297  22.477  22.803  1.00  0.00     0.030 C 
ATOM     14  N   UNL A   1      34.690  21.764  24.654  1.00  0.00    -0.355 N 
ATOM     15  C   UNL A   1      33.595  21.524  25.582  1.00  0.00     0.118 C 
ATOM     16  C   UNL A   1      34.466  22.861  23.721  1.00  0.00     0.123 C 
ATOM     17  C   UNL A   1      32.391  21.069  24.753  1.00  0.00     0.022 C 
ATOM     18  C   UNL A   1      32.058  22.064  23.635  1.00  0.00     0.009 C 
BRANCH  14  19
ATOM     19  C   UNL A   1      35.972  21.781  25.204  1.00  0.00     0.151 A 
ATOM     20  C   UNL A   1      40.084  22.065  26.126  1.00  0.00     0.069 C 
ATOM     21  C   UNL A   1      38.619  21.901  25.870  1.00  0.00     0.060 A 
ATOM     22  C   UNL A   1      38.123  20.731  25.322  1.00  0.00     0.029 A 
ATOM     23  N   UNL A   1      37.811  22.956  26.109  1.00  0.00    -0.154 NA
ATOM     24  C   UNL A   1      36.775  20.669  24.999  1.00  0.00     0.051 A 
ATOM     25  N   UNL A   1      36.482  22.896  25.767  1.00  0.00    -0.133 NA
ENDBRANCH  14  19
ENDBRANCH  12  13
ENDBRANCH   8  12
ENDBRANCH   5   7
ENDBRANCH   4   5
ENDBRANCH   3   4
ENDBRANCH   2   3
ENDBRANCH   1   2
BRANCH   1  26
ATOM     26  C   UNL A   1      33.955  29.934  27.168  1.00  0.00     0.202 C 
BRANCH  26  27
ATOM     27  C   UNL A   1      35.296  29.255  27.424  1.00  0.00     0.261 C 
BRANCH  27  28
ATOM     28  O   UNL A   1      36.358  30.176  27.608  1.00  0.00    -0.460 OA
BRANCH  28  29
ATOM     29  C   UNL A   1      37.204  29.787  28.591  1.00  0.00     0.338 C 
ATOM     30  O   UNL A   1      37.225  30.197  29.741  1.00  0.00    -0.246 OA
BRANCH  29  31
ATOM     31  C   UNL A   1      38.222  28.892  28.040  1.00  0.00     0.060 A 
ATOM     32  C   UNL A   1      38.679  27.917  28.925  1.00  0.00     0.016 A 
ATOM     33  C   UNL A   1      38.960  29.301  26.920  1.00  0.00     0.016 A 
ATOM     34  C   UNL A   1      40.008  27.591  28.867  1.00  0.00     0.010 A 
ATOM     35  C   UNL A   1      40.292  28.969  26.864  1.00  0.00     0.010 A 
ATOM     36  C   UNL A   1      40.817  28.214  27.905  1.00  0.00    -0.014 A 
BRANCH  36  37
ATOM     37  C   UNL A   1      42.230  27.933  27.964  1.00  0.00     0.031 A 
ATOM     38  C   UNL A   1      42.538  26.634  27.344  1.00  0.00     0.074 A 
ATOM     39  C   UNL A   1      43.142  28.739  28.534  1.00  0.00     0.049 A 
ATOM     40  N   UNL A   1      42.647  25.504  27.957  1.00  0.00    -0.248 NA
ATOM     41  C   UNL A   1      42.437  26.532  25.883  1.00  0.00     0.031 C 
ATOM     42  C   UNL A   1      43.027  30.139  28.946  1.00  0.00     0.029 A 
ATOM     43  N   UNL A   1      44.433  28.442  28.827  1.00  0.00    -0.354 N 
ATOM     44  C   UNL A   1      42.865  24.570  26.958  1.00  0.00     0.074 A 
ATOM     45  C   UNL A   1      42.498  25.210  25.719  1.00  0.00     0.031 C 
ATOM     46  C   UNL A   1      44.264  30.624  29.222  1.00  0.00     0.029 A 
ATOM     47  C   UNL A   1      45.220  29.530  29.169  1.00  0.00     0.049 A 
ATOM     48  H   UNL A   1      44.785  27.523  28.799  1.00  0.00     0.167 HD
ATOM     49  C   UNL A   1      43.583  23.440  27.199  1.00  0.00     0.034 A 
ATOM     50  C   UNL A   1      46.568  29.514  29.336  1.00  0.00     0.034 A 
ATOM     51  C   UNL A   1      43.772  23.231  28.610  1.00  0.00     0.049 A 
ATOM     52  C   UNL A   1      46.958  28.104  29.599  1.00  0.00     0.074 A 
ATOM     53  C   UNL A   1      42.944  22.946  29.675  1.00  0.00     0.029 A 
ATOM     54  N   UNL A   1      44.936  23.728  29.145  1.00  0.00    -0.354 N 
ATOM     55  N   UNL A   1      46.639  27.456  30.684  1.00  0.00    -0.248 NA
ATOM     56  C   UNL A   1      47.305  27.275  28.453  1.00  0.00     0.031 C 
ATOM     57  C   UNL A   1      43.484  23.672  30.774  1.00  0.00     0.029 A 
ATOM     58  C   UNL A   1      44.649  24.315  30.349  1.00  0.00     0.049 A 
ATOM     59  H   UNL A   1      45.828  23.671  28.733  1.00  0.00     0.167 HD
ATOM     60  C   UNL A   1      46.307  26.183  30.243  1.00  0.00     0.074 A 
ATOM     61  C   UNL A   1      46.827  26.104  28.879  1.00  0.00     0.031 C 
ATOM     62  C   UNL A   1      45.394  25.425  30.915  1.00  0.00     0.034 A 
BRANCH  49  63
ATOM     63  C   UNL A   1      44.439  22.781  26.154  1.00  0.00     0.023 A 
ATOM     64  C   UNL A   1      44.187  21.476  25.688  1.00  0.00     0.031 A 
ATOM     65  C   UNL A   1      45.388  23.523  25.433  1.00  0.00     0.131 A 
ATOM     66  C   UNL A   1      44.881  20.934  24.603  1.00  0.00     0.055 A 
ATOM     67  C   UNL A   1      46.032  23.010  24.301  1.00  0.00     0.041 A 
ATOM     68  F   UNL A   1      45.677  24.789  25.775  1.00  0.00    -0.206 F 
ATOM     69  C   UNL A   1      45.784  21.706  23.884  1.00  0.00     0.022 A 
BRANCH  66  70
ATOM     70  S   UNL A   1      44.585  19.217  24.100  1.00  0.00     0.124 S 
ATOM     71  O   UNL A   1      43.318  18.922  24.762  1.00  0.00    -0.237 OA
ATOM     72  O   UNL A   1      44.528  19.343  22.647  1.00  0.00    -0.237 OA
ATOM     73  O   UNL A   1      45.751  18.503  24.614  1.00  0.00    -0.744 OA
ENDBRANCH  66  70
ENDBRANCH  49  63
BRANCH  50  74
ATOM     74  C   UNL A   1      47.534  30.455  28.711  1.00  0.00     0.023 A 
ATOM     75  C   UNL A   1      48.401  31.211  29.520  1.00  0.00     0.031 A 
ATOM     76  C   UNL A   1      47.367  30.873  27.378  1.00  0.00     0.131 A 
ATOM     77  C   UNL A   1      49.005  32.374  29.022  1.00  0.00     0.055 A 
ATOM     78  C   UNL A   1      47.982  32.027  26.876  1.00  0.00     0.041 A 
ATOM     79  F   UNL A   1      46.531  30.215  26.558  1.00  0.00    -0.206 F 
ATOM     80  C   UNL A   1      48.794  32.795  27.706  1.00  0.00     0.022 A 
BRANCH  77  81
ATOM     81  S   UNL A   1      50.021  33.408  30.111  1.00  0.00     0.124 S 
ATOM     82  O   UNL A   1      50.845  34.149  29.158  1.00  0.00    -0.237 OA
ATOM     83  O   UNL A   1      49.008  34.192  30.809  1.00  0.00    -0.237 OA
ATOM     84  O   UNL A   1      50.747  32.436  30.924  1.00  0.00    -0.744 OA
ENDBRANCH  77  81
ENDBRANCH  50  74
BRANCH  62  85
ATOM     85  C   UNL A   1      44.968  25.869  32.293  1.00  0.00     0.023 A 
ATOM     86  C   UNL A   1      45.585  25.220  33.374  1.00  0.00     0.031 A 
ATOM     87  C   UNL A   1      43.869  26.705  32.570  1.00  0.00     0.131 A 
ATOM     88  C   UNL A   1      45.074  25.357  34.667  1.00  0.00     0.055 A 
ATOM     89  C   UNL A   1      43.400  26.892  33.876  1.00  0.00     0.041 A 
ATOM     90  F   UNL A   1      43.173  27.292  31.587  1.00  0.00    -0.206 F 
ATOM     91  C   UNL A   1      43.991  26.200  34.930  1.00  0.00     0.022 A 
BRANCH  88  92
ATOM     92  S   UNL A   1      45.730  24.335  36.007  1.00  0.00     0.124 S 
ATOM     93  O   UNL A   1      46.464  23.302  35.279  1.00  0.00    -0.237 OA
ATOM     94  O   UNL A   1      46.556  25.289  36.744  1.00  0.00    -0.237 OA
ATOM     95  O   UNL A   1      44.540  23.871  36.714  1.00  0.00    -0.744 OA
ENDBRANCH  88  92
ENDBRANCH  62  85
ENDBRANCH  36  37
ENDBRANCH  29  31
ENDBRANCH  28  29
ENDBRANCH  27  28
ENDBRANCH  26  27
ENDBRANCH   1  26
TORSDOF 20
ENDMDL
MODEL 3
REMARK VINA RESULT:     -11.2      3.549      9.138
REMARK SMILES Cc1ccc(N2CCC[C@@H](Cn3cc(C(=O)OCCOCCOC(=O)c4ccc(-c5c6nc(c(-c7cc(S(=O)(=O)[O-])ccc7F)c7ccc([nH]7)c(-c7cc(S(=O)(=O)[O-])ccc7F)c7nc(c(-c8cc(S(=O)(=O)[O-])ccc8F)c8ccc5[nH]8)C=C7)C=C6)cc4)nn3)C2)nn1
REMARK SMILES IDX 20 1 19 2 18 3 17 4 15 5 16 6 14 7 12 8 13 9 90 10 89 11
REMARK SMILES IDX 11 12 10 13 6 14 7 15 91 16 8 17 9 18 5 19 1 20 2 21 3 22
REMARK SMILES IDX 93 23 4 24 92 25 21 26 22 27 23 28 24 29 25 30 26 31 27 32
REMARK SMILES IDX 88 33 28 34 87 35 29 36 30 37 31 38 81 39 32 40 86 41 80 42
REMARK SMILES IDX 82 43 33 44 85 45 79 46 78 47 34 49 66 50 46 51 65 52 47 53
REMARK SMILES IDX 50 54 64 55 83 56 48 57 49 58 63 60 84 61 51 62 35 63 36 64
REMARK SMILES IDX 44 65 37 66 43 67 45 68 42 69 38 70 39 71 40 72 41 73 67 74
REMARK SMILES IDX 68 75 76 76 69 77 75 78 77 79 74 80 70 81 71 82 72 83 73 84
REMARK SMILES IDX 52 85 53 86 61 87 54 88 60 89 62 90 59 91 55 92 56 93 57 94
REMARK SMILES IDX 58 95
REMARK H PARENT 82 48 50 59
REMARK Flexibility Score: inf
ROOT
ATOM      1  O   UNL A   1      43.721  19.719  25.417  1.00  0.00    -0.374 OA
ENDROOT
BRANCH   1   2
ATOM      2  C   UNL A   1      42.445  19.100  25.574  1.00  0.00     0.202 C 
BRANCH   2   3
ATOM      3  C   UNL A   1      41.541  19.586  26.705  1.00  0.00     0.261 C 
BRANCH   3   4
ATOM      4  O   UNL A   1      40.442  20.357  26.204  1.00  0.00    -0.458 OA
BRANCH   4   5
ATOM      5  C   UNL A   1      40.224  21.540  26.856  1.00  0.00     0.360 C 
ATOM      6  O   UNL A   1      40.968  22.014  27.699  1.00  0.00    -0.244 OA
BRANCH   5   7
ATOM      7  C   UNL A   1      39.033  22.219  26.370  1.00  0.00     0.190 A 
ATOM      8  N   UNL A   1      37.026  22.747  25.802  1.00  0.00    -0.251 N 
ATOM      9  C   UNL A   1      37.874  21.679  25.846  1.00  0.00     0.146 A 
ATOM     10  N   UNL A   1      37.693  23.901  25.976  1.00  0.00    -0.067 NA
ATOM     11  N   UNL A   1      38.916  23.589  26.374  1.00  0.00    -0.123 NA
BRANCH   8  12
ATOM     12  C   UNL A   1      35.584  22.738  25.943  1.00  0.00     0.151 C 
BRANCH  12  13
ATOM     13  C   UNL A   1      34.854  22.045  24.772  1.00  0.00     0.030 C 
ATOM     14  N   UNL A   1      33.428  20.203  24.102  1.00  0.00    -0.355 N 
ATOM     15  C   UNL A   1      32.409  21.025  23.466  1.00  0.00     0.118 C 
ATOM     16  C   UNL A   1      34.070  20.817  25.257  1.00  0.00     0.123 C 
ATOM     17  C   UNL A   1      33.116  22.255  22.889  1.00  0.00     0.022 C 
ATOM     18  C   UNL A   1      33.941  22.991  23.953  1.00  0.00     0.009 C 
BRANCH  14  19
ATOM     19  C   UNL A   1      33.093  18.867  24.322  1.00  0.00     0.151 A 
ATOM     20  C   UNL A   1      32.719  14.824  25.489  1.00  0.00     0.069 C 
ATOM     21  C   UNL A   1      32.807  16.234  24.995  1.00  0.00     0.060 A 
ATOM     22  C   UNL A   1      33.653  16.566  23.950  1.00  0.00     0.029 A 
ATOM     23  N   UNL A   1      32.104  17.181  25.651  1.00  0.00    -0.154 NA
ATOM     24  C   UNL A   1      33.784  17.903  23.603  1.00  0.00     0.051 A 
ATOM     25  N   UNL A   1      32.254  18.505  25.315  1.00  0.00    -0.133 NA
ENDBRANCH  14  19
ENDBRANCH  12  13
ENDBRANCH   8  12
ENDBRANCH   5   7
ENDBRANCH   4   5
ENDBRANCH   3   4
ENDBRANCH   2   3
ENDBRANCH   1   2
BRANCH   1  26
ATOM     26  C   UNL A   1      43.831  21.115  25.159  1.00  0.00     0.202 C 
BRANCH  26  27
ATOM     27  C   UNL A   1      44.959  21.921  25.794  1.00  0.00     0.261 C 
BRANCH  27  28
ATOM     28  O   UNL A   1      44.499  22.856  26.757  1.00  0.00    -0.460 OA
BRANCH  28  29
ATOM     29  C   UNL A   1      43.928  23.940  26.181  1.00  0.00     0.338 C 
ATOM     30  O   UNL A   1      44.237  24.446  25.114  1.00  0.00    -0.246 OA
BRANCH  29  31
ATOM     31  C   UNL A   1      42.964  24.538  27.104  1.00  0.00     0.060 A 
ATOM     32  C   UNL A   1      41.903  25.199  26.488  1.00  0.00     0.016 A 
ATOM     33  C   UNL A   1      43.352  24.802  28.426  1.00  0.00     0.016 A 
ATOM     34  C   UNL A   1      41.445  26.344  27.084  1.00  0.00     0.010 A 
ATOM     35  C   UNL A   1      42.889  25.950  29.021  1.00  0.00     0.010 A 
ATOM     36  C   UNL A   1      42.031  26.760  28.289  1.00  0.00    -0.014 A 
BRANCH  36  37
ATOM     37  C   UNL A   1      41.604  28.035  28.813  1.00  0.00     0.031 A 
ATOM     38  C   UNL A   1      42.469  29.122  28.327  1.00  0.00     0.074 A 
ATOM     39  C   UNL A   1      40.572  28.203  29.655  1.00  0.00     0.049 A 
ATOM     40  N   UNL A   1      43.495  29.612  28.939  1.00  0.00    -0.248 NA
ATOM     41  C   UNL A   1      42.356  29.508  26.915  1.00  0.00     0.031 C 
ATOM     42  C   UNL A   1      39.492  27.280  30.008  1.00  0.00     0.029 A 
ATOM     43  N   UNL A   1      40.258  29.320  30.359  1.00  0.00    -0.354 N 
ATOM     44  C   UNL A   1      44.024  30.548  28.067  1.00  0.00     0.074 A 
ATOM     45  C   UNL A   1      43.437  30.277  26.777  1.00  0.00     0.031 C 
ATOM     46  C   UNL A   1      38.528  27.960  30.680  1.00  0.00     0.029 A 
ATOM     47  C   UNL A   1      39.002  29.308  30.945  1.00  0.00     0.049 A 
ATOM     48  H   UNL A   1      40.876  30.081  30.447  1.00  0.00     0.167 HD
ATOM     49  C   UNL A   1      44.693  31.638  28.529  1.00  0.00     0.034 A 
ATOM     50  C   UNL A   1      38.399  30.364  31.551  1.00  0.00     0.034 A 
ATOM     51  C   UNL A   1      45.023  31.497  29.923  1.00  0.00     0.049 A 
ATOM     52  C   UNL A   1      39.470  31.324  31.925  1.00  0.00     0.074 A 
ATOM     53  C   UNL A   1      45.848  30.666  30.652  1.00  0.00     0.029 A 
ATOM     54  N   UNL A   1      44.129  32.037  30.815  1.00  0.00    -0.354 N 
ATOM     55  N   UNL A   1      40.366  31.085  32.841  1.00  0.00    -0.248 NA
ATOM     56  C   UNL A   1      39.822  32.354  30.957  1.00  0.00     0.031 C 
ATOM     57  C   UNL A   1      45.152  30.423  31.870  1.00  0.00     0.029 A 
ATOM     58  C   UNL A   1      43.966  31.162  31.857  1.00  0.00     0.049 A 
ATOM     59  H   UNL A   1      43.680  32.908  30.722  1.00  0.00     0.167 HD
ATOM     60  C   UNL A   1      41.546  31.589  32.312  1.00  0.00     0.074 A 
ATOM     61  C   UNL A   1      41.132  32.440  31.197  1.00  0.00     0.031 C 
ATOM     62  C   UNL A   1      42.751  31.042  32.641  1.00  0.00     0.034 A 
BRANCH  49  63
ATOM     63  C   UNL A   1      44.672  32.966  27.826  1.00  0.00     0.023 A 
ATOM     64  C   UNL A   1      43.821  34.016  28.223  1.00  0.00     0.031 A 
ATOM     65  C   UNL A   1      45.665  33.295  26.888  1.00  0.00     0.131 A 
ATOM     66  C   UNL A   1      43.924  35.296  27.674  1.00  0.00     0.055 A 
ATOM     67  C   UNL A   1      45.818  34.595  26.391  1.00  0.00     0.041 A 
ATOM     68  F   UNL A   1      46.548  32.375  26.468  1.00  0.00    -0.206 F 
ATOM     69  C   UNL A   1      44.942  35.603  26.780  1.00  0.00     0.022 A 
BRANCH  66  70
ATOM     70  S   UNL A   1      42.745  36.588  28.152  1.00  0.00     0.124 S 
ATOM     71  O   UNL A   1      41.515  36.125  27.518  1.00  0.00    -0.237 OA
ATOM     72  O   UNL A   1      42.783  36.495  29.609  1.00  0.00    -0.237 OA
ATOM     73  O   UNL A   1      43.327  37.806  27.595  1.00  0.00    -0.744 OA
ENDBRANCH  66  70
ENDBRANCH  49  63
BRANCH  50  74
ATOM     74  C   UNL A   1      37.019  30.847  31.283  1.00  0.00     0.023 A 
ATOM     75  C   UNL A   1      36.532  30.885  29.964  1.00  0.00     0.031 A 
ATOM     76  C   UNL A   1      36.320  31.593  32.251  1.00  0.00     0.131 A 
ATOM     77  C   UNL A   1      35.439  31.699  29.633  1.00  0.00     0.055 A 
ATOM     78  C   UNL A   1      35.220  32.395  31.922  1.00  0.00     0.041 A 
ATOM     79  F   UNL A   1      36.748  31.627  33.523  1.00  0.00    -0.206 F 
ATOM     80  C   UNL A   1      34.784  32.464  30.601  1.00  0.00     0.022 A 
BRANCH  77  81
ATOM     81  S   UNL A   1      34.898  31.836  27.908  1.00  0.00     0.124 S 
ATOM     82  O   UNL A   1      35.102  33.255  27.627  1.00  0.00    -0.237 OA
ATOM     83  O   UNL A   1      35.817  30.924  27.234  1.00  0.00    -0.237 OA
ATOM     84  O   UNL A   1      33.501  31.413  27.954  1.00  0.00    -0.744 OA
ENDBRANCH  77  81
ENDBRANCH  50  74
BRANCH  62  85
ATOM     85  C   UNL A   1      42.808  30.078  33.800  1.00  0.00     0.023 A 
ATOM     86  C   UNL A   1      43.182  30.617  35.040  1.00  0.00     0.031 A 
ATOM     87  C   UNL A   1      42.733  28.676  33.691  1.00  0.00     0.131 A 
ATOM     88  C   UNL A   1      43.528  29.779  36.102  1.00  0.00     0.055 A 
ATOM     89  C   UNL A   1      43.017  27.839  34.777  1.00  0.00     0.041 A 
ATOM     90  F   UNL A   1      42.467  28.079  32.521  1.00  0.00    -0.206 F 
ATOM     91  C   UNL A   1      43.437  28.389  35.985  1.00  0.00     0.022 A 
BRANCH  88  92
ATOM     92  S   UNL A   1      44.231  30.483  37.613  1.00  0.00     0.124 S 
ATOM     93  O   UNL A   1      43.085  31.179  38.194  1.00  0.00    -0.237 OA
ATOM     94  O   UNL A   1      44.670  29.289  38.332  1.00  0.00    -0.237 OA
ATOM     95  O   UNL A   1      45.307  31.347  37.134  1.00  0.00    -0.744 OA
ENDBRANCH  88  92
ENDBRANCH  62  85
ENDBRANCH  36  37
ENDBRANCH  29  31
ENDBRANCH  28  29
ENDBRANCH  27  28
ENDBRANCH  26  27
ENDBRANCH   1  26
TORSDOF 20
ENDMDL
