MODEL 1
REMARK VINA RESULT:     -11.4      0.000      0.000
REMARK SMILES Nc1nccc(N2CCC[C@@](Cc3ccc(F)cc3F)(C(=O)OCCOCCOC(=O)c3ccc(-c4c5nc(c(-c6cc(S(=O)(=O)[O-])ccc6F)c6ccc([nH]6)c(-c6cc(S(=O)(=O)[O-])ccc6F)c6nc(c(-c7cc(S(=O)(=O)[O-])ccc7F)c7ccc4[nH]7)C=C6)C=C5)cc3)C2)n1
REMARK SMILES IDX 27 1 26 2 25 3 24 4 23 5 21 6 22 7 11 8 7 9 8 10 95 11 9 12
REMARK SMILES IDX 10 13 6 14 2 15 3 16 96 17 4 18 5 19 1 20 12 23 13 24 14 25
REMARK SMILES IDX 19 26 15 27 18 28 20 29 16 30 17 31 28 32 29 33 30 34 31 35
REMARK SMILES IDX 32 36 33 37 94 38 34 39 93 40 35 41 36 42 37 43 87 44 38 45
REMARK SMILES IDX 92 46 86 47 88 48 39 49 91 50 85 51 84 52 40 54 72 55 52 56
REMARK SMILES IDX 71 57 53 58 56 59 70 60 89 61 54 62 55 63 69 65 90 66 57 67
REMARK SMILES IDX 41 68 42 69 50 70 43 71 49 72 51 73 48 74 44 75 45 76 46 77
REMARK SMILES IDX 47 78 73 79 74 80 82 81 75 82 81 83 83 84 80 85 76 86 77 87
REMARK SMILES IDX 78 88 79 89 58 90 59 91 67 92 60 93 66 94 68 95 65 96 61 97
REMARK SMILES IDX 62 98 63 99 64 100
REMARK H PARENT 1 21 1 22 88 53 56 64
REMARK Flexibility Score: inf
ROOT
ATOM      1  C   UNL A   1      37.636  19.777  24.936  1.00  0.00     0.202 C 
ENDROOT
BRANCH   1   2
ATOM      2  O   UNL A   1      37.569  21.135  24.506  1.00  0.00    -0.374 OA
BRANCH   2   3
ATOM      3  C   UNL A   1      36.870  22.061  25.330  1.00  0.00     0.202 C 
BRANCH   3   4
ATOM      4  C   UNL A   1      36.796  23.520  24.866  1.00  0.00     0.261 C 
BRANCH   4   5
ATOM      5  O   UNL A   1      35.463  24.048  24.781  1.00  0.00    -0.463 OA
BRANCH   5   6
ATOM      6  C   UNL A   1      34.876  23.932  23.559  1.00  0.00     0.314 C 
ATOM      7  O   UNL A   1      35.369  23.317  22.616  1.00  0.00    -0.252 OA
BRANCH   6   8
ATOM      8  C   UNL A   1      33.564  24.703  23.432  1.00  0.00     0.090 C 
ATOM      9  N   UNL A   1      32.651  26.868  24.128  1.00  0.00    -0.355 N 
ATOM     10  C   UNL A   1      32.265  27.331  22.805  1.00  0.00     0.118 C 
ATOM     11  C   UNL A   1      33.839  26.021  24.195  1.00  0.00     0.137 C 
ATOM     12  C   UNL A   1      32.010  26.107  21.919  1.00  0.00     0.023 C 
ATOM     13  C   UNL A   1      33.153  25.079  21.983  1.00  0.00     0.023 C 
BRANCH   9  14
ATOM     14  C   UNL A   1      32.506  27.747  25.193  1.00  0.00     0.134 A 
ATOM     15  C   UNL A   1      33.309  29.444  26.500  1.00  0.00     0.221 A 
ATOM     16  N   UNL A   1      32.401  29.251  27.461  1.00  0.00    -0.222 NA
ATOM     17  N   UNL A   1      33.406  28.727  25.377  1.00  0.00    -0.196 NA
ATOM     18  C   UNL A   1      31.517  28.264  27.245  1.00  0.00     0.119 A 
ATOM     19  C   UNL A   1      31.513  27.489  26.114  1.00  0.00     0.067 A 
BRANCH  15  20
ATOM     20  N   UNL A   1      34.235  30.429  26.702  1.00  0.00    -0.368 N 
ATOM     21  H   UNL A   1      34.913  30.330  27.409  1.00  0.00     0.159 HD
ATOM     22  H   UNL A   1      34.225  31.237  26.140  1.00  0.00     0.159 HD
ENDBRANCH  15  20
ENDBRANCH   9  14
BRANCH   8  23
ATOM     23  C   UNL A   1      32.473  23.887  24.188  1.00  0.00     0.059 C 
BRANCH  23  24
ATOM     24  C   UNL A   1      32.537  22.387  24.001  1.00  0.00    -0.011 A 
ATOM     25  C   UNL A   1      32.137  21.793  22.795  1.00  0.00     0.010 A 
ATOM     26  C   UNL A   1      32.979  21.556  25.039  1.00  0.00     0.129 A 
ATOM     27  C   UNL A   1      32.127  20.403  22.664  1.00  0.00     0.040 A 
ATOM     28  C   UNL A   1      32.982  20.174  24.914  1.00  0.00     0.078 A 
ATOM     29  F   UNL A   1      33.411  22.093  26.190  1.00  0.00    -0.207 F 
ATOM     30  C   UNL A   1      32.542  19.609  23.727  1.00  0.00     0.126 A 
ATOM     31  F   UNL A   1      32.525  18.277  23.599  1.00  0.00    -0.207 F 
ENDBRANCH  23  24
ENDBRANCH   8  23
ENDBRANCH   6   8
ENDBRANCH   5   6
ENDBRANCH   4   5
ENDBRANCH   3   4
ENDBRANCH   2   3
ENDBRANCH   1   2
BRANCH   1  32
ATOM     32  C   UNL A   1      38.998  19.217  25.373  1.00  0.00     0.261 C 
BRANCH  32  33
ATOM     33  O   UNL A   1      39.465  19.766  26.622  1.00  0.00    -0.460 OA
BRANCH  33  34
ATOM     34  C   UNL A   1      40.747  20.214  26.591  1.00  0.00     0.338 C 
ATOM     35  O   UNL A   1      41.708  19.641  26.098  1.00  0.00    -0.246 OA
BRANCH  34  36
ATOM     36  C   UNL A   1      40.841  21.596  27.093  1.00  0.00     0.060 A 
ATOM     37  C   UNL A   1      40.311  22.619  26.297  1.00  0.00     0.016 A 
ATOM     38  C   UNL A   1      41.579  21.899  28.240  1.00  0.00     0.016 A 
ATOM     39  C   UNL A   1      40.556  23.953  26.620  1.00  0.00     0.010 A 
ATOM     40  C   UNL A   1      41.830  23.240  28.556  1.00  0.00     0.010 A 
ATOM     41  C   UNL A   1      41.352  24.272  27.727  1.00  0.00    -0.014 A 
BRANCH  41  42
ATOM     42  C   UNL A   1      41.804  25.674  27.924  1.00  0.00     0.031 A 
ATOM     43  C   UNL A   1      43.162  26.087  27.424  1.00  0.00     0.074 A 
ATOM     44  C   UNL A   1      40.999  26.578  28.511  1.00  0.00     0.049 A 
ATOM     45  N   UNL A   1      43.766  27.245  27.513  1.00  0.00    -0.248 NA
ATOM     46  C   UNL A   1      43.944  25.050  26.736  1.00  0.00     0.031 C 
ATOM     47  C   UNL A   1      39.651  26.306  29.008  1.00  0.00     0.029 A 
ATOM     48  N   UNL A   1      41.206  27.904  28.799  1.00  0.00    -0.354 N 
ATOM     49  C   UNL A   1      44.997  27.080  26.886  1.00  0.00     0.074 A 
ATOM     50  C   UNL A   1      45.068  25.696  26.465  1.00  0.00     0.031 C 
ATOM     51  C   UNL A   1      39.157  27.429  29.559  1.00  0.00     0.029 A 
ATOM     52  C   UNL A   1      40.164  28.486  29.482  1.00  0.00     0.049 A 
ATOM     53  H   UNL A   1      42.021  28.391  28.540  1.00  0.00     0.167 HD
ATOM     54  C   UNL A   1      45.972  28.000  26.671  1.00  0.00     0.034 A 
ATOM     55  C   UNL A   1      40.051  29.720  30.015  1.00  0.00     0.034 A 
ATOM     56  C   UNL A   1      45.899  29.369  27.121  1.00  0.00     0.049 A 
ATOM     57  C   UNL A   1      41.181  30.703  29.845  1.00  0.00     0.074 A 
ATOM     58  C   UNL A   1      46.825  30.385  26.953  1.00  0.00     0.029 A 
ATOM     59  N   UNL A   1      44.846  29.913  27.847  1.00  0.00    -0.354 N 
ATOM     60  N   UNL A   1      42.336  30.539  29.241  1.00  0.00    -0.248 NA
ATOM     61  C   UNL A   1      40.989  32.040  30.422  1.00  0.00     0.031 C 
ATOM     62  C   UNL A   1      46.364  31.519  27.633  1.00  0.00     0.029 A 
ATOM     63  C   UNL A   1      45.116  31.237  28.163  1.00  0.00     0.049 A 
ATOM     64  H   UNL A   1      44.028  29.429  28.099  1.00  0.00     0.167 HD
ATOM     65  C   UNL A   1      43.000  31.760  29.352  1.00  0.00     0.074 A 
ATOM     66  C   UNL A   1      42.109  32.652  30.065  1.00  0.00     0.031 C 
ATOM     67  C   UNL A   1      44.231  32.111  28.899  1.00  0.00     0.034 A 
BRANCH  54  68
ATOM     68  C   UNL A   1      47.218  27.524  25.961  1.00  0.00     0.023 A 
ATOM     69  C   UNL A   1      48.282  26.924  26.659  1.00  0.00     0.031 A 
ATOM     70  C   UNL A   1      47.368  27.719  24.577  1.00  0.00     0.131 A 
ATOM     71  C   UNL A   1      49.477  26.618  25.990  1.00  0.00     0.055 A 
ATOM     72  C   UNL A   1      48.529  27.338  23.901  1.00  0.00     0.041 A 
ATOM     73  F   UNL A   1      46.397  28.306  23.859  1.00  0.00    -0.206 F 
ATOM     74  C   UNL A   1      49.599  26.800  24.610  1.00  0.00     0.022 A 
BRANCH  71  75
ATOM     75  S   UNL A   1      50.921  26.132  26.972  1.00  0.00     0.124 S 
ATOM     76  O   UNL A   1      50.927  27.156  28.016  1.00  0.00    -0.237 OA
ATOM     77  O   UNL A   1      50.571  24.784  27.402  1.00  0.00    -0.237 OA
ATOM     78  O   UNL A   1      52.027  26.218  26.022  1.00  0.00    -0.744 OA
ENDBRANCH  71  75
ENDBRANCH  54  68
BRANCH  55  79
ATOM     79  C   UNL A   1      38.843  30.077  30.810  1.00  0.00     0.023 A 
ATOM     80  C   UNL A   1      37.808  30.853  30.266  1.00  0.00     0.031 A 
ATOM     81  C   UNL A   1      38.725  29.661  32.149  1.00  0.00     0.131 A 
ATOM     82  C   UNL A   1      36.714  31.216  31.069  1.00  0.00     0.055 A 
ATOM     83  C   UNL A   1      37.615  29.986  32.929  1.00  0.00     0.041 A 
ATOM     84  F   UNL A   1      39.690  28.918  32.715  1.00  0.00    -0.206 F 
ATOM     85  C   UNL A   1      36.606  30.777  32.391  1.00  0.00     0.022 A 
BRANCH  82  86
ATOM     86  S   UNL A   1      35.455  32.322  30.375  1.00  0.00     0.124 S 
ATOM     87  O   UNL A   1      34.499  32.410  31.473  1.00  0.00    -0.237 OA
ATOM     88  O   UNL A   1      36.229  33.527  30.100  1.00  0.00    -0.237 OA
ATOM     89  O   UNL A   1      34.985  31.603  29.193  1.00  0.00    -0.744 OA
ENDBRANCH  82  86
ENDBRANCH  55  79
BRANCH  67  90
ATOM     90  C   UNL A   1      44.669  33.535  29.141  1.00  0.00     0.023 A 
ATOM     91  C   UNL A   1      44.236  34.592  28.321  1.00  0.00     0.031 A 
ATOM     92  C   UNL A   1      45.539  33.837  30.204  1.00  0.00     0.131 A 
ATOM     93  C   UNL A   1      44.714  35.893  28.546  1.00  0.00     0.055 A 
ATOM     94  C   UNL A   1      45.968  35.141  30.455  1.00  0.00     0.041 A 
ATOM     95  F   UNL A   1      45.986  32.867  31.018  1.00  0.00    -0.206 F 
ATOM     96  C   UNL A   1      45.566  36.176  29.616  1.00  0.00     0.022 A 
BRANCH  93  97
ATOM     97  S   UNL A   1      44.272  37.201  27.369  1.00  0.00     0.124 S 
ATOM     98  O   UNL A   1      43.295  36.527  26.519  1.00  0.00    -0.237 OA
ATOM     99  O   UNL A   1      43.746  38.244  28.242  1.00  0.00    -0.237 OA
ATOM    100  O   UNL A   1      45.542  37.521  26.719  1.00  0.00    -0.744 OA
ENDBRANCH  93  97
ENDBRANCH  67  90
ENDBRANCH  41  42
ENDBRANCH  34  36
ENDBRANCH  33  34
ENDBRANCH  32  33
ENDBRANCH   1  32
TORSDOF 21
ENDMDL
MODEL 2
REMARK VINA RESULT:     -11.2      5.732      9.420
REMARK SMILES Nc1nccc(N2CCC[C@@](Cc3ccc(F)cc3F)(C(=O)OCCOCCOC(=O)c3ccc(-c4c5nc(c(-c6cc(S(=O)(=O)[O-])ccc6F)c6ccc([nH]6)c(-c6cc(S(=O)(=O)[O-])ccc6F)c6nc(c(-c7cc(S(=O)(=O)[O-])ccc7F)c7ccc4[nH]7)C=C6)C=C5)cc3)C2)n1
REMARK SMILES IDX 27 1 26 2 25 3 24 4 23 5 21 6 22 7 11 8 7 9 8 10 95 11 9 12
REMARK SMILES IDX 10 13 6 14 2 15 3 16 96 17 4 18 5 19 1 20 12 23 13 24 14 25
REMARK SMILES IDX 19 26 15 27 18 28 20 29 16 30 17 31 28 32 29 33 30 34 31 35
REMARK SMILES IDX 32 36 33 37 94 38 34 39 93 40 35 41 36 42 37 43 87 44 38 45
REMARK SMILES IDX 92 46 86 47 88 48 39 49 91 50 85 51 84 52 40 54 72 55 52 56
REMARK SMILES IDX 71 57 53 58 56 59 70 60 89 61 54 62 55 63 69 65 90 66 57 67
REMARK SMILES IDX 41 68 42 69 50 70 43 71 49 72 51 73 48 74 44 75 45 76 46 77
REMARK SMILES IDX 47 78 73 79 74 80 82 81 75 82 81 83 83 84 80 85 76 86 77 87
REMARK SMILES IDX 78 88 79 89 58 90 59 91 67 92 60 93 66 94 68 95 65 96 61 97
REMARK SMILES IDX 62 98 63 99 64 100
REMARK H PARENT 1 21 1 22 88 53 56 64
REMARK Flexibility Score: inf
ROOT
ATOM      1  C   UNL A   1      33.524  30.876  27.431  1.00  0.00     0.202 C 
ENDROOT
BRANCH   1   2
ATOM      2  O   UNL A   1      32.191  30.909  26.923  1.00  0.00    -0.374 OA
BRANCH   2   3
ATOM      3  C   UNL A   1      31.889  30.097  25.795  1.00  0.00     0.202 C 
BRANCH   3   4
ATOM      4  C   UNL A   1      33.058  29.452  25.042  1.00  0.00     0.261 C 
BRANCH   4   5
ATOM      5  O   UNL A   1      33.241  28.054  25.318  1.00  0.00    -0.463 OA
BRANCH   5   6
ATOM      6  C   UNL A   1      33.064  27.230  24.249  1.00  0.00     0.314 C 
ATOM      7  O   UNL A   1      33.737  27.282  23.223  1.00  0.00    -0.252 OA
BRANCH   6   8
ATOM      8  C   UNL A   1      31.891  26.265  24.406  1.00  0.00     0.090 C 
ATOM      9  N   UNL A   1      31.540  23.856  24.678  1.00  0.00    -0.355 N 
ATOM     10  C   UNL A   1      30.768  23.926  25.908  1.00  0.00     0.118 C 
ATOM     11  C   UNL A   1      32.568  24.877  24.501  1.00  0.00     0.137 C 
ATOM     12  C   UNL A   1      30.077  25.292  25.967  1.00  0.00     0.023 C 
ATOM     13  C   UNL A   1      31.040  26.458  25.691  1.00  0.00     0.023 C 
BRANCH   9  14
ATOM     14  C   UNL A   1      31.884  22.598  24.197  1.00  0.00     0.134 A 
ATOM     15  C   UNL A   1      31.919  21.050  22.513  1.00  0.00     0.221 A 
ATOM     16  N   UNL A   1      32.243  20.043  23.329  1.00  0.00    -0.222 NA
ATOM     17  N   UNL A   1      31.723  22.316  22.894  1.00  0.00    -0.196 NA
ATOM     18  C   UNL A   1      32.396  20.360  24.624  1.00  0.00     0.119 A 
ATOM     19  C   UNL A   1      32.244  21.632  25.112  1.00  0.00     0.067 A 
BRANCH  15  20
ATOM     20  N   UNL A   1      31.737  20.753  21.192  1.00  0.00    -0.368 N 
ATOM     21  H   UNL A   1      32.092  21.356  20.499  1.00  0.00     0.159 HD
ATOM     22  H   UNL A   1      31.252  19.937  20.932  1.00  0.00     0.159 HD
ENDBRANCH  15  20
ENDBRANCH   9  14
BRANCH   8  23
ATOM     23  C   UNL A   1      31.050  26.341  23.096  1.00  0.00     0.059 C 
BRANCH  23  24
ATOM     24  C   UNL A   1      30.025  27.452  23.046  1.00  0.00    -0.011 A 
ATOM     25  C   UNL A   1      28.709  27.241  23.482  1.00  0.00     0.010 A 
ATOM     26  C   UNL A   1      30.365  28.715  22.542  1.00  0.00     0.129 A 
ATOM     27  C   UNL A   1      27.754  28.251  23.356  1.00  0.00     0.040 A 
ATOM     28  C   UNL A   1      29.425  29.729  22.422  1.00  0.00     0.078 A 
ATOM     29  F   UNL A   1      31.626  28.966  22.157  1.00  0.00    -0.207 F 
ATOM     30  C   UNL A   1      28.121  29.481  22.821  1.00  0.00     0.126 A 
ATOM     31  F   UNL A   1      27.200  30.444  22.697  1.00  0.00    -0.207 F 
ENDBRANCH  23  24
ENDBRANCH   8  23
ENDBRANCH   6   8
ENDBRANCH   5   6
ENDBRANCH   4   5
ENDBRANCH   3   4
ENDBRANCH   2   3
ENDBRANCH   1   2
BRANCH   1  32
ATOM     32  C   UNL A   1      34.150  32.189  27.922  1.00  0.00     0.261 C 
BRANCH  32  33
ATOM     33  O   UNL A   1      33.340  33.348  27.638  1.00  0.00    -0.460 OA
BRANCH  33  34
ATOM     34  C   UNL A   1      33.397  34.317  28.588  1.00  0.00     0.338 C 
ATOM     35  O   UNL A   1      32.594  35.225  28.753  1.00  0.00    -0.246 OA
BRANCH  34  36
ATOM     36  C   UNL A   1      34.486  34.061  29.546  1.00  0.00     0.060 A 
ATOM     37  C   UNL A   1      35.791  34.389  29.156  1.00  0.00     0.016 A 
ATOM     38  C   UNL A   1      34.254  33.362  30.733  1.00  0.00     0.016 A 
ATOM     39  C   UNL A   1      36.875  33.979  29.931  1.00  0.00     0.010 A 
ATOM     40  C   UNL A   1      35.347  32.944  31.504  1.00  0.00     0.010 A 
ATOM     41  C   UNL A   1      36.663  33.218  31.088  1.00  0.00    -0.014 A 
BRANCH  41  42
ATOM     42  C   UNL A   1      37.822  32.586  31.771  1.00  0.00     0.031 A 
ATOM     43  C   UNL A   1      38.514  31.419  31.119  1.00  0.00     0.074 A 
ATOM     44  C   UNL A   1      38.274  33.069  32.942  1.00  0.00     0.049 A 
ATOM     45  N   UNL A   1      39.522  30.703  31.548  1.00  0.00    -0.248 NA
ATOM     46  C   UNL A   1      37.993  31.004  29.809  1.00  0.00     0.031 C 
ATOM     47  C   UNL A   1      37.707  34.213  33.655  1.00  0.00     0.029 A 
ATOM     48  N   UNL A   1      39.306  32.648  33.742  1.00  0.00    -0.354 N 
ATOM     49  C   UNL A   1      39.763  29.755  30.558  1.00  0.00     0.074 A 
ATOM     50  C   UNL A   1      38.762  29.962  29.531  1.00  0.00     0.031 C 
ATOM     51  C   UNL A   1      38.389  34.390  34.800  1.00  0.00     0.029 A 
ATOM     52  C   UNL A   1      39.416  33.356  34.915  1.00  0.00     0.049 A 
ATOM     53  H   UNL A   1      39.910  31.910  33.498  1.00  0.00     0.167 HD
ATOM     54  C   UNL A   1      40.733  28.808  30.505  1.00  0.00     0.034 A 
ATOM     55  C   UNL A   1      40.228  33.170  35.975  1.00  0.00     0.034 A 
ATOM     56  C   UNL A   1      41.707  28.595  31.550  1.00  0.00     0.049 A 
ATOM     57  C   UNL A   1      41.244  32.056  35.939  1.00  0.00     0.074 A 
ATOM     58  C   UNL A   1      42.737  27.671  31.596  1.00  0.00     0.029 A 
ATOM     59  N   UNL A   1      41.762  29.305  32.743  1.00  0.00    -0.354 N 
ATOM     60  N   UNL A   1      41.469  31.172  34.994  1.00  0.00    -0.248 NA
ATOM     61  C   UNL A   1      42.119  31.919  37.111  1.00  0.00     0.031 C 
ATOM     62  C   UNL A   1      43.368  27.776  32.842  1.00  0.00     0.029 A 
ATOM     63  C   UNL A   1      42.782  28.816  33.545  1.00  0.00     0.049 A 
ATOM     64  H   UNL A   1      41.163  30.048  32.984  1.00  0.00     0.167 HD
ATOM     65  C   UNL A   1      42.525  30.386  35.451  1.00  0.00     0.074 A 
ATOM     66  C   UNL A   1      42.900  30.911  36.748  1.00  0.00     0.031 C 
ATOM     67  C   UNL A   1      43.131  29.330  34.850  1.00  0.00     0.034 A 
BRANCH  54  68
ATOM     68  C   UNL A   1      40.744  27.904  29.295  1.00  0.00     0.023 A 
ATOM     69  C   UNL A   1      41.670  28.078  28.251  1.00  0.00     0.031 A 
ATOM     70  C   UNL A   1      39.782  26.887  29.157  1.00  0.00     0.131 A 
ATOM     71  C   UNL A   1      41.564  27.307  27.083  1.00  0.00     0.055 A 
ATOM     72  C   UNL A   1      39.733  26.069  28.027  1.00  0.00     0.041 A 
ATOM     73  F   UNL A   1      38.858  26.685  30.110  1.00  0.00    -0.206 F 
ATOM     74  C   UNL A   1      40.615  26.288  26.973  1.00  0.00     0.022 A 
BRANCH  71  75
ATOM     75  S   UNL A   1      42.576  27.764  25.648  1.00  0.00     0.124 S 
ATOM     76  O   UNL A   1      42.561  26.526  24.871  1.00  0.00    -0.237 OA
ATOM     77  O   UNL A   1      41.832  28.883  25.083  1.00  0.00    -0.237 OA
ATOM     78  O   UNL A   1      43.869  28.105  26.235  1.00  0.00    -0.744 OA
ENDBRANCH  71  75
ENDBRANCH  54  68
BRANCH  55  79
ATOM     79  C   UNL A   1      40.076  34.023  37.187  1.00  0.00     0.023 A 
ATOM     80  C   UNL A   1      39.331  33.598  38.297  1.00  0.00     0.031 A 
ATOM     81  C   UNL A   1      40.662  35.302  37.233  1.00  0.00     0.131 A 
ATOM     82  C   UNL A   1      39.165  34.458  39.395  1.00  0.00     0.055 A 
ATOM     83  C   UNL A   1      40.533  36.134  38.344  1.00  0.00     0.041 A 
ATOM     84  F   UNL A   1      41.384  35.754  36.195  1.00  0.00    -0.206 F 
ATOM     85  C   UNL A   1      39.771  35.717  39.430  1.00  0.00     0.022 A 
BRANCH  82  86
ATOM     86  S   UNL A   1      38.094  33.929  40.760  1.00  0.00     0.124 S 
ATOM     87  O   UNL A   1      39.040  33.239  41.630  1.00  0.00    -0.237 OA
ATOM     88  O   UNL A   1      37.581  35.203  41.253  1.00  0.00    -0.237 OA
ATOM     89  O   UNL A   1      37.106  33.074  40.106  1.00  0.00    -0.744 OA
ENDBRANCH  82  86
ENDBRANCH  55  79
BRANCH  67  90
ATOM     90  C   UNL A   1      44.287  28.696  35.585  1.00  0.00     0.023 A 
ATOM     91  C   UNL A   1      44.097  27.637  36.489  1.00  0.00     0.031 A 
ATOM     92  C   UNL A   1      45.598  29.164  35.382  1.00  0.00     0.131 A 
ATOM     93  C   UNL A   1      45.192  27.114  37.196  1.00  0.00     0.055 A 
ATOM     94  C   UNL A   1      46.690  28.605  36.047  1.00  0.00     0.041 A 
ATOM     95  F   UNL A   1      45.838  30.175  34.531  1.00  0.00    -0.206 F 
ATOM     96  C   UNL A   1      46.489  27.582  36.969  1.00  0.00     0.022 A 
BRANCH  93  97
ATOM     97  S   UNL A   1      44.890  25.867  38.478  1.00  0.00     0.124 S 
ATOM     98  O   UNL A   1      43.848  26.502  39.280  1.00  0.00    -0.237 OA
ATOM     99  O   UNL A   1      44.476  24.708  37.696  1.00  0.00    -0.237 OA
ATOM    100  O   UNL A   1      46.187  25.735  39.141  1.00  0.00    -0.744 OA
ENDBRANCH  93  97
ENDBRANCH  67  90
ENDBRANCH  41  42
ENDBRANCH  34  36
ENDBRANCH  33  34
ENDBRANCH  32  33
ENDBRANCH   1  32
TORSDOF 21
ENDMDL
MODEL 3
REMARK VINA RESULT:     -11.2      2.300      7.895
REMARK SMILES Nc1nccc(N2CCC[C@@](Cc3ccc(F)cc3F)(C(=O)OCCOCCOC(=O)c3ccc(-c4c5nc(c(-c6cc(S(=O)(=O)[O-])ccc6F)c6ccc([nH]6)c(-c6cc(S(=O)(=O)[O-])ccc6F)c6nc(c(-c7cc(S(=O)(=O)[O-])ccc7F)c7ccc4[nH]7)C=C6)C=C5)cc3)C2)n1
REMARK SMILES IDX 27 1 26 2 25 3 24 4 23 5 21 6 22 7 11 8 7 9 8 10 95 11 9 12
REMARK SMILES IDX 10 13 6 14 2 15 3 16 96 17 4 18 5 19 1 20 12 23 13 24 14 25
REMARK SMILES IDX 19 26 15 27 18 28 20 29 16 30 17 31 28 32 29 33 30 34 31 35
REMARK SMILES IDX 32 36 33 37 94 38 34 39 93 40 35 41 36 42 37 43 87 44 38 45
REMARK SMILES IDX 92 46 86 47 88 48 39 49 91 50 85 51 84 52 40 54 72 55 52 56
REMARK SMILES IDX 71 57 53 58 56 59 70 60 89 61 54 62 55 63 69 65 90 66 57 67
REMARK SMILES IDX 41 68 42 69 50 70 43 71 49 72 51 73 48 74 44 75 45 76 46 77
REMARK SMILES IDX 47 78 73 79 74 80 82 81 75 82 81 83 83 84 80 85 76 86 77 87
REMARK SMILES IDX 78 88 79 89 58 90 59 91 67 92 60 93 66 94 68 95 65 96 61 97
REMARK SMILES IDX 62 98 63 99 64 100
REMARK H PARENT 1 21 1 22 88 53 56 64
REMARK Flexibility Score: inf
ROOT
ATOM      1  C   UNL A   1      35.584  21.474  25.983  1.00  0.00     0.202 C 
ENDROOT
BRANCH   1   2
ATOM      2  O   UNL A   1      34.199  21.162  25.846  1.00  0.00    -0.374 OA
BRANCH   2   3
ATOM      3  C   UNL A   1      33.293  22.237  25.627  1.00  0.00     0.202 C 
BRANCH   3   4
ATOM      4  C   UNL A   1      32.984  23.165  26.808  1.00  0.00     0.261 C 
BRANCH   4   5
ATOM      5  O   UNL A   1      33.267  24.552  26.560  1.00  0.00    -0.463 OA
BRANCH   5   6
ATOM      6  C   UNL A   1      32.179  25.370  26.571  1.00  0.00     0.314 C 
ATOM      7  O   UNL A   1      31.030  24.981  26.762  1.00  0.00    -0.252 OA
BRANCH   6   8
ATOM      8  C   UNL A   1      32.505  26.827  26.249  1.00  0.00     0.090 C 
ATOM      9  N   UNL A   1      31.384  28.766  25.255  1.00  0.00    -0.355 N 
ATOM     10  C   UNL A   1      31.579  29.676  26.372  1.00  0.00     0.118 C 
ATOM     11  C   UNL A   1      31.207  27.357  25.593  1.00  0.00     0.137 C 
ATOM     12  C   UNL A   1      32.821  29.229  27.149  1.00  0.00     0.023 C 
ATOM     13  C   UNL A   1      32.807  27.726  27.478  1.00  0.00     0.023 C 
BRANCH   9  14
ATOM     14  C   UNL A   1      30.615  29.205  24.184  1.00  0.00     0.134 A 
ATOM     15  C   UNL A   1      29.430  30.850  23.124  1.00  0.00     0.221 A 
ATOM     16  N   UNL A   1      28.841  29.999  22.277  1.00  0.00    -0.222 NA
ATOM     17  N   UNL A   1      30.297  30.505  24.080  1.00  0.00    -0.196 NA
ATOM     18  C   UNL A   1      29.182  28.707  22.409  1.00  0.00     0.119 A 
ATOM     19  C   UNL A   1      30.082  28.256  23.339  1.00  0.00     0.067 A 
BRANCH  15  20
ATOM     20  N   UNL A   1      29.087  32.169  23.027  1.00  0.00    -0.368 N 
ATOM     21  H   UNL A   1      28.139  32.433  23.045  1.00  0.00     0.159 HD
ATOM     22  H   UNL A   1      29.787  32.855  22.939  1.00  0.00     0.159 HD
ENDBRANCH  15  20
ENDBRANCH   9  14
BRANCH   8  23
ATOM     23  C   UNL A   1      33.652  26.824  25.195  1.00  0.00     0.059 C 
BRANCH  23  24
ATOM     24  C   UNL A   1      33.235  26.475  23.783  1.00  0.00    -0.011 A 
ATOM     25  C   UNL A   1      32.594  25.259  23.499  1.00  0.00     0.010 A 
ATOM     26  C   UNL A   1      33.498  27.352  22.722  1.00  0.00     0.129 A 
ATOM     27  C   UNL A   1      32.286  24.916  22.182  1.00  0.00     0.040 A 
ATOM     28  C   UNL A   1      33.186  27.023  21.410  1.00  0.00     0.078 A 
ATOM     29  F   UNL A   1      34.070  28.542  22.963  1.00  0.00    -0.207 F 
ATOM     30  C   UNL A   1      32.592  25.798  21.152  1.00  0.00     0.126 A 
ATOM     31  F   UNL A   1      32.300  25.462  19.890  1.00  0.00    -0.207 F 
ENDBRANCH  23  24
ENDBRANCH   8  23
ENDBRANCH   6   8
ENDBRANCH   5   6
ENDBRANCH   4   5
ENDBRANCH   3   4
ENDBRANCH   2   3
ENDBRANCH   1   2
BRANCH   1  32
ATOM     32  C   UNL A   1      36.593  20.709  25.113  1.00  0.00     0.261 C 
BRANCH  32  33
ATOM     33  O   UNL A   1      37.819  21.434  24.893  1.00  0.00    -0.460 OA
BRANCH  33  34
ATOM     34  C   UNL A   1      38.821  21.113  25.752  1.00  0.00     0.338 C 
ATOM     35  O   UNL A   1      39.364  20.022  25.864  1.00  0.00    -0.246 OA
BRANCH  34  36
ATOM     36  C   UNL A   1      39.322  22.305  26.456  1.00  0.00     0.060 A 
ATOM     37  C   UNL A   1      38.766  23.546  26.119  1.00  0.00     0.016 A 
ATOM     38  C   UNL A   1      40.426  22.229  27.309  1.00  0.00     0.016 A 
ATOM     39  C   UNL A   1      39.343  24.722  26.598  1.00  0.00     0.010 A 
ATOM     40  C   UNL A   1      41.007  23.413  27.780  1.00  0.00     0.010 A 
ATOM     41  C   UNL A   1      40.492  24.665  27.398  1.00  0.00    -0.014 A 
BRANCH  41  42
ATOM     42  C   UNL A   1      41.233  25.917  27.703  1.00  0.00     0.031 A 
ATOM     43  C   UNL A   1      40.536  27.022  28.451  1.00  0.00     0.074 A 
ATOM     44  C   UNL A   1      42.523  26.054  27.348  1.00  0.00     0.049 A 
ATOM     45  N   UNL A   1      40.980  28.203  28.797  1.00  0.00    -0.248 NA
ATOM     46  C   UNL A   1      39.148  26.756  28.857  1.00  0.00     0.031 C 
ATOM     47  C   UNL A   1      43.315  25.042  26.649  1.00  0.00     0.029 A 
ATOM     48  N   UNL A   1      43.388  27.105  27.518  1.00  0.00    -0.354 N 
ATOM     49  C   UNL A   1      39.931  28.822  29.469  1.00  0.00     0.074 A 
ATOM     50  C   UNL A   1      38.814  27.899  29.437  1.00  0.00     0.031 C 
ATOM     51  C   UNL A   1      44.548  25.532  26.431  1.00  0.00     0.029 A 
ATOM     52  C   UNL A   1      44.621  26.899  26.945  1.00  0.00     0.049 A 
ATOM     53  H   UNL A   1      43.150  27.927  28.003  1.00  0.00     0.167 HD
ATOM     54  C   UNL A   1      39.904  30.040  30.066  1.00  0.00     0.034 A 
ATOM     55  C   UNL A   1      45.676  27.729  26.820  1.00  0.00     0.034 A 
ATOM     56  C   UNL A   1      41.015  30.961  30.066  1.00  0.00     0.049 A 
ATOM     57  C   UNL A   1      45.599  29.114  27.412  1.00  0.00     0.074 A 
ATOM     58  C   UNL A   1      41.099  32.216  30.645  1.00  0.00     0.029 A 
ATOM     59  N   UNL A   1      42.235  30.734  29.440  1.00  0.00    -0.354 N 
ATOM     60  N   UNL A   1      44.605  29.685  28.053  1.00  0.00    -0.248 NA
ATOM     61  C   UNL A   1      46.788  29.964  27.269  1.00  0.00     0.031 C 
ATOM     62  C   UNL A   1      42.340  32.774  30.312  1.00  0.00     0.029 A 
ATOM     63  C   UNL A   1      43.062  31.839  29.589  1.00  0.00     0.049 A 
ATOM     64  H   UNL A   1      42.478  29.910  28.962  1.00  0.00     0.167 HD
ATOM     65  C   UNL A   1      45.058  30.954  28.406  1.00  0.00     0.074 A 
ATOM     66  C   UNL A   1      46.419  31.058  27.918  1.00  0.00     0.031 C 
ATOM     67  C   UNL A   1      44.409  31.942  29.075  1.00  0.00     0.034 A 
BRANCH  54  68
ATOM     68  C   UNL A   1      38.606  30.455  30.719  1.00  0.00     0.023 A 
ATOM     69  C   UNL A   1      37.579  31.082  29.990  1.00  0.00     0.031 A 
ATOM     70  C   UNL A   1      38.411  30.268  32.099  1.00  0.00     0.131 A 
ATOM     71  C   UNL A   1      36.446  31.574  30.655  1.00  0.00     0.055 A 
ATOM     72  C   UNL A   1      37.244  30.687  32.742  1.00  0.00     0.041 A 
ATOM     73  F   UNL A   1      39.362  29.694  32.853  1.00  0.00    -0.206 F 
ATOM     74  C   UNL A   1      36.261  31.361  32.023  1.00  0.00     0.022 A 
BRANCH  71  75
ATOM     75  S   UNL A   1      35.296  32.636  29.739  1.00  0.00     0.124 S 
ATOM     76  O   UNL A   1      36.196  33.662  29.214  1.00  0.00    -0.237 OA
ATOM     77  O   UNL A   1      34.733  31.717  28.757  1.00  0.00    -0.237 OA
ATOM     78  O   UNL A   1      34.367  33.102  30.765  1.00  0.00    -0.744 OA
ENDBRANCH  71  75
ENDBRANCH  54  68
BRANCH  55  79
ATOM     79  C   UNL A   1      46.877  27.295  26.053  1.00  0.00     0.023 A 
ATOM     80  C   UNL A   1      47.088  27.698  24.726  1.00  0.00     0.031 A 
ATOM     81  C   UNL A   1      47.825  26.437  26.643  1.00  0.00     0.131 A 
ATOM     82  C   UNL A   1      48.204  27.218  24.021  1.00  0.00     0.055 A 
ATOM     83  C   UNL A   1      48.955  26.000  25.954  1.00  0.00     0.041 A 
ATOM     84  F   UNL A   1      47.666  26.023  27.911  1.00  0.00    -0.206 F 
ATOM     85  C   UNL A   1      49.144  26.383  24.630  1.00  0.00     0.022 A 
BRANCH  82  86
ATOM     86  S   UNL A   1      48.382  27.657  22.270  1.00  0.00     0.124 S 
ATOM     87  O   UNL A   1      48.449  26.344  21.639  1.00  0.00    -0.237 OA
ATOM     88  O   UNL A   1      47.166  28.425  22.026  1.00  0.00    -0.237 OA
ATOM     89  O   UNL A   1      49.621  28.431  22.238  1.00  0.00    -0.744 OA
ENDBRANCH  82  86
ENDBRANCH  55  79
BRANCH  67  90
ATOM     90  C   UNL A   1      45.183  33.210  29.344  1.00  0.00     0.023 A 
ATOM     91  C   UNL A   1      45.121  34.312  28.474  1.00  0.00     0.031 A 
ATOM     92  C   UNL A   1      46.002  33.312  30.483  1.00  0.00     0.131 A 
ATOM     93  C   UNL A   1      45.903  35.451  28.731  1.00  0.00     0.055 A 
ATOM     94  C   UNL A   1      46.734  34.466  30.761  1.00  0.00     0.041 A 
ATOM     95  F   UNL A   1      46.100  32.288  31.348  1.00  0.00    -0.206 F 
ATOM     96  C   UNL A   1      46.698  35.539  29.876  1.00  0.00     0.022 A 
BRANCH  93  97
ATOM     97  S   UNL A   1      45.932  36.785  27.503  1.00  0.00     0.124 S 
ATOM     98  O   UNL A   1      46.817  37.760  28.133  1.00  0.00    -0.237 OA
ATOM     99  O   UNL A   1      46.463  36.113  26.322  1.00  0.00    -0.237 OA
ATOM    100  O   UNL A   1      44.530  37.192  27.405  1.00  0.00    -0.744 OA
ENDBRANCH  93  97
ENDBRANCH  67  90
ENDBRANCH  41  42
ENDBRANCH  34  36
ENDBRANCH  33  34
ENDBRANCH  32  33
ENDBRANCH   1  32
TORSDOF 21
ENDMDL
