MODEL 1
REMARK VINA RESULT:     -12.0      0.000      0.000
REMARK SMILES O=C(OCCOCCOC(=O)c1cc(-c2ccc(C(F)(F)F)cc2)cc([N+](=O)[O-])c1)c1ccc(-c2c3nc(c(-c4cc(S(=O)(=O)[O-])ccc4F)c4ccc([nH]4)c(-c4cc(S(=O)(=O)[O-])ccc4F)c4nc(c(-c5cc(S(=O)(=O)[O-])ccc5F)c5ccc2[nH]5)C=C4)C=C3)cc1
REMARK SMILES IDX 5 1 4 2 3 3 2 4 1 5 31 6 32 7 93 8 33 9 92 10 34 11 35 12
REMARK SMILES IDX 36 13 86 14 37 15 91 16 85 17 87 18 38 19 90 20 84 21 83 22
REMARK SMILES IDX 39 24 71 25 51 26 70 27 52 28 55 29 69 30 88 31 53 32 54 33
REMARK SMILES IDX 68 35 89 36 56 37 40 38 41 39 49 40 42 41 48 42 50 43 47 44
REMARK SMILES IDX 43 45 44 46 45 47 46 48 72 49 73 50 81 51 74 52 80 53 82 54
REMARK SMILES IDX 79 55 75 56 76 57 77 58 78 59 57 60 58 61 66 62 59 63 65 64
REMARK SMILES IDX 67 65 64 66 60 67 61 68 62 69 63 70 6 71 7 72 8 73 9 74
REMARK SMILES IDX 10 75 11 76 12 77 13 78 30 79 14 80 26 81 25 82 15 83 16 84
REMARK SMILES IDX 24 85 17 86 23 87 18 88 19 89 20 90 21 91 22 92 27 93 28 94
REMARK SMILES IDX 29 95
REMARK H PARENT 87 23 55 34
REMARK Flexibility Score: inf
ROOT
ATOM      1  C   UNL A   1      32.066  30.875  26.659  1.00  0.00     0.202 C 
ENDROOT
BRANCH   1   2
ATOM      2  C   UNL A   1      31.420  32.248  26.872  1.00  0.00     0.261 C 
BRANCH   2   3
ATOM      3  O   UNL A   1      32.418  33.283  26.849  1.00  0.00    -0.460 OA
BRANCH   3   4
ATOM      4  C   UNL A   1      33.046  33.842  27.912  1.00  0.00     0.338 C 
ATOM      5  O   UNL A   1      32.623  34.909  28.356  1.00  0.00    -0.246 OA
BRANCH   4   6
ATOM      6  C   UNL A   1      34.239  33.230  28.566  1.00  0.00     0.060 A 
ATOM      7  C   UNL A   1      34.236  31.976  29.176  1.00  0.00     0.016 A 
ATOM      8  C   UNL A   1      35.461  33.912  28.471  1.00  0.00     0.016 A 
ATOM      9  C   UNL A   1      35.373  31.427  29.727  1.00  0.00     0.010 A 
ATOM     10  C   UNL A   1      36.634  33.343  28.978  1.00  0.00     0.010 A 
ATOM     11  C   UNL A   1      36.583  32.093  29.607  1.00  0.00    -0.014 A 
BRANCH  11  12
ATOM     12  C   UNL A   1      37.744  31.456  30.242  1.00  0.00     0.031 A 
ATOM     13  C   UNL A   1      38.005  31.753  31.682  1.00  0.00     0.074 A 
ATOM     14  C   UNL A   1      38.413  30.504  29.566  1.00  0.00     0.049 A 
ATOM     15  N   UNL A   1      38.983  31.350  32.441  1.00  0.00    -0.248 NA
ATOM     16  C   UNL A   1      37.019  32.608  32.365  1.00  0.00     0.031 C 
ATOM     17  C   UNL A   1      38.088  30.049  28.207  1.00  0.00     0.029 A 
ATOM     18  N   UNL A   1      39.470  29.717  29.930  1.00  0.00    -0.354 N 
ATOM     19  C   UNL A   1      38.755  31.930  33.681  1.00  0.00     0.074 A 
ATOM     20  C   UNL A   1      37.544  32.712  33.575  1.00  0.00     0.031 C 
ATOM     21  C   UNL A   1      38.916  29.050  27.867  1.00  0.00     0.029 A 
ATOM     22  C   UNL A   1      39.889  28.864  28.934  1.00  0.00     0.049 A 
ATOM     23  H   UNL A   1      39.891  29.758  30.819  1.00  0.00     0.167 HD
ATOM     24  C   UNL A   1      39.513  31.818  34.795  1.00  0.00     0.034 A 
ATOM     25  C   UNL A   1      40.976  28.070  28.884  1.00  0.00     0.034 A 
ATOM     26  C   UNL A   1      40.714  31.026  34.834  1.00  0.00     0.049 A 
ATOM     27  C   UNL A   1      41.875  28.071  30.097  1.00  0.00     0.074 A 
ATOM     28  C   UNL A   1      41.619  30.877  35.866  1.00  0.00     0.029 A 
ATOM     29  N   UNL A   1      41.177  30.247  33.777  1.00  0.00    -0.354 N 
ATOM     30  N   UNL A   1      41.710  28.695  31.243  1.00  0.00    -0.248 NA
ATOM     31  C   UNL A   1      43.104  27.279  30.011  1.00  0.00     0.031 C 
ATOM     32  C   UNL A   1      42.668  30.073  35.407  1.00  0.00     0.029 A 
ATOM     33  C   UNL A   1      42.373  29.642  34.121  1.00  0.00     0.049 A 
ATOM     34  H   UNL A   1      40.720  30.141  32.912  1.00  0.00     0.167 HD
ATOM     35  C   UNL A   1      42.804  28.347  32.026  1.00  0.00     0.074 A 
ATOM     36  C   UNL A   1      43.605  27.439  31.227  1.00  0.00     0.031 C 
ATOM     37  C   UNL A   1      43.131  28.740  33.284  1.00  0.00     0.034 A 
BRANCH  24  38
ATOM     38  C   UNL A   1      39.122  32.658  35.983  1.00  0.00     0.023 A 
ATOM     39  C   UNL A   1      39.571  33.978  36.153  1.00  0.00     0.031 A 
ATOM     40  C   UNL A   1      38.335  32.091  37.002  1.00  0.00     0.131 A 
ATOM     41  C   UNL A   1      39.282  34.665  37.343  1.00  0.00     0.055 A 
ATOM     42  C   UNL A   1      37.986  32.808  38.148  1.00  0.00     0.041 A 
ATOM     43  F   UNL A   1      37.911  30.821  36.913  1.00  0.00    -0.206 F 
ATOM     44  C   UNL A   1      38.471  34.098  38.329  1.00  0.00     0.022 A 
BRANCH  41  45
ATOM     45  S   UNL A   1      40.099  36.256  37.650  1.00  0.00     0.124 S 
ATOM     46  O   UNL A   1      40.136  36.832  36.307  1.00  0.00    -0.237 OA
ATOM     47  O   UNL A   1      39.195  36.901  38.595  1.00  0.00    -0.237 OA
ATOM     48  O   UNL A   1      41.401  35.875  38.193  1.00  0.00    -0.744 OA
ENDBRANCH  41  45
ENDBRANCH  24  38
BRANCH  25  49
ATOM     49  C   UNL A   1      41.331  27.311  27.646  1.00  0.00     0.023 A 
ATOM     50  C   UNL A   1      41.194  25.916  27.579  1.00  0.00     0.031 A 
ATOM     51  C   UNL A   1      41.908  27.962  26.536  1.00  0.00     0.131 A 
ATOM     52  C   UNL A   1      41.685  25.214  26.465  1.00  0.00     0.055 A 
ATOM     53  C   UNL A   1      42.326  27.267  25.401  1.00  0.00     0.041 A 
ATOM     54  F   UNL A   1      42.081  29.294  26.540  1.00  0.00    -0.206 F 
ATOM     55  C   UNL A   1      42.236  25.881  25.369  1.00  0.00     0.022 A 
BRANCH  52  56
ATOM     56  S   UNL A   1      41.729  23.401  26.534  1.00  0.00     0.124 S 
ATOM     57  O   UNL A   1      40.309  23.074  26.600  1.00  0.00    -0.237 OA
ATOM     58  O   UNL A   1      42.407  23.068  25.286  1.00  0.00    -0.237 OA
ATOM     59  O   UNL A   1      42.491  23.126  27.750  1.00  0.00    -0.744 OA
ENDBRANCH  52  56
ENDBRANCH  25  49
BRANCH  37  60
ATOM     60  C   UNL A   1      44.378  28.136  33.874  1.00  0.00     0.023 A 
ATOM     61  C   UNL A   1      44.337  26.951  34.626  1.00  0.00     0.031 A 
ATOM     62  C   UNL A   1      45.621  28.762  33.679  1.00  0.00     0.131 A 
ATOM     63  C   UNL A   1      45.512  26.460  35.208  1.00  0.00     0.055 A 
ATOM     64  C   UNL A   1      46.798  28.226  34.197  1.00  0.00     0.041 A 
ATOM     65  F   UNL A   1      45.711  29.900  32.971  1.00  0.00    -0.206 F 
ATOM     66  C   UNL A   1      46.746  27.076  34.980  1.00  0.00     0.022 A 
BRANCH  63  67
ATOM     67  S   UNL A   1      45.390  25.063  36.356  1.00  0.00     0.124 S 
ATOM     68  O   UNL A   1      46.163  25.543  37.497  1.00  0.00    -0.237 OA
ATOM     69  O   UNL A   1      43.950  24.954  36.563  1.00  0.00    -0.237 OA
ATOM     70  O   UNL A   1      45.996  23.958  35.616  1.00  0.00    -0.744 OA
ENDBRANCH  63  67
ENDBRANCH  37  60
ENDBRANCH  11  12
ENDBRANCH   4   6
ENDBRANCH   3   4
ENDBRANCH   2   3
ENDBRANCH   1   2
BRANCH   1  71
ATOM     71  O   UNL A   1      31.413  30.035  25.709  1.00  0.00    -0.374 OA
BRANCH  71  72
ATOM     72  C   UNL A   1      31.988  28.746  25.476  1.00  0.00     0.202 C 
BRANCH  72  73
ATOM     73  C   UNL A   1      31.739  27.865  26.703  1.00  0.00     0.261 C 
BRANCH  73  74
ATOM     74  O   UNL A   1      32.298  26.570  26.433  1.00  0.00    -0.460 OA
BRANCH  74  75
ATOM     75  C   UNL A   1      31.390  25.637  26.053  1.00  0.00     0.338 C 
ATOM     76  O   UNL A   1      30.255  25.475  26.470  1.00  0.00    -0.246 OA
BRANCH  75  77
ATOM     77  C   UNL A   1      31.935  24.936  24.875  1.00  0.00     0.067 A 
ATOM     78  C   UNL A   1      32.121  23.546  24.938  1.00  0.00     0.025 A 
ATOM     79  C   UNL A   1      32.263  25.646  23.720  1.00  0.00     0.101 A 
ATOM     80  C   UNL A   1      32.638  22.843  23.841  1.00  0.00    -0.011 A 
ATOM     81  C   UNL A   1      32.796  24.954  22.634  1.00  0.00     0.270 A 
ATOM     82  C   UNL A   1      32.968  23.561  22.679  1.00  0.00     0.094 A 
BRANCH  80  83
ATOM     83  C   UNL A   1      32.982  21.423  23.953  1.00  0.00    -0.018 A 
ATOM     84  C   UNL A   1      32.244  20.404  23.335  1.00  0.00     0.009 A 
ATOM     85  C   UNL A   1      34.103  21.067  24.717  1.00  0.00     0.009 A 
ATOM     86  C   UNL A   1      32.634  19.062  23.472  1.00  0.00     0.014 A 
ATOM     87  C   UNL A   1      34.493  19.736  24.855  1.00  0.00     0.014 A 
ATOM     88  C   UNL A   1      33.765  18.716  24.230  1.00  0.00     0.056 A 
BRANCH  88  89
ATOM     89  C   UNL A   1      34.194  17.275  24.369  1.00  0.00     0.416 C 
ATOM     90  F   UNL A   1      35.493  17.142  24.749  1.00  0.00    -0.166 F 
ATOM     91  F   UNL A   1      33.458  16.603  25.300  1.00  0.00    -0.166 F 
ATOM     92  F   UNL A   1      34.065  16.558  23.216  1.00  0.00    -0.166 F 
ENDBRANCH  88  89
ENDBRANCH  80  83
BRANCH  81  93
ATOM     93  N   UNL A   1      33.248  25.706  21.459  1.00  0.00     0.062 N 
ATOM     94  O   UNL A   1      33.781  26.807  21.651  1.00  0.00    -0.258 OA
ATOM     95  O   UNL A   1      33.055  25.202  20.344  1.00  0.00    -0.258 OA
ENDBRANCH  81  93
ENDBRANCH  75  77
ENDBRANCH  74  75
ENDBRANCH  73  74
ENDBRANCH  72  73
ENDBRANCH  71  72
ENDBRANCH   1  71
TORSDOF 20
ENDMDL
MODEL 2
REMARK VINA RESULT:     -11.8      5.358      8.581
REMARK SMILES O=C(OCCOCCOC(=O)c1cc(-c2ccc(C(F)(F)F)cc2)cc([N+](=O)[O-])c1)c1ccc(-c2c3nc(c(-c4cc(S(=O)(=O)[O-])ccc4F)c4ccc([nH]4)c(-c4cc(S(=O)(=O)[O-])ccc4F)c4nc(c(-c5cc(S(=O)(=O)[O-])ccc5F)c5ccc2[nH]5)C=C4)C=C3)cc1
REMARK SMILES IDX 5 1 4 2 3 3 2 4 1 5 31 6 32 7 93 8 33 9 92 10 34 11 35 12
REMARK SMILES IDX 36 13 86 14 37 15 91 16 85 17 87 18 38 19 90 20 84 21 83 22
REMARK SMILES IDX 39 24 71 25 51 26 70 27 52 28 55 29 69 30 88 31 53 32 54 33
REMARK SMILES IDX 68 35 89 36 56 37 40 38 41 39 49 40 42 41 48 42 50 43 47 44
REMARK SMILES IDX 43 45 44 46 45 47 46 48 72 49 73 50 81 51 74 52 80 53 82 54
REMARK SMILES IDX 79 55 75 56 76 57 77 58 78 59 57 60 58 61 66 62 59 63 65 64
REMARK SMILES IDX 67 65 64 66 60 67 61 68 62 69 63 70 6 71 7 72 8 73 9 74
REMARK SMILES IDX 10 75 11 76 12 77 13 78 30 79 14 80 26 81 25 82 15 83 16 84
REMARK SMILES IDX 24 85 17 86 23 87 18 88 19 89 20 90 21 91 22 92 27 93 28 94
REMARK SMILES IDX 29 95
REMARK H PARENT 87 23 55 34
REMARK Flexibility Score: inf
ROOT
ATOM      1  C   UNL A   1      34.787  20.706  25.272  1.00  0.00     0.202 C 
ENDROOT
BRANCH   1   2
ATOM      2  C   UNL A   1      36.277  20.474  24.996  1.00  0.00     0.261 C 
BRANCH   2   3
ATOM      3  O   UNL A   1      37.079  21.390  25.760  1.00  0.00    -0.460 OA
BRANCH   3   4
ATOM      4  C   UNL A   1      38.427  21.381  25.901  1.00  0.00     0.338 C 
ATOM      5  O   UNL A   1      39.037  20.331  25.704  1.00  0.00    -0.246 OA
BRANCH   4   6
ATOM      6  C   UNL A   1      39.211  22.587  26.297  1.00  0.00     0.060 A 
ATOM      7  C   UNL A   1      38.899  23.885  25.895  1.00  0.00     0.016 A 
ATOM      8  C   UNL A   1      40.262  22.415  27.210  1.00  0.00     0.016 A 
ATOM      9  C   UNL A   1      39.621  24.978  26.324  1.00  0.00     0.010 A 
ATOM     10  C   UNL A   1      40.969  23.521  27.695  1.00  0.00     0.010 A 
ATOM     11  C   UNL A   1      40.642  24.805  27.247  1.00  0.00    -0.014 A 
BRANCH  11  12
ATOM     12  C   UNL A   1      41.382  26.014  27.635  1.00  0.00     0.031 A 
ATOM     13  C   UNL A   1      40.697  26.998  28.525  1.00  0.00     0.074 A 
ATOM     14  C   UNL A   1      42.689  26.101  27.328  1.00  0.00     0.049 A 
ATOM     15  N   UNL A   1      41.124  28.147  28.961  1.00  0.00    -0.248 NA
ATOM     16  C   UNL A   1      39.353  26.628  29.002  1.00  0.00     0.031 C 
ATOM     17  C   UNL A   1      43.455  25.078  26.604  1.00  0.00     0.029 A 
ATOM     18  N   UNL A   1      43.617  27.063  27.614  1.00  0.00    -0.354 N 
ATOM     19  C   UNL A   1      40.091  28.659  29.734  1.00  0.00     0.074 A 
ATOM     20  C   UNL A   1      39.015  27.693  29.709  1.00  0.00     0.031 C 
ATOM     21  C   UNL A   1      44.738  25.462  26.525  1.00  0.00     0.029 A 
ATOM     22  C   UNL A   1      44.866  26.794  27.099  1.00  0.00     0.049 A 
ATOM     23  H   UNL A   1      43.413  27.871  28.139  1.00  0.00     0.167 HD
ATOM     24  C   UNL A   1      40.057  29.843  30.387  1.00  0.00     0.034 A 
ATOM     25  C   UNL A   1      45.962  27.574  27.052  1.00  0.00     0.034 A 
ATOM     26  C   UNL A   1      41.162  30.765  30.367  1.00  0.00     0.049 A 
ATOM     27  C   UNL A   1      45.848  28.944  27.676  1.00  0.00     0.074 A 
ATOM     28  C   UNL A   1      41.246  32.028  30.920  1.00  0.00     0.029 A 
ATOM     29  N   UNL A   1      42.386  30.514  29.751  1.00  0.00    -0.354 N 
ATOM     30  N   UNL A   1      44.835  29.470  28.330  1.00  0.00    -0.248 NA
ATOM     31  C   UNL A   1      47.009  29.828  27.548  1.00  0.00     0.031 C 
ATOM     32  C   UNL A   1      42.487  32.570  30.571  1.00  0.00     0.029 A 
ATOM     33  C   UNL A   1      43.217  31.612  29.881  1.00  0.00     0.049 A 
ATOM     34  H   UNL A   1      42.624  29.678  29.290  1.00  0.00     0.167 HD
ATOM     35  C   UNL A   1      45.249  30.739  28.715  1.00  0.00     0.074 A 
ATOM     36  C   UNL A   1      46.612  30.885  28.241  1.00  0.00     0.031 C 
ATOM     37  C   UNL A   1      44.573  31.704  29.390  1.00  0.00     0.034 A 
BRANCH  24  38
ATOM     38  C   UNL A   1      38.761  30.229  31.050  1.00  0.00     0.023 A 
ATOM     39  C   UNL A   1      37.734  30.897  30.363  1.00  0.00     0.031 A 
ATOM     40  C   UNL A   1      38.585  29.980  32.423  1.00  0.00     0.131 A 
ATOM     41  C   UNL A   1      36.605  31.349  31.066  1.00  0.00     0.055 A 
ATOM     42  C   UNL A   1      37.425  30.362  33.099  1.00  0.00     0.041 A 
ATOM     43  F   UNL A   1      39.550  29.381  33.139  1.00  0.00    -0.206 F 
ATOM     44  C   UNL A   1      36.432  31.062  32.422  1.00  0.00     0.022 A 
BRANCH  41  45
ATOM     45  S   UNL A   1      35.430  32.441  30.216  1.00  0.00     0.124 S 
ATOM     46  O   UNL A   1      35.144  31.677  29.003  1.00  0.00    -0.237 OA
ATOM     47  O   UNL A   1      34.339  32.543  31.177  1.00  0.00    -0.237 OA
ATOM     48  O   UNL A   1      36.193  33.669  30.005  1.00  0.00    -0.744 OA
ENDBRANCH  41  45
ENDBRANCH  24  38
BRANCH  25  49
ATOM     49  C   UNL A   1      47.195  27.145  26.323  1.00  0.00     0.023 A 
ATOM     50  C   UNL A   1      48.174  26.355  26.945  1.00  0.00     0.031 A 
ATOM     51  C   UNL A   1      47.460  27.599  25.016  1.00  0.00     0.131 A 
ATOM     52  C   UNL A   1      49.393  26.103  26.292  1.00  0.00     0.055 A 
ATOM     53  C   UNL A   1      48.640  27.283  24.343  1.00  0.00     0.041 A 
ATOM     54  F   UNL A   1      46.570  28.370  24.368  1.00  0.00    -0.206 F 
ATOM     55  C   UNL A   1      49.626  26.548  24.989  1.00  0.00     0.022 A 
BRANCH  52  56
ATOM     56  S   UNL A   1      50.730  25.308  27.227  1.00  0.00     0.124 S 
ATOM     57  O   UNL A   1      50.010  24.252  27.930  1.00  0.00    -0.237 OA
ATOM     58  O   UNL A   1      51.627  24.873  26.162  1.00  0.00    -0.237 OA
ATOM     59  O   UNL A   1      51.240  26.386  28.071  1.00  0.00    -0.744 OA
ENDBRANCH  52  56
ENDBRANCH  25  49
BRANCH  37  60
ATOM     60  C   UNL A   1      45.332  32.969  29.694  1.00  0.00     0.023 A 
ATOM     61  C   UNL A   1      45.322  34.062  28.813  1.00  0.00     0.031 A 
ATOM     62  C   UNL A   1      46.074  33.074  30.883  1.00  0.00     0.131 A 
ATOM     63  C   UNL A   1      46.093  35.194  29.107  1.00  0.00     0.055 A 
ATOM     64  C   UNL A   1      46.777  34.233  31.206  1.00  0.00     0.041 A 
ATOM     65  F   UNL A   1      46.117  32.054  31.755  1.00  0.00    -0.206 F 
ATOM     66  C   UNL A   1      46.801  35.296  30.307  1.00  0.00     0.022 A 
BRANCH  63  67
ATOM     67  S   UNL A   1      46.242  36.489  27.848  1.00  0.00     0.124 S 
ATOM     68  O   UNL A   1      47.433  37.205  28.292  1.00  0.00    -0.237 OA
ATOM     69  O   UNL A   1      46.385  35.716  26.619  1.00  0.00    -0.237 OA
ATOM     70  O   UNL A   1      44.989  37.232  27.972  1.00  0.00    -0.744 OA
ENDBRANCH  63  67
ENDBRANCH  37  60
ENDBRANCH  11  12
ENDBRANCH   4   6
ENDBRANCH   3   4
ENDBRANCH   2   3
ENDBRANCH   1   2
BRANCH   1  71
ATOM     71  O   UNL A   1      34.493  21.787  26.155  1.00  0.00    -0.374 OA
BRANCH  71  72
ATOM     72  C   UNL A   1      33.587  21.520  27.230  1.00  0.00     0.202 C 
BRANCH  72  73
ATOM     73  C   UNL A   1      32.635  22.708  27.381  1.00  0.00     0.261 C 
BRANCH  73  74
ATOM     74  O   UNL A   1      31.544  22.514  26.467  1.00  0.00    -0.460 OA
BRANCH  74  75
ATOM     75  C   UNL A   1      30.697  23.570  26.374  1.00  0.00     0.338 C 
ATOM     76  O   UNL A   1      29.817  23.900  27.151  1.00  0.00    -0.246 OA
BRANCH  75  77
ATOM     77  C   UNL A   1      31.144  24.404  25.242  1.00  0.00     0.067 A 
ATOM     78  C   UNL A   1      30.656  25.715  25.131  1.00  0.00     0.025 A 
ATOM     79  C   UNL A   1      32.033  23.893  24.297  1.00  0.00     0.101 A 
ATOM     80  C   UNL A   1      31.055  26.539  24.069  1.00  0.00    -0.011 A 
ATOM     81  C   UNL A   1      32.417  24.702  23.228  1.00  0.00     0.270 A 
ATOM     82  C   UNL A   1      31.950  26.022  23.118  1.00  0.00     0.094 A 
BRANCH  80  83
ATOM     83  C   UNL A   1      30.431  27.849  23.860  1.00  0.00    -0.018 A 
ATOM     84  C   UNL A   1      30.984  29.047  24.332  1.00  0.00     0.009 A 
ATOM     85  C   UNL A   1      29.221  27.905  23.153  1.00  0.00     0.009 A 
ATOM     86  C   UNL A   1      30.343  30.271  24.087  1.00  0.00     0.014 A 
ATOM     87  C   UNL A   1      28.581  29.119  22.908  1.00  0.00     0.014 A 
ATOM     88  C   UNL A   1      29.136  30.319  23.369  1.00  0.00     0.056 A 
BRANCH  88  89
ATOM     89  C   UNL A   1      28.450  31.635  23.093  1.00  0.00     0.416 C 
ATOM     90  F   UNL A   1      29.062  32.689  23.695  1.00  0.00    -0.166 F 
ATOM     91  F   UNL A   1      28.410  31.930  21.763  1.00  0.00    -0.166 F 
ATOM     92  F   UNL A   1      27.151  31.666  23.512  1.00  0.00    -0.166 F 
ENDBRANCH  88  89
ENDBRANCH  80  83
BRANCH  81  93
ATOM     93  N   UNL A   1      33.261  24.138  22.172  1.00  0.00     0.062 N 
ATOM     94  O   UNL A   1      33.194  24.650  21.045  1.00  0.00    -0.258 OA
ATOM     95  O   UNL A   1      33.980  23.172  22.463  1.00  0.00    -0.258 OA
ENDBRANCH  81  93
ENDBRANCH  75  77
ENDBRANCH  74  75
ENDBRANCH  73  74
ENDBRANCH  72  73
ENDBRANCH  71  72
ENDBRANCH   1  71
TORSDOF 20
ENDMDL
MODEL 3
REMARK VINA RESULT:     -11.7      1.761      7.734
REMARK SMILES O=C(OCCOCCOC(=O)c1cc(-c2ccc(C(F)(F)F)cc2)cc([N+](=O)[O-])c1)c1ccc(-c2c3nc(c(-c4cc(S(=O)(=O)[O-])ccc4F)c4ccc([nH]4)c(-c4cc(S(=O)(=O)[O-])ccc4F)c4nc(c(-c5cc(S(=O)(=O)[O-])ccc5F)c5ccc2[nH]5)C=C4)C=C3)cc1
REMARK SMILES IDX 5 1 4 2 3 3 2 4 1 5 31 6 32 7 93 8 33 9 92 10 34 11 35 12
REMARK SMILES IDX 36 13 86 14 37 15 91 16 85 17 87 18 38 19 90 20 84 21 83 22
REMARK SMILES IDX 39 24 71 25 51 26 70 27 52 28 55 29 69 30 88 31 53 32 54 33
REMARK SMILES IDX 68 35 89 36 56 37 40 38 41 39 49 40 42 41 48 42 50 43 47 44
REMARK SMILES IDX 43 45 44 46 45 47 46 48 72 49 73 50 81 51 74 52 80 53 82 54
REMARK SMILES IDX 79 55 75 56 76 57 77 58 78 59 57 60 58 61 66 62 59 63 65 64
REMARK SMILES IDX 67 65 64 66 60 67 61 68 62 69 63 70 6 71 7 72 8 73 9 74
REMARK SMILES IDX 10 75 11 76 12 77 13 78 30 79 14 80 26 81 25 82 15 83 16 84
REMARK SMILES IDX 24 85 17 86 23 87 18 88 19 89 20 90 21 91 22 92 27 93 28 94
REMARK SMILES IDX 29 95
REMARK H PARENT 87 23 55 34
REMARK Flexibility Score: inf
ROOT
ATOM      1  C   UNL A   1      31.470  30.023  24.826  1.00  0.00     0.202 C 
ENDROOT
BRANCH   1   2
ATOM      2  C   UNL A   1      31.849  30.292  26.286  1.00  0.00     0.261 C 
BRANCH   2   3
ATOM      3  O   UNL A   1      33.255  30.569  26.398  1.00  0.00    -0.460 OA
BRANCH   3   4
ATOM      4  C   UNL A   1      33.865  31.378  27.299  1.00  0.00     0.338 C 
ATOM      5  O   UNL A   1      33.386  32.490  27.515  1.00  0.00    -0.246 OA
BRANCH   4   6
ATOM      6  C   UNL A   1      35.101  30.987  28.036  1.00  0.00     0.060 A 
ATOM      7  C   UNL A   1      35.306  29.730  28.604  1.00  0.00     0.016 A 
ATOM      8  C   UNL A   1      36.161  31.905  28.072  1.00  0.00     0.016 A 
ATOM      9  C   UNL A   1      36.483  29.395  29.236  1.00  0.00     0.010 A 
ATOM     10  C   UNL A   1      37.381  31.559  28.663  1.00  0.00     0.010 A 
ATOM     11  C   UNL A   1      37.537  30.296  29.245  1.00  0.00    -0.014 A 
BRANCH  11  12
ATOM     12  C   UNL A   1      38.749  29.876  29.960  1.00  0.00     0.031 A 
ATOM     13  C   UNL A   1      39.693  28.956  29.258  1.00  0.00     0.074 A 
ATOM     14  C   UNL A   1      39.050  30.467  31.131  1.00  0.00     0.049 A 
ATOM     15  N   UNL A   1      40.794  28.418  29.695  1.00  0.00    -0.248 NA
ATOM     16  C   UNL A   1      39.358  28.610  27.865  1.00  0.00     0.031 C 
ATOM     17  C   UNL A   1      38.243  31.507  31.783  1.00  0.00     0.029 A 
ATOM     18  N   UNL A   1      40.125  30.319  31.963  1.00  0.00    -0.354 N 
ATOM     19  C   UNL A   1      41.268  27.638  28.648  1.00  0.00     0.074 A 
ATOM     20  C   UNL A   1      40.335  27.775  27.552  1.00  0.00     0.031 C 
ATOM     21  C   UNL A   1      38.865  31.914  32.899  1.00  0.00     0.029 A 
ATOM     22  C   UNL A   1      40.056  31.099  33.095  1.00  0.00     0.049 A 
ATOM     23  H   UNL A   1      40.876  29.712  31.770  1.00  0.00     0.167 HD
ATOM     24  C   UNL A   1      42.380  26.869  28.631  1.00  0.00     0.034 A 
ATOM     25  C   UNL A   1      40.844  31.099  34.187  1.00  0.00     0.034 A 
ATOM     26  C   UNL A   1      43.266  26.770  29.760  1.00  0.00     0.049 A 
ATOM     27  C   UNL A   1      42.002  30.131  34.190  1.00  0.00     0.074 A 
ATOM     28  C   UNL A   1      44.388  25.979  29.914  1.00  0.00     0.029 A 
ATOM     29  N   UNL A   1      43.121  27.495  30.940  1.00  0.00    -0.354 N 
ATOM     30  N   UNL A   1      42.400  29.321  33.233  1.00  0.00    -0.248 NA
ATOM     31  C   UNL A   1      42.807  30.065  35.412  1.00  0.00     0.031 C 
ATOM     32  C   UNL A   1      44.873  26.166  31.212  1.00  0.00     0.029 A 
ATOM     33  C   UNL A   1      44.113  27.144  31.839  1.00  0.00     0.049 A 
ATOM     34  H   UNL A   1      42.416  28.161  31.110  1.00  0.00     0.167 HD
ATOM     35  C   UNL A   1      43.521  28.667  33.731  1.00  0.00     0.074 A 
ATOM     36  C   UNL A   1      43.747  29.200  35.062  1.00  0.00     0.031 C 
ATOM     37  C   UNL A   1      44.294  27.711  33.156  1.00  0.00     0.034 A 
BRANCH  24  38
ATOM     38  C   UNL A   1      42.605  26.009  27.415  1.00  0.00     0.023 A 
ATOM     39  C   UNL A   1      42.118  24.695  27.321  1.00  0.00     0.031 A 
ATOM     40  C   UNL A   1      43.388  26.501  26.354  1.00  0.00     0.131 A 
ATOM     41  C   UNL A   1      42.472  23.897  26.221  1.00  0.00     0.055 A 
ATOM     42  C   UNL A   1      43.671  25.728  25.227  1.00  0.00     0.041 A 
ATOM     43  F   UNL A   1      43.915  27.735  26.408  1.00  0.00    -0.206 F 
ATOM     44  C   UNL A   1      43.222  24.414  25.161  1.00  0.00     0.022 A 
BRANCH  41  45
ATOM     45  S   UNL A   1      42.058  22.130  26.258  1.00  0.00     0.124 S 
ATOM     46  O   UNL A   1      42.511  21.750  27.595  1.00  0.00    -0.237 OA
ATOM     47  O   UNL A   1      40.615  22.137  26.051  1.00  0.00    -0.237 OA
ATOM     48  O   UNL A   1      42.843  21.571  25.160  1.00  0.00    -0.744 OA
ENDBRANCH  41  45
ENDBRANCH  24  38
BRANCH  25  49
ATOM     49  C   UNL A   1      40.522  31.939  35.382  1.00  0.00     0.023 A 
ATOM     50  C   UNL A   1      39.501  31.579  36.274  1.00  0.00     0.031 A 
ATOM     51  C   UNL A   1      41.170  33.172  35.598  1.00  0.00     0.131 A 
ATOM     52  C   UNL A   1      39.113  32.466  37.294  1.00  0.00     0.055 A 
ATOM     53  C   UNL A   1      40.831  34.015  36.657  1.00  0.00     0.041 A 
ATOM     54  F   UNL A   1      42.146  33.584  34.773  1.00  0.00    -0.206 F 
ATOM     55  C   UNL A   1      39.781  33.674  37.500  1.00  0.00     0.022 A 
BRANCH  52  56
ATOM     56  S   UNL A   1      37.622  32.083  38.255  1.00  0.00     0.124 S 
ATOM     57  O   UNL A   1      38.102  32.250  39.622  1.00  0.00    -0.237 OA
ATOM     58  O   UNL A   1      36.685  33.093  37.775  1.00  0.00    -0.237 OA
ATOM     59  O   UNL A   1      37.311  30.709  37.865  1.00  0.00    -0.744 OA
ENDBRANCH  52  56
ENDBRANCH  25  49
BRANCH  37  60
ATOM     60  C   UNL A   1      45.480  27.235  33.954  1.00  0.00     0.023 A 
ATOM     61  C   UNL A   1      45.392  26.126  34.811  1.00  0.00     0.031 A 
ATOM     62  C   UNL A   1      46.710  27.905  33.850  1.00  0.00     0.131 A 
ATOM     63  C   UNL A   1      46.502  25.758  35.580  1.00  0.00     0.055 A 
ATOM     64  C   UNL A   1      47.833  27.486  34.561  1.00  0.00     0.041 A 
ATOM     65  F   UNL A   1      46.843  28.973  33.046  1.00  0.00    -0.206 F 
ATOM     66  C   UNL A   1      47.728  26.415  35.444  1.00  0.00     0.022 A 
BRANCH  63  67
ATOM     67  S   UNL A   1      46.293  24.472  36.841  1.00  0.00     0.124 S 
ATOM     68  O   UNL A   1      44.959  24.769  37.355  1.00  0.00    -0.237 OA
ATOM     69  O   UNL A   1      46.415  23.246  36.060  1.00  0.00    -0.237 OA
ATOM     70  O   UNL A   1      47.388  24.726  37.774  1.00  0.00    -0.744 OA
ENDBRANCH  63  67
ENDBRANCH  37  60
ENDBRANCH  11  12
ENDBRANCH   4   6
ENDBRANCH   3   4
ENDBRANCH   2   3
ENDBRANCH   1   2
BRANCH   1  71
ATOM     71  O   UNL A   1      31.594  28.667  24.404  1.00  0.00    -0.374 OA
BRANCH  71  72
ATOM     72  C   UNL A   1      30.499  27.793  24.693  1.00  0.00     0.202 C 
BRANCH  72  73
ATOM     73  C   UNL A   1      30.864  26.925  25.899  1.00  0.00     0.261 C 
BRANCH  73  74
ATOM     74  O   UNL A   1      30.368  25.600  25.653  1.00  0.00    -0.460 OA
BRANCH  74  75
ATOM     75  C   UNL A   1      31.170  24.607  26.111  1.00  0.00     0.338 C 
ATOM     76  O   UNL A   1      31.264  24.178  27.249  1.00  0.00    -0.246 OA
BRANCH  75  77
ATOM     77  C   UNL A   1      31.803  23.968  24.941  1.00  0.00     0.067 A 
ATOM     78  C   UNL A   1      32.048  22.586  24.973  1.00  0.00     0.025 A 
ATOM     79  C   UNL A   1      32.154  24.728  23.826  1.00  0.00     0.101 A 
ATOM     80  C   UNL A   1      32.648  21.941  23.882  1.00  0.00    -0.011 A 
ATOM     81  C   UNL A   1      32.769  24.093  22.747  1.00  0.00     0.270 A 
ATOM     82  C   UNL A   1      33.001  22.709  22.760  1.00  0.00     0.094 A 
BRANCH  80  83
ATOM     83  C   UNL A   1      33.049  20.534  23.970  1.00  0.00    -0.018 A 
ATOM     84  C   UNL A   1      34.250  20.114  24.558  1.00  0.00     0.009 A 
ATOM     85  C   UNL A   1      32.188  19.561  23.441  1.00  0.00     0.009 A 
ATOM     86  C   UNL A   1      34.570  18.749  24.622  1.00  0.00     0.014 A 
ATOM     87  C   UNL A   1      32.503  18.205  23.503  1.00  0.00     0.014 A 
ATOM     88  C   UNL A   1      33.697  17.781  24.099  1.00  0.00     0.056 A 
BRANCH  88  89
ATOM     89  C   UNL A   1      34.033  16.311  24.176  1.00  0.00     0.416 C 
ATOM     90  F   UNL A   1      32.949  15.532  24.441  1.00  0.00    -0.166 F 
ATOM     91  F   UNL A   1      34.562  15.838  23.013  1.00  0.00    -0.166 F 
ATOM     92  F   UNL A   1      34.951  16.015  25.141  1.00  0.00    -0.166 F 
ENDBRANCH  88  89
ENDBRANCH  80  83
BRANCH  81  93
ATOM     93  N   UNL A   1      33.243  24.900  21.619  1.00  0.00     0.062 N 
ATOM     94  O   UNL A   1      33.704  26.023  21.868  1.00  0.00    -0.258 OA
ATOM     95  O   UNL A   1      33.140  24.419  20.483  1.00  0.00    -0.258 OA
ENDBRANCH  81  93
ENDBRANCH  75  77
ENDBRANCH  74  75
ENDBRANCH  73  74
ENDBRANCH  72  73
ENDBRANCH  71  72
ENDBRANCH   1  71
TORSDOF 20
ENDMDL
