MODEL 1
REMARK VINA RESULT:     -10.7      0.000      0.000
REMARK SMILES COc1ncccc1C(=O)N[C@@](C)(C(=O)OCCOCCOC(=O)c1ccc(-c2c3nc(c(-c4cc(S(=O)(=O)[O-])ccc4F)c4ccc([nH]4)c(-c4cc(S(=O)(=O)[O-])ccc4F)c4nc(c(-c5cc(S(=O)(=O)[O-])ccc5F)c5ccc2[nH]5)C=C4)C=C3)cc1)C(F)(F)F
REMARK SMILES IDX 19 1 18 2 17 3 16 4 14 5 15 6 12 7 13 8 11 9 9 10 10 11 8 13
REMARK SMILES IDX 3 14 4 15 5 16 7 17 6 18 2 19 1 20 88 21 89 22 90 23 91 24
REMARK SMILES IDX 20 25 21 26 22 27 23 28 24 29 25 30 26 31 87 32 27 33 86 34
REMARK SMILES IDX 28 35 29 36 30 37 80 38 31 39 85 40 79 41 81 42 32 43 84 44
REMARK SMILES IDX 78 45 77 46 33 48 65 49 45 50 64 51 46 52 49 53 63 54 82 55
REMARK SMILES IDX 47 56 48 57 62 59 83 60 50 61 34 62 35 63 43 64 36 65 42 66
REMARK SMILES IDX 44 67 41 68 37 69 38 70 39 71 40 72 66 73 67 74 75 75 68 76
REMARK SMILES IDX 74 77 76 78 73 79 69 80 70 81 71 82 72 83 51 84 52 85 60 86
REMARK SMILES IDX 53 87 59 88 61 89 58 90 54 91 55 92 56 93 57 94
REMARK H PARENT 11 12 81 47 49 58
REMARK Flexibility Score: inf
ROOT
ATOM      1  O   UNL A   1      30.860  29.384  24.314  1.00  0.00    -0.374 OA
ENDROOT
BRANCH   1   2
ATOM      2  C   UNL A   1      30.912  28.186  23.546  1.00  0.00     0.202 C 
BRANCH   2   3
ATOM      3  C   UNL A   1      32.263  27.784  22.936  1.00  0.00     0.261 C 
BRANCH   3   4
ATOM      4  O   UNL A   1      32.329  26.391  22.584  1.00  0.00    -0.461 OA
BRANCH   4   5
ATOM      5  C   UNL A   1      33.001  25.579  23.456  1.00  0.00     0.341 C 
ATOM      6  O   UNL A   1      34.011  25.919  24.059  1.00  0.00    -0.249 OA
BRANCH   5   7
ATOM      7  C   UNL A   1      32.376  24.170  23.534  1.00  0.00     0.231 C 
ATOM      8  C   UNL A   1      30.903  24.315  23.127  1.00  0.00     0.058 C 
BRANCH   7   9
ATOM      9  N   UNL A   1      32.388  23.705  24.978  1.00  0.00    -0.329 N 
ATOM     10  C   UNL A   1      32.860  22.743  25.828  1.00  0.00     0.257 C 
ATOM     11  O   UNL A   1      32.331  22.763  26.941  1.00  0.00    -0.269 OA
ATOM     12  H   UNL A   1      31.851  24.339  25.506  1.00  0.00     0.165 HD
BRANCH  10  13
ATOM     13  C   UNL A   1      33.951  21.772  25.585  1.00  0.00     0.101 A 
ATOM     14  C   UNL A   1      35.293  22.155  25.696  1.00  0.00     0.226 A 
ATOM     15  N   UNL A   1      36.353  21.341  25.433  1.00  0.00    -0.221 NA
ATOM     16  C   UNL A   1      36.078  20.098  25.002  1.00  0.00     0.115 A 
ATOM     17  C   UNL A   1      33.725  20.505  25.050  1.00  0.00     0.021 A 
ATOM     18  C   UNL A   1      34.792  19.641  24.786  1.00  0.00     0.021 A 
BRANCH  14  19
ATOM     19  O   UNL A   1      35.634  23.471  25.873  1.00  0.00    -0.480 OA
ATOM     20  C   UNL A   1      36.980  23.704  25.496  1.00  0.00     0.280 C 
ENDBRANCH  14  19
ENDBRANCH  10  13
ENDBRANCH   7   9
BRANCH   7  21
ATOM     21  C   UNL A   1      33.120  23.380  22.458  1.00  0.00     0.422 C 
ATOM     22  F   UNL A   1      34.441  23.259  22.725  1.00  0.00    -0.168 F 
ATOM     23  F   UNL A   1      32.612  22.128  22.339  1.00  0.00    -0.168 F 
ATOM     24  F   UNL A   1      33.016  23.931  21.227  1.00  0.00    -0.168 F 
ENDBRANCH   7  21
ENDBRANCH   5   7
ENDBRANCH   4   5
ENDBRANCH   3   4
ENDBRANCH   2   3
ENDBRANCH   1   2
BRANCH   1  25
ATOM     25  C   UNL A   1      31.713  29.483  25.456  1.00  0.00     0.202 C 
BRANCH  25  26
ATOM     26  C   UNL A   1      31.902  30.848  26.132  1.00  0.00     0.261 C 
BRANCH  26  27
ATOM     27  O   UNL A   1      32.678  30.782  27.344  1.00  0.00    -0.460 OA
BRANCH  27  28
ATOM     28  C   UNL A   1      33.487  31.854  27.547  1.00  0.00     0.338 C 
ATOM     29  O   UNL A   1      33.155  33.026  27.593  1.00  0.00    -0.246 OA
BRANCH  28  30
ATOM     30  C   UNL A   1      34.839  31.405  27.927  1.00  0.00     0.060 A 
ATOM     31  C   UNL A   1      35.016  30.044  28.205  1.00  0.00     0.016 A 
ATOM     32  C   UNL A   1      35.880  32.313  28.121  1.00  0.00     0.016 A 
ATOM     33  C   UNL A   1      36.227  29.588  28.722  1.00  0.00     0.010 A 
ATOM     34  C   UNL A   1      37.093  31.854  28.650  1.00  0.00     0.010 A 
ATOM     35  C   UNL A   1      37.257  30.497  28.986  1.00  0.00    -0.014 A 
BRANCH  35  36
ATOM     36  C   UNL A   1      38.430  30.060  29.784  1.00  0.00     0.031 A 
ATOM     37  C   UNL A   1      39.373  29.050  29.190  1.00  0.00     0.074 A 
ATOM     38  C   UNL A   1      38.675  30.581  30.999  1.00  0.00     0.049 A 
ATOM     39  N   UNL A   1      40.436  28.491  29.709  1.00  0.00    -0.248 NA
ATOM     40  C   UNL A   1      39.067  28.610  27.820  1.00  0.00     0.031 C 
ATOM     41  C   UNL A   1      37.874  31.617  31.649  1.00  0.00     0.029 A 
ATOM     42  N   UNL A   1      39.671  30.308  31.902  1.00  0.00    -0.354 N 
ATOM     43  C   UNL A   1      40.926  27.630  28.733  1.00  0.00     0.074 A 
ATOM     44  C   UNL A   1      40.013  27.709  27.611  1.00  0.00     0.031 C 
ATOM     45  C   UNL A   1      38.413  31.893  32.849  1.00  0.00     0.029 A 
ATOM     46  C   UNL A   1      39.568  31.025  33.069  1.00  0.00     0.049 A 
ATOM     47  H   UNL A   1      40.391  29.659  31.729  1.00  0.00     0.167 HD
ATOM     48  C   UNL A   1      42.039  26.854  28.765  1.00  0.00     0.034 A 
ATOM     49  C   UNL A   1      40.311  30.969  34.194  1.00  0.00     0.034 A 
ATOM     50  C   UNL A   1      42.922  26.770  29.903  1.00  0.00     0.049 A 
ATOM     51  C   UNL A   1      41.469  30.003  34.261  1.00  0.00     0.074 A 
ATOM     52  C   UNL A   1      44.075  26.019  30.050  1.00  0.00     0.029 A 
ATOM     53  N   UNL A   1      42.739  27.450  31.102  1.00  0.00    -0.354 N 
ATOM     54  N   UNL A   1      41.921  29.186  33.337  1.00  0.00    -0.248 NA
ATOM     55  C   UNL A   1      42.217  29.954  35.523  1.00  0.00     0.031 C 
ATOM     56  C   UNL A   1      44.543  26.185  31.359  1.00  0.00     0.029 A 
ATOM     57  C   UNL A   1      43.734  27.105  32.005  1.00  0.00     0.049 A 
ATOM     58  H   UNL A   1      42.008  28.085  31.284  1.00  0.00     0.167 HD
ATOM     59  C   UNL A   1      43.031  28.556  33.895  1.00  0.00     0.074 A 
ATOM     60  C   UNL A   1      43.178  29.088  35.235  1.00  0.00     0.031 C 
ATOM     61  C   UNL A   1      43.862  27.634  33.345  1.00  0.00     0.034 A 
BRANCH  48  62
ATOM     62  C   UNL A   1      42.307  25.992  27.552  1.00  0.00     0.023 A 
ATOM     63  C   UNL A   1      41.793  24.687  27.445  1.00  0.00     0.031 A 
ATOM     64  C   UNL A   1      43.151  26.449  26.525  1.00  0.00     0.131 A 
ATOM     65  C   UNL A   1      42.209  23.853  26.396  1.00  0.00     0.055 A 
ATOM     66  C   UNL A   1      43.486  25.646  25.433  1.00  0.00     0.041 A 
ATOM     67  F   UNL A   1      43.692  27.677  26.580  1.00  0.00    -0.206 F 
ATOM     68  C   UNL A   1      43.034  24.332  25.375  1.00  0.00     0.022 A 
BRANCH  65  69
ATOM     69  S   UNL A   1      41.816  22.084  26.490  1.00  0.00     0.124 S 
ATOM     70  O   UNL A   1      42.596  21.549  25.376  1.00  0.00    -0.237 OA
ATOM     71  O   UNL A   1      42.281  21.728  27.825  1.00  0.00    -0.237 OA
ATOM     72  O   UNL A   1      40.367  22.044  26.300  1.00  0.00    -0.744 OA
ENDBRANCH  65  69
ENDBRANCH  48  62
BRANCH  49  73
ATOM     73  C   UNL A   1      39.976  31.833  35.360  1.00  0.00     0.023 A 
ATOM     74  C   UNL A   1      39.034  31.420  36.316  1.00  0.00     0.031 A 
ATOM     75  C   UNL A   1      40.563  33.101  35.517  1.00  0.00     0.131 A 
ATOM     76  C   UNL A   1      38.682  32.282  37.368  1.00  0.00     0.055 A 
ATOM     77  C   UNL A   1      40.245  33.935  36.590  1.00  0.00     0.041 A 
ATOM     78  F   UNL A   1      41.469  33.544  34.630  1.00  0.00    -0.206 F 
ATOM     79  C   UNL A   1      39.292  33.530  37.518  1.00  0.00     0.022 A 
BRANCH  76  80
ATOM     80  S   UNL A   1      37.367  31.770  38.506  1.00  0.00     0.124 S 
ATOM     81  O   UNL A   1      37.130  30.393  38.085  1.00  0.00    -0.237 OA
ATOM     82  O   UNL A   1      38.006  31.944  39.806  1.00  0.00    -0.237 OA
ATOM     83  O   UNL A   1      36.283  32.707  38.216  1.00  0.00    -0.744 OA
ENDBRANCH  76  80
ENDBRANCH  49  73
BRANCH  61  84
ATOM     84  C   UNL A   1      45.042  27.185  34.175  1.00  0.00     0.023 A 
ATOM     85  C   UNL A   1      44.985  26.046  34.997  1.00  0.00     0.031 A 
ATOM     86  C   UNL A   1      46.243  27.917  34.141  1.00  0.00     0.131 A 
ATOM     87  C   UNL A   1      46.092  25.700  35.788  1.00  0.00     0.055 A 
ATOM     88  C   UNL A   1      47.360  27.534  34.884  1.00  0.00     0.041 A 
ATOM     89  F   UNL A   1      46.353  29.015  33.376  1.00  0.00    -0.206 F 
ATOM     90  C   UNL A   1      47.285  26.426  35.723  1.00  0.00     0.022 A 
BRANCH  87  91
ATOM     91  S   UNL A   1      45.929  24.333  36.971  1.00  0.00     0.124 S 
ATOM     92  O   UNL A   1      44.977  23.459  36.294  1.00  0.00    -0.237 OA
ATOM     93  O   UNL A   1      47.298  23.835  37.064  1.00  0.00    -0.237 OA
ATOM     94  O   UNL A   1      45.424  24.983  38.179  1.00  0.00    -0.744 OA
ENDBRANCH  87  91
ENDBRANCH  61  84
ENDBRANCH  35  36
ENDBRANCH  28  30
ENDBRANCH  27  28
ENDBRANCH  26  27
ENDBRANCH  25  26
ENDBRANCH   1  25
TORSDOF 21
ENDMDL
MODEL 2
REMARK VINA RESULT:     -10.4      2.066      7.847
REMARK SMILES COc1ncccc1C(=O)N[C@@](C)(C(=O)OCCOCCOC(=O)c1ccc(-c2c3nc(c(-c4cc(S(=O)(=O)[O-])ccc4F)c4ccc([nH]4)c(-c4cc(S(=O)(=O)[O-])ccc4F)c4nc(c(-c5cc(S(=O)(=O)[O-])ccc5F)c5ccc2[nH]5)C=C4)C=C3)cc1)C(F)(F)F
REMARK SMILES IDX 19 1 18 2 17 3 16 4 14 5 15 6 12 7 13 8 11 9 9 10 10 11 8 13
REMARK SMILES IDX 3 14 4 15 5 16 7 17 6 18 2 19 1 20 88 21 89 22 90 23 91 24
REMARK SMILES IDX 20 25 21 26 22 27 23 28 24 29 25 30 26 31 87 32 27 33 86 34
REMARK SMILES IDX 28 35 29 36 30 37 80 38 31 39 85 40 79 41 81 42 32 43 84 44
REMARK SMILES IDX 78 45 77 46 33 48 65 49 45 50 64 51 46 52 49 53 63 54 82 55
REMARK SMILES IDX 47 56 48 57 62 59 83 60 50 61 34 62 35 63 43 64 36 65 42 66
REMARK SMILES IDX 44 67 41 68 37 69 38 70 39 71 40 72 66 73 67 74 75 75 68 76
REMARK SMILES IDX 74 77 76 78 73 79 69 80 70 81 71 82 72 83 51 84 52 85 60 86
REMARK SMILES IDX 53 87 59 88 61 89 58 90 54 91 55 92 56 93 57 94
REMARK H PARENT 11 12 81 47 49 58
REMARK Flexibility Score: inf
ROOT
ATOM      1  O   UNL A   1      32.240  30.261  27.008  1.00  0.00    -0.374 OA
ENDROOT
BRANCH   1   2
ATOM      2  C   UNL A   1      33.238  29.570  26.264  1.00  0.00     0.202 C 
BRANCH   2   3
ATOM      3  C   UNL A   1      33.537  28.113  26.648  1.00  0.00     0.261 C 
BRANCH   3   4
ATOM      4  O   UNL A   1      33.259  27.184  25.586  1.00  0.00    -0.461 OA
BRANCH   4   5
ATOM      5  C   UNL A   1      32.101  26.466  25.701  1.00  0.00     0.341 C 
ATOM      6  O   UNL A   1      31.524  26.273  26.764  1.00  0.00    -0.249 OA
BRANCH   5   7
ATOM      7  C   UNL A   1      31.649  25.875  24.348  1.00  0.00     0.231 C 
ATOM      8  C   UNL A   1      30.589  24.810  24.663  1.00  0.00     0.058 C 
BRANCH   7   9
ATOM      9  N   UNL A   1      32.820  25.154  23.709  1.00  0.00    -0.329 N 
ATOM     10  C   UNL A   1      33.811  24.238  23.930  1.00  0.00     0.257 C 
ATOM     11  O   UNL A   1      34.661  24.203  23.037  1.00  0.00    -0.269 OA
ATOM     12  H   UNL A   1      32.895  25.464  22.778  1.00  0.00     0.165 HD
BRANCH  10  13
ATOM     13  C   UNL A   1      33.921  23.270  25.045  1.00  0.00     0.101 A 
ATOM     14  C   UNL A   1      33.538  21.934  24.877  1.00  0.00     0.226 A 
ATOM     15  N   UNL A   1      33.553  20.997  25.866  1.00  0.00    -0.221 NA
ATOM     16  C   UNL A   1      33.928  21.404  27.091  1.00  0.00     0.115 A 
ATOM     17  C   UNL A   1      34.215  23.656  26.351  1.00  0.00     0.021 A 
ATOM     18  C   UNL A   1      34.256  22.714  27.383  1.00  0.00     0.021 A 
BRANCH  14  19
ATOM     19  O   UNL A   1      32.902  21.524  23.734  1.00  0.00    -0.480 OA
ATOM     20  C   UNL A   1      32.463  20.182  23.848  1.00  0.00     0.280 C 
ENDBRANCH  14  19
ENDBRANCH  10  13
ENDBRANCH   7   9
BRANCH   7  21
ATOM     21  C   UNL A   1      30.982  27.053  23.639  1.00  0.00     0.422 C 
ATOM     22  F   UNL A   1      29.870  26.687  22.962  1.00  0.00    -0.168 F 
ATOM     23  F   UNL A   1      30.622  28.012  24.528  1.00  0.00    -0.168 F 
ATOM     24  F   UNL A   1      31.799  27.670  22.754  1.00  0.00    -0.168 F 
ENDBRANCH   7  21
ENDBRANCH   5   7
ENDBRANCH   4   5
ENDBRANCH   3   4
ENDBRANCH   2   3
ENDBRANCH   1   2
BRANCH   1  25
ATOM     25  C   UNL A   1      31.508  31.295  26.345  1.00  0.00     0.202 C 
BRANCH  25  26
ATOM     26  C   UNL A   1      31.560  32.724  26.904  1.00  0.00     0.261 C 
BRANCH  26  27
ATOM     27  O   UNL A   1      32.854  33.340  26.771  1.00  0.00    -0.460 OA
BRANCH  27  28
ATOM     28  C   UNL A   1      33.391  33.768  27.943  1.00  0.00     0.338 C 
ATOM     29  O   UNL A   1      32.886  34.532  28.747  1.00  0.00    -0.246 OA
BRANCH  28  30
ATOM     30  C   UNL A   1      34.619  33.009  28.245  1.00  0.00     0.060 A 
ATOM     31  C   UNL A   1      34.473  31.690  28.692  1.00  0.00     0.016 A 
ATOM     32  C   UNL A   1      35.877  33.611  28.202  1.00  0.00     0.016 A 
ATOM     33  C   UNL A   1      35.582  30.978  29.144  1.00  0.00     0.010 A 
ATOM     34  C   UNL A   1      36.989  32.898  28.666  1.00  0.00     0.010 A 
ATOM     35  C   UNL A   1      36.839  31.593  29.172  1.00  0.00    -0.014 A 
BRANCH  35  36
ATOM     36  C   UNL A   1      37.955  30.939  29.901  1.00  0.00     0.031 A 
ATOM     37  C   UNL A   1      38.214  31.333  31.330  1.00  0.00     0.074 A 
ATOM     38  C   UNL A   1      38.699  29.984  29.317  1.00  0.00     0.049 A 
ATOM     39  N   UNL A   1      39.150  30.932  32.151  1.00  0.00    -0.248 NA
ATOM     40  C   UNL A   1      37.288  32.320  31.905  1.00  0.00     0.031 C 
ATOM     41  C   UNL A   1      38.498  29.469  27.964  1.00  0.00     0.029 A 
ATOM     42  N   UNL A   1      39.775  29.278  29.791  1.00  0.00    -0.354 N 
ATOM     43  C   UNL A   1      38.929  31.618  33.341  1.00  0.00     0.074 A 
ATOM     44  C   UNL A   1      37.799  32.495  33.112  1.00  0.00     0.031 C 
ATOM     45  C   UNL A   1      39.423  28.525  27.718  1.00  0.00     0.029 A 
ATOM     46  C   UNL A   1      40.305  28.401  28.877  1.00  0.00     0.049 A 
ATOM     47  H   UNL A   1      40.134  29.389  30.702  1.00  0.00     0.167 HD
ATOM     48  C   UNL A   1      39.600  31.519  34.516  1.00  0.00     0.034 A 
ATOM     49  C   UNL A   1      41.392  27.606  28.960  1.00  0.00     0.034 A 
ATOM     50  C   UNL A   1      40.740  30.658  34.715  1.00  0.00     0.049 A 
ATOM     51  C   UNL A   1      42.205  27.606  30.233  1.00  0.00     0.074 A 
ATOM     52  C   UNL A   1      41.498  30.476  35.859  1.00  0.00     0.029 A 
ATOM     53  N   UNL A   1      41.301  29.844  33.738  1.00  0.00    -0.354 N 
ATOM     54  N   UNL A   1      41.994  28.264  31.350  1.00  0.00    -0.248 NA
ATOM     55  C   UNL A   1      43.400  26.754  30.254  1.00  0.00     0.031 C 
ATOM     56  C   UNL A   1      42.558  29.615  35.552  1.00  0.00     0.029 A 
ATOM     57  C   UNL A   1      42.416  29.190  34.241  1.00  0.00     0.049 A 
ATOM     58  H   UNL A   1      40.956  29.745  32.821  1.00  0.00     0.167 HD
ATOM     59  C   UNL A   1      43.010  27.873  32.220  1.00  0.00     0.074 A 
ATOM     60  C   UNL A   1      43.831  26.924  31.496  1.00  0.00     0.031 C 
ATOM     61  C   UNL A   1      43.235  28.253  33.504  1.00  0.00     0.034 A 
BRANCH  48  62
ATOM     62  C   UNL A   1      39.145  32.421  35.642  1.00  0.00     0.023 A 
ATOM     63  C   UNL A   1      39.553  33.765  35.723  1.00  0.00     0.031 A 
ATOM     64  C   UNL A   1      38.357  31.912  36.689  1.00  0.00     0.131 A 
ATOM     65  C   UNL A   1      39.263  34.518  36.871  1.00  0.00     0.055 A 
ATOM     66  C   UNL A   1      37.990  32.696  37.784  1.00  0.00     0.041 A 
ATOM     67  F   UNL A   1      37.954  30.631  36.681  1.00  0.00    -0.206 F 
ATOM     68  C   UNL A   1      38.463  34.001  37.892  1.00  0.00     0.022 A 
BRANCH  65  69
ATOM     69  S   UNL A   1      40.106  36.109  37.096  1.00  0.00     0.124 S 
ATOM     70  O   UNL A   1      39.925  36.727  35.785  1.00  0.00    -0.237 OA
ATOM     71  O   UNL A   1      39.359  36.709  38.195  1.00  0.00    -0.237 OA
ATOM     72  O   UNL A   1      41.482  35.727  37.410  1.00  0.00    -0.744 OA
ENDBRANCH  65  69
ENDBRANCH  48  62
BRANCH  49  73
ATOM     73  C   UNL A   1      41.795  26.758  27.804  1.00  0.00     0.023 A 
ATOM     74  C   UNL A   1      41.527  25.380  27.792  1.00  0.00     0.031 A 
ATOM     75  C   UNL A   1      42.488  27.306  26.709  1.00  0.00     0.131 A 
ATOM     76  C   UNL A   1      41.980  24.590  26.722  1.00  0.00     0.055 A 
ATOM     77  C   UNL A   1      42.895  26.524  25.627  1.00  0.00     0.041 A 
ATOM     78  F   UNL A   1      42.770  28.618  26.672  1.00  0.00    -0.206 F 
ATOM     79  C   UNL A   1      42.649  25.156  25.634  1.00  0.00     0.022 A 
BRANCH  76  80
ATOM     80  S   UNL A   1      41.733  22.795  26.805  1.00  0.00     0.124 S 
ATOM     81  O   UNL A   1      40.348  22.707  27.254  1.00  0.00    -0.237 OA
ATOM     82  O   UNL A   1      41.989  22.391  25.427  1.00  0.00    -0.237 OA
ATOM     83  O   UNL A   1      42.734  22.359  27.777  1.00  0.00    -0.744 OA
ENDBRANCH  76  80
ENDBRANCH  49  73
BRANCH  61  84
ATOM     84  C   UNL A   1      44.385  27.593  34.227  1.00  0.00     0.023 A 
ATOM     85  C   UNL A   1      44.223  26.397  34.950  1.00  0.00     0.031 A 
ATOM     86  C   UNL A   1      45.665  28.175  34.190  1.00  0.00     0.131 A 
ATOM     87  C   UNL A   1      45.312  25.850  35.647  1.00  0.00     0.055 A 
ATOM     88  C   UNL A   1      46.757  27.595  34.836  1.00  0.00     0.041 A 
ATOM     89  F   UNL A   1      45.876  29.318  33.518  1.00  0.00    -0.206 F 
ATOM     90  C   UNL A   1      46.582  26.431  35.580  1.00  0.00     0.022 A 
BRANCH  87  91
ATOM     91  S   UNL A   1      45.033  24.410  36.715  1.00  0.00     0.124 S 
ATOM     92  O   UNL A   1      46.355  24.201  37.295  1.00  0.00    -0.237 OA
ATOM     93  O   UNL A   1      44.004  24.895  37.631  1.00  0.00    -0.237 OA
ATOM     94  O   UNL A   1      44.593  23.372  35.785  1.00  0.00    -0.744 OA
ENDBRANCH  87  91
ENDBRANCH  61  84
ENDBRANCH  35  36
ENDBRANCH  28  30
ENDBRANCH  27  28
ENDBRANCH  26  27
ENDBRANCH  25  26
ENDBRANCH   1  25
TORSDOF 21
ENDMDL
MODEL 3
REMARK VINA RESULT:     -10.4      4.921      8.120
REMARK SMILES COc1ncccc1C(=O)N[C@@](C)(C(=O)OCCOCCOC(=O)c1ccc(-c2c3nc(c(-c4cc(S(=O)(=O)[O-])ccc4F)c4ccc([nH]4)c(-c4cc(S(=O)(=O)[O-])ccc4F)c4nc(c(-c5cc(S(=O)(=O)[O-])ccc5F)c5ccc2[nH]5)C=C4)C=C3)cc1)C(F)(F)F
REMARK SMILES IDX 19 1 18 2 17 3 16 4 14 5 15 6 12 7 13 8 11 9 9 10 10 11 8 13
REMARK SMILES IDX 3 14 4 15 5 16 7 17 6 18 2 19 1 20 88 21 89 22 90 23 91 24
REMARK SMILES IDX 20 25 21 26 22 27 23 28 24 29 25 30 26 31 87 32 27 33 86 34
REMARK SMILES IDX 28 35 29 36 30 37 80 38 31 39 85 40 79 41 81 42 32 43 84 44
REMARK SMILES IDX 78 45 77 46 33 48 65 49 45 50 64 51 46 52 49 53 63 54 82 55
REMARK SMILES IDX 47 56 48 57 62 59 83 60 50 61 34 62 35 63 43 64 36 65 42 66
REMARK SMILES IDX 44 67 41 68 37 69 38 70 39 71 40 72 66 73 67 74 75 75 68 76
REMARK SMILES IDX 74 77 76 78 73 79 69 80 70 81 71 82 72 83 51 84 52 85 60 86
REMARK SMILES IDX 53 87 59 88 61 89 58 90 54 91 55 92 56 93 57 94
REMARK H PARENT 11 12 81 47 49 58
REMARK Flexibility Score: inf
ROOT
ATOM      1  O   UNL A   1      36.603  21.042  25.785  1.00  0.00    -0.374 OA
ENDROOT
BRANCH   1   2
ATOM      2  C   UNL A   1      35.475  21.855  25.478  1.00  0.00     0.202 C 
BRANCH   2   3
ATOM      3  C   UNL A   1      34.222  21.704  26.354  1.00  0.00     0.261 C 
BRANCH   3   4
ATOM      4  O   UNL A   1      33.311  22.809  26.227  1.00  0.00    -0.461 OA
BRANCH   4   5
ATOM      5  C   UNL A   1      32.253  22.624  25.380  1.00  0.00     0.341 C 
ATOM      6  O   UNL A   1      31.886  21.526  24.981  1.00  0.00    -0.249 OA
BRANCH   5   7
ATOM      7  C   UNL A   1      31.624  23.962  24.937  1.00  0.00     0.231 C 
ATOM      8  C   UNL A   1      30.701  23.646  23.752  1.00  0.00     0.058 C 
BRANCH   7   9
ATOM      9  N   UNL A   1      32.718  24.872  24.412  1.00  0.00    -0.329 N 
ATOM     10  C   UNL A   1      33.172  26.161  24.391  1.00  0.00     0.257 C 
ATOM     11  O   UNL A   1      34.064  26.359  23.564  1.00  0.00    -0.269 OA
ATOM     12  H   UNL A   1      33.341  24.322  23.884  1.00  0.00     0.165 HD
BRANCH  10  13
ATOM     13  C   UNL A   1      32.773  27.278  25.277  1.00  0.00     0.101 A 
ATOM     14  C   UNL A   1      31.834  28.228  24.857  1.00  0.00     0.226 A 
ATOM     15  N   UNL A   1      31.457  29.315  25.586  1.00  0.00    -0.221 NA
ATOM     16  C   UNL A   1      32.063  29.499  26.772  1.00  0.00     0.115 A 
ATOM     17  C   UNL A   1      33.432  27.565  26.470  1.00  0.00     0.021 A 
ATOM     18  C   UNL A   1      33.056  28.664  27.249  1.00  0.00     0.021 A 
BRANCH  14  19
ATOM     19  O   UNL A   1      31.381  28.243  23.563  1.00  0.00    -0.480 OA
ATOM     20  C   UNL A   1      30.039  27.797  23.487  1.00  0.00     0.280 C 
ENDBRANCH  14  19
ENDBRANCH  10  13
ENDBRANCH   7   9
BRANCH   7  21
ATOM     21  C   UNL A   1      30.775  24.382  26.137  1.00  0.00     0.422 C 
ATOM     22  F   UNL A   1      30.012  25.468  25.877  1.00  0.00    -0.168 F 
ATOM     23  F   UNL A   1      29.944  23.379  26.516  1.00  0.00    -0.168 F 
ATOM     24  F   UNL A   1      31.514  24.673  27.233  1.00  0.00    -0.168 F 
ENDBRANCH   7  21
ENDBRANCH   5   7
ENDBRANCH   4   5
ENDBRANCH   3   4
ENDBRANCH   2   3
ENDBRANCH   1   2
BRANCH   1  25
ATOM     25  C   UNL A   1      37.225  20.329  24.714  1.00  0.00     0.202 C 
BRANCH  25  26
ATOM     26  C   UNL A   1      38.514  19.543  24.989  1.00  0.00     0.261 C 
BRANCH  26  27
ATOM     27  O   UNL A   1      39.029  19.740  26.320  1.00  0.00    -0.460 OA
BRANCH  27  28
ATOM     28  C   UNL A   1      40.353  20.041  26.366  1.00  0.00     0.338 C 
ATOM     29  O   UNL A   1      41.268  19.404  25.874  1.00  0.00    -0.246 OA
BRANCH  28  30
ATOM     30  C   UNL A   1      40.547  21.392  26.924  1.00  0.00     0.060 A 
ATOM     31  C   UNL A   1      39.909  22.459  26.280  1.00  0.00     0.016 A 
ATOM     32  C   UNL A   1      41.425  21.623  27.984  1.00  0.00     0.016 A 
ATOM     33  C   UNL A   1      40.181  23.770  26.663  1.00  0.00     0.010 A 
ATOM     34  C   UNL A   1      41.705  22.942  28.360  1.00  0.00     0.010 A 
ATOM     35  C   UNL A   1      41.112  24.021  27.677  1.00  0.00    -0.014 A 
BRANCH  35  36
ATOM     36  C   UNL A   1      41.602  25.405  27.893  1.00  0.00     0.031 A 
ATOM     37  C   UNL A   1      42.973  25.773  27.395  1.00  0.00     0.074 A 
ATOM     38  C   UNL A   1      40.826  26.330  28.486  1.00  0.00     0.049 A 
ATOM     39  N   UNL A   1      43.626  26.901  27.502  1.00  0.00    -0.248 NA
ATOM     40  C   UNL A   1      43.704  24.717  26.680  1.00  0.00     0.031 C 
ATOM     41  C   UNL A   1      39.457  26.111  28.946  1.00  0.00     0.029 A 
ATOM     42  N   UNL A   1      41.084  27.639  28.802  1.00  0.00    -0.354 N 
ATOM     43  C   UNL A   1      44.849  26.691  26.872  1.00  0.00     0.074 A 
ATOM     44  C   UNL A   1      44.859  25.312  26.429  1.00  0.00     0.031 C 
ATOM     45  C   UNL A   1      38.994  27.252  29.485  1.00  0.00     0.029 A 
ATOM     46  C   UNL A   1      40.046  28.266  29.447  1.00  0.00     0.049 A 
ATOM     47  H   UNL A   1      41.934  28.088  28.585  1.00  0.00     0.167 HD
ATOM     48  C   UNL A   1      45.864  27.570  26.673  1.00  0.00     0.034 A 
ATOM     49  C   UNL A   1      39.966  29.508  29.966  1.00  0.00     0.034 A 
ATOM     50  C   UNL A   1      45.845  28.933  27.145  1.00  0.00     0.049 A 
ATOM     51  C   UNL A   1      41.156  30.430  29.850  1.00  0.00     0.074 A 
ATOM     52  C   UNL A   1      46.814  29.911  27.003  1.00  0.00     0.029 A 
ATOM     53  N   UNL A   1      44.807  29.508  27.870  1.00  0.00    -0.354 N 
ATOM     54  N   UNL A   1      42.311  30.222  29.260  1.00  0.00    -0.248 NA
ATOM     55  C   UNL A   1      41.028  31.755  30.469  1.00  0.00     0.031 C 
ATOM     56  C   UNL A   1      46.397  31.048  27.706  1.00  0.00     0.029 A 
ATOM     57  C   UNL A   1      45.130  30.813  28.215  1.00  0.00     0.049 A 
ATOM     58  H   UNL A   1      43.965  29.055  28.104  1.00  0.00     0.167 HD
ATOM     59  C   UNL A   1      43.031  31.405  29.404  1.00  0.00     0.074 A 
ATOM     60  C   UNL A   1      42.180  32.321  30.136  1.00  0.00     0.031 C 
ATOM     61  C   UNL A   1      44.276  31.713  28.958  1.00  0.00     0.034 A 
BRANCH  48  62
ATOM     62  C   UNL A   1      47.096  27.044  25.971  1.00  0.00     0.023 A 
ATOM     63  C   UNL A   1      48.086  26.321  26.660  1.00  0.00     0.031 A 
ATOM     64  C   UNL A   1      47.322  27.335  24.614  1.00  0.00     0.131 A 
ATOM     65  C   UNL A   1      49.296  26.007  26.022  1.00  0.00     0.055 A 
ATOM     66  C   UNL A   1      48.489  26.936  23.959  1.00  0.00     0.041 A 
ATOM     67  F   UNL A   1      46.425  28.041  23.907  1.00  0.00    -0.206 F 
ATOM     68  C   UNL A   1      49.495  26.288  24.668  1.00  0.00     0.022 A 
BRANCH  65  69
ATOM     69  S   UNL A   1      50.676  25.405  27.035  1.00  0.00     0.124 S 
ATOM     70  O   UNL A   1      51.065  26.615  27.755  1.00  0.00    -0.237 OA
ATOM     71  O   UNL A   1      50.048  24.359  27.834  1.00  0.00    -0.237 OA
ATOM     72  O   UNL A   1      51.649  24.939  26.047  1.00  0.00    -0.744 OA
ENDBRANCH  65  69
ENDBRANCH  48  62
BRANCH  49  73
ATOM     73  C   UNL A   1      38.727  29.953  30.664  1.00  0.00     0.023 A 
ATOM     74  C   UNL A   1      37.751  30.705  29.991  1.00  0.00     0.031 A 
ATOM     75  C   UNL A   1      38.518  29.666  32.025  1.00  0.00     0.131 A 
ATOM     76  C   UNL A   1      36.626  31.173  30.690  1.00  0.00     0.055 A 
ATOM     77  C   UNL A   1      37.375  30.094  32.702  1.00  0.00     0.041 A 
ATOM     78  F   UNL A   1      39.422  28.951  32.715  1.00  0.00    -0.206 F 
ATOM     79  C   UNL A   1      36.426  30.861  32.036  1.00  0.00     0.022 A 
BRANCH  76  80
ATOM     80  S   UNL A   1      35.454  32.252  29.823  1.00  0.00     0.124 S 
ATOM     81  O   UNL A   1      35.109  31.441  28.660  1.00  0.00    -0.237 OA
ATOM     82  O   UNL A   1      34.405  32.423  30.821  1.00  0.00    -0.237 OA
ATOM     83  O   UNL A   1      36.242  33.449  29.537  1.00  0.00    -0.744 OA
ENDBRANCH  76  80
ENDBRANCH  49  73
BRANCH  61  84
ATOM     84  C   UNL A   1      44.768  33.120  29.200  1.00  0.00     0.023 A 
ATOM     85  C   UNL A   1      44.590  34.146  28.255  1.00  0.00     0.031 A 
ATOM     86  C   UNL A   1      45.427  33.436  30.402  1.00  0.00     0.131 A 
ATOM     87  C   UNL A   1      45.110  35.426  28.507  1.00  0.00     0.055 A 
ATOM     88  C   UNL A   1      45.890  34.725  30.672  1.00  0.00     0.041 A 
ATOM     89  F   UNL A   1      45.628  32.495  31.339  1.00  0.00    -0.206 F 
ATOM     90  C   UNL A   1      45.743  35.726  29.717  1.00  0.00     0.022 A 
BRANCH  87  91
ATOM     91  S   UNL A   1      45.025  36.678  27.197  1.00  0.00     0.124 S 
ATOM     92  O   UNL A   1      45.868  36.091  26.161  1.00  0.00    -0.237 OA
ATOM     93  O   UNL A   1      43.596  36.726  26.903  1.00  0.00    -0.237 OA
ATOM     94  O   UNL A   1      45.567  37.877  27.831  1.00  0.00    -0.744 OA
ENDBRANCH  87  91
ENDBRANCH  61  84
ENDBRANCH  35  36
ENDBRANCH  28  30
ENDBRANCH  27  28
ENDBRANCH  26  27
ENDBRANCH  25  26
ENDBRANCH   1  25
TORSDOF 21
ENDMDL
