MODEL 1
REMARK VINA RESULT:     -11.0      0.000      0.000
REMARK SMILES CCC[C@]1(C(=O)OCCOCCOC(=O)c2ccc(-c3c4nc(c(-c5cc(S(=O)(=O)[O-])ccc5F)c5ccc([nH]5)c(-c5cc(S(=O)(=O)[O-])ccc5F)c5nc(c(-c6cc(S(=O)(=O)[O-])ccc6F)c6ccc3[nH]6)C=C5)C=C4)cc2)CCN(C(=O)N[C@H]2CCOC2)C1
REMARK SMILES IDX 11 1 10 2 9 3 8 4 7 5 5 6 6 7 4 8 79 9 90 10 80 11 81 12
REMARK SMILES IDX 3 13 2 14 1 15 82 16 83 17 84 18 85 20 86 21 89 22 87 23
REMARK SMILES IDX 88 24 12 25 13 26 14 27 15 28 16 29 17 30 78 31 18 32 77 33
REMARK SMILES IDX 19 34 20 35 21 36 71 37 22 38 76 39 70 40 72 41 23 42 75 43
REMARK SMILES IDX 69 44 68 45 24 47 56 48 36 49 55 50 37 51 40 52 54 53 73 54
REMARK SMILES IDX 38 55 39 56 53 58 74 59 41 60 25 61 26 62 34 63 27 64 33 65
REMARK SMILES IDX 35 66 32 67 28 68 29 69 30 70 31 71 57 72 58 73 66 74 59 75
REMARK SMILES IDX 65 76 67 77 64 78 60 79 61 80 62 81 63 82 42 83 43 84 51 85
REMARK SMILES IDX 44 86 50 87 52 88 49 89 45 90 46 91 47 92 48 93
REMARK H PARENT 84 19 72 46 40 57
REMARK Flexibility Score: inf
ROOT
ATOM      1  C   UNL A   1      36.145  20.069  24.974  1.00  0.00     0.202 C 
ENDROOT
BRANCH   1   2
ATOM      2  O   UNL A   1      35.647  21.387  24.759  1.00  0.00    -0.374 OA
BRANCH   2   3
ATOM      3  C   UNL A   1      34.228  21.557  24.689  1.00  0.00     0.202 C 
BRANCH   3   4
ATOM      4  C   UNL A   1      33.499  21.661  26.031  1.00  0.00     0.261 C 
BRANCH   4   5
ATOM      5  O   UNL A   1      33.341  23.046  26.382  1.00  0.00    -0.463 OA
BRANCH   5   6
ATOM      6  C   UNL A   1      32.190  23.642  25.986  1.00  0.00     0.314 C 
ATOM      7  O   UNL A   1      31.083  23.121  26.054  1.00  0.00    -0.252 OA
BRANCH   6   8
ATOM      8  C   UNL A   1      32.416  25.065  25.465  1.00  0.00     0.087 C 
ATOM      9  C   UNL A   1      33.889  25.424  25.156  1.00  0.00     0.042 C 
ATOM     10  C   UNL A   1      31.799  25.095  24.069  1.00  0.00     0.140 C 
ATOM     11  C   UNL A   1      33.827  26.359  23.964  1.00  0.00     0.122 C 
ATOM     12  N   UNL A   1      32.565  26.077  23.310  1.00  0.00    -0.324 N 
BRANCH   8  13
ATOM     13  C   UNL A   1      31.819  26.028  26.537  1.00  0.00     0.020 C 
BRANCH  13  14
ATOM     14  C   UNL A   1      32.423  27.414  26.782  1.00  0.00    -0.002 C 
ATOM     15  C   UNL A   1      31.565  28.330  27.642  1.00  0.00     0.004 C 
ENDBRANCH  13  14
ENDBRANCH   8  13
BRANCH  12  16
ATOM     16  C   UNL A   1      32.195  26.375  22.033  1.00  0.00     0.317 C 
ATOM     17  O   UNL A   1      32.445  25.626  21.088  1.00  0.00    -0.249 OA
ATOM     18  N   UNL A   1      31.502  27.505  21.759  1.00  0.00    -0.333 N 
ATOM     19  H   UNL A   1      31.546  27.806  20.823  1.00  0.00     0.165 HD
BRANCH  18  20
ATOM     20  C   UNL A   1      30.705  28.338  22.633  1.00  0.00     0.112 C 
ATOM     21  C   UNL A   1      30.258  29.647  22.019  1.00  0.00     0.056 C 
ATOM     22  C   UNL A   1      29.354  27.732  23.005  1.00  0.00     0.185 C 
ATOM     23  C   UNL A   1      29.157  30.044  22.982  1.00  0.00     0.162 C 
ATOM     24  O   UNL A   1      28.507  28.828  23.387  1.00  0.00    -0.379 OA
ENDBRANCH  18  20
ENDBRANCH  12  16
ENDBRANCH   6   8
ENDBRANCH   5   6
ENDBRANCH   4   5
ENDBRANCH   3   4
ENDBRANCH   2   3
ENDBRANCH   1   2
BRANCH   1  25
ATOM     25  C   UNL A   1      37.663  19.864  24.868  1.00  0.00     0.261 C 
BRANCH  25  26
ATOM     26  O   UNL A   1      38.416  21.035  25.231  1.00  0.00    -0.460 OA
BRANCH  26  27
ATOM     27  C   UNL A   1      39.462  20.783  26.055  1.00  0.00     0.338 C 
ATOM     28  O   UNL A   1      40.115  19.745  26.109  1.00  0.00    -0.246 OA
BRANCH  27  29
ATOM     29  C   UNL A   1      39.870  21.997  26.783  1.00  0.00     0.060 A 
ATOM     30  C   UNL A   1      39.261  23.197  26.396  1.00  0.00     0.016 A 
ATOM     31  C   UNL A   1      40.888  21.994  27.739  1.00  0.00     0.016 A 
ATOM     32  C   UNL A   1      39.715  24.407  26.913  1.00  0.00     0.010 A 
ATOM     33  C   UNL A   1      41.345  23.215  28.256  1.00  0.00     0.010 A 
ATOM     34  C   UNL A   1      40.791  24.430  27.809  1.00  0.00    -0.014 A 
BRANCH  34  35
ATOM     35  C   UNL A   1      41.412  25.741  28.126  1.00  0.00     0.031 A 
ATOM     36  C   UNL A   1      42.799  26.037  27.615  1.00  0.00     0.074 A 
ATOM     37  C   UNL A   1      40.711  26.694  28.768  1.00  0.00     0.049 A 
ATOM     38  N   UNL A   1      43.490  27.145  27.679  1.00  0.00    -0.248 NA
ATOM     39  C   UNL A   1      43.495  24.931  26.941  1.00  0.00     0.031 C 
ATOM     40  C   UNL A   1      39.351  26.533  29.283  1.00  0.00     0.029 A 
ATOM     41  N   UNL A   1      41.040  27.989  29.081  1.00  0.00    -0.354 N 
ATOM     42  C   UNL A   1      44.701  26.875  27.049  1.00  0.00     0.074 A 
ATOM     43  C   UNL A   1      44.665  25.483  26.655  1.00  0.00     0.031 C 
ATOM     44  C   UNL A   1      38.959  27.691  29.842  1.00  0.00     0.029 A 
ATOM     45  C   UNL A   1      40.044  28.666  29.745  1.00  0.00     0.049 A 
ATOM     46  H   UNL A   1      41.907  28.395  28.852  1.00  0.00     0.167 HD
ATOM     47  C   UNL A   1      45.740  27.713  26.808  1.00  0.00     0.034 A 
ATOM     48  C   UNL A   1      40.013  29.926  30.222  1.00  0.00     0.034 A 
ATOM     49  C   UNL A   1      45.765  29.098  27.217  1.00  0.00     0.049 A 
ATOM     50  C   UNL A   1      41.199  30.827  29.988  1.00  0.00     0.074 A 
ATOM     51  C   UNL A   1      46.759  30.041  27.011  1.00  0.00     0.029 A 
ATOM     52  N   UNL A   1      44.757  29.738  27.927  1.00  0.00    -0.354 N 
ATOM     53  N   UNL A   1      42.327  30.567  29.365  1.00  0.00    -0.248 NA
ATOM     54  C   UNL A   1      41.100  32.199  30.501  1.00  0.00     0.031 C 
ATOM     55  C   UNL A   1      46.383  31.224  27.657  1.00  0.00     0.029 A 
ATOM     56  C   UNL A   1      45.119  31.051  28.197  1.00  0.00     0.049 A 
ATOM     57  H   UNL A   1      43.908  29.321  28.200  1.00  0.00     0.167 HD
ATOM     58  C   UNL A   1      43.057  31.753  29.388  1.00  0.00     0.074 A 
ATOM     59  C   UNL A   1      42.232  32.732  30.067  1.00  0.00     0.031 C 
ATOM     60  C   UNL A   1      44.295  32.013  28.893  1.00  0.00     0.034 A 
BRANCH  47  61
ATOM     61  C   UNL A   1      46.953  27.133  26.118  1.00  0.00     0.023 A 
ATOM     62  C   UNL A   1      47.953  26.441  26.826  1.00  0.00     0.031 A 
ATOM     63  C   UNL A   1      47.132  27.308  24.734  1.00  0.00     0.131 A 
ATOM     64  C   UNL A   1      49.114  26.014  26.163  1.00  0.00     0.055 A 
ATOM     65  C   UNL A   1      48.252  26.810  24.066  1.00  0.00     0.041 A 
ATOM     66  F   UNL A   1      46.225  27.980  24.008  1.00  0.00    -0.206 F 
ATOM     67  C   UNL A   1      49.259  26.171  24.784  1.00  0.00     0.022 A 
BRANCH  64  68
ATOM     68  S   UNL A   1      50.498  25.383  27.152  1.00  0.00     0.124 S 
ATOM     69  O   UNL A   1      50.854  26.556  27.945  1.00  0.00    -0.237 OA
ATOM     70  O   UNL A   1      49.887  24.278  27.881  1.00  0.00    -0.237 OA
ATOM     71  O   UNL A   1      51.488  24.996  26.149  1.00  0.00    -0.744 OA
ENDBRANCH  64  68
ENDBRANCH  47  61
BRANCH  48  72
ATOM     72  C   UNL A   1      38.830  30.410  30.993  1.00  0.00     0.023 A 
ATOM     73  C   UNL A   1      37.743  31.029  30.357  1.00  0.00     0.031 A 
ATOM     74  C   UNL A   1      38.799  30.299  32.395  1.00  0.00     0.131 A 
ATOM     75  C   UNL A   1      36.690  31.554  31.125  1.00  0.00     0.055 A 
ATOM     76  C   UNL A   1      37.726  30.776  33.149  1.00  0.00     0.041 A 
ATOM     77  F   UNL A   1      39.813  29.714  33.052  1.00  0.00    -0.206 F 
ATOM     78  C   UNL A   1      36.668  31.420  32.515  1.00  0.00     0.022 A 
BRANCH  75  79
ATOM     79  S   UNL A   1      35.381  32.488  30.285  1.00  0.00     0.124 S 
ATOM     80  O   UNL A   1      34.355  32.560  31.319  1.00  0.00    -0.237 OA
ATOM     81  O   UNL A   1      36.060  33.740  29.967  1.00  0.00    -0.237 OA
ATOM     82  O   UNL A   1      35.051  31.651  29.134  1.00  0.00    -0.744 OA
ENDBRANCH  75  79
ENDBRANCH  48  72
BRANCH  60  83
ATOM     83  C   UNL A   1      44.807  33.428  29.039  1.00  0.00     0.023 A 
ATOM     84  C   UNL A   1      45.562  33.831  30.155  1.00  0.00     0.031 A 
ATOM     85  C   UNL A   1      44.504  34.395  28.064  1.00  0.00     0.131 A 
ATOM     86  C   UNL A   1      45.923  35.179  30.307  1.00  0.00     0.055 A 
ATOM     87  C   UNL A   1      44.924  35.720  28.187  1.00  0.00     0.041 A 
ATOM     88  F   UNL A   1      43.787  34.070  26.977  1.00  0.00    -0.206 F 
ATOM     89  C   UNL A   1      45.622  36.123  29.323  1.00  0.00     0.022 A 
BRANCH  86  90
ATOM     90  S   UNL A   1      46.681  35.706  31.869  1.00  0.00     0.124 S 
ATOM     91  O   UNL A   1      45.709  35.239  32.851  1.00  0.00    -0.237 OA
ATOM     92  O   UNL A   1      47.957  35.000  31.848  1.00  0.00    -0.237 OA
ATOM     93  O   UNL A   1      46.774  37.159  31.732  1.00  0.00    -0.744 OA
ENDBRANCH  86  90
ENDBRANCH  60  83
ENDBRANCH  34  35
ENDBRANCH  27  29
ENDBRANCH  26  27
ENDBRANCH  25  26
ENDBRANCH   1  25
TORSDOF 21
ENDMDL
MODEL 2
REMARK VINA RESULT:     -10.8      4.477     10.064
REMARK SMILES CCC[C@]1(C(=O)OCCOCCOC(=O)c2ccc(-c3c4nc(c(-c5cc(S(=O)(=O)[O-])ccc5F)c5ccc([nH]5)c(-c5cc(S(=O)(=O)[O-])ccc5F)c5nc(c(-c6cc(S(=O)(=O)[O-])ccc6F)c6ccc3[nH]6)C=C5)C=C4)cc2)CCN(C(=O)N[C@H]2CCOC2)C1
REMARK SMILES IDX 11 1 10 2 9 3 8 4 7 5 5 6 6 7 4 8 79 9 90 10 80 11 81 12
REMARK SMILES IDX 3 13 2 14 1 15 82 16 83 17 84 18 85 20 86 21 89 22 87 23
REMARK SMILES IDX 88 24 12 25 13 26 14 27 15 28 16 29 17 30 78 31 18 32 77 33
REMARK SMILES IDX 19 34 20 35 21 36 71 37 22 38 76 39 70 40 72 41 23 42 75 43
REMARK SMILES IDX 69 44 68 45 24 47 56 48 36 49 55 50 37 51 40 52 54 53 73 54
REMARK SMILES IDX 38 55 39 56 53 58 74 59 41 60 25 61 26 62 34 63 27 64 33 65
REMARK SMILES IDX 35 66 32 67 28 68 29 69 30 70 31 71 57 72 58 73 66 74 59 75
REMARK SMILES IDX 65 76 67 77 64 78 60 79 61 80 62 81 63 82 42 83 43 84 51 85
REMARK SMILES IDX 44 86 50 87 52 88 49 89 45 90 46 91 47 92 48 93
REMARK H PARENT 84 19 72 46 40 57
REMARK Flexibility Score: inf
ROOT
ATOM      1  C   UNL A   1      31.161  30.567  25.130  1.00  0.00     0.202 C 
ENDROOT
BRANCH   1   2
ATOM      2  O   UNL A   1      30.965  29.173  24.906  1.00  0.00    -0.374 OA
BRANCH   2   3
ATOM      3  C   UNL A   1      30.350  28.778  23.675  1.00  0.00     0.202 C 
BRANCH   3   4
ATOM      4  C   UNL A   1      29.560  27.469  23.712  1.00  0.00     0.261 C 
BRANCH   4   5
ATOM      5  O   UNL A   1      30.189  26.557  24.627  1.00  0.00    -0.463 OA
BRANCH   5   6
ATOM      6  C   UNL A   1      30.608  25.376  24.113  1.00  0.00     0.314 C 
ATOM      7  O   UNL A   1      30.123  24.844  23.120  1.00  0.00    -0.252 OA
BRANCH   6   8
ATOM      8  C   UNL A   1      31.783  24.779  24.894  1.00  0.00     0.087 C 
ATOM      9  C   UNL A   1      31.540  24.602  26.411  1.00  0.00     0.042 C 
ATOM     10  C   UNL A   1      31.890  23.328  24.433  1.00  0.00     0.140 C 
ATOM     11  C   UNL A   1      32.299  23.345  26.789  1.00  0.00     0.122 C 
ATOM     12  N   UNL A   1      32.434  22.585  25.563  1.00  0.00    -0.324 N 
BRANCH   8  13
ATOM     13  C   UNL A   1      33.007  25.711  24.629  1.00  0.00     0.020 C 
BRANCH  13  14
ATOM     14  C   UNL A   1      33.468  26.730  25.675  1.00  0.00    -0.002 C 
ATOM     15  C   UNL A   1      34.031  28.018  25.093  1.00  0.00     0.004 C 
ENDBRANCH  13  14
ENDBRANCH   8  13
BRANCH  12  16
ATOM     16  C   UNL A   1      32.710  21.258  25.425  1.00  0.00     0.317 C 
ATOM     17  O   UNL A   1      31.831  20.428  25.191  1.00  0.00    -0.249 OA
ATOM     18  N   UNL A   1      33.983  20.803  25.505  1.00  0.00    -0.333 N 
ATOM     19  H   UNL A   1      34.072  19.844  25.708  1.00  0.00     0.165 HD
BRANCH  18  20
ATOM     20  C   UNL A   1      35.232  21.513  25.338  1.00  0.00     0.112 C 
ATOM     21  C   UNL A   1      36.438  20.621  25.127  1.00  0.00     0.056 C 
ATOM     22  C   UNL A   1      35.296  22.367  24.075  1.00  0.00     0.185 C 
ATOM     23  C   UNL A   1      37.435  21.628  24.586  1.00  0.00     0.162 C 
ATOM     24  O   UNL A   1      36.690  22.551  23.776  1.00  0.00    -0.379 OA
ENDBRANCH  18  20
ENDBRANCH  12  16
ENDBRANCH   6   8
ENDBRANCH   5   6
ENDBRANCH   4   5
ENDBRANCH   3   4
ENDBRANCH   2   3
ENDBRANCH   1   2
BRANCH   1  25
ATOM     25  C   UNL A   1      31.524  31.007  26.555  1.00  0.00     0.261 C 
BRANCH  25  26
ATOM     26  O   UNL A   1      32.902  30.761  26.885  1.00  0.00    -0.460 OA
BRANCH  26  27
ATOM     27  C   UNL A   1      33.537  31.830  27.428  1.00  0.00     0.338 C 
ATOM     28  O   UNL A   1      33.026  32.900  27.742  1.00  0.00    -0.246 OA
BRANCH  27  29
ATOM     29  C   UNL A   1      34.927  31.495  27.786  1.00  0.00     0.060 A 
ATOM     30  C   UNL A   1      35.225  30.138  27.956  1.00  0.00     0.016 A 
ATOM     31  C   UNL A   1      35.889  32.472  28.054  1.00  0.00     0.016 A 
ATOM     32  C   UNL A   1      36.464  29.754  28.459  1.00  0.00     0.010 A 
ATOM     33  C   UNL A   1      37.136  32.082  28.565  1.00  0.00     0.010 A 
ATOM     34  C   UNL A   1      37.411  30.724  28.813  1.00  0.00    -0.014 A 
BRANCH  34  35
ATOM     35  C   UNL A   1      38.602  30.292  29.589  1.00  0.00     0.031 A 
ATOM     36  C   UNL A   1      38.751  30.751  31.016  1.00  0.00     0.074 A 
ATOM     37  C   UNL A   1      39.480  29.418  29.064  1.00  0.00     0.049 A 
ATOM     38  N   UNL A   1      39.646  30.415  31.908  1.00  0.00    -0.248 NA
ATOM     39  C   UNL A   1      37.754  31.718  31.498  1.00  0.00     0.031 C 
ATOM     40  C   UNL A   1      39.423  28.882  27.704  1.00  0.00     0.029 A 
ATOM     41  N   UNL A   1      40.583  28.817  29.617  1.00  0.00    -0.354 N 
ATOM     42  C   UNL A   1      39.320  31.124  33.061  1.00  0.00     0.074 A 
ATOM     43  C   UNL A   1      38.173  31.944  32.735  1.00  0.00     0.031 C 
ATOM     44  C   UNL A   1      40.442  28.023  27.532  1.00  0.00     0.029 A 
ATOM     45  C   UNL A   1      41.237  27.965  28.757  1.00  0.00     0.049 A 
ATOM     46  H   UNL A   1      40.878  28.980  30.541  1.00  0.00     0.167 HD
ATOM     47  C   UNL A   1      39.911  31.083  34.280  1.00  0.00     0.034 A 
ATOM     48  C   UNL A   1      42.350  27.227  28.938  1.00  0.00     0.034 A 
ATOM     49  C   UNL A   1      41.063  30.266  34.588  1.00  0.00     0.049 A 
ATOM     50  C   UNL A   1      43.022  27.234  30.288  1.00  0.00     0.074 A 
ATOM     51  C   UNL A   1      41.732  30.136  35.793  1.00  0.00     0.029 A 
ATOM     52  N   UNL A   1      41.725  29.450  33.679  1.00  0.00    -0.354 N 
ATOM     53  N   UNL A   1      42.686  27.888  31.378  1.00  0.00    -0.248 NA
ATOM     54  C   UNL A   1      44.212  26.388  30.439  1.00  0.00     0.031 C 
ATOM     55  C   UNL A   1      42.838  29.301  35.594  1.00  0.00     0.029 A 
ATOM     56  C   UNL A   1      42.815  28.841  34.287  1.00  0.00     0.049 A 
ATOM     57  H   UNL A   1      41.461  29.321  32.740  1.00  0.00     0.167 HD
ATOM     58  C   UNL A   1      43.607  27.506  32.350  1.00  0.00     0.074 A 
ATOM     59  C   UNL A   1      44.498  26.551  31.722  1.00  0.00     0.031 C 
ATOM     60  C   UNL A   1      43.709  27.905  33.645  1.00  0.00     0.034 A 
BRANCH  47  61
ATOM     61  C   UNL A   1      39.353  31.989  35.353  1.00  0.00     0.023 A 
ATOM     62  C   UNL A   1      39.771  33.326  35.489  1.00  0.00     0.031 A 
ATOM     63  C   UNL A   1      38.414  31.499  36.278  1.00  0.00     0.131 A 
ATOM     64  C   UNL A   1      39.307  34.100  36.565  1.00  0.00     0.055 A 
ATOM     65  C   UNL A   1      37.895  32.298  37.297  1.00  0.00     0.041 A 
ATOM     66  F   UNL A   1      37.994  30.225  36.214  1.00  0.00    -0.206 F 
ATOM     67  C   UNL A   1      38.353  33.603  37.455  1.00  0.00     0.022 A 
BRANCH  64  68
ATOM     68  S   UNL A   1      40.077  35.713  36.873  1.00  0.00     0.124 S 
ATOM     69  O   UNL A   1      39.508  36.071  38.169  1.00  0.00    -0.237 OA
ATOM     70  O   UNL A   1      41.499  35.390  36.865  1.00  0.00    -0.237 OA
ATOM     71  O   UNL A   1      39.618  36.532  35.752  1.00  0.00    -0.744 OA
ENDBRANCH  64  68
ENDBRANCH  47  61
BRANCH  48  72
ATOM     72  C   UNL A   1      42.918  26.435  27.808  1.00  0.00     0.023 A 
ATOM     73  C   UNL A   1      42.412  25.171  27.469  1.00  0.00     0.031 A 
ATOM     74  C   UNL A   1      44.020  26.921  27.081  1.00  0.00     0.131 A 
ATOM     75  C   UNL A   1      43.033  24.416  26.460  1.00  0.00     0.055 A 
ATOM     76  C   UNL A   1      44.601  26.190  26.045  1.00  0.00     0.041 A 
ATOM     77  F   UNL A   1      44.543  28.125  27.364  1.00  0.00    -0.206 F 
ATOM     78  C   UNL A   1      44.115  24.922  25.737  1.00  0.00     0.022 A 
BRANCH  75  79
ATOM     79  S   UNL A   1      42.454  22.724  26.157  1.00  0.00     0.124 S 
ATOM     80  O   UNL A   1      41.011  22.869  26.319  1.00  0.00    -0.237 OA
ATOM     81  O   UNL A   1      42.926  22.481  24.798  1.00  0.00    -0.237 OA
ATOM     82  O   UNL A   1      43.124  21.944  27.196  1.00  0.00    -0.744 OA
ENDBRANCH  75  79
ENDBRANCH  48  72
BRANCH  60  83
ATOM     83  C   UNL A   1      44.805  27.272  34.471  1.00  0.00     0.023 A 
ATOM     84  C   UNL A   1      44.646  26.009  35.070  1.00  0.00     0.031 A 
ATOM     85  C   UNL A   1      46.012  27.959  34.693  1.00  0.00     0.131 A 
ATOM     86  C   UNL A   1      45.643  25.506  35.920  1.00  0.00     0.055 A 
ATOM     87  C   UNL A   1      47.029  27.423  35.485  1.00  0.00     0.041 A 
ATOM     88  F   UNL A   1      46.221  29.168  34.149  1.00  0.00    -0.206 F 
ATOM     89  C   UNL A   1      46.839  26.198  36.119  1.00  0.00     0.022 A 
BRANCH  86  90
ATOM     90  S   UNL A   1      45.302  23.994  36.863  1.00  0.00     0.124 S 
ATOM     91  O   UNL A   1      44.744  24.527  38.101  1.00  0.00    -0.237 OA
ATOM     92  O   UNL A   1      44.365  23.290  35.993  1.00  0.00    -0.237 OA
ATOM     93  O   UNL A   1      46.616  23.367  36.994  1.00  0.00    -0.744 OA
ENDBRANCH  86  90
ENDBRANCH  60  83
ENDBRANCH  34  35
ENDBRANCH  27  29
ENDBRANCH  26  27
ENDBRANCH  25  26
ENDBRANCH   1  25
TORSDOF 21
ENDMDL
MODEL 3
REMARK VINA RESULT:     -10.8      4.756     10.198
REMARK SMILES CCC[C@]1(C(=O)OCCOCCOC(=O)c2ccc(-c3c4nc(c(-c5cc(S(=O)(=O)[O-])ccc5F)c5ccc([nH]5)c(-c5cc(S(=O)(=O)[O-])ccc5F)c5nc(c(-c6cc(S(=O)(=O)[O-])ccc6F)c6ccc3[nH]6)C=C5)C=C4)cc2)CCN(C(=O)N[C@H]2CCOC2)C1
REMARK SMILES IDX 11 1 10 2 9 3 8 4 7 5 5 6 6 7 4 8 79 9 90 10 80 11 81 12
REMARK SMILES IDX 3 13 2 14 1 15 82 16 83 17 84 18 85 20 86 21 89 22 87 23
REMARK SMILES IDX 88 24 12 25 13 26 14 27 15 28 16 29 17 30 78 31 18 32 77 33
REMARK SMILES IDX 19 34 20 35 21 36 71 37 22 38 76 39 70 40 72 41 23 42 75 43
REMARK SMILES IDX 69 44 68 45 24 47 56 48 36 49 55 50 37 51 40 52 54 53 73 54
REMARK SMILES IDX 38 55 39 56 53 58 74 59 41 60 25 61 26 62 34 63 27 64 33 65
REMARK SMILES IDX 35 66 32 67 28 68 29 69 30 70 31 71 57 72 58 73 66 74 59 75
REMARK SMILES IDX 65 76 67 77 64 78 60 79 61 80 62 81 63 82 42 83 43 84 51 85
REMARK SMILES IDX 44 86 50 87 52 88 49 89 45 90 46 91 47 92 48 93
REMARK H PARENT 84 19 72 46 40 57
REMARK Flexibility Score: inf
ROOT
ATOM      1  C   UNL A   1      31.969  29.719  25.573  1.00  0.00     0.202 C 
ENDROOT
BRANCH   1   2
ATOM      2  O   UNL A   1      31.035  29.464  24.527  1.00  0.00    -0.374 OA
BRANCH   2   3
ATOM      3  C   UNL A   1      30.717  28.098  24.240  1.00  0.00     0.202 C 
BRANCH   3   4
ATOM      4  C   UNL A   1      31.185  27.070  25.272  1.00  0.00     0.261 C 
BRANCH   4   5
ATOM      5  O   UNL A   1      31.816  25.969  24.597  1.00  0.00    -0.463 OA
BRANCH   5   6
ATOM      6  C   UNL A   1      33.157  25.855  24.750  1.00  0.00     0.314 C 
ATOM      7  O   UNL A   1      33.900  26.783  25.049  1.00  0.00    -0.252 OA
BRANCH   6   8
ATOM      8  C   UNL A   1      33.652  24.421  24.534  1.00  0.00     0.087 C 
ATOM      9  C   UNL A   1      35.170  24.212  24.741  1.00  0.00     0.042 C 
ATOM     10  C   UNL A   1      33.074  23.607  25.688  1.00  0.00     0.140 C 
ATOM     11  C   UNL A   1      35.302  22.819  25.324  1.00  0.00     0.122 C 
ATOM     12  N   UNL A   1      34.021  22.526  25.934  1.00  0.00    -0.324 N 
BRANCH   8  13
ATOM     13  C   UNL A   1      33.226  24.021  23.087  1.00  0.00     0.020 C 
BRANCH  13  14
ATOM     14  C   UNL A   1      33.332  22.573  22.601  1.00  0.00    -0.002 C 
ATOM     15  C   UNL A   1      32.033  21.786  22.679  1.00  0.00     0.004 C 
ENDBRANCH  13  14
ENDBRANCH   8  13
BRANCH  12  16
ATOM     16  C   UNL A   1      33.734  21.583  26.874  1.00  0.00     0.317 C 
ATOM     17  O   UNL A   1      33.543  21.875  28.056  1.00  0.00    -0.249 OA
ATOM     18  N   UNL A   1      33.613  20.278  26.533  1.00  0.00    -0.333 N 
ATOM     19  H   UNL A   1      33.720  19.640  27.275  1.00  0.00     0.165 HD
BRANCH  18  20
ATOM     20  C   UNL A   1      33.351  19.679  25.243  1.00  0.00     0.112 C 
ATOM     21  C   UNL A   1      34.494  18.855  24.689  1.00  0.00     0.056 C 
ATOM     22  C   UNL A   1      32.239  18.635  25.258  1.00  0.00     0.185 C 
ATOM     23  C   UNL A   1      33.772  18.071  23.610  1.00  0.00     0.162 C 
ATOM     24  O   UNL A   1      32.458  17.789  24.117  1.00  0.00    -0.379 OA
ENDBRANCH  18  20
ENDBRANCH  12  16
ENDBRANCH   6   8
ENDBRANCH   5   6
ENDBRANCH   4   5
ENDBRANCH   3   4
ENDBRANCH   2   3
ENDBRANCH   1   2
BRANCH   1  25
ATOM     25  C   UNL A   1      31.816  31.035  26.348  1.00  0.00     0.261 C 
BRANCH  25  26
ATOM     26  O   UNL A   1      32.606  31.076  27.549  1.00  0.00    -0.460 OA
BRANCH  26  27
ATOM     27  C   UNL A   1      33.429  32.151  27.632  1.00  0.00     0.338 C 
ATOM     28  O   UNL A   1      33.089  33.329  27.647  1.00  0.00    -0.246 OA
BRANCH  27  29
ATOM     29  C   UNL A   1      34.818  31.737  27.895  1.00  0.00     0.060 A 
ATOM     30  C   UNL A   1      35.041  30.368  28.090  1.00  0.00     0.016 A 
ATOM     31  C   UNL A   1      35.857  32.656  28.056  1.00  0.00     0.016 A 
ATOM     32  C   UNL A   1      36.288  29.920  28.513  1.00  0.00     0.010 A 
ATOM     33  C   UNL A   1      37.113  32.200  28.485  1.00  0.00     0.010 A 
ATOM     34  C   UNL A   1      37.319  30.835  28.760  1.00  0.00    -0.014 A 
BRANCH  34  35
ATOM     35  C   UNL A   1      38.537  30.350  29.459  1.00  0.00     0.031 A 
ATOM     36  C   UNL A   1      38.787  30.784  30.880  1.00  0.00     0.074 A 
ATOM     37  C   UNL A   1      39.350  29.451  28.874  1.00  0.00     0.049 A 
ATOM     38  N   UNL A   1      39.720  30.404  31.714  1.00  0.00    -0.248 NA
ATOM     39  C   UNL A   1      37.858  31.781  31.431  1.00  0.00     0.031 C 
ATOM     40  C   UNL A   1      39.192  28.935  27.514  1.00  0.00     0.029 A 
ATOM     41  N   UNL A   1      40.460  28.803  29.353  1.00  0.00    -0.354 N 
ATOM     42  C   UNL A   1      39.489  31.109  32.891  1.00  0.00     0.074 A 
ATOM     43  C   UNL A   1      38.357  31.975  32.643  1.00  0.00     0.031 C 
ATOM     44  C   UNL A   1      40.166  28.041  27.272  1.00  0.00     0.029 A 
ATOM     45  C   UNL A   1      41.029  27.938  28.447  1.00  0.00     0.049 A 
ATOM     46  H   UNL A   1      40.815  28.943  30.261  1.00  0.00     0.167 HD
ATOM     47  C   UNL A   1      40.150  31.030  34.073  1.00  0.00     0.034 A 
ATOM     48  C   UNL A   1      42.122  27.157  28.554  1.00  0.00     0.034 A 
ATOM     49  C   UNL A   1      41.286  30.168  34.302  1.00  0.00     0.049 A 
ATOM     50  C   UNL A   1      42.873  27.122  29.862  1.00  0.00     0.074 A 
ATOM     51  C   UNL A   1      42.020  29.997  35.465  1.00  0.00     0.029 A 
ATOM     52  N   UNL A   1      41.862  29.339  33.348  1.00  0.00    -0.354 N 
ATOM     53  N   UNL A   1      42.626  27.773  30.976  1.00  0.00    -0.248 NA
ATOM     54  C   UNL A   1      44.037  26.231  29.932  1.00  0.00     0.031 C 
ATOM     55  C   UNL A   1      43.079  29.125  35.191  1.00  0.00     0.029 A 
ATOM     56  C   UNL A   1      42.962  28.683  33.883  1.00  0.00     0.049 A 
ATOM     57  H   UNL A   1      41.538  29.233  32.424  1.00  0.00     0.167 HD
ATOM     58  C   UNL A   1      43.588  27.345  31.888  1.00  0.00     0.074 A 
ATOM     59  C   UNL A   1      44.404  26.367  31.198  1.00  0.00     0.031 C 
ATOM     60  C   UNL A   1      43.781  27.723  33.179  1.00  0.00     0.034 A 
BRANCH  47  61
ATOM     61  C   UNL A   1      39.690  31.943  35.187  1.00  0.00     0.023 A 
ATOM     62  C   UNL A   1      38.960  31.461  36.290  1.00  0.00     0.031 A 
ATOM     63  C   UNL A   1      39.952  33.323  35.126  1.00  0.00     0.131 A 
ATOM     64  C   UNL A   1      38.461  32.360  37.246  1.00  0.00     0.055 A 
ATOM     65  C   UNL A   1      39.520  34.201  36.122  1.00  0.00     0.041 A 
ATOM     66  F   UNL A   1      40.621  33.845  34.086  1.00  0.00    -0.206 F 
ATOM     67  C   UNL A   1      38.756  33.723  37.183  1.00  0.00     0.022 A 
BRANCH  64  68
ATOM     68  S   UNL A   1      37.294  31.745  38.491  1.00  0.00     0.124 S 
ATOM     69  O   UNL A   1      38.073  31.880  39.719  1.00  0.00    -0.237 OA
ATOM     70  O   UNL A   1      36.166  32.657  38.345  1.00  0.00    -0.237 OA
ATOM     71  O   UNL A   1      37.040  30.367  38.073  1.00  0.00    -0.744 OA
ENDBRANCH  64  68
ENDBRANCH  47  61
BRANCH  48  72
ATOM     72  C   UNL A   1      42.593  26.359  27.384  1.00  0.00     0.023 A 
ATOM     73  C   UNL A   1      42.229  25.014  27.217  1.00  0.00     0.031 A 
ATOM     74  C   UNL A   1      43.464  26.929  26.437  1.00  0.00     0.131 A 
ATOM     75  C   UNL A   1      42.767  24.271  26.154  1.00  0.00     0.055 A 
ATOM     76  C   UNL A   1      43.955  26.201  25.353  1.00  0.00     0.041 A 
ATOM     77  F   UNL A   1      43.844  28.212  26.549  1.00  0.00    -0.206 F 
ATOM     78  C   UNL A   1      43.616  24.858  25.214  1.00  0.00     0.022 A 
BRANCH  75  79
ATOM     79  S   UNL A   1      42.401  22.496  26.060  1.00  0.00     0.124 S 
ATOM     80  O   UNL A   1      43.094  21.987  27.238  1.00  0.00    -0.237 OA
ATOM     81  O   UNL A   1      40.943  22.484  26.118  1.00  0.00    -0.237 OA
ATOM     82  O   UNL A   1      42.975  22.098  24.776  1.00  0.00    -0.744 OA
ENDBRANCH  75  79
ENDBRANCH  48  72
BRANCH  60  83
ATOM     83  C   UNL A   1      44.899  27.040  33.932  1.00  0.00     0.023 A 
ATOM     84  C   UNL A   1      44.708  25.809  34.585  1.00  0.00     0.031 A 
ATOM     85  C   UNL A   1      46.164  27.647  34.027  1.00  0.00     0.131 A 
ATOM     86  C   UNL A   1      45.739  25.263  35.366  1.00  0.00     0.055 A 
ATOM     87  C   UNL A   1      47.207  27.064  34.749  1.00  0.00     0.041 A 
ATOM     88  F   UNL A   1      46.407  28.822  33.425  1.00  0.00    -0.206 F 
ATOM     89  C   UNL A   1      46.992  25.875  35.439  1.00  0.00     0.022 A 
BRANCH  86  90
ATOM     90  S   UNL A   1      45.379  23.806  36.386  1.00  0.00     0.124 S 
ATOM     91  O   UNL A   1      45.266  24.390  37.719  1.00  0.00    -0.237 OA
ATOM     92  O   UNL A   1      44.138  23.313  35.798  1.00  0.00    -0.237 OA
ATOM     93  O   UNL A   1      46.545  22.948  36.183  1.00  0.00    -0.744 OA
ENDBRANCH  86  90
ENDBRANCH  60  83
ENDBRANCH  34  35
ENDBRANCH  27  29
ENDBRANCH  26  27
ENDBRANCH  25  26
ENDBRANCH   1  25
TORSDOF 21
ENDMDL
