MODEL 1
REMARK VINA RESULT:      -9.8      0.000      0.000
REMARK SMILES Cc1noc(C)c1[C@H](C)[NH2+][C@@H](C)CC(=O)OCCOCCOC(=O)c1ccc(-c2c3nc(c(-c4cc(S(=O)(=O)[O-])ccc4F)c4ccc([nH]4)c(-c4cc(S(=O)(=O)[O-])ccc4F)c4nc(c(-c5cc(S(=O)(=O)[O-])ccc5F)c5ccc2[nH]5)C=C4)C=C3)cc1
REMARK SMILES IDX 18 1 17 2 16 3 14 4 15 5 13 6 11 7 12 8 10 9 8 12 9 13 7 14
REMARK SMILES IDX 1 15 2 16 3 17 4 18 5 19 6 20 19 21 20 22 21 23 22 24 23 25
REMARK SMILES IDX 24 26 25 27 26 28 87 29 27 30 86 31 28 32 29 33 30 34 80 35
REMARK SMILES IDX 31 36 85 37 79 38 81 39 32 40 84 41 78 42 77 43 33 45 65 46
REMARK SMILES IDX 45 47 64 48 46 49 49 50 63 51 82 52 47 53 48 54 62 56 83 57
REMARK SMILES IDX 50 58 34 59 35 60 43 61 36 62 42 63 44 64 41 65 37 66 38 67
REMARK SMILES IDX 39 68 40 69 66 70 67 71 75 72 68 73 74 74 76 75 73 76 69 77
REMARK SMILES IDX 70 78 71 79 72 80 51 81 52 82 60 83 53 84 59 85 61 86 58 87
REMARK SMILES IDX 54 88 55 89 56 90 57 91
REMARK H PARENT 10 10 10 11 81 44 49 55
REMARK Flexibility Score: inf
ROOT
ATOM      1  C   UNL A   1      33.249  27.393  26.420  1.00  0.00     0.202 C 
ENDROOT
BRANCH   1   2
ATOM      2  C   UNL A   1      33.066  26.963  24.964  1.00  0.00     0.261 C 
BRANCH   2   3
ATOM      3  O   UNL A   1      34.016  25.967  24.547  1.00  0.00    -0.463 OA
BRANCH   3   4
ATOM      4  C   UNL A   1      33.840  25.498  23.288  1.00  0.00     0.311 C 
ATOM      5  O   UNL A   1      33.226  26.083  22.400  1.00  0.00    -0.252 OA
BRANCH   4   6
ATOM      6  C   UNL A   1      34.396  24.111  23.085  1.00  0.00     0.187 C 
BRANCH   6   7
ATOM      7  C   UNL A   1      35.149  23.415  24.240  1.00  0.00     0.190 C 
ATOM      8  C   UNL A   1      36.525  23.051  23.657  1.00  0.00     0.076 C 
BRANCH   7   9
ATOM      9  N   UNL A   1      34.448  22.216  24.715  1.00  0.00    -0.337 N 
ATOM     10  H   UNL A   1      34.845  21.415  24.222  1.00  0.00     0.347 HD
ATOM     11  H   UNL A   1      34.584  22.216  25.725  1.00  0.00     0.347 HD
BRANCH   9  12
ATOM     12  C   UNL A   1      32.987  22.166  24.531  1.00  0.00     0.216 C 
ATOM     13  C   UNL A   1      32.565  20.693  24.515  1.00  0.00     0.081 C 
BRANCH  12  14
ATOM     14  C   UNL A   1      32.251  22.949  25.584  1.00  0.00     0.074 A 
ATOM     15  C   UNL A   1      30.529  24.293  24.116  1.00  0.00     0.071 C 
ATOM     16  C   UNL A   1      31.169  23.865  25.382  1.00  0.00     0.090 A 
ATOM     17  N   UNL A   1      30.745  24.397  26.534  1.00  0.00    -0.085 NA
ATOM     18  O   UNL A   1      31.508  23.813  27.519  1.00  0.00    -0.361 OA
ATOM     19  C   UNL A   1      32.388  22.941  26.963  1.00  0.00     0.143 A 
ATOM     20  C   UNL A   1      33.220  22.198  27.933  1.00  0.00     0.091 C 
ENDBRANCH  12  14
ENDBRANCH   9  12
ENDBRANCH   7   9
ENDBRANCH   6   7
ENDBRANCH   4   6
ENDBRANCH   3   4
ENDBRANCH   2   3
ENDBRANCH   1   2
BRANCH   1  21
ATOM     21  O   UNL A   1      32.316  28.336  26.940  1.00  0.00    -0.374 OA
BRANCH  21  22
ATOM     22  C   UNL A   1      31.653  29.179  25.998  1.00  0.00     0.202 C 
BRANCH  22  23
ATOM     23  C   UNL A   1      32.066  30.656  25.971  1.00  0.00     0.261 C 
BRANCH  23  24
ATOM     24  O   UNL A   1      32.330  31.179  27.287  1.00  0.00    -0.460 OA
BRANCH  24  25
ATOM     25  C   UNL A   1      33.162  32.250  27.325  1.00  0.00     0.338 C 
ATOM     26  O   UNL A   1      32.861  33.418  27.123  1.00  0.00    -0.246 OA
BRANCH  25  27
ATOM     27  C   UNL A   1      34.473  31.839  27.862  1.00  0.00     0.060 A 
ATOM     28  C   UNL A   1      34.630  30.512  28.285  1.00  0.00     0.016 A 
ATOM     29  C   UNL A   1      35.524  32.748  27.989  1.00  0.00     0.016 A 
ATOM     30  C   UNL A   1      35.832  30.097  28.857  1.00  0.00     0.010 A 
ATOM     31  C   UNL A   1      36.732  32.327  28.551  1.00  0.00     0.010 A 
ATOM     32  C   UNL A   1      36.883  31.007  29.020  1.00  0.00    -0.014 A 
BRANCH  32  33
ATOM     33  C   UNL A   1      38.073  30.638  29.829  1.00  0.00     0.031 A 
ATOM     34  C   UNL A   1      39.081  29.690  29.235  1.00  0.00     0.074 A 
ATOM     35  C   UNL A   1      38.265  31.141  31.063  1.00  0.00     0.049 A 
ATOM     36  N   UNL A   1      40.140  29.151  29.778  1.00  0.00    -0.248 NA
ATOM     37  C   UNL A   1      38.848  29.287  27.839  1.00  0.00     0.031 C 
ATOM     38  C   UNL A   1      37.387  32.102  31.729  1.00  0.00     0.029 A 
ATOM     39  N   UNL A   1      39.259  30.904  31.980  1.00  0.00    -0.354 N 
ATOM     40  C   UNL A   1      40.694  28.333  28.799  1.00  0.00     0.074 A 
ATOM     41  C   UNL A   1      39.824  28.413  27.644  1.00  0.00     0.031 C 
ATOM     42  C   UNL A   1      37.880  32.369  32.951  1.00  0.00     0.029 A 
ATOM     43  C   UNL A   1      39.078  31.562  33.175  1.00  0.00     0.049 A 
ATOM     44  H   UNL A   1      40.029  30.317  31.799  1.00  0.00     0.167 HD
ATOM     45  C   UNL A   1      41.829  27.593  28.852  1.00  0.00     0.034 A 
ATOM     46  C   UNL A   1      39.781  31.496  34.324  1.00  0.00     0.034 A 
ATOM     47  C   UNL A   1      42.686  27.525  30.010  1.00  0.00     0.049 A 
ATOM     48  C   UNL A   1      40.993  30.595  34.393  1.00  0.00     0.074 A 
ATOM     49  C   UNL A   1      43.869  26.824  30.165  1.00  0.00     0.029 A 
ATOM     50  N   UNL A   1      42.447  28.173  31.216  1.00  0.00    -0.354 N 
ATOM     51  N   UNL A   1      41.509  29.828  33.458  1.00  0.00    -0.248 NA
ATOM     52  C   UNL A   1      41.719  30.554  35.669  1.00  0.00     0.031 C 
ATOM     53  C   UNL A   1      44.300  26.980  31.487  1.00  0.00     0.029 A 
ATOM     54  C   UNL A   1      43.440  27.854  32.132  1.00  0.00     0.049 A 
ATOM     55  H   UNL A   1      41.685  28.769  31.396  1.00  0.00     0.167 HD
ATOM     56  C   UNL A   1      42.639  29.243  34.026  1.00  0.00     0.074 A 
ATOM     57  C   UNL A   1      42.736  29.757  35.376  1.00  0.00     0.031 C 
ATOM     58  C   UNL A   1      43.521  28.365  33.481  1.00  0.00     0.034 A 
BRANCH  45  59
ATOM     59  C   UNL A   1      42.173  26.761  27.640  1.00  0.00     0.023 A 
ATOM     60  C   UNL A   1      41.808  25.406  27.540  1.00  0.00     0.031 A 
ATOM     61  C   UNL A   1      42.906  27.322  26.579  1.00  0.00     0.131 A 
ATOM     62  C   UNL A   1      42.241  24.643  26.446  1.00  0.00     0.055 A 
ATOM     63  C   UNL A   1      43.257  26.580  25.451  1.00  0.00     0.041 A 
ATOM     64  F   UNL A   1      43.304  28.603  26.627  1.00  0.00    -0.206 F 
ATOM     65  C   UNL A   1      42.939  25.227  25.386  1.00  0.00     0.022 A 
BRANCH  62  66
ATOM     66  S   UNL A   1      42.013  22.844  26.500  1.00  0.00     0.124 S 
ATOM     67  O   UNL A   1      42.976  22.456  27.528  1.00  0.00    -0.237 OA
ATOM     68  O   UNL A   1      40.606  22.715  26.861  1.00  0.00    -0.237 OA
ATOM     69  O   UNL A   1      42.352  22.414  25.145  1.00  0.00    -0.744 OA
ENDBRANCH  62  66
ENDBRANCH  45  59
BRANCH  46  70
ATOM     70  C   UNL A   1      39.344  32.265  35.527  1.00  0.00     0.023 A 
ATOM     71  C   UNL A   1      39.743  33.597  35.723  1.00  0.00     0.031 A 
ATOM     72  C   UNL A   1      38.572  31.655  36.534  1.00  0.00     0.131 A 
ATOM     73  C   UNL A   1      39.414  34.259  36.916  1.00  0.00     0.055 A 
ATOM     74  C   UNL A   1      38.195  32.338  37.692  1.00  0.00     0.041 A 
ATOM     75  F   UNL A   1      38.166  30.382  36.402  1.00  0.00    -0.206 F 
ATOM     76  C   UNL A   1      38.630  33.644  37.895  1.00  0.00     0.022 A 
BRANCH  73  77
ATOM     77  S   UNL A   1      40.111  35.906  37.217  1.00  0.00     0.124 S 
ATOM     78  O   UNL A   1      39.466  36.275  38.472  1.00  0.00    -0.237 OA
ATOM     79  O   UNL A   1      41.540  35.622  37.288  1.00  0.00    -0.237 OA
ATOM     80  O   UNL A   1      39.687  36.673  36.047  1.00  0.00    -0.744 OA
ENDBRANCH  73  77
ENDBRANCH  46  70
BRANCH  58  81
ATOM     81  C   UNL A   1      44.698  27.946  34.332  1.00  0.00     0.023 A 
ATOM     82  C   UNL A   1      44.628  26.851  35.210  1.00  0.00     0.031 A 
ATOM     83  C   UNL A   1      45.908  28.660  34.264  1.00  0.00     0.131 A 
ATOM     84  C   UNL A   1      45.725  26.538  36.028  1.00  0.00     0.055 A 
ATOM     85  C   UNL A   1      47.019  28.302  35.029  1.00  0.00     0.041 A 
ATOM     86  F   UNL A   1      46.033  29.718  33.447  1.00  0.00    -0.206 F 
ATOM     87  C   UNL A   1      46.927  27.244  35.927  1.00  0.00     0.022 A 
BRANCH  84  88
ATOM     88  S   UNL A   1      45.530  25.258  37.298  1.00  0.00     0.124 S 
ATOM     89  O   UNL A   1      46.088  25.914  38.476  1.00  0.00    -0.237 OA
ATOM     90  O   UNL A   1      44.086  25.048  37.310  1.00  0.00    -0.237 OA
ATOM     91  O   UNL A   1      46.315  24.139  36.781  1.00  0.00    -0.744 OA
ENDBRANCH  84  88
ENDBRANCH  58  81
ENDBRANCH  32  33
ENDBRANCH  25  27
ENDBRANCH  24  25
ENDBRANCH  23  24
ENDBRANCH  22  23
ENDBRANCH  21  22
ENDBRANCH   1  21
TORSDOF 21
ENDMDL
MODEL 2
REMARK VINA RESULT:      -9.7      1.914      7.967
REMARK SMILES Cc1noc(C)c1[C@H](C)[NH2+][C@@H](C)CC(=O)OCCOCCOC(=O)c1ccc(-c2c3nc(c(-c4cc(S(=O)(=O)[O-])ccc4F)c4ccc([nH]4)c(-c4cc(S(=O)(=O)[O-])ccc4F)c4nc(c(-c5cc(S(=O)(=O)[O-])ccc5F)c5ccc2[nH]5)C=C4)C=C3)cc1
REMARK SMILES IDX 18 1 17 2 16 3 14 4 15 5 13 6 11 7 12 8 10 9 8 12 9 13 7 14
REMARK SMILES IDX 1 15 2 16 3 17 4 18 5 19 6 20 19 21 20 22 21 23 22 24 23 25
REMARK SMILES IDX 24 26 25 27 26 28 87 29 27 30 86 31 28 32 29 33 30 34 80 35
REMARK SMILES IDX 31 36 85 37 79 38 81 39 32 40 84 41 78 42 77 43 33 45 65 46
REMARK SMILES IDX 45 47 64 48 46 49 49 50 63 51 82 52 47 53 48 54 62 56 83 57
REMARK SMILES IDX 50 58 34 59 35 60 43 61 36 62 42 63 44 64 41 65 37 66 38 67
REMARK SMILES IDX 39 68 40 69 66 70 67 71 75 72 68 73 74 74 76 75 73 76 69 77
REMARK SMILES IDX 70 78 71 79 72 80 51 81 52 82 60 83 53 84 59 85 61 86 58 87
REMARK SMILES IDX 54 88 55 89 56 90 57 91
REMARK H PARENT 10 10 10 11 81 44 49 55
REMARK Flexibility Score: inf
ROOT
ATOM      1  C   UNL A   1      32.247  29.725  26.762  1.00  0.00     0.202 C 
ENDROOT
BRANCH   1   2
ATOM      2  C   UNL A   1      31.784  29.247  25.385  1.00  0.00     0.261 C 
BRANCH   2   3
ATOM      3  O   UNL A   1      32.874  28.969  24.489  1.00  0.00    -0.463 OA
BRANCH   3   4
ATOM      4  C   UNL A   1      32.798  27.779  23.845  1.00  0.00     0.311 C 
ATOM      5  O   UNL A   1      32.263  27.605  22.754  1.00  0.00    -0.252 OA
BRANCH   4   6
ATOM      6  C   UNL A   1      33.356  26.631  24.647  1.00  0.00     0.187 C 
BRANCH   6   7
ATOM      7  C   UNL A   1      32.525  25.339  24.810  1.00  0.00     0.190 C 
ATOM      8  C   UNL A   1      31.578  25.620  25.989  1.00  0.00     0.076 C 
BRANCH   7   9
ATOM      9  N   UNL A   1      33.369  24.169  25.083  1.00  0.00    -0.337 N 
ATOM     10  H   UNL A   1      34.340  24.479  25.048  1.00  0.00     0.347 HD
ATOM     11  H   UNL A   1      33.054  23.825  25.990  1.00  0.00     0.347 HD
BRANCH   9  12
ATOM     12  C   UNL A   1      33.242  23.014  24.177  1.00  0.00     0.216 C 
ATOM     13  C   UNL A   1      33.403  23.523  22.741  1.00  0.00     0.081 C 
BRANCH  12  14
ATOM     14  C   UNL A   1      34.225  21.923  24.499  1.00  0.00     0.074 A 
ATOM     15  C   UNL A   1      32.622  19.856  24.794  1.00  0.00     0.071 C 
ATOM     16  C   UNL A   1      33.935  20.544  24.754  1.00  0.00     0.090 A 
ATOM     17  N   UNL A   1      35.043  19.841  25.014  1.00  0.00    -0.085 NA
ATOM     18  O   UNL A   1      36.085  20.730  24.897  1.00  0.00    -0.361 OA
ATOM     19  C   UNL A   1      35.609  21.960  24.574  1.00  0.00     0.143 A 
ATOM     20  C   UNL A   1      36.646  22.988  24.353  1.00  0.00     0.091 C 
ENDBRANCH  12  14
ENDBRANCH   9  12
ENDBRANCH   7   9
ENDBRANCH   6   7
ENDBRANCH   4   6
ENDBRANCH   3   4
ENDBRANCH   2   3
ENDBRANCH   1   2
BRANCH   1  21
ATOM     21  O   UNL A   1      31.628  30.898  27.284  1.00  0.00    -0.374 OA
BRANCH  21  22
ATOM     22  C   UNL A   1      31.329  31.941  26.356  1.00  0.00     0.202 C 
BRANCH  22  23
ATOM     23  C   UNL A   1      31.890  33.334  26.668  1.00  0.00     0.261 C 
BRANCH  23  24
ATOM     24  O   UNL A   1      32.453  33.418  27.992  1.00  0.00    -0.460 OA
BRANCH  24  25
ATOM     25  C   UNL A   1      33.566  34.187  28.096  1.00  0.00     0.338 C 
ATOM     26  O   UNL A   1      33.618  35.408  28.058  1.00  0.00    -0.246 OA
BRANCH  25  27
ATOM     27  C   UNL A   1      34.714  33.345  28.482  1.00  0.00     0.060 A 
ATOM     28  C   UNL A   1      34.457  32.059  28.974  1.00  0.00     0.016 A 
ATOM     29  C   UNL A   1      36.023  33.820  28.402  1.00  0.00     0.016 A 
ATOM     30  C   UNL A   1      35.508  31.252  29.409  1.00  0.00     0.010 A 
ATOM     31  C   UNL A   1      37.077  33.006  28.827  1.00  0.00     0.010 A 
ATOM     32  C   UNL A   1      36.823  31.729  29.365  1.00  0.00    -0.014 A 
BRANCH  32  33
ATOM     33  C   UNL A   1      37.916  30.975  30.032  1.00  0.00     0.031 A 
ATOM     34  C   UNL A   1      38.204  31.259  31.483  1.00  0.00     0.074 A 
ATOM     35  C   UNL A   1      38.633  30.048  29.371  1.00  0.00     0.049 A 
ATOM     36  N   UNL A   1      39.159  30.801  32.248  1.00  0.00    -0.248 NA
ATOM     37  C   UNL A   1      37.293  32.200  32.154  1.00  0.00     0.031 C 
ATOM     38  C   UNL A   1      38.419  29.650  27.980  1.00  0.00     0.029 A 
ATOM     39  N   UNL A   1      39.694  29.278  29.780  1.00  0.00    -0.354 N 
ATOM     40  C   UNL A   1      38.977  31.409  33.486  1.00  0.00     0.074 A 
ATOM     41  C   UNL A   1      37.845  32.302  33.353  1.00  0.00     0.031 C 
ATOM     42  C   UNL A   1      39.326  28.713  27.651  1.00  0.00     0.029 A 
ATOM     43  C   UNL A   1      40.214  28.480  28.788  1.00  0.00     0.049 A 
ATOM     44  H   UNL A   1      40.048  29.297  30.699  1.00  0.00     0.167 HD
ATOM     45  C   UNL A   1      39.679  31.229  34.633  1.00  0.00     0.034 A 
ATOM     46  C   UNL A   1      41.300  27.679  28.789  1.00  0.00     0.034 A 
ATOM     47  C   UNL A   1      40.804  30.334  34.749  1.00  0.00     0.049 A 
ATOM     48  C   UNL A   1      42.123  27.562  30.052  1.00  0.00     0.074 A 
ATOM     49  C   UNL A   1      41.573  30.061  35.867  1.00  0.00     0.029 A 
ATOM     50  N   UNL A   1      41.328  29.574  33.711  1.00  0.00    -0.354 N 
ATOM     51  N   UNL A   1      41.938  28.139  31.218  1.00  0.00    -0.248 NA
ATOM     52  C   UNL A   1      43.299  26.682  29.999  1.00  0.00     0.031 C 
ATOM     53  C   UNL A   1      42.610  29.202  35.485  1.00  0.00     0.029 A 
ATOM     54  C   UNL A   1      42.435  28.864  34.153  1.00  0.00     0.049 A 
ATOM     55  H   UNL A   1      40.968  29.544  32.796  1.00  0.00     0.167 HD
ATOM     56  C   UNL A   1      42.955  27.663  32.044  1.00  0.00     0.074 A 
ATOM     57  C   UNL A   1      43.738  26.742  31.247  1.00  0.00     0.031 C 
ATOM     58  C   UNL A   1      43.215  27.955  33.346  1.00  0.00     0.034 A 
BRANCH  45  59
ATOM     59  C   UNL A   1      39.280  32.059  35.829  1.00  0.00     0.023 A 
ATOM     60  C   UNL A   1      38.574  31.508  36.914  1.00  0.00     0.031 A 
ATOM     61  C   UNL A   1      39.584  33.432  35.874  1.00  0.00     0.131 A 
ATOM     62  C   UNL A   1      38.130  32.338  37.954  1.00  0.00     0.055 A 
ATOM     63  C   UNL A   1      39.216  34.234  36.955  1.00  0.00     0.041 A 
ATOM     64  F   UNL A   1      40.234  34.020  34.858  1.00  0.00    -0.206 F 
ATOM     65  C   UNL A   1      38.470  33.692  37.997  1.00  0.00     0.022 A 
BRANCH  62  66
ATOM     66  S   UNL A   1      36.971  31.655  39.172  1.00  0.00     0.124 S 
ATOM     67  O   UNL A   1      37.804  31.598  40.371  1.00  0.00    -0.237 OA
ATOM     68  O   UNL A   1      35.904  32.649  39.183  1.00  0.00    -0.237 OA
ATOM     69  O   UNL A   1      36.609  30.355  38.610  1.00  0.00    -0.744 OA
ENDBRANCH  62  66
ENDBRANCH  45  59
BRANCH  46  70
ATOM     70  C   UNL A   1      41.710  26.954  27.550  1.00  0.00     0.023 A 
ATOM     71  C   UNL A   1      41.585  25.559  27.450  1.00  0.00     0.031 A 
ATOM     72  C   UNL A   1      42.297  27.641  26.472  1.00  0.00     0.131 A 
ATOM     73  C   UNL A   1      42.084  24.890  26.320  1.00  0.00     0.055 A 
ATOM     74  C   UNL A   1      42.736  26.978  25.324  1.00  0.00     0.041 A 
ATOM     75  F   UNL A   1      42.446  28.975  26.516  1.00  0.00    -0.206 F 
ATOM     76  C   UNL A   1      42.644  25.592  25.251  1.00  0.00     0.022 A 
BRANCH  73  77
ATOM     77  S   UNL A   1      42.080  23.077  26.313  1.00  0.00     0.124 S 
ATOM     78  O   UNL A   1      42.899  22.775  27.481  1.00  0.00    -0.237 OA
ATOM     79  O   UNL A   1      40.658  22.776  26.429  1.00  0.00    -0.237 OA
ATOM     80  O   UNL A   1      42.683  22.742  25.023  1.00  0.00    -0.744 OA
ENDBRANCH  73  77
ENDBRANCH  46  70
BRANCH  58  81
ATOM     81  C   UNL A   1      44.367  27.229  34.001  1.00  0.00     0.023 A 
ATOM     82  C   UNL A   1      44.196  25.994  34.650  1.00  0.00     0.031 A 
ATOM     83  C   UNL A   1      45.658  27.788  33.979  1.00  0.00     0.131 A 
ATOM     84  C   UNL A   1      45.282  25.388  35.300  1.00  0.00     0.055 A 
ATOM     85  C   UNL A   1      46.749  27.147  34.567  1.00  0.00     0.041 A 
ATOM     86  F   UNL A   1      45.882  28.968  33.378  1.00  0.00    -0.206 F 
ATOM     87  C   UNL A   1      46.562  25.946  35.245  1.00  0.00     0.022 A 
BRANCH  84  88
ATOM     88  S   UNL A   1      44.982  23.908  36.306  1.00  0.00     0.124 S 
ATOM     89  O   UNL A   1      46.313  23.312  36.371  1.00  0.00    -0.237 OA
ATOM     90  O   UNL A   1      44.477  24.475  37.552  1.00  0.00    -0.237 OA
ATOM     91  O   UNL A   1      44.002  23.156  35.525  1.00  0.00    -0.744 OA
ENDBRANCH  84  88
ENDBRANCH  58  81
ENDBRANCH  32  33
ENDBRANCH  25  27
ENDBRANCH  24  25
ENDBRANCH  23  24
ENDBRANCH  22  23
ENDBRANCH  21  22
ENDBRANCH   1  21
TORSDOF 21
ENDMDL
MODEL 3
REMARK VINA RESULT:      -9.5      2.230      8.051
REMARK SMILES Cc1noc(C)c1[C@H](C)[NH2+][C@@H](C)CC(=O)OCCOCCOC(=O)c1ccc(-c2c3nc(c(-c4cc(S(=O)(=O)[O-])ccc4F)c4ccc([nH]4)c(-c4cc(S(=O)(=O)[O-])ccc4F)c4nc(c(-c5cc(S(=O)(=O)[O-])ccc5F)c5ccc2[nH]5)C=C4)C=C3)cc1
REMARK SMILES IDX 18 1 17 2 16 3 14 4 15 5 13 6 11 7 12 8 10 9 8 12 9 13 7 14
REMARK SMILES IDX 1 15 2 16 3 17 4 18 5 19 6 20 19 21 20 22 21 23 22 24 23 25
REMARK SMILES IDX 24 26 25 27 26 28 87 29 27 30 86 31 28 32 29 33 30 34 80 35
REMARK SMILES IDX 31 36 85 37 79 38 81 39 32 40 84 41 78 42 77 43 33 45 65 46
REMARK SMILES IDX 45 47 64 48 46 49 49 50 63 51 82 52 47 53 48 54 62 56 83 57
REMARK SMILES IDX 50 58 34 59 35 60 43 61 36 62 42 63 44 64 41 65 37 66 38 67
REMARK SMILES IDX 39 68 40 69 66 70 67 71 75 72 68 73 74 74 76 75 73 76 69 77
REMARK SMILES IDX 70 78 71 79 72 80 51 81 52 82 60 83 53 84 59 85 61 86 58 87
REMARK SMILES IDX 54 88 55 89 56 90 57 91
REMARK H PARENT 10 10 10 11 81 44 49 55
REMARK Flexibility Score: inf
ROOT
ATOM      1  C   UNL A   1      33.055  27.054  26.492  1.00  0.00     0.202 C 
ENDROOT
BRANCH   1   2
ATOM      2  C   UNL A   1      33.069  26.962  24.966  1.00  0.00     0.261 C 
BRANCH   2   3
ATOM      3  O   UNL A   1      34.028  26.014  24.467  1.00  0.00    -0.463 OA
BRANCH   3   4
ATOM      4  C   UNL A   1      33.765  25.528  23.230  1.00  0.00     0.311 C 
ATOM      5  O   UNL A   1      33.089  26.102  22.380  1.00  0.00    -0.252 OA
BRANCH   4   6
ATOM      6  C   UNL A   1      34.306  24.139  23.007  1.00  0.00     0.187 C 
BRANCH   6   7
ATOM      7  C   UNL A   1      35.098  23.439  24.133  1.00  0.00     0.190 C 
ATOM      8  C   UNL A   1      36.440  23.046  23.492  1.00  0.00     0.076 C 
BRANCH   7   9
ATOM      9  N   UNL A   1      34.398  22.257  24.650  1.00  0.00    -0.337 N 
ATOM     10  H   UNL A   1      34.796  21.439  24.187  1.00  0.00     0.347 HD
ATOM     11  H   UNL A   1      34.534  22.294  25.660  1.00  0.00     0.347 HD
BRANCH   9  12
ATOM     12  C   UNL A   1      32.937  22.199  24.467  1.00  0.00     0.216 C 
ATOM     13  C   UNL A   1      32.522  20.724  24.465  1.00  0.00     0.081 C 
BRANCH  12  14
ATOM     14  C   UNL A   1      32.198  22.988  25.512  1.00  0.00     0.074 A 
ATOM     15  C   UNL A   1      30.465  24.306  24.032  1.00  0.00     0.071 C 
ATOM     16  C   UNL A   1      31.110  23.896  25.302  1.00  0.00     0.090 A 
ATOM     17  N   UNL A   1      30.684  24.437  26.449  1.00  0.00    -0.085 NA
ATOM     18  O   UNL A   1      31.451  23.869  27.438  1.00  0.00    -0.361 OA
ATOM     19  C   UNL A   1      32.337  22.996  26.891  1.00  0.00     0.143 A 
ATOM     20  C   UNL A   1      33.174  22.270  27.868  1.00  0.00     0.091 C 
ENDBRANCH  12  14
ENDBRANCH   9  12
ENDBRANCH   7   9
ENDBRANCH   6   7
ENDBRANCH   4   6
ENDBRANCH   3   4
ENDBRANCH   2   3
ENDBRANCH   1   2
BRANCH   1  21
ATOM     21  O   UNL A   1      32.440  28.204  27.068  1.00  0.00    -0.374 OA
BRANCH  21  22
ATOM     22  C   UNL A   1      32.161  29.296  26.192  1.00  0.00     0.202 C 
BRANCH  22  23
ATOM     23  C   UNL A   1      33.045  30.542  26.327  1.00  0.00     0.261 C 
BRANCH  23  24
ATOM     24  O   UNL A   1      33.170  30.984  27.693  1.00  0.00    -0.460 OA
BRANCH  24  25
ATOM     25  C   UNL A   1      34.105  31.944  27.903  1.00  0.00     0.338 C 
ATOM     26  O   UNL A   1      33.911  33.149  27.993  1.00  0.00    -0.246 OA
BRANCH  25  27
ATOM     27  C   UNL A   1      35.398  31.312  28.229  1.00  0.00     0.060 A 
ATOM     28  C   UNL A   1      35.419  29.931  28.463  1.00  0.00     0.016 A 
ATOM     29  C   UNL A   1      36.566  32.065  28.344  1.00  0.00     0.016 A 
ATOM     30  C   UNL A   1      36.607  29.302  28.835  1.00  0.00     0.010 A 
ATOM     31  C   UNL A   1      37.759  31.431  28.705  1.00  0.00     0.010 A 
ATOM     32  C   UNL A   1      37.780  30.051  28.986  1.00  0.00    -0.014 A 
BRANCH  32  33
ATOM     33  C   UNL A   1      38.986  29.437  29.598  1.00  0.00     0.031 A 
ATOM     34  C   UNL A   1      39.477  29.974  30.917  1.00  0.00     0.074 A 
ATOM     35  C   UNL A   1      39.631  28.415  29.005  1.00  0.00     0.049 A 
ATOM     36  N   UNL A   1      40.552  29.668  31.594  1.00  0.00    -0.248 NA
ATOM     37  C   UNL A   1      38.642  31.009  31.547  1.00  0.00     0.031 C 
ATOM     38  C   UNL A   1      39.227  27.777  27.752  1.00  0.00     0.029 A 
ATOM     39  N   UNL A   1      40.768  27.740  29.373  1.00  0.00    -0.354 N 
ATOM     40  C   UNL A   1      40.533  30.482  32.722  1.00  0.00     0.074 A 
ATOM     41  C   UNL A   1      39.362  31.327  32.611  1.00  0.00     0.031 C 
ATOM     42  C   UNL A   1      40.109  26.806  27.454  1.00  0.00     0.029 A 
ATOM     43  C   UNL A   1      41.164  26.785  28.466  1.00  0.00     0.049 A 
ATOM     44  H   UNL A   1      41.255  27.923  30.210  1.00  0.00     0.167 HD
ATOM     45  C   UNL A   1      41.404  30.514  33.761  1.00  0.00     0.034 A 
ATOM     46  C   UNL A   1      42.266  26.008  28.439  1.00  0.00     0.034 A 
ATOM     47  C   UNL A   1      42.566  29.664  33.857  1.00  0.00     0.049 A 
ATOM     48  C   UNL A   1      43.272  26.123  29.562  1.00  0.00     0.074 A 
ATOM     49  C   UNL A   1      43.503  29.599  34.874  1.00  0.00     0.029 A 
ATOM     50  N   UNL A   1      42.957  28.739  32.898  1.00  0.00    -0.354 N 
ATOM     51  N   UNL A   1      43.242  26.894  30.625  1.00  0.00    -0.248 NA
ATOM     52  C   UNL A   1      44.458  25.259  29.482  1.00  0.00     0.031 C 
ATOM     53  C   UNL A   1      44.502  28.697  34.492  1.00  0.00     0.029 A 
ATOM     54  C   UNL A   1      44.143  28.128  33.281  1.00  0.00     0.049 A 
ATOM     55  H   UNL A   1      42.466  28.545  32.067  1.00  0.00     0.167 HD
ATOM     56  C   UNL A   1      44.387  26.581  31.356  1.00  0.00     0.074 A 
ATOM     57  C   UNL A   1      45.076  25.542  30.619  1.00  0.00     0.031 C 
ATOM     58  C   UNL A   1      44.827  27.099  32.532  1.00  0.00     0.034 A 
BRANCH  45  59
ATOM     59  C   UNL A   1      41.157  31.537  34.844  1.00  0.00     0.023 A 
ATOM     60  C   UNL A   1      40.083  31.422  35.745  1.00  0.00     0.031 A 
ATOM     61  C   UNL A   1      41.992  32.663  34.959  1.00  0.00     0.131 A 
ATOM     62  C   UNL A   1      39.828  32.449  36.665  1.00  0.00     0.055 A 
ATOM     63  C   UNL A   1      41.785  33.638  35.936  1.00  0.00     0.041 A 
ATOM     64  F   UNL A   1      43.018  32.841  34.113  1.00  0.00    -0.206 F 
ATOM     65  C   UNL A   1      40.688  33.543  36.786  1.00  0.00     0.022 A 
BRANCH  62  66
ATOM     66  S   UNL A   1      38.271  32.412  37.596  1.00  0.00     0.124 S 
ATOM     67  O   UNL A   1      38.742  32.110  38.946  1.00  0.00    -0.237 OA
ATOM     68  O   UNL A   1      37.747  33.756  37.389  1.00  0.00    -0.237 OA
ATOM     69  O   UNL A   1      37.513  31.339  36.954  1.00  0.00    -0.744 OA
ENDBRANCH  62  66
ENDBRANCH  45  59
BRANCH  46  70
ATOM     70  C   UNL A   1      42.514  25.080  27.296  1.00  0.00     0.023 A 
ATOM     71  C   UNL A   1      42.052  23.754  27.322  1.00  0.00     0.031 A 
ATOM     72  C   UNL A   1      43.277  25.488  26.186  1.00  0.00     0.131 A 
ATOM     73  C   UNL A   1      42.397  22.871  26.287  1.00  0.00     0.055 A 
ATOM     74  C   UNL A   1      43.566  24.623  25.129  1.00  0.00     0.041 A 
ATOM     75  F   UNL A   1      43.750  26.743  26.111  1.00  0.00    -0.206 F 
ATOM     76  C   UNL A   1      43.138  23.301  25.183  1.00  0.00     0.022 A 
BRANCH  73  77
ATOM     77  S   UNL A   1      41.947  21.122  26.451  1.00  0.00     0.124 S 
ATOM     78  O   UNL A   1      42.776  20.506  25.421  1.00  0.00    -0.237 OA
ATOM     79  O   UNL A   1      42.322  20.841  27.832  1.00  0.00    -0.237 OA
ATOM     80  O   UNL A   1      40.509  21.114  26.183  1.00  0.00    -0.744 OA
ENDBRANCH  73  77
ENDBRANCH  46  70
BRANCH  58  81
ATOM     81  C   UNL A   1      46.090  26.512  33.120  1.00  0.00     0.023 A 
ATOM     82  C   UNL A   1      47.366  26.956  32.735  1.00  0.00     0.031 A 
ATOM     83  C   UNL A   1      46.011  25.484  34.077  1.00  0.00     0.131 A 
ATOM     84  C   UNL A   1      48.511  26.337  33.260  1.00  0.00     0.055 A 
ATOM     85  C   UNL A   1      47.152  24.919  34.648  1.00  0.00     0.041 A 
ATOM     86  F   UNL A   1      44.819  25.015  34.480  1.00  0.00    -0.206 F 
ATOM     87  C   UNL A   1      48.412  25.336  34.229  1.00  0.00     0.022 A 
BRANCH  84  88
ATOM     88  S   UNL A   1      50.134  26.788  32.586  1.00  0.00     0.124 S 
ATOM     89  O   UNL A   1      50.297  25.811  31.514  1.00  0.00    -0.237 OA
ATOM     90  O   UNL A   1      49.924  28.168  32.164  1.00  0.00    -0.237 OA
ATOM     91  O   UNL A   1      51.037  26.618  33.723  1.00  0.00    -0.744 OA
ENDBRANCH  84  88
ENDBRANCH  58  81
ENDBRANCH  32  33
ENDBRANCH  25  27
ENDBRANCH  24  25
ENDBRANCH  23  24
ENDBRANCH  22  23
ENDBRANCH  21  22
ENDBRANCH   1  21
TORSDOF 21
ENDMDL
