MODEL 1
REMARK VINA RESULT:     -12.2      0.000      0.000
REMARK SMILES O=C(COc1ccccc1[C@@H]1[NH2+]CCc2cc(O)c(O)cc21)OCCOCCOC(=O)c1ccc(-c2c3nc(c(-c4cc(S(=O)(=O)[O-])ccc4F)c4ccc([nH]4)c(-c4cc(S(=O)(=O)[O-])ccc4F)c4nc(c(-c5cc(S(=O)(=O)[O-])ccc5F)c5ccc2[nH]5)C=C4)C=C3)cc1
REMARK SMILES IDX 25 1 24 2 23 3 2 4 1 5 3 6 4 7 5 8 6 9 10 10 7 11 9 12 8 13
REMARK SMILES IDX 11 14 12 15 22 16 13 17 15 20 21 21 14 22 16 23 19 24 17 25
REMARK SMILES IDX 20 26 18 28 26 30 27 31 28 32 29 33 30 34 31 35 32 36 33 37
REMARK SMILES IDX 94 38 34 39 93 40 35 41 36 42 37 43 87 44 38 45 92 46 86 47
REMARK SMILES IDX 88 48 39 49 91 50 85 51 84 52 40 54 72 55 52 56 71 57 53 58
REMARK SMILES IDX 56 59 70 60 89 61 54 62 55 63 69 65 90 66 57 67 41 68 42 69
REMARK SMILES IDX 50 70 43 71 49 72 51 73 48 74 44 75 45 76 46 77 47 78 73 79
REMARK SMILES IDX 74 80 82 81 75 82 81 83 83 84 80 85 76 86 77 87 78 88 79 89
REMARK SMILES IDX 58 90 59 91 67 92 60 93 66 94 68 95 65 96 61 97 62 98 63 99
REMARK SMILES IDX 64 100
REMARK H PARENT 12 18 12 19 20 27 18 29 88 53 56 64
REMARK Flexibility Score: inf
ROOT
ATOM      1  C   UNL A   1      40.640  21.204  27.267  1.00  0.00     0.202 C 
ENDROOT
BRANCH   1   2
ATOM      2  C   UNL A   1      39.779  21.163  25.988  1.00  0.00     0.261 C 
BRANCH   2   3
ATOM      3  O   UNL A   1      38.534  21.858  26.154  1.00  0.00    -0.461 OA
BRANCH   3   4
ATOM      4  C   UNL A   1      37.504  21.276  25.497  1.00  0.00     0.344 C 
ATOM      5  O   UNL A   1      37.704  20.308  24.767  1.00  0.00    -0.248 OA
BRANCH   4   6
ATOM      6  C   UNL A   1      36.154  21.982  25.732  1.00  0.00     0.351 C 
BRANCH   6   7
ATOM      7  O   UNL A   1      34.978  21.231  25.817  1.00  0.00    -0.481 OA
BRANCH   7   8
ATOM      8  C   UNL A   1      33.966  21.228  24.909  1.00  0.00     0.129 A 
ATOM      9  C   UNL A   1      33.582  19.883  24.719  1.00  0.00     0.047 A 
ATOM     10  C   UNL A   1      33.330  22.251  24.167  1.00  0.00     0.056 A 
ATOM     11  C   UNL A   1      32.664  19.508  23.753  1.00  0.00     0.004 A 
ATOM     12  C   UNL A   1      32.453  21.828  23.138  1.00  0.00     0.014 A 
ATOM     13  C   UNL A   1      32.127  20.482  22.932  1.00  0.00     0.001 A 
BRANCH  10  14
ATOM     14  C   UNL A   1      33.587  23.753  24.307  1.00  0.00     0.249 C 
ATOM     15  N   UNL A   1      33.401  24.251  25.683  1.00  0.00    -0.336 N 
ATOM     16  C   UNL A   1      32.855  24.780  23.431  1.00  0.00     0.021 A 
ATOM     17  C   UNL A   1      32.013  24.368  26.131  1.00  0.00     0.266 C 
ATOM     18  H   UNL A   1      33.828  25.175  25.741  1.00  0.00     0.347 HD
ATOM     19  H   UNL A   1      33.833  23.557  26.292  1.00  0.00     0.347 HD
ATOM     20  C   UNL A   1      31.571  25.199  23.864  1.00  0.00    -0.029 A 
ATOM     21  C   UNL A   1      33.553  25.536  22.477  1.00  0.00     0.060 A 
ATOM     22  C   UNL A   1      30.968  24.439  25.014  1.00  0.00     0.097 C 
ATOM     23  C   UNL A   1      31.018  26.391  23.395  1.00  0.00     0.054 A 
ATOM     24  C   UNL A   1      33.004  26.739  22.048  1.00  0.00     0.157 A 
ATOM     25  C   UNL A   1      31.760  27.164  22.518  1.00  0.00     0.157 A 
BRANCH  24  26
ATOM     26  O   UNL A   1      33.692  27.593  21.229  1.00  0.00    -0.504 OA
ATOM     27  H   UNL A   1      33.234  28.259  20.754  1.00  0.00     0.293 HD
ENDBRANCH  24  26
BRANCH  25  28
ATOM     28  O   UNL A   1      31.297  28.406  22.179  1.00  0.00    -0.504 OA
ATOM     29  H   UNL A   1      30.507  28.491  21.682  1.00  0.00     0.293 HD
ENDBRANCH  25  28
ENDBRANCH  10  14
ENDBRANCH   7   8
ENDBRANCH   6   7
ENDBRANCH   4   6
ENDBRANCH   3   4
ENDBRANCH   2   3
ENDBRANCH   1   2
BRANCH   1  30
ATOM     30  O   UNL A   1      41.873  20.488  27.271  1.00  0.00    -0.374 OA
BRANCH  30  31
ATOM     31  C   UNL A   1      42.694  20.406  26.097  1.00  0.00     0.202 C 
BRANCH  31  32
ATOM     32  C   UNL A   1      43.518  21.569  25.508  1.00  0.00     0.261 C 
BRANCH  32  33
ATOM     33  O   UNL A   1      42.794  22.727  25.107  1.00  0.00    -0.460 OA
BRANCH  33  34
ATOM     34  C   UNL A   1      43.538  23.857  25.091  1.00  0.00     0.338 C 
ATOM     35  O   UNL A   1      44.503  24.095  24.377  1.00  0.00    -0.246 OA
BRANCH  34  36
ATOM     36  C   UNL A   1      42.842  24.866  25.898  1.00  0.00     0.060 A 
ATOM     37  C   UNL A   1      43.235  26.206  25.764  1.00  0.00     0.016 A 
ATOM     38  C   UNL A   1      41.825  24.494  26.775  1.00  0.00     0.016 A 
ATOM     39  C   UNL A   1      42.627  27.188  26.529  1.00  0.00     0.010 A 
ATOM     40  C   UNL A   1      41.246  25.470  27.577  1.00  0.00     0.010 A 
ATOM     41  C   UNL A   1      41.676  26.807  27.480  1.00  0.00    -0.014 A 
BRANCH  41  42
ATOM     42  C   UNL A   1      41.332  27.741  28.564  1.00  0.00     0.031 A 
ATOM     43  C   UNL A   1      42.124  27.637  29.832  1.00  0.00     0.074 A 
ATOM     44  C   UNL A   1      40.328  28.618  28.425  1.00  0.00     0.049 A 
ATOM     45  N   UNL A   1      41.907  28.181  30.996  1.00  0.00    -0.248 NA
ATOM     46  C   UNL A   1      43.315  26.772  29.776  1.00  0.00     0.031 C 
ATOM     47  C   UNL A   1      39.556  28.827  27.202  1.00  0.00     0.029 A 
ATOM     48  N   UNL A   1      39.765  29.467  29.338  1.00  0.00    -0.354 N 
ATOM     49  C   UNL A   1      42.915  27.698  31.824  1.00  0.00     0.074 A 
ATOM     50  C   UNL A   1      43.722  26.796  31.032  1.00  0.00     0.031 C 
ATOM     51  C   UNL A   1      38.584  29.718  27.456  1.00  0.00     0.029 A 
ATOM     52  C   UNL A   1      38.635  30.089  28.869  1.00  0.00     0.049 A 
ATOM     53  H   UNL A   1      40.134  29.618  30.239  1.00  0.00     0.167 HD
ATOM     54  C   UNL A   1      43.131  27.982  33.131  1.00  0.00     0.034 A 
ATOM     55  C   UNL A   1      37.718  30.820  29.530  1.00  0.00     0.034 A 
ATOM     56  C   UNL A   1      42.277  28.867  33.885  1.00  0.00     0.049 A 
ATOM     57  C   UNL A   1      37.919  31.062  31.005  1.00  0.00     0.074 A 
ATOM     58  C   UNL A   1      42.389  29.258  35.205  1.00  0.00     0.029 A 
ATOM     59  N   UNL A   1      41.134  29.482  33.381  1.00  0.00    -0.354 N 
ATOM     60  N   UNL A   1      38.868  30.608  31.794  1.00  0.00    -0.248 NA
ATOM     61  C   UNL A   1      36.934  31.915  31.677  1.00  0.00     0.031 C 
ATOM     62  C   UNL A   1      41.267  30.031  35.524  1.00  0.00     0.029 A 
ATOM     63  C   UNL A   1      40.509  30.213  34.375  1.00  0.00     0.049 A 
ATOM     64  H   UNL A   1      40.816  29.406  32.452  1.00  0.00     0.167 HD
ATOM     65  C   UNL A   1      38.614  31.151  33.051  1.00  0.00     0.074 A 
ATOM     66  C   UNL A   1      37.419  31.963  32.911  1.00  0.00     0.031 C 
ATOM     67  C   UNL A   1      39.310  31.008  34.209  1.00  0.00     0.034 A 
BRANCH  54  68
ATOM     68  C   UNL A   1      44.267  27.260  33.815  1.00  0.00     0.023 A 
ATOM     69  C   UNL A   1      44.122  25.960  34.333  1.00  0.00     0.031 A 
ATOM     70  C   UNL A   1      45.491  27.917  34.037  1.00  0.00     0.131 A 
ATOM     71  C   UNL A   1      45.134  25.407  35.134  1.00  0.00     0.055 A 
ATOM     72  C   UNL A   1      46.534  27.320  34.747  1.00  0.00     0.041 A 
ATOM     73  F   UNL A   1      45.684  29.171  33.595  1.00  0.00    -0.206 F 
ATOM     74  C   UNL A   1      46.349  26.066  35.322  1.00  0.00     0.022 A 
BRANCH  71  75
ATOM     75  S   UNL A   1      44.755  23.913  36.093  1.00  0.00     0.124 S 
ATOM     76  O   UNL A   1      45.943  23.097  35.851  1.00  0.00    -0.237 OA
ATOM     77  O   UNL A   1      44.604  24.436  37.445  1.00  0.00    -0.237 OA
ATOM     78  O   UNL A   1      43.529  23.411  35.476  1.00  0.00    -0.744 OA
ENDBRANCH  71  75
ENDBRANCH  54  68
BRANCH  55  79
ATOM     79  C   UNL A   1      36.512  31.313  28.809  1.00  0.00     0.023 A 
ATOM     80  C   UNL A   1      35.531  30.428  28.339  1.00  0.00     0.031 A 
ATOM     81  C   UNL A   1      36.316  32.691  28.602  1.00  0.00     0.131 A 
ATOM     82  C   UNL A   1      34.404  30.930  27.670  1.00  0.00     0.055 A 
ATOM     83  C   UNL A   1      35.171  33.188  27.979  1.00  0.00     0.041 A 
ATOM     84  F   UNL A   1      37.223  33.580  29.038  1.00  0.00    -0.206 F 
ATOM     85  C   UNL A   1      34.208  32.304  27.502  1.00  0.00     0.022 A 
BRANCH  82  86
ATOM     86  S   UNL A   1      33.210  29.755  26.978  1.00  0.00     0.124 S 
ATOM     87  O   UNL A   1      33.521  28.542  27.725  1.00  0.00    -0.237 OA
ATOM     88  O   UNL A   1      31.936  30.395  27.294  1.00  0.00    -0.237 OA
ATOM     89  O   UNL A   1      33.550  29.720  25.557  1.00  0.00    -0.744 OA
ENDBRANCH  82  86
ENDBRANCH  55  79
BRANCH  67  90
ATOM     90  C   UNL A   1      38.837  31.801  35.403  1.00  0.00     0.023 A 
ATOM     91  C   UNL A   1      38.231  31.192  36.515  1.00  0.00     0.031 A 
ATOM     92  C   UNL A   1      39.034  33.194  35.434  1.00  0.00     0.131 A 
ATOM     93  C   UNL A   1      37.807  31.982  37.596  1.00  0.00     0.055 A 
ATOM     94  C   UNL A   1      38.670  33.964  36.539  1.00  0.00     0.041 A 
ATOM     95  F   UNL A   1      39.603  33.827  34.396  1.00  0.00    -0.206 F 
ATOM     96  C   UNL A   1      38.045  33.359  37.624  1.00  0.00     0.022 A 
BRANCH  93  97
ATOM     97  S   UNL A   1      36.867  31.199  38.933  1.00  0.00     0.124 S 
ATOM     98  O   UNL A   1      37.798  31.293  40.053  1.00  0.00    -0.237 OA
ATOM     99  O   UNL A   1      35.679  32.043  39.017  1.00  0.00    -0.237 OA
ATOM    100  O   UNL A   1      36.630  29.843  38.437  1.00  0.00    -0.744 OA
ENDBRANCH  93  97
ENDBRANCH  67  90
ENDBRANCH  41  42
ENDBRANCH  34  36
ENDBRANCH  33  34
ENDBRANCH  32  33
ENDBRANCH  31  32
ENDBRANCH  30  31
ENDBRANCH   1  30
TORSDOF 22
ENDMDL
MODEL 2
REMARK VINA RESULT:     -11.3      2.020      2.282
REMARK SMILES O=C(COc1ccccc1[C@@H]1[NH2+]CCc2cc(O)c(O)cc21)OCCOCCOC(=O)c1ccc(-c2c3nc(c(-c4cc(S(=O)(=O)[O-])ccc4F)c4ccc([nH]4)c(-c4cc(S(=O)(=O)[O-])ccc4F)c4nc(c(-c5cc(S(=O)(=O)[O-])ccc5F)c5ccc2[nH]5)C=C4)C=C3)cc1
REMARK SMILES IDX 25 1 24 2 23 3 2 4 1 5 3 6 4 7 5 8 6 9 10 10 7 11 9 12 8 13
REMARK SMILES IDX 11 14 12 15 22 16 13 17 15 20 21 21 14 22 16 23 19 24 17 25
REMARK SMILES IDX 20 26 18 28 26 30 27 31 28 32 29 33 30 34 31 35 32 36 33 37
REMARK SMILES IDX 94 38 34 39 93 40 35 41 36 42 37 43 87 44 38 45 92 46 86 47
REMARK SMILES IDX 88 48 39 49 91 50 85 51 84 52 40 54 72 55 52 56 71 57 53 58
REMARK SMILES IDX 56 59 70 60 89 61 54 62 55 63 69 65 90 66 57 67 41 68 42 69
REMARK SMILES IDX 50 70 43 71 49 72 51 73 48 74 44 75 45 76 46 77 47 78 73 79
REMARK SMILES IDX 74 80 82 81 75 82 81 83 83 84 80 85 76 86 77 87 78 88 79 89
REMARK SMILES IDX 58 90 59 91 67 92 60 93 66 94 68 95 65 96 61 97 62 98 63 99
REMARK SMILES IDX 64 100
REMARK H PARENT 12 18 12 19 20 27 18 29 88 53 56 64
REMARK Flexibility Score: inf
ROOT
ATOM      1  C   UNL A   1      39.465  22.041  26.665  1.00  0.00     0.202 C 
ENDROOT
BRANCH   1   2
ATOM      2  C   UNL A   1      38.563  21.443  25.566  1.00  0.00     0.261 C 
BRANCH   2   3
ATOM      3  O   UNL A   1      37.276  22.075  25.522  1.00  0.00    -0.461 OA
BRANCH   3   4
ATOM      4  C   UNL A   1      36.246  21.199  25.582  1.00  0.00     0.344 C 
ATOM      5  O   UNL A   1      36.290  20.149  24.945  1.00  0.00    -0.248 OA
BRANCH   4   6
ATOM      6  C   UNL A   1      35.073  21.693  26.452  1.00  0.00     0.351 C 
BRANCH   6   7
ATOM      7  O   UNL A   1      33.757  21.438  26.060  1.00  0.00    -0.481 OA
BRANCH   7   8
ATOM      8  C   UNL A   1      33.183  21.826  24.890  1.00  0.00     0.129 A 
ATOM      9  C   UNL A   1      32.778  20.654  24.216  1.00  0.00     0.047 A 
ATOM     10  C   UNL A   1      32.987  23.089  24.282  1.00  0.00     0.056 A 
ATOM     11  C   UNL A   1      32.278  20.681  22.925  1.00  0.00     0.004 A 
ATOM     12  C   UNL A   1      32.545  23.076  22.936  1.00  0.00     0.014 A 
ATOM     13  C   UNL A   1      32.199  21.895  22.268  1.00  0.00     0.001 A 
BRANCH  10  14
ATOM     14  C   UNL A   1      33.309  24.446  24.909  1.00  0.00     0.249 C 
ATOM     15  N   UNL A   1      32.942  24.533  26.335  1.00  0.00    -0.336 N 
ATOM     16  C   UNL A   1      32.787  25.758  24.304  1.00  0.00     0.021 A 
ATOM     17  C   UNL A   1      31.511  24.658  26.612  1.00  0.00     0.266 C 
ATOM     18  H   UNL A   1      33.410  25.348  26.729  1.00  0.00     0.347 HD
ATOM     19  H   UNL A   1      33.231  23.649  26.752  1.00  0.00     0.347 HD
ATOM     20  C   UNL A   1      31.479  26.163  24.674  1.00  0.00    -0.029 A 
ATOM     21  C   UNL A   1      33.670  26.684  23.728  1.00  0.00     0.060 A 
ATOM     22  C   UNL A   1      30.659  25.165  25.446  1.00  0.00     0.097 C 
ATOM     23  C   UNL A   1      31.080  27.492  24.527  1.00  0.00     0.054 A 
ATOM     24  C   UNL A   1      33.269  28.011  23.622  1.00  0.00     0.157 A 
ATOM     25  C   UNL A   1      31.995  28.407  24.034  1.00  0.00     0.157 A 
BRANCH  24  26
ATOM     26  O   UNL A   1      34.127  28.990  23.202  1.00  0.00    -0.504 OA
ATOM     27  H   UNL A   1      34.933  29.136  23.658  1.00  0.00     0.293 HD
ENDBRANCH  24  26
BRANCH  25  28
ATOM     28  O   UNL A   1      31.667  29.734  24.036  1.00  0.00    -0.504 OA
ATOM     29  H   UNL A   1      32.333  30.381  23.904  1.00  0.00     0.293 HD
ENDBRANCH  25  28
ENDBRANCH  10  14
ENDBRANCH   7   8
ENDBRANCH   6   7
ENDBRANCH   4   6
ENDBRANCH   3   4
ENDBRANCH   2   3
ENDBRANCH   1   2
BRANCH   1  30
ATOM     30  O   UNL A   1      40.521  21.232  27.182  1.00  0.00    -0.374 OA
BRANCH  30  31
ATOM     31  C   UNL A   1      41.600  20.789  26.348  1.00  0.00     0.202 C 
BRANCH  31  32
ATOM     32  C   UNL A   1      42.742  21.684  25.824  1.00  0.00     0.261 C 
BRANCH  32  33
ATOM     33  O   UNL A   1      42.361  22.859  25.119  1.00  0.00    -0.460 OA
BRANCH  33  34
ATOM     34  C   UNL A   1      43.247  23.876  25.232  1.00  0.00     0.338 C 
ATOM     35  O   UNL A   1      44.304  24.002  24.630  1.00  0.00    -0.246 OA
BRANCH  34  36
ATOM     36  C   UNL A   1      42.613  24.942  26.016  1.00  0.00     0.060 A 
ATOM     37  C   UNL A   1      43.094  26.251  25.863  1.00  0.00     0.016 A 
ATOM     38  C   UNL A   1      41.566  24.653  26.889  1.00  0.00     0.016 A 
ATOM     39  C   UNL A   1      42.546  27.283  26.605  1.00  0.00     0.010 A 
ATOM     40  C   UNL A   1      41.046  25.679  27.668  1.00  0.00     0.010 A 
ATOM     41  C   UNL A   1      41.564  26.983  27.552  1.00  0.00    -0.014 A 
BRANCH  41  42
ATOM     42  C   UNL A   1      41.273  27.957  28.618  1.00  0.00     0.031 A 
ATOM     43  C   UNL A   1      42.187  27.963  29.805  1.00  0.00     0.074 A 
ATOM     44  C   UNL A   1      40.213  28.771  28.535  1.00  0.00     0.049 A 
ATOM     45  N   UNL A   1      42.051  28.558  30.956  1.00  0.00    -0.248 NA
ATOM     46  C   UNL A   1      43.414  27.158  29.675  1.00  0.00     0.031 C 
ATOM     47  C   UNL A   1      39.317  28.873  27.385  1.00  0.00     0.029 A 
ATOM     48  N   UNL A   1      39.692  29.640  29.455  1.00  0.00    -0.354 N 
ATOM     49  C   UNL A   1      43.160  28.174  31.704  1.00  0.00     0.074 A 
ATOM     50  C   UNL A   1      43.937  27.273  30.883  1.00  0.00     0.031 C 
ATOM     51  C   UNL A   1      38.324  29.726  27.688  1.00  0.00     0.029 A 
ATOM     52  C   UNL A   1      38.489  30.176  29.069  1.00  0.00     0.049 A 
ATOM     53  H   UNL A   1      40.136  29.858  30.306  1.00  0.00     0.167 HD
ATOM     54  C   UNL A   1      43.483  28.541  32.968  1.00  0.00     0.034 A 
ATOM     55  C   UNL A   1      37.599  30.894  29.780  1.00  0.00     0.034 A 
ATOM     56  C   UNL A   1      42.657  29.420  33.757  1.00  0.00     0.049 A 
ATOM     57  C   UNL A   1      37.927  31.227  31.214  1.00  0.00     0.074 A 
ATOM     58  C   UNL A   1      42.872  29.889  35.039  1.00  0.00     0.029 A 
ATOM     59  N   UNL A   1      41.438  29.947  33.338  1.00  0.00    -0.354 N 
ATOM     60  N   UNL A   1      38.971  30.866  31.928  1.00  0.00    -0.248 NA
ATOM     61  C   UNL A   1      36.963  32.064  31.937  1.00  0.00     0.031 C 
ATOM     62  C   UNL A   1      41.744  30.620  35.427  1.00  0.00     0.029 A 
ATOM     63  C   UNL A   1      40.870  30.699  34.351  1.00  0.00     0.049 A 
ATOM     64  H   UNL A   1      41.037  29.804  32.450  1.00  0.00     0.167 HD
ATOM     65  C   UNL A   1      38.808  31.464  33.175  1.00  0.00     0.074 A 
ATOM     66  C   UNL A   1      37.561  32.204  33.113  1.00  0.00     0.031 C 
ATOM     67  C   UNL A   1      39.618  31.421  34.264  1.00  0.00     0.034 A 
BRANCH  54  68
ATOM     68  C   UNL A   1      44.719  27.916  33.572  1.00  0.00     0.023 A 
ATOM     69  C   UNL A   1      44.675  26.692  34.264  1.00  0.00     0.031 A 
ATOM     70  C   UNL A   1      45.946  28.602  33.537  1.00  0.00     0.131 A 
ATOM     71  C   UNL A   1      45.799  26.249  34.978  1.00  0.00     0.055 A 
ATOM     72  C   UNL A   1      47.090  28.105  34.165  1.00  0.00     0.041 A 
ATOM     73  F   UNL A   1      46.049  29.791  32.920  1.00  0.00    -0.206 F 
ATOM     74  C   UNL A   1      47.014  26.933  34.911  1.00  0.00     0.022 A 
BRANCH  71  75
ATOM     75  S   UNL A   1      45.589  24.887  36.160  1.00  0.00     0.124 S 
ATOM     76  O   UNL A   1      46.954  24.710  36.652  1.00  0.00    -0.237 OA
ATOM     77  O   UNL A   1      44.634  25.439  37.111  1.00  0.00    -0.237 OA
ATOM     78  O   UNL A   1      45.087  23.791  35.333  1.00  0.00    -0.744 OA
ENDBRANCH  71  75
ENDBRANCH  54  68
BRANCH  55  79
ATOM     79  C   UNL A   1      36.304  31.284  29.157  1.00  0.00     0.023 A 
ATOM     80  C   UNL A   1      35.853  32.611  29.183  1.00  0.00     0.031 A 
ATOM     81  C   UNL A   1      35.509  30.326  28.501  1.00  0.00     0.131 A 
ATOM     82  C   UNL A   1      34.630  32.942  28.579  1.00  0.00     0.055 A 
ATOM     83  C   UNL A   1      34.318  30.670  27.861  1.00  0.00     0.041 A 
ATOM     84  F   UNL A   1      35.899  29.042  28.443  1.00  0.00    -0.206 F 
ATOM     85  C   UNL A   1      33.869  31.985  27.903  1.00  0.00     0.022 A 
BRANCH  82  86
ATOM     86  S   UNL A   1      34.022  34.644  28.725  1.00  0.00     0.124 S 
ATOM     87  O   UNL A   1      34.794  35.324  27.690  1.00  0.00    -0.237 OA
ATOM     88  O   UNL A   1      32.596  34.481  28.460  1.00  0.00    -0.237 OA
ATOM     89  O   UNL A   1      34.360  35.009  30.099  1.00  0.00    -0.744 OA
ENDBRANCH  82  86
ENDBRANCH  55  79
BRANCH  67  90
ATOM     90  C   UNL A   1      39.218  32.253  35.458  1.00  0.00     0.023 A 
ATOM     91  C   UNL A   1      39.669  33.571  35.641  1.00  0.00     0.031 A 
ATOM     92  C   UNL A   1      38.334  31.716  36.413  1.00  0.00     0.131 A 
ATOM     93  C   UNL A   1      39.266  34.294  36.774  1.00  0.00     0.055 A 
ATOM     94  C   UNL A   1      37.885  32.463  37.502  1.00  0.00     0.041 A 
ATOM     95  F   UNL A   1      37.876  30.460  36.290  1.00  0.00    -0.206 F 
ATOM     96  C   UNL A   1      38.359  33.756  37.692  1.00  0.00     0.022 A 
BRANCH  93  97
ATOM     97  S   UNL A   1      40.005  35.921  37.080  1.00  0.00     0.124 S 
ATOM     98  O   UNL A   1      39.665  36.642  35.857  1.00  0.00    -0.237 OA
ATOM     99  O   UNL A   1      39.316  36.356  38.290  1.00  0.00    -0.237 OA
ATOM    100  O   UNL A   1      41.427  35.625  37.249  1.00  0.00    -0.744 OA
ENDBRANCH  93  97
ENDBRANCH  67  90
ENDBRANCH  41  42
ENDBRANCH  34  36
ENDBRANCH  33  34
ENDBRANCH  32  33
ENDBRANCH  31  32
ENDBRANCH  30  31
ENDBRANCH   1  30
TORSDOF 22
ENDMDL
MODEL 3
REMARK VINA RESULT:     -10.9      5.027      7.730
REMARK SMILES O=C(COc1ccccc1[C@@H]1[NH2+]CCc2cc(O)c(O)cc21)OCCOCCOC(=O)c1ccc(-c2c3nc(c(-c4cc(S(=O)(=O)[O-])ccc4F)c4ccc([nH]4)c(-c4cc(S(=O)(=O)[O-])ccc4F)c4nc(c(-c5cc(S(=O)(=O)[O-])ccc5F)c5ccc2[nH]5)C=C4)C=C3)cc1
REMARK SMILES IDX 25 1 24 2 23 3 2 4 1 5 3 6 4 7 5 8 6 9 10 10 7 11 9 12 8 13
REMARK SMILES IDX 11 14 12 15 22 16 13 17 15 20 21 21 14 22 16 23 19 24 17 25
REMARK SMILES IDX 20 26 18 28 26 30 27 31 28 32 29 33 30 34 31 35 32 36 33 37
REMARK SMILES IDX 94 38 34 39 93 40 35 41 36 42 37 43 87 44 38 45 92 46 86 47
REMARK SMILES IDX 88 48 39 49 91 50 85 51 84 52 40 54 72 55 52 56 71 57 53 58
REMARK SMILES IDX 56 59 70 60 89 61 54 62 55 63 69 65 90 66 57 67 41 68 42 69
REMARK SMILES IDX 50 70 43 71 49 72 51 73 48 74 44 75 45 76 46 77 47 78 73 79
REMARK SMILES IDX 74 80 82 81 75 82 81 83 83 84 80 85 76 86 77 87 78 88 79 89
REMARK SMILES IDX 58 90 59 91 67 92 60 93 66 94 68 95 65 96 61 97 62 98 63 99
REMARK SMILES IDX 64 100
REMARK H PARENT 12 18 12 19 20 27 18 29 88 53 56 64
REMARK Flexibility Score: inf
ROOT
ATOM      1  C   UNL A   1      36.296  23.320  23.351  1.00  0.00     0.202 C 
ENDROOT
BRANCH   1   2
ATOM      2  C   UNL A   1      34.867  22.771  23.164  1.00  0.00     0.261 C 
BRANCH   2   3
ATOM      3  O   UNL A   1      33.880  23.812  23.204  1.00  0.00    -0.461 OA
BRANCH   3   4
ATOM      4  C   UNL A   1      33.235  23.985  22.027  1.00  0.00     0.344 C 
ATOM      5  O   UNL A   1      33.535  23.302  21.051  1.00  0.00    -0.248 OA
BRANCH   4   6
ATOM      6  C   UNL A   1      32.187  25.115  22.065  1.00  0.00     0.351 C 
BRANCH   6   7
ATOM      7  O   UNL A   1      32.448  26.285  22.784  1.00  0.00    -0.481 OA
BRANCH   7   8
ATOM      8  C   UNL A   1      31.526  27.212  23.159  1.00  0.00     0.129 A 
ATOM      9  C   UNL A   1      31.431  28.153  22.111  1.00  0.00     0.047 A 
ATOM     10  C   UNL A   1      30.757  27.390  24.334  1.00  0.00     0.056 A 
ATOM     11  C   UNL A   1      30.680  29.310  22.225  1.00  0.00     0.004 A 
ATOM     12  C   UNL A   1      30.060  28.618  24.448  1.00  0.00     0.014 A 
ATOM     13  C   UNL A   1      30.023  29.562  23.415  1.00  0.00     0.001 A 
BRANCH  10  14
ATOM     14  C   UNL A   1      30.699  26.429  25.522  1.00  0.00     0.249 C 
ATOM     15  N   UNL A   1      30.986  27.080  26.814  1.00  0.00    -0.336 N 
ATOM     16  C   UNL A   1      31.533  25.139  25.556  1.00  0.00     0.021 A 
ATOM     17  C   UNL A   1      32.390  27.418  27.054  1.00  0.00     0.266 C 
ATOM     18  H   UNL A   1      30.683  26.450  27.556  1.00  0.00     0.347 HD
ATOM     19  H   UNL A   1      30.485  27.968  26.796  1.00  0.00     0.347 HD
ATOM     20  C   UNL A   1      32.872  25.248  26.012  1.00  0.00    -0.029 A 
ATOM     21  C   UNL A   1      30.911  23.882  25.504  1.00  0.00     0.060 A 
ATOM     22  C   UNL A   1      33.403  26.642  26.209  1.00  0.00     0.097 C 
ATOM     23  C   UNL A   1      33.560  24.123  26.467  1.00  0.00     0.054 A 
ATOM     24  C   UNL A   1      31.598  22.778  25.995  1.00  0.00     0.157 A 
ATOM     25  C   UNL A   1      32.900  22.906  26.485  1.00  0.00     0.157 A 
BRANCH  24  26
ATOM     26  O   UNL A   1      31.003  21.550  26.104  1.00  0.00    -0.504 OA
ATOM     27  H   UNL A   1      30.098  21.487  26.336  1.00  0.00     0.293 HD
ENDBRANCH  24  26
BRANCH  25  28
ATOM     28  O   UNL A   1      33.509  21.833  27.075  1.00  0.00    -0.504 OA
ATOM     29  H   UNL A   1      33.072  21.004  27.104  1.00  0.00     0.293 HD
ENDBRANCH  25  28
ENDBRANCH  10  14
ENDBRANCH   7   8
ENDBRANCH   6   7
ENDBRANCH   4   6
ENDBRANCH   3   4
ENDBRANCH   2   3
ENDBRANCH   1   2
BRANCH   1  30
ATOM     30  O   UNL A   1      37.055  22.853  24.465  1.00  0.00    -0.374 OA
BRANCH  30  31
ATOM     31  C   UNL A   1      36.999  21.483  24.886  1.00  0.00     0.202 C 
BRANCH  31  32
ATOM     32  C   UNL A   1      38.187  20.681  25.455  1.00  0.00     0.261 C 
BRANCH  32  33
ATOM     33  O   UNL A   1      39.433  21.362  25.548  1.00  0.00    -0.460 OA
BRANCH  33  34
ATOM     34  C   UNL A   1      40.003  21.294  26.774  1.00  0.00     0.338 C 
ATOM     35  O   UNL A   1      40.380  20.286  27.356  1.00  0.00    -0.246 OA
BRANCH  34  36
ATOM     36  C   UNL A   1      40.332  22.660  27.195  1.00  0.00     0.060 A 
ATOM     37  C   UNL A   1      39.620  23.721  26.615  1.00  0.00     0.016 A 
ATOM     38  C   UNL A   1      41.331  22.890  28.140  1.00  0.00     0.016 A 
ATOM     39  C   UNL A   1      39.919  25.028  26.960  1.00  0.00     0.010 A 
ATOM     40  C   UNL A   1      41.663  24.202  28.452  1.00  0.00     0.010 A 
ATOM     41  C   UNL A   1      40.983  25.268  27.832  1.00  0.00    -0.014 A 
BRANCH  41  42
ATOM     42  C   UNL A   1      41.579  26.613  27.885  1.00  0.00     0.031 A 
ATOM     43  C   UNL A   1      42.965  26.768  27.339  1.00  0.00     0.074 A 
ATOM     44  C   UNL A   1      40.914  27.638  28.434  1.00  0.00     0.049 A 
ATOM     45  N   UNL A   1      43.793  27.769  27.442  1.00  0.00    -0.248 NA
ATOM     46  C   UNL A   1      43.496  25.612  26.595  1.00  0.00     0.031 C 
ATOM     47  C   UNL A   1      39.539  27.585  28.925  1.00  0.00     0.029 A 
ATOM     48  N   UNL A   1      41.326  28.915  28.703  1.00  0.00    -0.354 N 
ATOM     49  C   UNL A   1      44.958  27.354  26.804  1.00  0.00     0.074 A 
ATOM     50  C   UNL A   1      44.734  26.000  26.347  1.00  0.00     0.031 C 
ATOM     51  C   UNL A   1      39.235  28.769  29.481  1.00  0.00     0.029 A 
ATOM     52  C   UNL A   1      40.412  29.633  29.434  1.00  0.00     0.049 A 
ATOM     53  H   UNL A   1      42.189  29.281  28.401  1.00  0.00     0.167 HD
ATOM     54  C   UNL A   1      46.109  28.047  26.631  1.00  0.00     0.034 A 
ATOM     55  C   UNL A   1      40.546  30.824  30.046  1.00  0.00     0.034 A 
ATOM     56  C   UNL A   1      46.292  29.386  27.133  1.00  0.00     0.049 A 
ATOM     57  C   UNL A   1      41.861  31.553  29.921  1.00  0.00     0.074 A 
ATOM     58  C   UNL A   1      47.394  30.211  27.014  1.00  0.00     0.029 A 
ATOM     59  N   UNL A   1      45.346  30.088  27.875  1.00  0.00    -0.354 N 
ATOM     60  N   UNL A   1      42.965  31.167  29.321  1.00  0.00    -0.248 NA
ATOM     61  C   UNL A   1      41.947  32.877  30.547  1.00  0.00     0.031 C 
ATOM     62  C   UNL A   1      47.150  31.369  27.760  1.00  0.00     0.029 A 
ATOM     63  C   UNL A   1      45.855  31.317  28.256  1.00  0.00     0.049 A 
ATOM     64  H   UNL A   1      44.445  29.758  28.098  1.00  0.00     0.167 HD
ATOM     65  C   UNL A   1      43.868  32.217  29.467  1.00  0.00     0.074 A 
ATOM     66  C   UNL A   1      43.176  33.250  30.216  1.00  0.00     0.031 C 
ATOM     67  C   UNL A   1      45.143  32.326  29.012  1.00  0.00     0.034 A 
BRANCH  54  68
ATOM     68  C   UNL A   1      47.253  27.327  25.957  1.00  0.00     0.023 A 
ATOM     69  C   UNL A   1      48.167  26.537  26.679  1.00  0.00     0.031 A 
ATOM     70  C   UNL A   1      47.489  27.508  24.583  1.00  0.00     0.131 A 
ATOM     71  C   UNL A   1      49.324  26.053  26.049  1.00  0.00     0.055 A 
ATOM     72  C   UNL A   1      48.590  26.937  23.940  1.00  0.00     0.041 A 
ATOM     73  F   UNL A   1      46.672  28.275  23.842  1.00  0.00    -0.206 F 
ATOM     74  C   UNL A   1      49.528  26.223  24.679  1.00  0.00     0.022 A 
BRANCH  71  75
ATOM     75  S   UNL A   1      50.653  25.381  27.087  1.00  0.00     0.124 S 
ATOM     76  O   UNL A   1      49.946  24.349  27.842  1.00  0.00    -0.237 OA
ATOM     77  O   UNL A   1      51.614  24.904  26.100  1.00  0.00    -0.237 OA
ATOM     78  O   UNL A   1      51.087  26.532  27.877  1.00  0.00    -0.744 OA
ENDBRANCH  71  75
ENDBRANCH  54  68
BRANCH  55  79
ATOM     79  C   UNL A   1      39.426  31.356  30.871  1.00  0.00     0.023 A 
ATOM     80  C   UNL A   1      39.447  31.271  32.270  1.00  0.00     0.031 A 
ATOM     81  C   UNL A   1      38.324  31.985  30.261  1.00  0.00     0.131 A 
ATOM     82  C   UNL A   1      38.376  31.790  33.015  1.00  0.00     0.055 A 
ATOM     83  C   UNL A   1      37.286  32.541  31.009  1.00  0.00     0.041 A 
ATOM     84  F   UNL A   1      38.259  32.097  28.924  1.00  0.00    -0.206 F 
ATOM     85  C   UNL A   1      37.306  32.440  32.396  1.00  0.00     0.022 A 
BRANCH  82  86
ATOM     86  S   UNL A   1      38.380  31.566  34.814  1.00  0.00     0.124 S 
ATOM     87  O   UNL A   1      39.577  32.305  35.202  1.00  0.00    -0.237 OA
ATOM     88  O   UNL A   1      37.104  32.162  35.197  1.00  0.00    -0.237 OA
ATOM     89  O   UNL A   1      38.461  30.115  34.976  1.00  0.00    -0.744 OA
ENDBRANCH  82  86
ENDBRANCH  55  79
BRANCH  67  90
ATOM     90  C   UNL A   1      45.853  33.637  29.251  1.00  0.00     0.023 A 
ATOM     91  C   UNL A   1      45.780  34.707  28.343  1.00  0.00     0.031 A 
ATOM     92  C   UNL A   1      46.589  33.822  30.437  1.00  0.00     0.131 A 
ATOM     93  C   UNL A   1      46.466  35.900  28.617  1.00  0.00     0.055 A 
ATOM     94  C   UNL A   1      47.213  35.034  30.734  1.00  0.00     0.041 A 
ATOM     95  F   UNL A   1      46.695  32.831  31.336  1.00  0.00    -0.206 F 
ATOM     96  C   UNL A   1      47.161  36.078  29.817  1.00  0.00     0.022 A 
BRANCH  93  97
ATOM     97  S   UNL A   1      46.507  37.195  27.349  1.00  0.00     0.124 S 
ATOM     98  O   UNL A   1      47.758  37.880  27.656  1.00  0.00    -0.237 OA
ATOM     99  O   UNL A   1      46.488  36.422  26.111  1.00  0.00    -0.237 OA
ATOM    100  O   UNL A   1      45.295  37.971  27.613  1.00  0.00    -0.744 OA
ENDBRANCH  93  97
ENDBRANCH  67  90
ENDBRANCH  41  42
ENDBRANCH  34  36
ENDBRANCH  33  34
ENDBRANCH  32  33
ENDBRANCH  31  32
ENDBRANCH  30  31
ENDBRANCH   1  30
TORSDOF 22
ENDMDL
