MODEL 1
REMARK VINA RESULT:      -8.7      0.000      0.000
REMARK SMILES CC[C@@H](C)N(CC)c1cc(C(=O)OCCOCCOC(=O)c2ccc(-c3c4nc(c(-c5cc(S(=O)(=O)[O-])ccc5F)c5ccc([nH]5)c(-c5cc(S(=O)(=O)[O-])ccc5F)c5nc(c(-c6cc(S(=O)(=O)[O-])ccc6F)c6ccc3[nH]6)C=C5)C=C4)cc2)c2ccccc2n1
REMARK SMILES IDX 16 1 15 2 14 3 13 4 11 5 12 6 10 7 8 8 9 9 91 10 90 11 85 12
REMARK SMILES IDX 89 13 86 14 88 15 87 16 5 17 3 18 4 19 2 20 1 21 6 22 7 23
REMARK SMILES IDX 17 24 18 25 19 26 20 27 21 28 22 29 23 30 84 31 24 32 83 33
REMARK SMILES IDX 25 34 26 35 27 36 77 37 28 38 82 39 76 40 78 41 29 42 81 43
REMARK SMILES IDX 75 44 74 45 30 47 62 48 42 49 61 50 43 51 46 52 60 53 79 54
REMARK SMILES IDX 44 55 45 56 59 58 80 59 47 60 31 61 32 62 40 63 33 64 39 65
REMARK SMILES IDX 41 66 38 67 34 68 35 69 36 70 37 71 63 72 64 73 72 74 65 75
REMARK SMILES IDX 71 76 73 77 70 78 66 79 67 80 68 81 69 82 48 83 49 84 57 85
REMARK SMILES IDX 50 86 56 87 58 88 55 89 51 90 52 91 53 92 54 93
REMARK H PARENT 78 46 46 57
REMARK Flexibility Score: inf
ROOT
ATOM      1  O   UNL A   1      35.273  33.431  30.939  1.00  0.00    -0.374 OA
ENDROOT
BRANCH   1   2
ATOM      2  C   UNL A   1      34.876  32.659  32.076  1.00  0.00     0.202 C 
BRANCH   2   3
ATOM      3  C   UNL A   1      34.365  33.464  33.271  1.00  0.00     0.261 C 
BRANCH   3   4
ATOM      4  O   UNL A   1      35.153  33.167  34.436  1.00  0.00    -0.460 OA
BRANCH   4   5
ATOM      5  C   UNL A   1      36.364  33.762  34.487  1.00  0.00     0.339 C 
ATOM      6  O   UNL A   1      36.628  34.910  34.157  1.00  0.00    -0.246 OA
BRANCH   5   7
ATOM      7  C   UNL A   1      37.326  32.912  35.218  1.00  0.00     0.073 A 
ATOM      8  C   UNL A   1      38.485  32.633  37.302  1.00  0.00     0.130 A 
ATOM      9  C   UNL A   1      37.567  33.317  36.533  1.00  0.00     0.063 A 
ATOM     10  N   UNL A   1      39.157  31.587  36.794  1.00  0.00    -0.231 NA
ATOM     11  C   UNL A   1      38.941  31.189  35.528  1.00  0.00     0.074 A 
ATOM     12  C   UNL A   1      38.004  31.801  34.673  1.00  0.00     0.015 A 
ATOM     13  C   UNL A   1      39.705  30.134  35.045  1.00  0.00     0.029 A 
ATOM     14  C   UNL A   1      37.844  31.286  33.360  1.00  0.00     0.011 A 
ATOM     15  C   UNL A   1      39.554  29.644  33.747  1.00  0.00     0.002 A 
ATOM     16  C   UNL A   1      38.609  30.211  32.907  1.00  0.00     0.001 A 
BRANCH   8  17
ATOM     17  N   UNL A   1      38.772  33.073  38.583  1.00  0.00    -0.354 N 
BRANCH  17  18
ATOM     18  C   UNL A   1      37.698  33.150  39.587  1.00  0.00     0.080 C 
ATOM     19  C   UNL A   1      38.036  34.226  40.624  1.00  0.00     0.031 C 
BRANCH  18  20
ATOM     20  C   UNL A   1      37.369  31.783  40.215  1.00  0.00     0.021 C 
ATOM     21  C   UNL A   1      36.230  31.052  39.515  1.00  0.00     0.006 C 
ENDBRANCH  18  20
ENDBRANCH  17  18
BRANCH  17  22
ATOM     22  C   UNL A   1      40.031  33.775  38.807  1.00  0.00     0.115 C 
ATOM     23  C   UNL A   1      40.030  35.158  38.166  1.00  0.00     0.027 C 
ENDBRANCH  17  22
ENDBRANCH   8  17
ENDBRANCH   5   7
ENDBRANCH   4   5
ENDBRANCH   3   4
ENDBRANCH   2   3
ENDBRANCH   1   2
BRANCH   1  24
ATOM     24  C   UNL A   1      34.317  33.589  29.890  1.00  0.00     0.202 C 
BRANCH  24  25
ATOM     25  C   UNL A   1      34.358  32.554  28.758  1.00  0.00     0.261 C 
BRANCH  25  26
ATOM     26  O   UNL A   1      35.588  31.808  28.733  1.00  0.00    -0.460 OA
BRANCH  26  27
ATOM     27  C   UNL A   1      35.480  30.555  28.228  1.00  0.00     0.338 C 
ATOM     28  O   UNL A   1      34.503  30.068  27.676  1.00  0.00    -0.246 OA
BRANCH  27  29
ATOM     29  C   UNL A   1      36.792  29.880  28.262  1.00  0.00     0.060 A 
ATOM     30  C   UNL A   1      37.112  29.143  29.410  1.00  0.00     0.016 A 
ATOM     31  C   UNL A   1      37.720  30.019  27.228  1.00  0.00     0.016 A 
ATOM     32  C   UNL A   1      38.379  28.580  29.549  1.00  0.00     0.010 A 
ATOM     33  C   UNL A   1      38.995  29.460  27.375  1.00  0.00     0.010 A 
ATOM     34  C   UNL A   1      39.341  28.766  28.549  1.00  0.00    -0.014 A 
BRANCH  34  35
ATOM     35  C   UNL A   1      40.746  28.355  28.797  1.00  0.00     0.031 A 
ATOM     36  C   UNL A   1      41.591  29.175  29.735  1.00  0.00     0.074 A 
ATOM     37  C   UNL A   1      41.254  27.251  28.218  1.00  0.00     0.049 A 
ATOM     38  N   UNL A   1      42.845  29.025  30.071  1.00  0.00    -0.248 NA
ATOM     39  C   UNL A   1      40.928  30.321  30.376  1.00  0.00     0.031 C 
ATOM     40  C   UNL A   1      40.517  26.351  27.331  1.00  0.00     0.029 A 
ATOM     41  N   UNL A   1      42.509  26.701  28.287  1.00  0.00    -0.354 N 
ATOM     42  C   UNL A   1      43.129  30.062  30.955  1.00  0.00     0.074 A 
ATOM     43  C   UNL A   1      41.920  30.850  31.077  1.00  0.00     0.031 C 
ATOM     44  C   UNL A   1      41.339  25.364  26.932  1.00  0.00     0.029 A 
ATOM     45  C   UNL A   1      42.668  25.583  27.502  1.00  0.00     0.049 A 
ATOM     46  H   UNL A   1      43.230  27.073  28.846  1.00  0.00     0.167 HD
ATOM     47  C   UNL A   1      44.288  30.327  31.606  1.00  0.00     0.034 A 
ATOM     48  C   UNL A   1      43.764  24.838  27.254  1.00  0.00     0.034 A 
ATOM     49  C   UNL A   1      45.484  29.531  31.473  1.00  0.00     0.049 A 
ATOM     50  C   UNL A   1      45.067  25.205  27.927  1.00  0.00     0.074 A 
ATOM     51  C   UNL A   1      46.701  29.691  32.115  1.00  0.00     0.029 A 
ATOM     52  N   UNL A   1      45.622  28.436  30.631  1.00  0.00    -0.354 N 
ATOM     53  N   UNL A   1      45.314  26.175  28.778  1.00  0.00    -0.248 NA
ATOM     54  C   UNL A   1      46.235  24.373  27.610  1.00  0.00     0.031 C 
ATOM     55  C   UNL A   1      47.594  28.743  31.604  1.00  0.00     0.029 A 
ATOM     56  C   UNL A   1      46.914  27.937  30.706  1.00  0.00     0.049 A 
ATOM     57  H   UNL A   1      44.907  28.066  30.064  1.00  0.00     0.167 HD
ATOM     58  C   UNL A   1      46.657  26.042  29.125  1.00  0.00     0.074 A 
ATOM     59  C   UNL A   1      47.161  24.894  28.400  1.00  0.00     0.031 C 
ATOM     60  C   UNL A   1      47.407  26.794  29.971  1.00  0.00     0.034 A 
BRANCH  47  61
ATOM     61  C   UNL A   1      44.334  31.562  32.474  1.00  0.00     0.023 A 
ATOM     62  C   UNL A   1      43.731  31.604  33.744  1.00  0.00     0.031 A 
ATOM     63  C   UNL A   1      44.982  32.722  32.013  1.00  0.00     0.131 A 
ATOM     64  C   UNL A   1      43.736  32.799  34.480  1.00  0.00     0.055 A 
ATOM     65  C   UNL A   1      45.047  33.884  32.783  1.00  0.00     0.041 A 
ATOM     66  F   UNL A   1      45.554  32.748  30.800  1.00  0.00    -0.206 F 
ATOM     67  C   UNL A   1      44.411  33.932  34.020  1.00  0.00     0.022 A 
BRANCH  64  68
ATOM     68  S   UNL A   1      42.738  32.892  35.993  1.00  0.00     0.124 S 
ATOM     69  O   UNL A   1      42.670  31.488  36.388  1.00  0.00    -0.237 OA
ATOM     70  O   UNL A   1      43.540  33.759  36.847  1.00  0.00    -0.237 OA
ATOM     71  O   UNL A   1      41.474  33.464  35.533  1.00  0.00    -0.744 OA
ENDBRANCH  64  68
ENDBRANCH  47  61
BRANCH  48  72
ATOM     72  C   UNL A   1      43.708  23.695  26.296  1.00  0.00     0.023 A 
ATOM     73  C   UNL A   1      43.110  22.476  26.656  1.00  0.00     0.031 A 
ATOM     74  C   UNL A   1      44.318  23.780  25.032  1.00  0.00     0.131 A 
ATOM     75  C   UNL A   1      43.185  21.377  25.787  1.00  0.00     0.055 A 
ATOM     76  C   UNL A   1      44.339  22.701  24.147  1.00  0.00     0.041 A 
ATOM     77  F   UNL A   1      44.907  24.921  24.638  1.00  0.00    -0.206 F 
ATOM     78  C   UNL A   1      43.783  21.484  24.530  1.00  0.00     0.022 A 
BRANCH  75  79
ATOM     79  S   UNL A   1      42.577  19.769  26.367  1.00  0.00     0.124 S 
ATOM     80  O   UNL A   1      42.188  20.078  27.739  1.00  0.00    -0.237 OA
ATOM     81  O   UNL A   1      41.487  19.504  25.434  1.00  0.00    -0.237 OA
ATOM     82  O   UNL A   1      43.740  18.896  26.230  1.00  0.00    -0.744 OA
ENDBRANCH  75  79
ENDBRANCH  48  72
BRANCH  60  83
ATOM     83  C   UNL A   1      48.836  26.362  30.198  1.00  0.00     0.023 A 
ATOM     84  C   UNL A   1      49.181  25.435  31.195  1.00  0.00     0.031 A 
ATOM     85  C   UNL A   1      49.868  26.896  29.405  1.00  0.00     0.131 A 
ATOM     86  C   UNL A   1      50.531  25.113  31.413  1.00  0.00     0.055 A 
ATOM     87  C   UNL A   1      51.200  26.526  29.586  1.00  0.00     0.041 A 
ATOM     88  F   UNL A   1      49.595  27.788  28.439  1.00  0.00    -0.206 F 
ATOM     89  C   UNL A   1      51.540  25.639  30.602  1.00  0.00     0.022 A 
BRANCH  86  90
ATOM     90  S   UNL A   1      50.960  24.065  32.830  1.00  0.00     0.124 S 
ATOM     91  O   UNL A   1      51.425  22.846  32.177  1.00  0.00    -0.237 OA
ATOM     92  O   UNL A   1      51.983  24.857  33.505  1.00  0.00    -0.237 OA
ATOM     93  O   UNL A   1      49.697  23.937  33.556  1.00  0.00    -0.744 OA
ENDBRANCH  86  90
ENDBRANCH  60  83
ENDBRANCH  34  35
ENDBRANCH  27  29
ENDBRANCH  26  27
ENDBRANCH  25  26
ENDBRANCH  24  25
ENDBRANCH   1  24
TORSDOF 21
ENDMDL
MODEL 2
REMARK VINA RESULT:      -8.7      3.639      6.692
REMARK SMILES CC[C@@H](C)N(CC)c1cc(C(=O)OCCOCCOC(=O)c2ccc(-c3c4nc(c(-c5cc(S(=O)(=O)[O-])ccc5F)c5ccc([nH]5)c(-c5cc(S(=O)(=O)[O-])ccc5F)c5nc(c(-c6cc(S(=O)(=O)[O-])ccc6F)c6ccc3[nH]6)C=C5)C=C4)cc2)c2ccccc2n1
REMARK SMILES IDX 16 1 15 2 14 3 13 4 11 5 12 6 10 7 8 8 9 9 91 10 90 11 85 12
REMARK SMILES IDX 89 13 86 14 88 15 87 16 5 17 3 18 4 19 2 20 1 21 6 22 7 23
REMARK SMILES IDX 17 24 18 25 19 26 20 27 21 28 22 29 23 30 84 31 24 32 83 33
REMARK SMILES IDX 25 34 26 35 27 36 77 37 28 38 82 39 76 40 78 41 29 42 81 43
REMARK SMILES IDX 75 44 74 45 30 47 62 48 42 49 61 50 43 51 46 52 60 53 79 54
REMARK SMILES IDX 44 55 45 56 59 58 80 59 47 60 31 61 32 62 40 63 33 64 39 65
REMARK SMILES IDX 41 66 38 67 34 68 35 69 36 70 37 71 63 72 64 73 72 74 65 75
REMARK SMILES IDX 71 76 73 77 70 78 66 79 67 80 68 81 69 82 48 83 49 84 57 85
REMARK SMILES IDX 50 86 56 87 58 88 55 89 51 90 52 91 53 92 54 93
REMARK H PARENT 78 46 46 57
REMARK Flexibility Score: inf
ROOT
ATOM      1  O   UNL A   1      35.214  35.131  32.421  1.00  0.00    -0.374 OA
ENDROOT
BRANCH   1   2
ATOM      2  C   UNL A   1      34.384  34.271  31.637  1.00  0.00     0.202 C 
BRANCH   2   3
ATOM      3  C   UNL A   1      34.276  34.634  30.155  1.00  0.00     0.261 C 
BRANCH   3   4
ATOM      4  O   UNL A   1      33.784  33.508  29.409  1.00  0.00    -0.460 OA
BRANCH   4   5
ATOM      5  C   UNL A   1      34.208  33.428  28.129  1.00  0.00     0.339 C 
ATOM      6  O   UNL A   1      34.436  34.364  27.375  1.00  0.00    -0.246 OA
BRANCH   5   7
ATOM      7  C   UNL A   1      34.591  32.039  27.799  1.00  0.00     0.073 A 
ATOM      8  C   UNL A   1      33.809  29.980  26.845  1.00  0.00     0.130 A 
ATOM      9  C   UNL A   1      33.591  31.305  27.158  1.00  0.00     0.063 A 
ATOM     10  N   UNL A   1      34.974  29.387  27.159  1.00  0.00    -0.231 NA
ATOM     11  C   UNL A   1      35.943  30.079  27.782  1.00  0.00     0.074 A 
ATOM     12  C   UNL A   1      35.828  31.442  28.118  1.00  0.00     0.015 A 
ATOM     13  C   UNL A   1      37.102  29.396  28.127  1.00  0.00     0.029 A 
ATOM     14  C   UNL A   1      36.924  32.079  28.758  1.00  0.00     0.011 A 
ATOM     15  C   UNL A   1      38.169  30.025  28.771  1.00  0.00     0.002 A 
ATOM     16  C   UNL A   1      38.086  31.375  29.074  1.00  0.00     0.001 A 
BRANCH   8  17
ATOM     17  N   UNL A   1      32.796  29.234  26.268  1.00  0.00    -0.354 N 
BRANCH  17  18
ATOM     18  C   UNL A   1      32.456  29.436  24.850  1.00  0.00     0.080 C 
ATOM     19  C   UNL A   1      30.943  29.626  24.703  1.00  0.00     0.031 C 
BRANCH  18  20
ATOM     20  C   UNL A   1      33.021  28.331  23.938  1.00  0.00     0.021 C 
ATOM     21  C   UNL A   1      34.255  28.761  23.156  1.00  0.00     0.006 C 
ENDBRANCH  18  20
ENDBRANCH  17  18
BRANCH  17  22
ATOM     22  C   UNL A   1      31.867  28.532  27.148  1.00  0.00     0.115 C 
ATOM     23  C   UNL A   1      32.107  27.028  27.140  1.00  0.00     0.027 C 
ENDBRANCH  17  22
ENDBRANCH   8  17
ENDBRANCH   5   7
ENDBRANCH   4   5
ENDBRANCH   3   4
ENDBRANCH   2   3
ENDBRANCH   1   2
BRANCH   1  24
ATOM     24  C   UNL A   1      35.856  34.559  33.561  1.00  0.00     0.202 C 
BRANCH  24  25
ATOM     25  C   UNL A   1      35.966  33.029  33.595  1.00  0.00     0.261 C 
BRANCH  25  26
ATOM     26  O   UNL A   1      36.945  32.522  32.672  1.00  0.00    -0.460 OA
BRANCH  26  27
ATOM     27  C   UNL A   1      36.878  31.187  32.452  1.00  0.00     0.338 C 
ATOM     28  O   UNL A   1      35.938  30.568  31.972  1.00  0.00    -0.246 OA
BRANCH  27  29
ATOM     29  C   UNL A   1      38.193  30.565  32.701  1.00  0.00     0.060 A 
ATOM     30  C   UNL A   1      39.327  31.382  32.597  1.00  0.00     0.016 A 
ATOM     31  C   UNL A   1      38.326  29.199  32.961  1.00  0.00     0.016 A 
ATOM     32  C   UNL A   1      40.601  30.827  32.707  1.00  0.00     0.010 A 
ATOM     33  C   UNL A   1      39.607  28.644  33.061  1.00  0.00     0.010 A 
ATOM     34  C   UNL A   1      40.750  29.449  32.903  1.00  0.00    -0.014 A 
BRANCH  34  35
ATOM     35  C   UNL A   1      42.099  28.835  32.800  1.00  0.00     0.031 A 
ATOM     36  C   UNL A   1      43.009  28.873  33.998  1.00  0.00     0.074 A 
ATOM     37  C   UNL A   1      42.495  28.230  31.665  1.00  0.00     0.049 A 
ATOM     38  N   UNL A   1      44.234  28.433  34.125  1.00  0.00    -0.248 NA
ATOM     39  C   UNL A   1      42.462  29.492  35.215  1.00  0.00     0.031 C 
ATOM     40  C   UNL A   1      41.683  28.089  30.457  1.00  0.00     0.029 A 
ATOM     41  N   UNL A   1      43.683  27.623  31.343  1.00  0.00    -0.354 N 
ATOM     42  C   UNL A   1      44.612  28.732  35.431  1.00  0.00     0.074 A 
ATOM     43  C   UNL A   1      43.492  29.416  36.044  1.00  0.00     0.031 C 
ATOM     44  C   UNL A   1      42.401  27.442  29.522  1.00  0.00     0.029 A 
ATOM     45  C   UNL A   1      43.735  27.158  30.050  1.00  0.00     0.049 A 
ATOM     46  H   UNL A   1      44.430  27.528  31.980  1.00  0.00     0.167 HD
ATOM     47  C   UNL A   1      45.781  28.455  36.059  1.00  0.00     0.034 A 
ATOM     48  C   UNL A   1      44.750  26.593  29.365  1.00  0.00     0.034 A 
ATOM     49  C   UNL A   1      46.887  27.772  35.433  1.00  0.00     0.049 A 
ATOM     50  C   UNL A   1      46.072  26.373  30.063  1.00  0.00     0.074 A 
ATOM     51  C   UNL A   1      48.102  27.410  35.990  1.00  0.00     0.029 A 
ATOM     52  N   UNL A   1      46.922  27.362  34.107  1.00  0.00    -0.354 N 
ATOM     53  N   UNL A   1      46.407  26.639  31.305  1.00  0.00    -0.248 NA
ATOM     54  C   UNL A   1      47.150  25.769  29.268  1.00  0.00     0.031 C 
ATOM     55  C   UNL A   1      48.897  26.853  34.984  1.00  0.00     0.029 A 
ATOM     56  C   UNL A   1      48.151  26.789  33.818  1.00  0.00     0.049 A 
ATOM     57  H   UNL A   1      46.181  27.462  33.466  1.00  0.00     0.167 HD
ATOM     58  C   UNL A   1      47.721  26.199  31.446  1.00  0.00     0.074 A 
ATOM     59  C   UNL A   1      48.112  25.642  30.168  1.00  0.00     0.031 C 
ATOM     60  C   UNL A   1      48.532  26.243  32.535  1.00  0.00     0.034 A 
BRANCH  47  61
ATOM     61  C   UNL A   1      45.943  28.946  37.478  1.00  0.00     0.023 A 
ATOM     62  C   UNL A   1      45.682  28.120  38.587  1.00  0.00     0.031 A 
ATOM     63  C   UNL A   1      46.353  30.268  37.722  1.00  0.00     0.131 A 
ATOM     64  C   UNL A   1      45.776  28.646  39.885  1.00  0.00     0.055 A 
ATOM     65  C   UNL A   1      46.515  30.762  39.018  1.00  0.00     0.041 A 
ATOM     66  F   UNL A   1      46.593  31.109  36.704  1.00  0.00    -0.206 F 
ATOM     67  C   UNL A   1      46.214  29.953  40.109  1.00  0.00     0.022 A 
BRANCH  64  68
ATOM     68  S   UNL A   1      45.191  27.635  41.275  1.00  0.00     0.124 S 
ATOM     69  O   UNL A   1      44.846  26.385  40.605  1.00  0.00    -0.237 OA
ATOM     70  O   UNL A   1      46.359  27.593  42.147  1.00  0.00    -0.237 OA
ATOM     71  O   UNL A   1      44.053  28.391  41.792  1.00  0.00    -0.744 OA
ENDBRANCH  64  68
ENDBRANCH  47  61
BRANCH  48  72
ATOM     72  C   UNL A   1      44.588  26.230  27.926  1.00  0.00     0.023 A 
ATOM     73  C   UNL A   1      44.242  24.924  27.542  1.00  0.00     0.031 A 
ATOM     74  C   UNL A   1      44.852  27.166  26.910  1.00  0.00     0.131 A 
ATOM     75  C   UNL A   1      44.224  24.576  26.183  1.00  0.00     0.055 A 
ATOM     76  C   UNL A   1      44.775  26.830  25.558  1.00  0.00     0.041 A 
ATOM     77  F   UNL A   1      45.190  28.428  27.221  1.00  0.00    -0.206 F 
ATOM     78  C   UNL A   1      44.474  25.523  25.188  1.00  0.00     0.022 A 
BRANCH  75  79
ATOM     79  S   UNL A   1      43.966  22.837  25.736  1.00  0.00     0.124 S 
ATOM     80  O   UNL A   1      45.197  22.532  25.014  1.00  0.00    -0.237 OA
ATOM     81  O   UNL A   1      43.816  22.208  27.044  1.00  0.00    -0.237 OA
ATOM     82  O   UNL A   1      42.755  22.872  24.919  1.00  0.00    -0.744 OA
ENDBRANCH  75  79
ENDBRANCH  48  72
BRANCH  60  83
ATOM     83  C   UNL A   1      49.902  25.623  32.401  1.00  0.00     0.023 A 
ATOM     84  C   UNL A   1      50.141  24.275  32.718  1.00  0.00     0.031 A 
ATOM     85  C   UNL A   1      50.987  26.400  31.957  1.00  0.00     0.131 A 
ATOM     86  C   UNL A   1      51.444  23.759  32.640  1.00  0.00     0.055 A 
ATOM     87  C   UNL A   1      52.269  25.866  31.825  1.00  0.00     0.041 A 
ATOM     88  F   UNL A   1      50.818  27.694  31.644  1.00  0.00    -0.206 F 
ATOM     89  C   UNL A   1      52.506  24.542  32.179  1.00  0.00     0.022 A 
BRANCH  86  90
ATOM     90  S   UNL A   1      51.753  22.074  33.239  1.00  0.00     0.124 S 
ATOM     91  O   UNL A   1      50.445  21.694  33.762  1.00  0.00    -0.237 OA
ATOM     92  O   UNL A   1      52.178  21.385  32.025  1.00  0.00    -0.237 OA
ATOM     93  O   UNL A   1      52.796  22.254  34.246  1.00  0.00    -0.744 OA
ENDBRANCH  86  90
ENDBRANCH  60  83
ENDBRANCH  34  35
ENDBRANCH  27  29
ENDBRANCH  26  27
ENDBRANCH  25  26
ENDBRANCH  24  25
ENDBRANCH   1  24
TORSDOF 21
ENDMDL
MODEL 3
REMARK VINA RESULT:      -8.5      4.785     10.487
REMARK SMILES CC[C@@H](C)N(CC)c1cc(C(=O)OCCOCCOC(=O)c2ccc(-c3c4nc(c(-c5cc(S(=O)(=O)[O-])ccc5F)c5ccc([nH]5)c(-c5cc(S(=O)(=O)[O-])ccc5F)c5nc(c(-c6cc(S(=O)(=O)[O-])ccc6F)c6ccc3[nH]6)C=C5)C=C4)cc2)c2ccccc2n1
REMARK SMILES IDX 16 1 15 2 14 3 13 4 11 5 12 6 10 7 8 8 9 9 91 10 90 11 85 12
REMARK SMILES IDX 89 13 86 14 88 15 87 16 5 17 3 18 4 19 2 20 1 21 6 22 7 23
REMARK SMILES IDX 17 24 18 25 19 26 20 27 21 28 22 29 23 30 84 31 24 32 83 33
REMARK SMILES IDX 25 34 26 35 27 36 77 37 28 38 82 39 76 40 78 41 29 42 81 43
REMARK SMILES IDX 75 44 74 45 30 47 62 48 42 49 61 50 43 51 46 52 60 53 79 54
REMARK SMILES IDX 44 55 45 56 59 58 80 59 47 60 31 61 32 62 40 63 33 64 39 65
REMARK SMILES IDX 41 66 38 67 34 68 35 69 36 70 37 71 63 72 64 73 72 74 65 75
REMARK SMILES IDX 71 76 73 77 70 78 66 79 67 80 68 81 69 82 48 83 49 84 57 85
REMARK SMILES IDX 50 86 56 87 58 88 55 89 51 90 52 91 53 92 54 93
REMARK H PARENT 78 46 46 57
REMARK Flexibility Score: inf
ROOT
ATOM      1  O   UNL A   1      35.173  20.536  24.719  1.00  0.00    -0.374 OA
ENDROOT
BRANCH   1   2
ATOM      2  C   UNL A   1      33.786  20.882  24.729  1.00  0.00     0.202 C 
BRANCH   2   3
ATOM      3  C   UNL A   1      33.300  21.614  25.981  1.00  0.00     0.261 C 
BRANCH   3   4
ATOM      4  O   UNL A   1      32.979  22.978  25.658  1.00  0.00    -0.460 OA
BRANCH   4   5
ATOM      5  C   UNL A   1      33.859  23.903  26.097  1.00  0.00     0.339 C 
ATOM      6  O   UNL A   1      34.807  23.712  26.846  1.00  0.00    -0.246 OA
BRANCH   5   7
ATOM      7  C   UNL A   1      33.674  25.176  25.370  1.00  0.00     0.073 A 
ATOM      8  C   UNL A   1      33.517  27.558  25.625  1.00  0.00     0.130 A 
ATOM      9  C   UNL A   1      33.728  26.313  26.180  1.00  0.00     0.063 A 
ATOM     10  N   UNL A   1      33.253  27.685  24.314  1.00  0.00    -0.231 NA
ATOM     11  C   UNL A   1      33.192  26.601  23.523  1.00  0.00     0.074 A 
ATOM     12  C   UNL A   1      33.420  25.291  23.987  1.00  0.00     0.015 A 
ATOM     13  C   UNL A   1      32.862  26.794  22.188  1.00  0.00     0.029 A 
ATOM     14  C   UNL A   1      33.349  24.219  23.059  1.00  0.00     0.011 A 
ATOM     15  C   UNL A   1      32.778  25.734  21.284  1.00  0.00     0.002 A 
ATOM     16  C   UNL A   1      33.038  24.443  21.718  1.00  0.00     0.001 A 
BRANCH   8  17
ATOM     17  N   UNL A   1      33.506  28.679  26.437  1.00  0.00    -0.354 N 
BRANCH  17  18
ATOM     18  C   UNL A   1      32.224  29.231  26.905  1.00  0.00     0.080 C 
ATOM     19  C   UNL A   1      31.269  28.087  27.265  1.00  0.00     0.031 C 
BRANCH  18  20
ATOM     20  C   UNL A   1      31.614  30.243  25.917  1.00  0.00     0.021 C 
ATOM     21  C   UNL A   1      31.424  31.632  26.511  1.00  0.00     0.006 C 
ENDBRANCH  18  20
ENDBRANCH  17  18
BRANCH  17  22
ATOM     22  C   UNL A   1      34.720  29.484  26.520  1.00  0.00     0.115 C 
ATOM     23  C   UNL A   1      35.405  29.337  27.873  1.00  0.00     0.027 C 
ENDBRANCH  17  22
ENDBRANCH   8  17
ENDBRANCH   5   7
ENDBRANCH   4   5
ENDBRANCH   3   4
ENDBRANCH   2   3
ENDBRANCH   1   2
BRANCH   1  24
ATOM     24  C   UNL A   1      36.114  21.608  24.648  1.00  0.00     0.202 C 
BRANCH  24  25
ATOM     25  C   UNL A   1      37.527  21.321  25.173  1.00  0.00     0.261 C 
BRANCH  25  26
ATOM     26  O   UNL A   1      38.123  22.463  25.812  1.00  0.00    -0.460 OA
BRANCH  26  27
ATOM     27  C   UNL A   1      39.215  22.186  26.564  1.00  0.00     0.338 C 
ATOM     28  O   UNL A   1      39.641  21.077  26.859  1.00  0.00    -0.246 OA
BRANCH  27  29
ATOM     29  C   UNL A   1      39.964  23.425  26.848  1.00  0.00     0.060 A 
ATOM     30  C   UNL A   1      40.768  23.448  27.995  1.00  0.00     0.016 A 
ATOM     31  C   UNL A   1      39.833  24.566  26.053  1.00  0.00     0.016 A 
ATOM     32  C   UNL A   1      41.408  24.626  28.378  1.00  0.00     0.010 A 
ATOM     33  C   UNL A   1      40.468  25.750  26.445  1.00  0.00     0.010 A 
ATOM     34  C   UNL A   1      41.232  25.794  27.626  1.00  0.00    -0.014 A 
BRANCH  34  35
ATOM     35  C   UNL A   1      41.733  27.088  28.155  1.00  0.00     0.031 A 
ATOM     36  C   UNL A   1      40.747  28.073  28.723  1.00  0.00     0.074 A 
ATOM     37  C   UNL A   1      43.049  27.370  28.153  1.00  0.00     0.049 A 
ATOM     38  N   UNL A   1      40.953  29.271  29.204  1.00  0.00    -0.248 NA
ATOM     39  C   UNL A   1      39.339  27.648  28.747  1.00  0.00     0.031 C 
ATOM     40  C   UNL A   1      44.102  26.475  27.675  1.00  0.00     0.029 A 
ATOM     41  N   UNL A   1      43.724  28.491  28.566  1.00  0.00    -0.354 N 
ATOM     42  C   UNL A   1      39.701  29.750  29.580  1.00  0.00     0.074 A 
ATOM     43  C   UNL A   1      38.740  28.721  29.241  1.00  0.00     0.031 C 
ATOM     44  C   UNL A   1      45.291  27.087  27.815  1.00  0.00     0.029 A 
ATOM     45  C   UNL A   1      45.082  28.429  28.355  1.00  0.00     0.049 A 
ATOM     46  H   UNL A   1      43.278  29.268  28.976  1.00  0.00     0.167 HD
ATOM     47  C   UNL A   1      39.385  30.935  30.158  1.00  0.00     0.034 A 
ATOM     48  C   UNL A   1      46.039  29.358  28.552  1.00  0.00     0.034 A 
ATOM     49  C   UNL A   1      40.355  31.951  30.489  1.00  0.00     0.049 A 
ATOM     50  C   UNL A   1      45.650  30.703  29.119  1.00  0.00     0.074 A 
ATOM     51  C   UNL A   1      40.147  33.171  31.109  1.00  0.00     0.029 A 
ATOM     52  N   UNL A   1      41.714  31.874  30.215  1.00  0.00    -0.354 N 
ATOM     53  N   UNL A   1      44.465  31.134  29.490  1.00  0.00    -0.248 NA
ATOM     54  C   UNL A   1      46.728  31.685  29.299  1.00  0.00     0.031 C 
ATOM     55  C   UNL A   1      41.363  33.861  31.139  1.00  0.00     0.029 A 
ATOM     56  C   UNL A   1      42.348  33.041  30.614  1.00  0.00     0.049 A 
ATOM     57  H   UNL A   1      42.163  31.102  29.798  1.00  0.00     0.167 HD
ATOM     58  C   UNL A   1      44.667  32.422  29.982  1.00  0.00     0.074 A 
ATOM     59  C   UNL A   1      46.085  32.692  29.870  1.00  0.00     0.031 C 
ATOM     60  C   UNL A   1      43.764  33.301  30.489  1.00  0.00     0.034 A 
BRANCH  47  61
ATOM     61  C   UNL A   1      37.924  31.221  30.413  1.00  0.00     0.023 A 
ATOM     62  C   UNL A   1      37.158  32.018  29.544  1.00  0.00     0.031 A 
ATOM     63  C   UNL A   1      37.294  30.696  31.555  1.00  0.00     0.131 A 
ATOM     64  C   UNL A   1      35.824  32.316  29.865  1.00  0.00     0.055 A 
ATOM     65  C   UNL A   1      35.947  30.935  31.828  1.00  0.00     0.041 A 
ATOM     66  F   UNL A   1      37.982  29.948  32.431  1.00  0.00    -0.206 F 
ATOM     67  C   UNL A   1      35.206  31.760  30.987  1.00  0.00     0.022 A 
BRANCH  64  68
ATOM     68  S   UNL A   1      34.943  33.545  28.862  1.00  0.00     0.124 S 
ATOM     69  O   UNL A   1      33.742  33.771  29.661  1.00  0.00    -0.237 OA
ATOM     70  O   UNL A   1      35.894  34.650  28.811  1.00  0.00    -0.237 OA
ATOM     71  O   UNL A   1      34.719  32.855  27.594  1.00  0.00    -0.744 OA
ENDBRANCH  64  68
ENDBRANCH  47  61
BRANCH  48  72
ATOM     72  C   UNL A   1      47.457  29.081  28.177  1.00  0.00     0.023 A 
ATOM     73  C   UNL A   1      48.359  28.534  29.103  1.00  0.00     0.031 A 
ATOM     74  C   UNL A   1      47.950  29.430  26.906  1.00  0.00     0.131 A 
ATOM     75  C   UNL A   1      49.716  28.405  28.767  1.00  0.00     0.055 A 
ATOM     76  C   UNL A   1      49.288  29.245  26.556  1.00  0.00     0.041 A 
ATOM     77  F   UNL A   1      47.131  29.959  25.982  1.00  0.00    -0.206 F 
ATOM     78  C   UNL A   1      50.184  28.743  27.495  1.00  0.00     0.022 A 
BRANCH  75  79
ATOM     79  S   UNL A   1      50.883  27.880  30.053  1.00  0.00     0.124 S 
ATOM     80  O   UNL A   1      50.703  28.923  31.057  1.00  0.00    -0.237 OA
ATOM     81  O   UNL A   1      50.374  26.558  30.401  1.00  0.00    -0.237 OA
ATOM     82  O   UNL A   1      52.173  27.890  29.366  1.00  0.00    -0.744 OA
ENDBRANCH  75  79
ENDBRANCH  48  72
BRANCH  60  83
ATOM     83  C   UNL A   1      44.298  34.614  31.009  1.00  0.00     0.023 A 
ATOM     84  C   UNL A   1      44.324  35.772  30.213  1.00  0.00     0.031 A 
ATOM     85  C   UNL A   1      44.796  34.703  32.322  1.00  0.00     0.131 A 
ATOM     86  C   UNL A   1      44.890  36.954  30.718  1.00  0.00     0.055 A 
ATOM     87  C   UNL A   1      45.302  35.896  32.838  1.00  0.00     0.041 A 
ATOM     88  F   UNL A   1      44.798  33.627  33.125  1.00  0.00    -0.206 F 
ATOM     89  C   UNL A   1      45.363  37.027  32.031  1.00  0.00     0.022 A 
BRANCH  86  90
ATOM     90  S   UNL A   1      45.084  38.373  29.604  1.00  0.00     0.124 S 
ATOM     91  O   UNL A   1      45.095  39.493  30.538  1.00  0.00    -0.237 OA
ATOM     92  O   UNL A   1      46.354  38.080  28.945  1.00  0.00    -0.237 OA
ATOM     93  O   UNL A   1      43.907  38.295  28.741  1.00  0.00    -0.744 OA
ENDBRANCH  86  90
ENDBRANCH  60  83
ENDBRANCH  34  35
ENDBRANCH  27  29
ENDBRANCH  26  27
ENDBRANCH  25  26
ENDBRANCH  24  25
ENDBRANCH   1  24
TORSDOF 21
ENDMDL
