MODEL 1
REMARK VINA RESULT:     -11.5      0.000      0.000
REMARK SMILES O=C(OCCOCCOC(=O)[C@@H]1[C@@H](C(=O)NCCn2cc(Cl)cn2)[C@H]2CC[C@@H]1O2)c1ccc(-c2c3nc(c(-c4cc(S(=O)(=O)[O-])ccc4F)c4ccc([nH]4)c(-c4cc(S(=O)(=O)[O-])ccc4F)c4nc(c(-c5cc(S(=O)(=O)[O-])ccc5F)c5ccc2[nH]5)C=C4)C=C3)cc1
REMARK SMILES IDX 7 1 6 2 5 3 4 4 3 5 2 6 1 7 30 8 31 9 92 10 32 11 91 12
REMARK SMILES IDX 33 13 34 14 35 15 85 16 36 17 90 18 84 19 86 20 37 21 89 22
REMARK SMILES IDX 83 23 82 24 38 26 70 27 50 28 69 29 51 30 54 31 68 32 87 33
REMARK SMILES IDX 52 34 53 35 67 37 88 38 55 39 39 40 40 41 48 42 41 43 47 44
REMARK SMILES IDX 49 45 46 46 42 47 43 48 44 49 45 50 71 51 72 52 80 53 73 54
REMARK SMILES IDX 79 55 81 56 78 57 74 58 75 59 76 60 77 61 56 62 57 63 65 64
REMARK SMILES IDX 58 65 64 66 66 67 63 68 59 69 60 70 61 71 62 72 8 73 9 74
REMARK SMILES IDX 10 75 11 76 12 77 13 78 28 79 25 80 27 81 29 82 26 83 14 84
REMARK SMILES IDX 15 85 16 86 17 88 18 89 19 90 20 91 24 92 21 93 23 94 22 95
REMARK H PARENT 86 25 54 36 16 87
REMARK Flexibility Score: inf
ROOT
ATOM      1  C   UNL A   1      32.541  27.535  26.556  1.00  0.00     0.202 C 
ENDROOT
BRANCH   1   2
ATOM      2  O   UNL A   1      32.644  28.740  27.318  1.00  0.00    -0.374 OA
BRANCH   2   3
ATOM      3  C   UNL A   1      33.207  29.925  26.773  1.00  0.00     0.202 C 
BRANCH   3   4
ATOM      4  C   UNL A   1      33.901  30.989  27.624  1.00  0.00     0.261 C 
BRANCH   4   5
ATOM      5  O   UNL A   1      35.318  30.996  27.451  1.00  0.00    -0.460 OA
BRANCH   5   6
ATOM      6  C   UNL A   1      36.223  31.585  28.259  1.00  0.00     0.338 C 
ATOM      7  O   UNL A   1      36.069  32.771  28.547  1.00  0.00    -0.246 OA
BRANCH   6   8
ATOM      8  C   UNL A   1      37.346  30.831  28.885  1.00  0.00     0.060 A 
ATOM      9  C   UNL A   1      38.441  31.377  29.557  1.00  0.00     0.016 A 
ATOM     10  C   UNL A   1      37.280  29.439  28.726  1.00  0.00     0.016 A 
ATOM     11  C   UNL A   1      39.574  30.616  29.763  1.00  0.00     0.010 A 
ATOM     12  C   UNL A   1      38.376  28.651  29.014  1.00  0.00     0.010 A 
ATOM     13  C   UNL A   1      39.551  29.266  29.427  1.00  0.00    -0.014 A 
BRANCH  13  14
ATOM     14  C   UNL A   1      40.731  28.474  29.725  1.00  0.00     0.031 A 
ATOM     15  C   UNL A   1      40.985  28.377  31.184  1.00  0.00     0.074 A 
ATOM     16  C   UNL A   1      41.408  27.814  28.766  1.00  0.00     0.049 A 
ATOM     17  N   UNL A   1      41.974  28.876  31.848  1.00  0.00    -0.248 NA
ATOM     18  C   UNL A   1      39.888  27.884  32.040  1.00  0.00     0.031 C 
ATOM     19  C   UNL A   1      41.060  27.714  27.346  1.00  0.00     0.029 A 
ATOM     20  N   UNL A   1      42.484  26.988  28.867  1.00  0.00    -0.354 N 
ATOM     21  C   UNL A   1      41.765  28.474  33.163  1.00  0.00     0.074 A 
ATOM     22  C   UNL A   1      40.375  28.136  33.254  1.00  0.00     0.031 C 
ATOM     23  C   UNL A   1      41.737  26.683  26.794  1.00  0.00     0.029 A 
ATOM     24  C   UNL A   1      42.641  26.121  27.785  1.00  0.00     0.049 A 
ATOM     25  H   UNL A   1      43.099  27.001  29.636  1.00  0.00     0.167 HD
ATOM     26  C   UNL A   1      42.823  28.104  33.939  1.00  0.00     0.034 A 
ATOM     27  C   UNL A   1      43.385  24.980  27.743  1.00  0.00     0.034 A 
ATOM     28  C   UNL A   1      44.055  28.674  33.421  1.00  0.00     0.049 A 
ATOM     29  C   UNL A   1      44.379  25.077  28.843  1.00  0.00     0.074 A 
ATOM     30  C   UNL A   1      44.460  29.958  33.100  1.00  0.00     0.029 A 
ATOM     31  N   UNL A   1      44.952  27.841  32.784  1.00  0.00    -0.354 N 
ATOM     32  N   UNL A   1      45.338  25.964  28.857  1.00  0.00    -0.248 NA
ATOM     33  C   UNL A   1      44.002  24.561  30.153  1.00  0.00     0.031 C 
ATOM     34  C   UNL A   1      45.229  29.816  31.907  1.00  0.00     0.029 A 
ATOM     35  C   UNL A   1      45.345  28.455  31.622  1.00  0.00     0.049 A 
ATOM     36  H   UNL A   1      45.255  26.962  33.105  1.00  0.00     0.167 HD
ATOM     37  C   UNL A   1      45.363  26.445  30.158  1.00  0.00     0.074 A 
ATOM     38  C   UNL A   1      44.586  25.477  30.933  1.00  0.00     0.031 C 
ATOM     39  C   UNL A   1      45.742  27.731  30.428  1.00  0.00     0.034 A 
BRANCH  26  40
ATOM     40  C   UNL A   1      42.808  26.860  34.817  1.00  0.00     0.023 A 
ATOM     41  C   UNL A   1      43.656  25.817  34.411  1.00  0.00     0.031 A 
ATOM     42  C   UNL A   1      41.814  26.500  35.758  1.00  0.00     0.131 A 
ATOM     43  C   UNL A   1      43.364  24.484  34.741  1.00  0.00     0.055 A 
ATOM     44  C   UNL A   1      41.574  25.179  36.143  1.00  0.00     0.041 A 
ATOM     45  F   UNL A   1      40.974  27.376  36.318  1.00  0.00    -0.206 F 
ATOM     46  C   UNL A   1      42.318  24.153  35.592  1.00  0.00     0.022 A 
BRANCH  43  47
ATOM     47  S   UNL A   1      44.242  23.192  33.832  1.00  0.00     0.124 S 
ATOM     48  O   UNL A   1      44.437  22.203  34.887  1.00  0.00    -0.237 OA
ATOM     49  O   UNL A   1      43.274  22.849  32.795  1.00  0.00    -0.237 OA
ATOM     50  O   UNL A   1      45.448  23.868  33.365  1.00  0.00    -0.744 OA
ENDBRANCH  43  47
ENDBRANCH  26  40
BRANCH  27  51
ATOM     51  C   UNL A   1      43.051  23.703  27.036  1.00  0.00     0.023 A 
ATOM     52  C   UNL A   1      43.987  22.972  26.266  1.00  0.00     0.031 A 
ATOM     53  C   UNL A   1      41.825  23.051  27.305  1.00  0.00     0.131 A 
ATOM     54  C   UNL A   1      43.675  21.667  25.804  1.00  0.00     0.055 A 
ATOM     55  C   UNL A   1      41.520  21.768  26.841  1.00  0.00     0.041 A 
ATOM     56  F   UNL A   1      40.901  23.602  28.107  1.00  0.00    -0.206 F 
ATOM     57  C   UNL A   1      42.449  21.066  26.097  1.00  0.00     0.022 A 
BRANCH  54  58
ATOM     58  S   UNL A   1      44.899  20.676  24.880  1.00  0.00     0.124 S 
ATOM     59  O   UNL A   1      44.560  19.313  25.276  1.00  0.00    -0.237 OA
ATOM     60  O   UNL A   1      44.622  21.040  23.496  1.00  0.00    -0.237 OA
ATOM     61  O   UNL A   1      46.184  21.158  25.390  1.00  0.00    -0.744 OA
ENDBRANCH  54  58
ENDBRANCH  27  51
BRANCH  39  62
ATOM     62  C   UNL A   1      46.454  28.520  29.347  1.00  0.00     0.023 A 
ATOM     63  C   UNL A   1      45.914  29.626  28.651  1.00  0.00     0.031 A 
ATOM     64  C   UNL A   1      47.794  28.178  29.087  1.00  0.00     0.131 A 
ATOM     65  C   UNL A   1      46.707  30.327  27.719  1.00  0.00     0.055 A 
ATOM     66  C   UNL A   1      48.580  28.886  28.180  1.00  0.00     0.041 A 
ATOM     67  F   UNL A   1      48.377  27.158  29.738  1.00  0.00    -0.206 F 
ATOM     68  C   UNL A   1      48.036  29.958  27.484  1.00  0.00     0.022 A 
BRANCH  65  69
ATOM     69  S   UNL A   1      46.019  31.718  26.764  1.00  0.00     0.124 S 
ATOM     70  O   UNL A   1      47.181  32.276  26.082  1.00  0.00    -0.237 OA
ATOM     71  O   UNL A   1      45.034  31.057  25.912  1.00  0.00    -0.237 OA
ATOM     72  O   UNL A   1      45.443  32.584  27.795  1.00  0.00    -0.744 OA
ENDBRANCH  65  69
ENDBRANCH  39  62
ENDBRANCH  13  14
ENDBRANCH   6   8
ENDBRANCH   5   6
ENDBRANCH   4   5
ENDBRANCH   3   4
ENDBRANCH   2   3
ENDBRANCH   1   2
BRANCH   1  73
ATOM     73  C   UNL A   1      31.223  26.745  26.459  1.00  0.00     0.261 C 
BRANCH  73  74
ATOM     74  O   UNL A   1      31.335  25.551  25.681  1.00  0.00    -0.463 OA
BRANCH  74  75
ATOM     75  C   UNL A   1      31.739  24.442  26.367  1.00  0.00     0.312 C 
ATOM     76  O   UNL A   1      31.167  23.986  27.340  1.00  0.00    -0.252 OA
BRANCH  75  77
ATOM     77  C   UNL A   1      32.853  23.721  25.617  1.00  0.00     0.143 C 
ATOM     78  C   UNL A   1      32.455  23.461  24.157  1.00  0.00     0.124 C 
ATOM     79  C   UNL A   1      33.065  22.318  26.177  1.00  0.00     0.133 C 
ATOM     80  C   UNL A   1      32.466  21.917  24.128  1.00  0.00     0.132 C 
ATOM     81  C   UNL A   1      34.332  21.697  25.584  1.00  0.00     0.036 C 
ATOM     82  O   UNL A   1      32.020  21.602  25.477  1.00  0.00    -0.373 OA
ATOM     83  C   UNL A   1      33.857  21.284  24.194  1.00  0.00     0.035 C 
BRANCH  78  84
ATOM     84  C   UNL A   1      33.354  24.086  23.100  1.00  0.00     0.226 C 
ATOM     85  O   UNL A   1      34.436  23.575  22.802  1.00  0.00    -0.275 OA
ATOM     86  N   UNL A   1      32.985  25.177  22.376  1.00  0.00    -0.354 N 
ATOM     87  H   UNL A   1      33.716  25.558  21.836  1.00  0.00     0.163 HD
BRANCH  86  88
ATOM     88  C   UNL A   1      31.724  25.896  22.241  1.00  0.00     0.139 C 
BRANCH  88  89
ATOM     89  C   UNL A   1      31.853  27.396  22.511  1.00  0.00     0.165 C 
BRANCH  89  90
ATOM     90  N   UNL A   1      30.574  28.078  22.567  1.00  0.00    -0.269 N 
ATOM     91  C   UNL A   1      29.438  27.643  23.186  1.00  0.00     0.129 A 
ATOM     92  N   UNL A   1      30.424  29.266  21.947  1.00  0.00    -0.180 NA
ATOM     93  C   UNL A   1      28.482  28.592  22.923  1.00  0.00     0.079 A 
ATOM     94  C   UNL A   1      29.147  29.583  22.181  1.00  0.00     0.155 A 
ATOM     95  Cl  UNL A   1      26.854  28.589  23.375  1.00  0.00    -0.081 Cl
ENDBRANCH  89  90
ENDBRANCH  88  89
ENDBRANCH  86  88
ENDBRANCH  78  84
ENDBRANCH  75  77
ENDBRANCH  74  75
ENDBRANCH  73  74
ENDBRANCH   1  73
TORSDOF 21
ENDMDL
MODEL 2
REMARK VINA RESULT:     -11.4      2.898      3.852
REMARK SMILES O=C(OCCOCCOC(=O)[C@@H]1[C@@H](C(=O)NCCn2cc(Cl)cn2)[C@H]2CC[C@@H]1O2)c1ccc(-c2c3nc(c(-c4cc(S(=O)(=O)[O-])ccc4F)c4ccc([nH]4)c(-c4cc(S(=O)(=O)[O-])ccc4F)c4nc(c(-c5cc(S(=O)(=O)[O-])ccc5F)c5ccc2[nH]5)C=C4)C=C3)cc1
REMARK SMILES IDX 7 1 6 2 5 3 4 4 3 5 2 6 1 7 30 8 31 9 92 10 32 11 91 12
REMARK SMILES IDX 33 13 34 14 35 15 85 16 36 17 90 18 84 19 86 20 37 21 89 22
REMARK SMILES IDX 83 23 82 24 38 26 70 27 50 28 69 29 51 30 54 31 68 32 87 33
REMARK SMILES IDX 52 34 53 35 67 37 88 38 55 39 39 40 40 41 48 42 41 43 47 44
REMARK SMILES IDX 49 45 46 46 42 47 43 48 44 49 45 50 71 51 72 52 80 53 73 54
REMARK SMILES IDX 79 55 81 56 78 57 74 58 75 59 76 60 77 61 56 62 57 63 65 64
REMARK SMILES IDX 58 65 64 66 66 67 63 68 59 69 60 70 61 71 62 72 8 73 9 74
REMARK SMILES IDX 10 75 11 76 12 77 13 78 28 79 25 80 27 81 29 82 26 83 14 84
REMARK SMILES IDX 15 85 16 86 17 88 18 89 19 90 20 91 24 92 21 93 23 94 22 95
REMARK H PARENT 86 25 54 36 16 87
REMARK Flexibility Score: inf
ROOT
ATOM      1  C   UNL A   1      32.619  28.496  26.473  1.00  0.00     0.202 C 
ENDROOT
BRANCH   1   2
ATOM      2  O   UNL A   1      33.623  28.406  27.486  1.00  0.00    -0.374 OA
BRANCH   2   3
ATOM      3  C   UNL A   1      34.818  29.172  27.427  1.00  0.00     0.202 C 
BRANCH   3   4
ATOM      4  C   UNL A   1      34.832  30.702  27.428  1.00  0.00     0.261 C 
BRANCH   4   5
ATOM      5  O   UNL A   1      36.116  31.241  27.738  1.00  0.00    -0.460 OA
BRANCH   5   6
ATOM      6  C   UNL A   1      36.587  31.540  28.966  1.00  0.00     0.338 C 
ATOM      7  O   UNL A   1      35.958  32.337  29.659  1.00  0.00    -0.246 OA
BRANCH   6   8
ATOM      8  C   UNL A   1      37.786  30.871  29.547  1.00  0.00     0.060 A 
ATOM      9  C   UNL A   1      38.974  31.490  29.940  1.00  0.00     0.016 A 
ATOM     10  C   UNL A   1      37.688  29.476  29.652  1.00  0.00     0.016 A 
ATOM     11  C   UNL A   1      40.120  30.740  30.111  1.00  0.00     0.010 A 
ATOM     12  C   UNL A   1      38.809  28.715  29.915  1.00  0.00     0.010 A 
ATOM     13  C   UNL A   1      40.038  29.354  30.032  1.00  0.00    -0.014 A 
BRANCH  13  14
ATOM     14  C   UNL A   1      41.243  28.587  30.291  1.00  0.00     0.031 A 
ATOM     15  C   UNL A   1      41.547  28.498  31.741  1.00  0.00     0.074 A 
ATOM     16  C   UNL A   1      41.902  27.940  29.310  1.00  0.00     0.049 A 
ATOM     17  N   UNL A   1      42.546  29.019  32.372  1.00  0.00    -0.248 NA
ATOM     18  C   UNL A   1      40.490  27.983  32.633  1.00  0.00     0.031 C 
ATOM     19  C   UNL A   1      41.510  27.831  27.903  1.00  0.00     0.029 A 
ATOM     20  N   UNL A   1      42.998  27.138  29.377  1.00  0.00    -0.354 N 
ATOM     21  C   UNL A   1      42.390  28.614  33.693  1.00  0.00     0.074 A 
ATOM     22  C   UNL A   1      41.011  28.247  33.830  1.00  0.00     0.031 C 
ATOM     23  C   UNL A   1      42.190  26.814  27.329  1.00  0.00     0.029 A 
ATOM     24  C   UNL A   1      43.138  26.273  28.291  1.00  0.00     0.049 A 
ATOM     25  H   UNL A   1      43.638  27.165  30.125  1.00  0.00     0.167 HD
ATOM     26  C   UNL A   1      43.480  28.268  34.434  1.00  0.00     0.034 A 
ATOM     27  C   UNL A   1      43.904  25.148  28.225  1.00  0.00     0.034 A 
ATOM     28  C   UNL A   1      44.682  28.864  33.876  1.00  0.00     0.049 A 
ATOM     29  C   UNL A   1      44.933  25.268  29.292  1.00  0.00     0.074 A 
ATOM     30  C   UNL A   1      45.049  30.156  33.541  1.00  0.00     0.029 A 
ATOM     31  N   UNL A   1      45.575  28.049  33.209  1.00  0.00    -0.354 N 
ATOM     32  N   UNL A   1      45.872  26.175  29.274  1.00  0.00    -0.248 NA
ATOM     33  C   UNL A   1      44.610  24.746  30.613  1.00  0.00     0.031 C 
ATOM     34  C   UNL A   1      45.780  30.028  32.323  1.00  0.00     0.029 A 
ATOM     35  C   UNL A   1      45.917  28.670  32.035  1.00  0.00     0.049 A 
ATOM     36  H   UNL A   1      45.908  27.177  33.521  1.00  0.00     0.167 HD
ATOM     37  C   UNL A   1      45.929  26.658  30.573  1.00  0.00     0.074 A 
ATOM     38  C   UNL A   1      45.200  25.675  31.373  1.00  0.00     0.031 C 
ATOM     39  C   UNL A   1      46.289  27.953  30.829  1.00  0.00     0.034 A 
BRANCH  26  40
ATOM     40  C   UNL A   1      43.521  27.025  35.312  1.00  0.00     0.023 A 
ATOM     41  C   UNL A   1      43.934  27.228  36.639  1.00  0.00     0.031 A 
ATOM     42  C   UNL A   1      43.536  25.679  34.873  1.00  0.00     0.131 A 
ATOM     43  C   UNL A   1      44.540  26.194  37.369  1.00  0.00     0.055 A 
ATOM     44  C   UNL A   1      44.073  24.637  35.634  1.00  0.00     0.041 A 
ATOM     45  F   UNL A   1      43.099  25.288  33.673  1.00  0.00    -0.206 F 
ATOM     46  C   UNL A   1      44.629  24.900  36.871  1.00  0.00     0.022 A 
BRANCH  43  47
ATOM     47  S   UNL A   1      45.420  26.649  38.881  1.00  0.00     0.124 S 
ATOM     48  O   UNL A   1      44.892  27.990  39.109  1.00  0.00    -0.237 OA
ATOM     49  O   UNL A   1      44.973  25.613  39.806  1.00  0.00    -0.237 OA
ATOM     50  O   UNL A   1      46.823  26.577  38.489  1.00  0.00    -0.744 OA
ENDBRANCH  43  47
ENDBRANCH  26  40
BRANCH  27  51
ATOM     51  C   UNL A   1      43.575  23.863  27.530  1.00  0.00     0.023 A 
ATOM     52  C   UNL A   1      44.231  23.423  26.356  1.00  0.00     0.031 A 
ATOM     53  C   UNL A   1      42.736  22.917  28.164  1.00  0.00     0.131 A 
ATOM     54  C   UNL A   1      44.029  22.104  25.871  1.00  0.00     0.055 A 
ATOM     55  C   UNL A   1      42.535  21.623  27.677  1.00  0.00     0.041 A 
ATOM     56  F   UNL A   1      42.141  23.185  29.336  1.00  0.00    -0.206 F 
ATOM     57  C   UNL A   1      43.189  21.207  26.534  1.00  0.00     0.022 A 
BRANCH  54  58
ATOM     58  S   UNL A   1      44.929  21.491  24.405  1.00  0.00     0.124 S 
ATOM     59  O   UNL A   1      44.477  20.107  24.318  1.00  0.00    -0.237 OA
ATOM     60  O   UNL A   1      44.474  22.392  23.353  1.00  0.00    -0.237 OA
ATOM     61  O   UNL A   1      46.336  21.651  24.776  1.00  0.00    -0.744 OA
ENDBRANCH  54  58
ENDBRANCH  27  51
BRANCH  39  62
ATOM     62  C   UNL A   1      46.948  28.755  29.724  1.00  0.00     0.023 A 
ATOM     63  C   UNL A   1      46.266  29.488  28.726  1.00  0.00     0.031 A 
ATOM     64  C   UNL A   1      48.352  28.852  29.758  1.00  0.00     0.131 A 
ATOM     65  C   UNL A   1      46.994  30.259  27.797  1.00  0.00     0.055 A 
ATOM     66  C   UNL A   1      49.065  29.632  28.850  1.00  0.00     0.041 A 
ATOM     67  F   UNL A   1      49.058  28.206  30.700  1.00  0.00    -0.206 F 
ATOM     68  C   UNL A   1      48.390  30.331  27.859  1.00  0.00     0.022 A 
BRANCH  65  69
ATOM     69  S   UNL A   1      46.144  31.165  26.463  1.00  0.00     0.124 S 
ATOM     70  O   UNL A   1      44.796  31.361  26.983  1.00  0.00    -0.237 OA
ATOM     71  O   UNL A   1      46.961  32.369  26.333  1.00  0.00    -0.237 OA
ATOM     72  O   UNL A   1      46.231  30.249  25.324  1.00  0.00    -0.744 OA
ENDBRANCH  65  69
ENDBRANCH  39  62
ENDBRANCH  13  14
ENDBRANCH   6   8
ENDBRANCH   5   6
ENDBRANCH   4   5
ENDBRANCH   3   4
ENDBRANCH   2   3
ENDBRANCH   1   2
BRANCH   1  73
ATOM     73  C   UNL A   1      32.025  27.243  25.805  1.00  0.00     0.261 C 
BRANCH  73  74
ATOM     74  O   UNL A   1      32.313  26.034  26.512  1.00  0.00    -0.463 OA
BRANCH  74  75
ATOM     75  C   UNL A   1      33.172  25.180  25.882  1.00  0.00     0.312 C 
ATOM     76  O   UNL A   1      34.233  25.510  25.385  1.00  0.00    -0.252 OA
BRANCH  75  77
ATOM     77  C   UNL A   1      32.743  23.732  26.094  1.00  0.00     0.143 C 
ATOM     78  C   UNL A   1      33.780  22.761  25.513  1.00  0.00     0.124 C 
ATOM     79  C   UNL A   1      31.483  23.417  25.295  1.00  0.00     0.133 C 
ATOM     80  C   UNL A   1      32.938  22.059  24.426  1.00  0.00     0.132 C 
ATOM     81  C   UNL A   1      30.930  22.048  25.697  1.00  0.00     0.036 C 
ATOM     82  O   UNL A   1      32.064  23.141  23.998  1.00  0.00    -0.373 OA
ATOM     83  C   UNL A   1      31.872  21.101  24.959  1.00  0.00     0.035 C 
BRANCH  78  84
ATOM     84  C   UNL A   1      34.411  21.790  26.500  1.00  0.00     0.226 C 
ATOM     85  O   UNL A   1      33.979  21.680  27.650  1.00  0.00    -0.275 OA
ATOM     86  N   UNL A   1      35.417  20.941  26.154  1.00  0.00    -0.354 N 
ATOM     87  H   UNL A   1      35.824  20.477  26.922  1.00  0.00     0.163 HD
BRANCH  86  88
ATOM     88  C   UNL A   1      36.013  20.583  24.872  1.00  0.00     0.139 C 
BRANCH  88  89
ATOM     89  C   UNL A   1      37.517  20.854  24.809  1.00  0.00     0.165 C 
BRANCH  89  90
ATOM     90  N   UNL A   1      37.897  22.110  25.426  1.00  0.00    -0.269 N 
ATOM     91  C   UNL A   1      38.877  22.304  26.357  1.00  0.00     0.129 A 
ATOM     92  N   UNL A   1      37.238  23.239  25.099  1.00  0.00    -0.180 NA
ATOM     93  C   UNL A   1      38.828  23.638  26.677  1.00  0.00     0.079 A 
ATOM     94  C   UNL A   1      37.822  24.174  25.855  1.00  0.00     0.155 A 
ATOM     95  Cl  UNL A   1      39.758  24.475  27.814  1.00  0.00    -0.081 Cl
ENDBRANCH  89  90
ENDBRANCH  88  89
ENDBRANCH  86  88
ENDBRANCH  78  84
ENDBRANCH  75  77
ENDBRANCH  74  75
ENDBRANCH  73  74
ENDBRANCH   1  73
TORSDOF 21
ENDMDL
MODEL 3
REMARK VINA RESULT:     -11.4      2.648      3.908
REMARK SMILES O=C(OCCOCCOC(=O)[C@@H]1[C@@H](C(=O)NCCn2cc(Cl)cn2)[C@H]2CC[C@@H]1O2)c1ccc(-c2c3nc(c(-c4cc(S(=O)(=O)[O-])ccc4F)c4ccc([nH]4)c(-c4cc(S(=O)(=O)[O-])ccc4F)c4nc(c(-c5cc(S(=O)(=O)[O-])ccc5F)c5ccc2[nH]5)C=C4)C=C3)cc1
REMARK SMILES IDX 7 1 6 2 5 3 4 4 3 5 2 6 1 7 30 8 31 9 92 10 32 11 91 12
REMARK SMILES IDX 33 13 34 14 35 15 85 16 36 17 90 18 84 19 86 20 37 21 89 22
REMARK SMILES IDX 83 23 82 24 38 26 70 27 50 28 69 29 51 30 54 31 68 32 87 33
REMARK SMILES IDX 52 34 53 35 67 37 88 38 55 39 39 40 40 41 48 42 41 43 47 44
REMARK SMILES IDX 49 45 46 46 42 47 43 48 44 49 45 50 71 51 72 52 80 53 73 54
REMARK SMILES IDX 79 55 81 56 78 57 74 58 75 59 76 60 77 61 56 62 57 63 65 64
REMARK SMILES IDX 58 65 64 66 66 67 63 68 59 69 60 70 61 71 62 72 8 73 9 74
REMARK SMILES IDX 10 75 11 76 12 77 13 78 28 79 25 80 27 81 29 82 26 83 14 84
REMARK SMILES IDX 15 85 16 86 17 88 18 89 19 90 20 91 24 92 21 93 23 94 22 95
REMARK H PARENT 86 25 54 36 16 87
REMARK Flexibility Score: inf
ROOT
ATOM      1  C   UNL A   1      32.636  30.697  26.904  1.00  0.00     0.202 C 
ENDROOT
BRANCH   1   2
ATOM      2  O   UNL A   1      33.855  31.283  27.367  1.00  0.00    -0.374 OA
BRANCH   2   3
ATOM      3  C   UNL A   1      33.875  32.528  28.051  1.00  0.00     0.202 C 
BRANCH   3   4
ATOM      4  C   UNL A   1      34.679  32.766  29.331  1.00  0.00     0.261 C 
BRANCH   4   5
ATOM      5  O   UNL A   1      35.783  31.872  29.463  1.00  0.00    -0.460 OA
BRANCH   5   6
ATOM      6  C   UNL A   1      37.076  32.148  29.195  1.00  0.00     0.338 C 
ATOM      7  O   UNL A   1      37.339  33.157  28.543  1.00  0.00    -0.246 OA
BRANCH   6   8
ATOM      8  C   UNL A   1      38.197  31.328  29.736  1.00  0.00     0.060 A 
ATOM      9  C   UNL A   1      39.418  31.803  30.216  1.00  0.00     0.016 A 
ATOM     10  C   UNL A   1      37.980  29.942  29.703  1.00  0.00     0.016 A 
ATOM     11  C   UNL A   1      40.492  30.945  30.341  1.00  0.00     0.010 A 
ATOM     12  C   UNL A   1      39.025  29.067  29.917  1.00  0.00     0.010 A 
ATOM     13  C   UNL A   1      40.298  29.585  30.126  1.00  0.00    -0.014 A 
BRANCH  13  14
ATOM     14  C   UNL A   1      41.428  28.697  30.338  1.00  0.00     0.031 A 
ATOM     15  C   UNL A   1      41.743  28.529  31.778  1.00  0.00     0.074 A 
ATOM     16  C   UNL A   1      42.006  28.023  29.325  1.00  0.00     0.049 A 
ATOM     17  N   UNL A   1      42.797  28.930  32.408  1.00  0.00    -0.248 NA
ATOM     18  C   UNL A   1      40.654  28.089  32.672  1.00  0.00     0.031 C 
ATOM     19  C   UNL A   1      41.584  28.000  27.922  1.00  0.00     0.029 A 
ATOM     20  N   UNL A   1      43.020  27.117  29.345  1.00  0.00    -0.354 N 
ATOM     21  C   UNL A   1      42.622  28.497  33.718  1.00  0.00     0.074 A 
ATOM     22  C   UNL A   1      41.216  28.260  33.867  1.00  0.00     0.031 C 
ATOM     23  C   UNL A   1      42.154  26.942  27.304  1.00  0.00     0.029 A 
ATOM     24  C   UNL A   1      43.059  26.280  28.230  1.00  0.00     0.049 A 
ATOM     25  H   UNL A   1      43.670  27.057  30.082  1.00  0.00     0.167 HD
ATOM     26  C   UNL A   1      43.684  28.023  34.427  1.00  0.00     0.034 A 
ATOM     27  C   UNL A   1      43.711  25.089  28.114  1.00  0.00     0.034 A 
ATOM     28  C   UNL A   1      44.930  28.519  33.867  1.00  0.00     0.049 A 
ATOM     29  C   UNL A   1      44.762  25.074  29.165  1.00  0.00     0.074 A 
ATOM     30  C   UNL A   1      45.415  29.780  33.567  1.00  0.00     0.029 A 
ATOM     31  N   UNL A   1      45.729  27.645  33.158  1.00  0.00    -0.354 N 
ATOM     32  N   UNL A   1      45.784  25.885  29.159  1.00  0.00    -0.248 NA
ATOM     33  C   UNL A   1      44.410  24.540  30.475  1.00  0.00     0.031 C 
ATOM     34  C   UNL A   1      46.113  29.624  32.333  1.00  0.00     0.029 A 
ATOM     35  C   UNL A   1      46.112  28.269  31.999  1.00  0.00     0.049 A 
ATOM     36  H   UNL A   1      45.981  26.734  33.436  1.00  0.00     0.167 HD
ATOM     37  C   UNL A   1      45.908  26.317  30.472  1.00  0.00     0.074 A 
ATOM     38  C   UNL A   1      45.098  25.381  31.253  1.00  0.00     0.031 C 
ATOM     39  C   UNL A   1      46.395  27.561  30.763  1.00  0.00     0.034 A 
BRANCH  26  40
ATOM     40  C   UNL A   1      43.618  26.753  35.264  1.00  0.00     0.023 A 
ATOM     41  C   UNL A   1      43.944  26.898  36.622  1.00  0.00     0.031 A 
ATOM     42  C   UNL A   1      43.614  25.421  34.782  1.00  0.00     0.131 A 
ATOM     43  C   UNL A   1      44.458  25.819  37.357  1.00  0.00     0.055 A 
ATOM     44  C   UNL A   1      44.057  24.336  35.542  1.00  0.00     0.041 A 
ATOM     45  F   UNL A   1      43.248  25.085  33.542  1.00  0.00    -0.206 F 
ATOM     46  C   UNL A   1      44.534  24.539  36.823  1.00  0.00     0.022 A 
BRANCH  43  47
ATOM     47  S   UNL A   1      45.245  26.192  38.941  1.00  0.00     0.124 S 
ATOM     48  O   UNL A   1      46.154  27.264  38.547  1.00  0.00    -0.237 OA
ATOM     49  O   UNL A   1      44.099  26.583  39.756  1.00  0.00    -0.237 OA
ATOM     50  O   UNL A   1      45.875  24.929  39.309  1.00  0.00    -0.744 OA
ENDBRANCH  43  47
ENDBRANCH  26  40
BRANCH  27  51
ATOM     51  C   UNL A   1      43.248  23.866  27.384  1.00  0.00     0.023 A 
ATOM     52  C   UNL A   1      44.030  23.199  26.411  1.00  0.00     0.031 A 
ATOM     53  C   UNL A   1      42.082  23.191  27.814  1.00  0.00     0.131 A 
ATOM     54  C   UNL A   1      43.631  21.929  25.916  1.00  0.00     0.055 A 
ATOM     55  C   UNL A   1      41.690  21.945  27.317  1.00  0.00     0.041 A 
ATOM     56  F   UNL A   1      41.317  23.678  28.803  1.00  0.00    -0.206 F 
ATOM     57  C   UNL A   1      42.469  21.304  26.373  1.00  0.00     0.022 A 
BRANCH  54  58
ATOM     58  S   UNL A   1      44.667  21.015  24.723  1.00  0.00     0.124 S 
ATOM     59  O   UNL A   1      44.575  21.847  23.528  1.00  0.00    -0.237 OA
ATOM     60  O   UNL A   1      45.962  20.976  25.392  1.00  0.00    -0.237 OA
ATOM     61  O   UNL A   1      43.999  19.716  24.616  1.00  0.00    -0.744 OA
ENDBRANCH  54  58
ENDBRANCH  27  51
BRANCH  39  62
ATOM     62  C   UNL A   1      47.113  28.333  29.674  1.00  0.00     0.023 A 
ATOM     63  C   UNL A   1      46.490  29.159  28.710  1.00  0.00     0.031 A 
ATOM     64  C   UNL A   1      48.520  28.295  29.687  1.00  0.00     0.131 A 
ATOM     65  C   UNL A   1      47.275  29.888  27.794  1.00  0.00     0.055 A 
ATOM     66  C   UNL A   1      49.292  29.033  28.793  1.00  0.00     0.041 A 
ATOM     67  F   UNL A   1      49.174  27.555  30.597  1.00  0.00    -0.206 F 
ATOM     68  C   UNL A   1      48.672  29.825  27.835  1.00  0.00     0.022 A 
BRANCH  65  69
ATOM     69  S   UNL A   1      46.498  30.913  26.503  1.00  0.00     0.124 S 
ATOM     70  O   UNL A   1      45.202  31.263  27.074  1.00  0.00    -0.237 OA
ATOM     71  O   UNL A   1      47.450  32.010  26.358  1.00  0.00    -0.237 OA
ATOM     72  O   UNL A   1      46.432  30.013  25.350  1.00  0.00    -0.744 OA
ENDBRANCH  65  69
ENDBRANCH  39  62
ENDBRANCH  13  14
ENDBRANCH   6   8
ENDBRANCH   5   6
ENDBRANCH   4   5
ENDBRANCH   3   4
ENDBRANCH   2   3
ENDBRANCH   1   2
BRANCH   1  73
ATOM     73  C   UNL A   1      32.336  29.198  27.083  1.00  0.00     0.261 C 
BRANCH  73  74
ATOM     74  O   UNL A   1      31.628  28.628  25.980  1.00  0.00    -0.463 OA
BRANCH  74  75
ATOM     75  C   UNL A   1      31.365  27.292  26.082  1.00  0.00     0.312 C 
ATOM     76  O   UNL A   1      30.813  26.768  27.032  1.00  0.00    -0.252 OA
BRANCH  75  77
ATOM     77  C   UNL A   1      31.637  26.587  24.757  1.00  0.00     0.143 C 
ATOM     78  C   UNL A   1      32.095  25.140  24.989  1.00  0.00     0.124 C 
ATOM     79  C   UNL A   1      32.824  27.219  24.039  1.00  0.00     0.133 C 
ATOM     80  C   UNL A   1      33.516  25.190  24.387  1.00  0.00     0.132 C 
ATOM     81  C   UNL A   1      32.938  26.667  22.617  1.00  0.00     0.036 C 
ATOM     82  O   UNL A   1      33.917  26.551  24.713  1.00  0.00    -0.373 OA
ATOM     83  C   UNL A   1      33.563  25.297  22.862  1.00  0.00     0.035 C 
BRANCH  78  84
ATOM     84  C   UNL A   1      31.222  24.057  24.371  1.00  0.00     0.226 C 
ATOM     85  O   UNL A   1      30.532  24.286  23.375  1.00  0.00    -0.275 OA
ATOM     86  N   UNL A   1      31.214  22.774  24.824  1.00  0.00    -0.354 N 
ATOM     87  H   UNL A   1      30.501  22.221  24.430  1.00  0.00     0.163 HD
BRANCH  86  88
ATOM     88  C   UNL A   1      32.051  22.056  25.778  1.00  0.00     0.139 C 
BRANCH  88  89
ATOM     89  C   UNL A   1      33.333  21.500  25.156  1.00  0.00     0.165 C 
BRANCH  89  90
ATOM     90  N   UNL A   1      33.258  20.081  24.865  1.00  0.00    -0.269 N 
ATOM     91  C   UNL A   1      34.299  19.246  24.573  1.00  0.00     0.129 A 
ATOM     92  N   UNL A   1      32.059  19.466  24.850  1.00  0.00    -0.180 NA
ATOM     93  C   UNL A   1      33.734  18.021  24.321  1.00  0.00     0.079 A 
ATOM     94  C   UNL A   1      32.357  18.203  24.532  1.00  0.00     0.155 A 
ATOM     95  Cl  UNL A   1      34.505  16.592  23.850  1.00  0.00    -0.081 Cl
ENDBRANCH  89  90
ENDBRANCH  88  89
ENDBRANCH  86  88
ENDBRANCH  78  84
ENDBRANCH  75  77
ENDBRANCH  74  75
ENDBRANCH  73  74
ENDBRANCH   1  73
TORSDOF 21
ENDMDL
