MODEL 1
REMARK VINA RESULT:     -10.0      0.000      0.000
REMARK SMILES COCC[C@H](NC(=O)c1ccc(C)cc1F)C(=O)OCCOCCOC(=O)c1ccc(-c2c3nc(c(-c4cc(S(=O)(=O)[O-])ccc4F)c4ccc([nH]4)c(-c4cc(S(=O)(=O)[O-])ccc4F)c4nc(c(-c5cc(S(=O)(=O)[O-])ccc5F)c5ccc2[nH]5)C=C4)C=C3)cc1
REMARK SMILES IDX 22 1 21 2 20 3 19 4 17 5 18 6 5 7 4 8 3 9 2 10 1 11 6 12
REMARK SMILES IDX 7 13 8 15 9 16 10 17 15 18 11 19 14 20 16 21 12 22 13 23
REMARK SMILES IDX 23 24 24 25 25 26 26 27 27 28 28 29 29 30 90 31 30 32 89 33
REMARK SMILES IDX 31 34 32 35 33 36 83 37 34 38 88 39 82 40 84 41 35 42 87 43
REMARK SMILES IDX 81 44 80 45 36 47 68 48 48 49 67 50 49 51 52 52 66 53 85 54
REMARK SMILES IDX 50 55 51 56 65 58 86 59 53 60 37 61 38 62 46 63 39 64 45 65
REMARK SMILES IDX 47 66 44 67 40 68 41 69 42 70 43 71 69 72 70 73 78 74 71 75
REMARK SMILES IDX 77 76 79 77 76 78 72 79 73 80 74 81 75 82 54 83 55 84 63 85
REMARK SMILES IDX 56 86 62 87 64 88 61 89 57 90 58 91 59 92 60 93
REMARK H PARENT 6 14 84 46 52 57
REMARK Flexibility Score: inf
ROOT
ATOM      1  O   UNL A   1      32.231  30.695  26.355  1.00  0.00    -0.374 OA
ENDROOT
BRANCH   1   2
ATOM      2  C   UNL A   1      32.914  29.601  25.732  1.00  0.00     0.202 C 
BRANCH   2   3
ATOM      3  C   UNL A   1      33.445  28.609  26.770  1.00  0.00     0.261 C 
BRANCH   3   4
ATOM      4  O   UNL A   1      33.379  27.290  26.199  1.00  0.00    -0.462 OA
BRANCH   4   5
ATOM      5  C   UNL A   1      32.298  26.540  26.500  1.00  0.00     0.328 C 
ATOM      6  O   UNL A   1      31.259  26.973  26.986  1.00  0.00    -0.250 OA
BRANCH   5   7
ATOM      7  C   UNL A   1      32.465  25.074  26.043  1.00  0.00     0.194 C 
BRANCH   7   8
ATOM      8  C   UNL A   1      33.867  24.840  25.458  1.00  0.00     0.065 C 
BRANCH   8   9
ATOM      9  C   UNL A   1      34.415  23.450  25.779  1.00  0.00     0.162 C 
BRANCH   9  10
ATOM     10  O   UNL A   1      33.441  22.604  26.389  1.00  0.00    -0.385 OA
ATOM     11  C   UNL A   1      33.868  21.947  27.572  1.00  0.00     0.194 C 
ENDBRANCH   9  10
ENDBRANCH   8   9
ENDBRANCH   7   8
BRANCH   7  12
ATOM     12  N   UNL A   1      31.463  24.363  25.232  1.00  0.00    -0.338 N 
ATOM     13  C   UNL A   1      30.953  24.682  24.000  1.00  0.00     0.254 C 
ATOM     14  H   UNL A   1      31.107  23.538  25.635  1.00  0.00     0.164 HD
ATOM     15  O   UNL A   1      30.607  23.794  23.228  1.00  0.00    -0.269 OA
BRANCH  13  16
ATOM     16  C   UNL A   1      30.667  26.085  23.697  1.00  0.00     0.075 A 
ATOM     17  C   UNL A   1      29.439  26.696  23.939  1.00  0.00     0.017 A 
ATOM     18  C   UNL A   1      31.665  26.759  23.011  1.00  0.00     0.136 A 
ATOM     19  C   UNL A   1      29.185  27.956  23.381  1.00  0.00     0.004 A 
ATOM     20  C   UNL A   1      31.418  28.013  22.472  1.00  0.00     0.043 A 
ATOM     21  F   UNL A   1      32.838  26.159  22.779  1.00  0.00    -0.206 F 
ATOM     22  C   UNL A   1      30.159  28.600  22.604  1.00  0.00    -0.048 A 
ATOM     23  C   UNL A   1      29.873  29.872  21.860  1.00  0.00     0.044 C 
ENDBRANCH  13  16
ENDBRANCH   7  12
ENDBRANCH   5   7
ENDBRANCH   4   5
ENDBRANCH   3   4
ENDBRANCH   2   3
ENDBRANCH   1   2
BRANCH   1  24
ATOM     24  C   UNL A   1      32.889  31.255  27.495  1.00  0.00     0.202 C 
BRANCH  24  25
ATOM     25  C   UNL A   1      33.292  32.717  27.305  1.00  0.00     0.261 C 
BRANCH  25  26
ATOM     26  O   UNL A   1      32.501  33.585  28.136  1.00  0.00    -0.460 OA
BRANCH  26  27
ATOM     27  C   UNL A   1      33.151  34.628  28.705  1.00  0.00     0.338 C 
ATOM     28  O   UNL A   1      32.754  35.781  28.765  1.00  0.00    -0.246 OA
BRANCH  27  29
ATOM     29  C   UNL A   1      34.378  34.149  29.392  1.00  0.00     0.060 A 
ATOM     30  C   UNL A   1      35.617  34.481  28.830  1.00  0.00     0.016 A 
ATOM     31  C   UNL A   1      34.337  33.413  30.584  1.00  0.00     0.016 A 
ATOM     32  C   UNL A   1      36.803  34.069  29.445  1.00  0.00     0.010 A 
ATOM     33  C   UNL A   1      35.524  33.036  31.222  1.00  0.00     0.010 A 
ATOM     34  C   UNL A   1      36.766  33.325  30.634  1.00  0.00    -0.014 A 
BRANCH  34  35
ATOM     35  C   UNL A   1      38.008  32.652  31.097  1.00  0.00     0.031 A 
ATOM     36  C   UNL A   1      38.642  33.161  32.364  1.00  0.00     0.074 A 
ATOM     37  C   UNL A   1      38.527  31.578  30.471  1.00  0.00     0.049 A 
ATOM     38  N   UNL A   1      39.605  32.642  33.079  1.00  0.00    -0.248 NA
ATOM     39  C   UNL A   1      38.119  34.433  32.886  1.00  0.00     0.031 C 
ATOM     40  C   UNL A   1      38.041  31.013  29.215  1.00  0.00     0.029 A 
ATOM     41  N   UNL A   1      39.576  30.761  30.819  1.00  0.00    -0.354 N 
ATOM     42  C   UNL A   1      39.771  33.504  34.157  1.00  0.00     0.074 A 
ATOM     43  C   UNL A   1      38.880  34.622  33.948  1.00  0.00     0.031 C 
ATOM     44  C   UNL A   1      38.774  29.927  28.907  1.00  0.00     0.029 A 
ATOM     45  C   UNL A   1      39.786  29.719  29.944  1.00  0.00     0.049 A 
ATOM     46  H   UNL A   1      40.128  30.908  31.621  1.00  0.00     0.167 HD
ATOM     47  C   UNL A   1      40.563  33.362  35.247  1.00  0.00     0.034 A 
ATOM     48  C   UNL A   1      40.682  28.710  29.987  1.00  0.00     0.034 A 
ATOM     49  C   UNL A   1      41.488  32.275  35.427  1.00  0.00     0.049 A 
ATOM     50  C   UNL A   1      41.614  28.609  31.176  1.00  0.00     0.074 A 
ATOM     51  C   UNL A   1      42.345  32.034  36.483  1.00  0.00     0.029 A 
ATOM     52  N   UNL A   1      41.694  31.257  34.505  1.00  0.00    -0.354 N 
ATOM     53  N   UNL A   1      41.695  29.380  32.236  1.00  0.00    -0.248 NA
ATOM     54  C   UNL A   1      42.560  27.484  31.182  1.00  0.00     0.031 C 
ATOM     55  C   UNL A   1      43.116  30.908  36.172  1.00  0.00     0.029 A 
ATOM     56  C   UNL A   1      42.688  30.401  34.954  1.00  0.00     0.049 A 
ATOM     57  H   UNL A   1      41.206  31.156  33.656  1.00  0.00     0.167 HD
ATOM     58  C   UNL A   1      42.672  28.808  33.051  1.00  0.00     0.074 A 
ATOM     59  C   UNL A   1      43.138  27.620  32.366  1.00  0.00     0.031 C 
ATOM     60  C   UNL A   1      43.142  29.222  34.257  1.00  0.00     0.034 A 
BRANCH  47  61
ATOM     61  C   UNL A   1      40.461  34.443  36.293  1.00  0.00     0.023 A 
ATOM     62  C   UNL A   1      41.503  35.372  36.479  1.00  0.00     0.031 A 
ATOM     63  C   UNL A   1      39.368  34.490  37.173  1.00  0.00     0.131 A 
ATOM     64  C   UNL A   1      41.475  36.242  37.577  1.00  0.00     0.055 A 
ATOM     65  C   UNL A   1      39.307  35.419  38.214  1.00  0.00     0.041 A 
ATOM     66  F   UNL A   1      38.360  33.613  37.058  1.00  0.00    -0.206 F 
ATOM     67  C   UNL A   1      40.372  36.289  38.433  1.00  0.00     0.022 A 
BRANCH  64  68
ATOM     68  S   UNL A   1      42.972  37.189  37.969  1.00  0.00     0.124 S 
ATOM     69  O   UNL A   1      43.806  36.171  38.605  1.00  0.00    -0.237 OA
ATOM     70  O   UNL A   1      43.411  37.644  36.656  1.00  0.00    -0.237 OA
ATOM     71  O   UNL A   1      42.490  38.238  38.865  1.00  0.00    -0.744 OA
ENDBRANCH  64  68
ENDBRANCH  47  61
BRANCH  48  72
ATOM     72  C   UNL A   1      40.768  27.704  28.886  1.00  0.00     0.023 A 
ATOM     73  C   UNL A   1      41.739  27.807  27.875  1.00  0.00     0.031 A 
ATOM     74  C   UNL A   1      39.812  26.679  28.774  1.00  0.00     0.131 A 
ATOM     75  C   UNL A   1      41.696  26.944  26.768  1.00  0.00     0.055 A 
ATOM     76  C   UNL A   1      39.802  25.792  27.695  1.00  0.00     0.041 A 
ATOM     77  F   UNL A   1      38.861  26.532  29.710  1.00  0.00    -0.206 F 
ATOM     78  C   UNL A   1      40.738  25.932  26.674  1.00  0.00     0.022 A 
BRANCH  75  79
ATOM     79  S   UNL A   1      42.852  27.224  25.396  1.00  0.00     0.124 S 
ATOM     80  O   UNL A   1      42.211  28.325  24.687  1.00  0.00    -0.237 OA
ATOM     81  O   UNL A   1      44.086  27.548  26.104  1.00  0.00    -0.237 OA
ATOM     82  O   UNL A   1      42.859  25.945  24.690  1.00  0.00    -0.744 OA
ENDBRANCH  75  79
ENDBRANCH  48  72
BRANCH  60  83
ATOM     83  C   UNL A   1      44.178  28.353  34.929  1.00  0.00     0.023 A 
ATOM     84  C   UNL A   1      43.821  27.310  35.801  1.00  0.00     0.031 A 
ATOM     85  C   UNL A   1      45.547  28.580  34.697  1.00  0.00     0.131 A 
ATOM     86  C   UNL A   1      44.820  26.573  36.457  1.00  0.00     0.055 A 
ATOM     87  C   UNL A   1      46.535  27.801  35.301  1.00  0.00     0.041 A 
ATOM     88  F   UNL A   1      45.947  29.562  33.874  1.00  0.00    -0.206 F 
ATOM     89  C   UNL A   1      46.174  26.801  36.199  1.00  0.00     0.022 A 
BRANCH  86  90
ATOM     90  S   UNL A   1      44.327  25.380  37.731  1.00  0.00     0.124 S 
ATOM     91  O   UNL A   1      44.488  26.157  38.956  1.00  0.00    -0.237 OA
ATOM     92  O   UNL A   1      42.954  25.067  37.351  1.00  0.00    -0.237 OA
ATOM     93  O   UNL A   1      45.281  24.284  37.562  1.00  0.00    -0.744 OA
ENDBRANCH  86  90
ENDBRANCH  60  83
ENDBRANCH  34  35
ENDBRANCH  27  29
ENDBRANCH  26  27
ENDBRANCH  25  26
ENDBRANCH  24  25
ENDBRANCH   1  24
TORSDOF 22
ENDMDL
MODEL 2
REMARK VINA RESULT:      -9.7      4.455      9.384
REMARK SMILES COCC[C@H](NC(=O)c1ccc(C)cc1F)C(=O)OCCOCCOC(=O)c1ccc(-c2c3nc(c(-c4cc(S(=O)(=O)[O-])ccc4F)c4ccc([nH]4)c(-c4cc(S(=O)(=O)[O-])ccc4F)c4nc(c(-c5cc(S(=O)(=O)[O-])ccc5F)c5ccc2[nH]5)C=C4)C=C3)cc1
REMARK SMILES IDX 22 1 21 2 20 3 19 4 17 5 18 6 5 7 4 8 3 9 2 10 1 11 6 12
REMARK SMILES IDX 7 13 8 15 9 16 10 17 15 18 11 19 14 20 16 21 12 22 13 23
REMARK SMILES IDX 23 24 24 25 25 26 26 27 27 28 28 29 29 30 90 31 30 32 89 33
REMARK SMILES IDX 31 34 32 35 33 36 83 37 34 38 88 39 82 40 84 41 35 42 87 43
REMARK SMILES IDX 81 44 80 45 36 47 68 48 48 49 67 50 49 51 52 52 66 53 85 54
REMARK SMILES IDX 50 55 51 56 65 58 86 59 53 60 37 61 38 62 46 63 39 64 45 65
REMARK SMILES IDX 47 66 44 67 40 68 41 69 42 70 43 71 69 72 70 73 78 74 71 75
REMARK SMILES IDX 77 76 79 77 76 78 72 79 73 80 74 81 75 82 54 83 55 84 63 85
REMARK SMILES IDX 56 86 62 87 64 88 61 89 57 90 58 91 59 92 60 93
REMARK H PARENT 6 14 84 46 52 57
REMARK Flexibility Score: inf
ROOT
ATOM      1  O   UNL A   1      34.623  21.194  25.494  1.00  0.00    -0.374 OA
ENDROOT
BRANCH   1   2
ATOM      2  C   UNL A   1      34.147  20.003  24.857  1.00  0.00     0.202 C 
BRANCH   2   3
ATOM      3  C   UNL A   1      32.822  20.247  24.131  1.00  0.00     0.261 C 
BRANCH   3   4
ATOM      4  O   UNL A   1      32.417  21.603  24.388  1.00  0.00    -0.462 OA
BRANCH   4   5
ATOM      5  C   UNL A   1      32.726  22.528  23.456  1.00  0.00     0.328 C 
ATOM      6  O   UNL A   1      32.791  22.313  22.250  1.00  0.00    -0.250 OA
BRANCH   5   7
ATOM      7  C   UNL A   1      32.868  23.941  24.067  1.00  0.00     0.194 C 
BRANCH   7   8
ATOM      8  C   UNL A   1      34.149  24.626  23.566  1.00  0.00     0.065 C 
BRANCH   8   9
ATOM      9  C   UNL A   1      34.012  26.146  23.488  1.00  0.00     0.162 C 
BRANCH   9  10
ATOM     10  O   UNL A   1      33.868  26.616  22.149  1.00  0.00    -0.385 OA
ATOM     11  C   UNL A   1      33.783  28.026  22.010  1.00  0.00     0.194 C 
ENDBRANCH   9  10
ENDBRANCH   8   9
ENDBRANCH   7   8
BRANCH   7  12
ATOM     12  N   UNL A   1      32.680  24.222  25.499  1.00  0.00    -0.338 N 
ATOM     13  C   UNL A   1      31.646  24.861  26.134  1.00  0.00     0.254 C 
ATOM     14  H   UNL A   1      33.404  23.905  26.088  1.00  0.00     0.164 HD
ATOM     15  O   UNL A   1      31.331  24.540  27.275  1.00  0.00    -0.269 OA
BRANCH  13  16
ATOM     16  C   UNL A   1      31.050  26.037  25.501  1.00  0.00     0.075 A 
ATOM     17  C   UNL A   1      29.998  25.978  24.590  1.00  0.00     0.017 A 
ATOM     18  C   UNL A   1      31.692  27.239  25.756  1.00  0.00     0.136 A 
ATOM     19  C   UNL A   1      29.674  27.123  23.850  1.00  0.00     0.004 A 
ATOM     20  C   UNL A   1      31.360  28.377  25.035  1.00  0.00     0.043 A 
ATOM     21  F   UNL A   1      32.705  27.282  26.629  1.00  0.00    -0.206 F 
ATOM     22  C   UNL A   1      30.387  28.317  24.036  1.00  0.00    -0.048 A 
ATOM     23  C   UNL A   1      30.179  29.515  23.157  1.00  0.00     0.044 C 
ENDBRANCH  13  16
ENDBRANCH   7  12
ENDBRANCH   5   7
ENDBRANCH   4   5
ENDBRANCH   3   4
ENDBRANCH   2   3
ENDBRANCH   1   2
BRANCH   1  24
ATOM     24  C   UNL A   1      36.024  21.214  25.781  1.00  0.00     0.202 C 
BRANCH  24  25
ATOM     25  C   UNL A   1      36.640  22.610  25.692  1.00  0.00     0.261 C 
BRANCH  25  26
ATOM     26  O   UNL A   1      37.993  22.549  25.209  1.00  0.00    -0.460 OA
BRANCH  26  27
ATOM     27  C   UNL A   1      38.949  22.276  26.130  1.00  0.00     0.338 C 
ATOM     28  O   UNL A   1      39.368  21.169  26.429  1.00  0.00    -0.246 OA
BRANCH  27  29
ATOM     29  C   UNL A   1      39.539  23.540  26.639  1.00  0.00     0.060 A 
ATOM     30  C   UNL A   1      40.003  23.563  27.960  1.00  0.00     0.016 A 
ATOM     31  C   UNL A   1      39.675  24.685  25.842  1.00  0.00     0.016 A 
ATOM     32  C   UNL A   1      40.583  24.722  28.484  1.00  0.00     0.010 A 
ATOM     33  C   UNL A   1      40.292  25.833  26.353  1.00  0.00     0.010 A 
ATOM     34  C   UNL A   1      40.713  25.873  27.692  1.00  0.00    -0.014 A 
BRANCH  34  35
ATOM     35  C   UNL A   1      41.049  27.163  28.351  1.00  0.00     0.031 A 
ATOM     36  C   UNL A   1      42.503  27.539  28.438  1.00  0.00     0.074 A 
ATOM     37  C   UNL A   1      40.107  28.017  28.795  1.00  0.00     0.049 A 
ATOM     38  N   UNL A   1      43.051  28.674  28.784  1.00  0.00    -0.248 NA
ATOM     39  C   UNL A   1      43.469  26.484  28.090  1.00  0.00     0.031 C 
ATOM     40  C   UNL A   1      38.670  27.758  28.813  1.00  0.00     0.029 A 
ATOM     41  N   UNL A   1      40.222  29.287  29.305  1.00  0.00    -0.354 N 
ATOM     42  C   UNL A   1      44.421  28.480  28.655  1.00  0.00     0.074 A 
ATOM     43  C   UNL A   1      44.622  27.095  28.295  1.00  0.00     0.031 C 
ATOM     44  C   UNL A   1      38.032  28.844  29.288  1.00  0.00     0.029 A 
ATOM     45  C   UNL A   1      39.016  29.877  29.610  1.00  0.00     0.049 A 
ATOM     46  H   UNL A   1      41.088  29.735  29.440  1.00  0.00     0.167 HD
ATOM     47  C   UNL A   1      45.424  29.380  28.785  1.00  0.00     0.034 A 
ATOM     48  C   UNL A   1      38.744  31.113  30.081  1.00  0.00     0.034 A 
ATOM     49  C   UNL A   1      45.226  30.744  29.196  1.00  0.00     0.049 A 
ATOM     50  C   UNL A   1      39.886  32.084  30.294  1.00  0.00     0.074 A 
ATOM     51  C   UNL A   1      46.167  31.741  29.370  1.00  0.00     0.029 A 
ATOM     52  N   UNL A   1      43.995  31.296  29.527  1.00  0.00    -0.354 N 
ATOM     53  N   UNL A   1      41.170  31.916  30.077  1.00  0.00    -0.248 NA
ATOM     54  C   UNL A   1      39.533  33.421  30.793  1.00  0.00     0.031 C 
ATOM     55  C   UNL A   1      45.515  32.875  29.868  1.00  0.00     0.029 A 
ATOM     56  C   UNL A   1      44.155  32.611  29.933  1.00  0.00     0.049 A 
ATOM     57  H   UNL A   1      43.133  30.822  29.479  1.00  0.00     0.167 HD
ATOM     58  C   UNL A   1      41.771  33.139  30.376  1.00  0.00     0.074 A 
ATOM     59  C   UNL A   1      40.706  34.037  30.772  1.00  0.00     0.031 C 
ATOM     60  C   UNL A   1      43.082  33.493  30.327  1.00  0.00     0.034 A 
BRANCH  47  61
ATOM     61  C   UNL A   1      46.817  28.875  28.502  1.00  0.00     0.023 A 
ATOM     62  C   UNL A   1      47.206  28.513  27.198  1.00  0.00     0.031 A 
ATOM     63  C   UNL A   1      47.728  28.661  29.548  1.00  0.00     0.131 A 
ATOM     64  C   UNL A   1      48.433  27.867  26.990  1.00  0.00     0.055 A 
ATOM     65  C   UNL A   1      48.985  28.095  29.319  1.00  0.00     0.041 A 
ATOM     66  F   UNL A   1      47.400  28.962  30.814  1.00  0.00    -0.206 F 
ATOM     67  C   UNL A   1      49.335  27.677  28.038  1.00  0.00     0.022 A 
BRANCH  64  68
ATOM     68  S   UNL A   1      48.754  27.129  25.365  1.00  0.00     0.124 S 
ATOM     69  O   UNL A   1      50.156  26.736  25.492  1.00  0.00    -0.237 OA
ATOM     70  O   UNL A   1      47.788  26.039  25.315  1.00  0.00    -0.237 OA
ATOM     71  O   UNL A   1      48.506  28.227  24.433  1.00  0.00    -0.744 OA
ENDBRANCH  64  68
ENDBRANCH  47  61
BRANCH  48  72
ATOM     72  C   UNL A   1      37.343  31.530  30.395  1.00  0.00     0.023 A 
ATOM     73  C   UNL A   1      36.476  31.995  29.391  1.00  0.00     0.031 A 
ATOM     74  C   UNL A   1      36.886  31.565  31.724  1.00  0.00     0.131 A 
ATOM     75  C   UNL A   1      35.225  32.531  29.737  1.00  0.00     0.055 A 
ATOM     76  C   UNL A   1      35.621  32.054  32.058  1.00  0.00     0.041 A 
ATOM     77  F   UNL A   1      37.671  31.133  32.724  1.00  0.00    -0.206 F 
ATOM     78  C   UNL A   1      34.788  32.557  31.063  1.00  0.00     0.022 A 
BRANCH  75  79
ATOM     79  S   UNL A   1      34.210  33.289  28.435  1.00  0.00     0.124 S 
ATOM     80  O   UNL A   1      33.578  32.121  27.833  1.00  0.00    -0.237 OA
ATOM     81  O   UNL A   1      33.336  34.165  29.208  1.00  0.00    -0.237 OA
ATOM     82  O   UNL A   1      35.189  33.974  27.595  1.00  0.00    -0.744 OA
ENDBRANCH  75  79
ENDBRANCH  48  72
BRANCH  60  83
ATOM     83  C   UNL A   1      43.424  34.924  30.662  1.00  0.00     0.023 A 
ATOM     84  C   UNL A   1      43.688  35.337  31.980  1.00  0.00     0.031 A 
ATOM     85  C   UNL A   1      43.481  35.894  29.644  1.00  0.00     0.131 A 
ATOM     86  C   UNL A   1      43.934  36.691  32.253  1.00  0.00     0.055 A 
ATOM     87  C   UNL A   1      43.790  37.227  29.913  1.00  0.00     0.041 A 
ATOM     88  F   UNL A   1      43.238  35.557  28.366  1.00  0.00    -0.206 F 
ATOM     89  C   UNL A   1      44.004  37.636  31.226  1.00  0.00     0.022 A 
BRANCH  86  90
ATOM     90  S   UNL A   1      44.060  37.222  33.983  1.00  0.00     0.124 S 
ATOM     91  O   UNL A   1      42.668  37.504  34.318  1.00  0.00    -0.237 OA
ATOM     92  O   UNL A   1      44.645  36.050  34.626  1.00  0.00    -0.237 OA
ATOM     93  O   UNL A   1      44.933  38.394  33.919  1.00  0.00    -0.744 OA
ENDBRANCH  86  90
ENDBRANCH  60  83
ENDBRANCH  34  35
ENDBRANCH  27  29
ENDBRANCH  26  27
ENDBRANCH  25  26
ENDBRANCH  24  25
ENDBRANCH   1  24
TORSDOF 22
ENDMDL
MODEL 3
REMARK VINA RESULT:      -9.4      2.069      2.469
REMARK SMILES COCC[C@H](NC(=O)c1ccc(C)cc1F)C(=O)OCCOCCOC(=O)c1ccc(-c2c3nc(c(-c4cc(S(=O)(=O)[O-])ccc4F)c4ccc([nH]4)c(-c4cc(S(=O)(=O)[O-])ccc4F)c4nc(c(-c5cc(S(=O)(=O)[O-])ccc5F)c5ccc2[nH]5)C=C4)C=C3)cc1
REMARK SMILES IDX 22 1 21 2 20 3 19 4 17 5 18 6 5 7 4 8 3 9 2 10 1 11 6 12
REMARK SMILES IDX 7 13 8 15 9 16 10 17 15 18 11 19 14 20 16 21 12 22 13 23
REMARK SMILES IDX 23 24 24 25 25 26 26 27 27 28 28 29 29 30 90 31 30 32 89 33
REMARK SMILES IDX 31 34 32 35 33 36 83 37 34 38 88 39 82 40 84 41 35 42 87 43
REMARK SMILES IDX 81 44 80 45 36 47 68 48 48 49 67 50 49 51 52 52 66 53 85 54
REMARK SMILES IDX 50 55 51 56 65 58 86 59 53 60 37 61 38 62 46 63 39 64 45 65
REMARK SMILES IDX 47 66 44 67 40 68 41 69 42 70 43 71 69 72 70 73 78 74 71 75
REMARK SMILES IDX 77 76 79 77 76 78 72 79 73 80 74 81 75 82 54 83 55 84 63 85
REMARK SMILES IDX 56 86 62 87 64 88 61 89 57 90 58 91 59 92 60 93
REMARK H PARENT 6 14 84 46 52 57
REMARK Flexibility Score: inf
ROOT
ATOM      1  O   UNL A   1      32.595  30.691  26.531  1.00  0.00    -0.374 OA
ENDROOT
BRANCH   1   2
ATOM      2  C   UNL A   1      32.978  29.422  25.990  1.00  0.00     0.202 C 
BRANCH   2   3
ATOM      3  C   UNL A   1      33.063  28.350  27.080  1.00  0.00     0.261 C 
BRANCH   3   4
ATOM      4  O   UNL A   1      33.038  27.062  26.440  1.00  0.00    -0.462 OA
BRANCH   4   5
ATOM      5  C   UNL A   1      31.906  26.338  26.554  1.00  0.00     0.328 C 
ATOM      6  O   UNL A   1      30.822  26.784  26.915  1.00  0.00    -0.250 OA
BRANCH   5   7
ATOM      7  C   UNL A   1      32.093  24.889  26.051  1.00  0.00     0.194 C 
BRANCH   7   8
ATOM      8  C   UNL A   1      33.518  24.674  25.519  1.00  0.00     0.065 C 
BRANCH   8   9
ATOM      9  C   UNL A   1      33.963  23.214  25.599  1.00  0.00     0.162 C 
BRANCH   9  10
ATOM     10  O   UNL A   1      35.347  23.079  25.918  1.00  0.00    -0.385 OA
ATOM     11  C   UNL A   1      36.243  23.632  24.967  1.00  0.00     0.194 C 
ENDBRANCH   9  10
ENDBRANCH   8   9
ENDBRANCH   7   8
BRANCH   7  12
ATOM     12  N   UNL A   1      31.126  24.210  25.172  1.00  0.00    -0.338 N 
ATOM     13  C   UNL A   1      30.685  24.564  23.923  1.00  0.00     0.254 C 
ATOM     14  H   UNL A   1      30.741  23.379  25.535  1.00  0.00     0.164 HD
ATOM     15  O   UNL A   1      30.371  23.699  23.112  1.00  0.00    -0.269 OA
BRANCH  13  16
ATOM     16  C   UNL A   1      30.430  25.977  23.640  1.00  0.00     0.075 A 
ATOM     17  C   UNL A   1      29.220  26.615  23.904  1.00  0.00     0.017 A 
ATOM     18  C   UNL A   1      31.437  26.636  22.952  1.00  0.00     0.136 A 
ATOM     19  C   UNL A   1      28.991  27.887  23.364  1.00  0.00     0.004 A 
ATOM     20  C   UNL A   1      31.215  27.902  22.431  1.00  0.00     0.043 A 
ATOM     21  F   UNL A   1      32.592  26.010  22.699  1.00  0.00    -0.206 F 
ATOM     22  C   UNL A   1      29.972  28.518  22.584  1.00  0.00    -0.048 A 
ATOM     23  C   UNL A   1      29.709  29.805  21.859  1.00  0.00     0.044 C 
ENDBRANCH  13  16
ENDBRANCH   7  12
ENDBRANCH   5   7
ENDBRANCH   4   5
ENDBRANCH   3   4
ENDBRANCH   2   3
ENDBRANCH   1   2
BRANCH   1  24
ATOM     24  C   UNL A   1      33.487  31.232  27.509  1.00  0.00     0.202 C 
BRANCH  24  25
ATOM     25  C   UNL A   1      33.564  32.758  27.480  1.00  0.00     0.261 C 
BRANCH  25  26
ATOM     26  O   UNL A   1      32.959  33.329  28.654  1.00  0.00    -0.460 OA
BRANCH  26  27
ATOM     27  C   UNL A   1      33.684  34.266  29.309  1.00  0.00     0.338 C 
ATOM     28  O   UNL A   1      33.343  35.417  29.535  1.00  0.00    -0.246 OA
BRANCH  27  29
ATOM     29  C   UNL A   1      34.923  33.657  29.858  1.00  0.00     0.060 A 
ATOM     30  C   UNL A   1      36.153  34.180  29.440  1.00  0.00     0.016 A 
ATOM     31  C   UNL A   1      34.900  32.613  30.792  1.00  0.00     0.016 A 
ATOM     32  C   UNL A   1      37.348  33.655  29.939  1.00  0.00     0.010 A 
ATOM     33  C   UNL A   1      36.095  32.114  31.323  1.00  0.00     0.010 A 
ATOM     34  C   UNL A   1      37.330  32.603  30.868  1.00  0.00    -0.014 A 
BRANCH  34  35
ATOM     35  C   UNL A   1      38.594  31.872  31.148  1.00  0.00     0.031 A 
ATOM     36  C   UNL A   1      39.301  32.179  32.441  1.00  0.00     0.074 A 
ATOM     37  C   UNL A   1      39.072  30.913  30.333  1.00  0.00     0.049 A 
ATOM     38  N   UNL A   1      40.301  31.560  33.011  1.00  0.00    -0.248 NA
ATOM     39  C   UNL A   1      38.812  33.351  33.186  1.00  0.00     0.031 C 
ATOM     40  C   UNL A   1      38.514  30.550  29.034  1.00  0.00     0.029 A 
ATOM     41  N   UNL A   1      40.137  30.057  30.488  1.00  0.00    -0.354 N 
ATOM     42  C   UNL A   1      40.531  32.243  34.199  1.00  0.00     0.074 A 
ATOM     43  C   UNL A   1      39.634  33.375  34.220  1.00  0.00     0.031 C 
ATOM     44  C   UNL A   1      39.225  29.529  28.518  1.00  0.00     0.029 A 
ATOM     45  C   UNL A   1      40.292  29.167  29.450  1.00  0.00     0.049 A 
ATOM     46  H   UNL A   1      40.733  30.079  31.270  1.00  0.00     0.167 HD
ATOM     47  C   UNL A   1      41.383  31.936  35.207  1.00  0.00     0.034 A 
ATOM     48  C   UNL A   1      41.186  28.168  29.283  1.00  0.00     0.034 A 
ATOM     49  C   UNL A   1      42.312  30.839  35.161  1.00  0.00     0.049 A 
ATOM     50  C   UNL A   1      42.184  27.887  30.387  1.00  0.00     0.074 A 
ATOM     51  C   UNL A   1      43.228  30.440  36.116  1.00  0.00     0.029 A 
ATOM     52  N   UNL A   1      42.463  29.979  34.080  1.00  0.00    -0.354 N 
ATOM     53  N   UNL A   1      42.327  28.482  31.549  1.00  0.00    -0.248 NA
ATOM     54  C   UNL A   1      43.124  26.780  30.162  1.00  0.00     0.031 C 
ATOM     55  C   UNL A   1      43.976  29.381  35.589  1.00  0.00     0.029 A 
ATOM     56  C   UNL A   1      43.477  29.069  34.333  1.00  0.00     0.049 A 
ATOM     57  H   UNL A   1      41.926  30.011  33.255  1.00  0.00     0.167 HD
ATOM     58  C   UNL A   1      43.347  27.794  32.207  1.00  0.00     0.074 A 
ATOM     59  C   UNL A   1      43.769  26.731  31.318  1.00  0.00     0.031 C 
ATOM     60  C   UNL A   1      43.887  28.016  33.434  1.00  0.00     0.034 A 
BRANCH  47  61
ATOM     61  C   UNL A   1      41.345  32.839  36.414  1.00  0.00     0.023 A 
ATOM     62  C   UNL A   1      40.406  32.634  37.443  1.00  0.00     0.031 A 
ATOM     63  C   UNL A   1      42.180  33.964  36.495  1.00  0.00     0.131 A 
ATOM     64  C   UNL A   1      40.259  33.592  38.455  1.00  0.00     0.055 A 
ATOM     65  C   UNL A   1      42.086  34.870  37.554  1.00  0.00     0.041 A 
ATOM     66  F   UNL A   1      43.074  34.223  35.529  1.00  0.00    -0.206 F 
ATOM     67  C   UNL A   1      41.110  34.698  38.531  1.00  0.00     0.022 A 
BRANCH  64  68
ATOM     68  S   UNL A   1      38.833  33.462  39.568  1.00  0.00     0.124 S 
ATOM     69  O   UNL A   1      39.190  32.292  40.368  1.00  0.00    -0.237 OA
ATOM     70  O   UNL A   1      38.856  34.742  40.265  1.00  0.00    -0.237 OA
ATOM     71  O   UNL A   1      37.705  33.266  38.660  1.00  0.00    -0.744 OA
ENDBRANCH  64  68
ENDBRANCH  47  61
BRANCH  48  72
ATOM     72  C   UNL A   1      41.206  27.348  28.035  1.00  0.00     0.023 A 
ATOM     73  C   UNL A   1      40.856  25.986  28.049  1.00  0.00     0.031 A 
ATOM     74  C   UNL A   1      41.673  27.891  26.825  1.00  0.00     0.131 A 
ATOM     75  C   UNL A   1      41.038  25.202  26.898  1.00  0.00     0.055 A 
ATOM     76  C   UNL A   1      41.807  27.118  25.670  1.00  0.00     0.041 A 
ATOM     77  F   UNL A   1      42.021  29.186  26.753  1.00  0.00    -0.206 F 
ATOM     78  C   UNL A   1      41.504  25.760  25.706  1.00  0.00     0.022 A 
BRANCH  75  79
ATOM     79  S   UNL A   1      40.750  23.412  27.007  1.00  0.00     0.124 S 
ATOM     80  O   UNL A   1      41.244  23.111  28.345  1.00  0.00    -0.237 OA
ATOM     81  O   UNL A   1      39.305  23.329  26.821  1.00  0.00    -0.237 OA
ATOM     82  O   UNL A   1      41.547  22.872  25.908  1.00  0.00    -0.744 OA
ENDBRANCH  75  79
ENDBRANCH  48  72
BRANCH  60  83
ATOM     83  C   UNL A   1      44.956  27.058  33.902  1.00  0.00     0.023 A 
ATOM     84  C   UNL A   1      44.658  25.952  34.715  1.00  0.00     0.031 A 
ATOM     85  C   UNL A   1      46.298  27.262  33.530  1.00  0.00     0.131 A 
ATOM     86  C   UNL A   1      45.694  25.128  35.183  1.00  0.00     0.055 A 
ATOM     87  C   UNL A   1      47.315  26.402  33.944  1.00  0.00     0.041 A 
ATOM     88  F   UNL A   1      46.641  28.303  32.754  1.00  0.00    -0.206 F 
ATOM     89  C   UNL A   1      47.018  25.336  34.788  1.00  0.00     0.022 A 
BRANCH  86  90
ATOM     90  S   UNL A   1      45.302  23.839  36.398  1.00  0.00     0.124 S 
ATOM     91  O   UNL A   1      44.727  22.793  35.559  1.00  0.00    -0.237 OA
ATOM     92  O   UNL A   1      46.610  23.546  36.974  1.00  0.00    -0.237 OA
ATOM     93  O   UNL A   1      44.359  24.497  37.303  1.00  0.00    -0.744 OA
ENDBRANCH  86  90
ENDBRANCH  60  83
ENDBRANCH  34  35
ENDBRANCH  27  29
ENDBRANCH  26  27
ENDBRANCH  25  26
ENDBRANCH  24  25
ENDBRANCH   1  24
TORSDOF 22
ENDMDL
