MODEL 1
REMARK VINA RESULT:      -8.5      0.000      0.000
REMARK SMILES CCc1c(C)sc(NC(=O)[C@H]2CC(C)=C(C)C[C@H]2C(=O)OCCOCCOC(=O)c2ccc(-c3c4nc(c(-c5cc(S(=O)(=O)[O-])ccc5F)c5ccc([nH]5)c(-c5cc(S(=O)(=O)[O-])ccc5F)c5nc(c(-c6cc(S(=O)(=O)[O-])ccc6F)c6ccc3[nH]6)C=C5)C=C4)cc2)c1C(=O)NC1CC1
REMARK SMILES IDX 23 1 22 2 21 3 19 4 20 5 18 6 11 7 12 8 13 9 17 10 14 11
REMARK SMILES IDX 15 12 16 13 9 14 8 15 10 17 7 18 3 19 4 20 93 21 5 22 6 23
REMARK SMILES IDX 2 24 1 25 94 26 95 27 96 28 97 30 98 31 99 32 24 33 25 34
REMARK SMILES IDX 26 35 27 36 28 37 29 38 30 39 31 40 92 41 32 42 91 43 33 44
REMARK SMILES IDX 34 45 35 46 85 47 36 48 90 49 84 50 86 51 37 52 89 53 83 54
REMARK SMILES IDX 82 55 38 57 70 58 50 59 69 60 51 61 54 62 68 63 87 64 52 65
REMARK SMILES IDX 53 66 67 68 88 69 55 70 39 71 40 72 48 73 41 74 47 75 49 76
REMARK SMILES IDX 46 77 42 78 43 79 44 80 45 81 71 82 72 83 80 84 73 85 79 86
REMARK SMILES IDX 81 87 78 88 74 89 75 90 76 91 77 92 56 93 57 94 65 95 58 96
REMARK SMILES IDX 64 97 66 98 63 99 59 100 60 101 61 102 62 103
REMARK H PARENT 8 16 96 29 86 56 54 67
REMARK Flexibility Score: inf
ROOT
ATOM      1  C   UNL A   1      37.400  33.441  36.588  1.00  0.00     0.202 C 
ENDROOT
BRANCH   1   2
ATOM      2  C   UNL A   1      38.593  32.503  36.783  1.00  0.00     0.261 C 
BRANCH   2   3
ATOM      3  O   UNL A   1      39.207  32.171  35.523  1.00  0.00    -0.463 OA
BRANCH   3   4
ATOM      4  C   UNL A   1      40.023  33.103  34.991  1.00  0.00     0.310 C 
ATOM      5  O   UNL A   1      39.669  34.226  34.642  1.00  0.00    -0.252 OA
BRANCH   4   6
ATOM      6  C   UNL A   1      41.430  32.599  34.725  1.00  0.00     0.116 C 
ATOM      7  C   UNL A   1      42.481  32.424  35.873  1.00  0.00     0.097 C 
ATOM      8  C   UNL A   1      43.414  31.241  35.609  1.00  0.00     0.045 C 
ATOM      9  C   UNL A   1      42.902  30.047  34.874  1.00  0.00    -0.074 C 
ATOM     10  C   UNL A   1      41.277  31.472  33.676  1.00  0.00     0.046 C 
ATOM     11  C   UNL A   1      43.633  28.777  35.223  1.00  0.00     0.039 C 
ATOM     12  C   UNL A   1      41.912  30.150  33.976  1.00  0.00    -0.073 C 
ATOM     13  C   UNL A   1      41.422  28.979  33.174  1.00  0.00     0.039 C 
BRANCH   7  14
ATOM     14  C   UNL A   1      42.067  32.439  37.369  1.00  0.00     0.229 C 
ATOM     15  N   UNL A   1      41.569  33.604  37.969  1.00  0.00    -0.317 N 
ATOM     16  H   UNL A   1      40.622  33.649  38.233  1.00  0.00     0.170 HD
ATOM     17  O   UNL A   1      42.116  31.424  38.062  1.00  0.00    -0.274 OA
BRANCH  15  18
ATOM     18  C   UNL A   1      42.402  34.705  38.198  1.00  0.00     0.108 A 
ATOM     19  C   UNL A   1      43.021  36.816  38.858  1.00  0.00    -0.020 A 
ATOM     20  C   UNL A   1      43.958  35.986  39.481  1.00  0.00     0.008 A 
ATOM     21  C   UNL A   1      42.298  36.055  37.818  1.00  0.00     0.078 A 
ATOM     22  C   UNL A   1      44.872  36.222  40.635  1.00  0.00     0.057 C 
ATOM     23  S   UNL A   1      43.993  34.437  38.732  1.00  0.00    -0.122 S 
BRANCH  19  24
ATOM     24  C   UNL A   1      42.767  38.266  39.193  1.00  0.00     0.034 C 
ATOM     25  C   UNL A   1      42.083  38.635  40.497  1.00  0.00     0.009 C 
ENDBRANCH  19  24
BRANCH  21  26
ATOM     26  C   UNL A   1      41.417  36.428  36.693  1.00  0.00     0.254 C 
ATOM     27  O   UNL A   1      40.199  36.505  36.892  1.00  0.00    -0.269 OA
ATOM     28  N   UNL A   1      41.801  36.648  35.387  1.00  0.00    -0.349 N 
ATOM     29  H   UNL A   1      41.164  37.194  34.870  1.00  0.00     0.164 HD
BRANCH  28  30
ATOM     30  C   UNL A   1      42.939  36.236  34.645  1.00  0.00     0.082 C 
ATOM     31  C   UNL A   1      42.790  35.535  33.316  1.00  0.00     0.027 C 
ATOM     32  C   UNL A   1      43.315  36.932  33.358  1.00  0.00     0.027 C 
ENDBRANCH  28  30
ENDBRANCH  21  26
ENDBRANCH  15  18
ENDBRANCH   7  14
ENDBRANCH   4   6
ENDBRANCH   3   4
ENDBRANCH   2   3
ENDBRANCH   1   2
BRANCH   1  33
ATOM     33  O   UNL A   1      36.448  33.013  35.611  1.00  0.00    -0.374 OA
BRANCH  33  34
ATOM     34  C   UNL A   1      35.961  34.020  34.722  1.00  0.00     0.202 C 
BRANCH  34  35
ATOM     35  C   UNL A   1      34.958  33.552  33.661  1.00  0.00     0.261 C 
BRANCH  35  36
ATOM     36  O   UNL A   1      35.298  32.255  33.141  1.00  0.00    -0.460 OA
BRANCH  36  37
ATOM     37  C   UNL A   1      35.169  32.129  31.792  1.00  0.00     0.338 C 
ATOM     38  O   UNL A   1      34.324  32.663  31.102  1.00  0.00    -0.246 OA
BRANCH  37  39
ATOM     39  C   UNL A   1      36.305  31.354  31.217  1.00  0.00     0.060 A 
ATOM     40  C   UNL A   1      37.330  30.949  32.075  1.00  0.00     0.016 A 
ATOM     41  C   UNL A   1      36.390  31.033  29.864  1.00  0.00     0.016 A 
ATOM     42  C   UNL A   1      38.471  30.328  31.559  1.00  0.00     0.010 A 
ATOM     43  C   UNL A   1      37.525  30.419  29.337  1.00  0.00     0.010 A 
ATOM     44  C   UNL A   1      38.598  30.114  30.180  1.00  0.00    -0.014 A 
BRANCH  44  45
ATOM     45  C   UNL A   1      39.901  29.700  29.612  1.00  0.00     0.031 A 
ATOM     46  C   UNL A   1      40.035  28.325  29.017  1.00  0.00     0.074 A 
ATOM     47  C   UNL A   1      40.944  30.546  29.610  1.00  0.00     0.049 A 
ATOM     48  N   UNL A   1      41.052  27.785  28.397  1.00  0.00    -0.248 NA
ATOM     49  C   UNL A   1      38.872  27.436  29.154  1.00  0.00     0.031 C 
ATOM     50  C   UNL A   1      40.936  31.891  30.181  1.00  0.00     0.029 A 
ATOM     51  N   UNL A   1      42.213  30.395  29.111  1.00  0.00    -0.354 N 
ATOM     52  C   UNL A   1      40.644  26.503  28.043  1.00  0.00     0.074 A 
ATOM     53  C   UNL A   1      39.313  26.324  28.585  1.00  0.00     0.031 C 
ATOM     54  C   UNL A   1      42.144  32.449  29.991  1.00  0.00     0.029 A 
ATOM     55  C   UNL A   1      43.014  31.494  29.306  1.00  0.00     0.049 A 
ATOM     56  H   UNL A   1      42.519  29.577  28.656  1.00  0.00     0.167 HD
ATOM     57  C   UNL A   1      41.310  25.573  27.315  1.00  0.00     0.034 A 
ATOM     58  C   UNL A   1      44.303  31.702  28.971  1.00  0.00     0.034 A 
ATOM     59  C   UNL A   1      42.649  25.761  26.807  1.00  0.00     0.049 A 
ATOM     60  C   UNL A   1      45.050  30.630  28.217  1.00  0.00     0.074 A 
ATOM     61  C   UNL A   1      43.402  24.905  26.022  1.00  0.00     0.029 A 
ATOM     62  N   UNL A   1      43.447  26.872  27.055  1.00  0.00    -0.354 N 
ATOM     63  N   UNL A   1      44.630  29.448  27.824  1.00  0.00    -0.248 NA
ATOM     64  C   UNL A   1      46.439  30.929  27.845  1.00  0.00     0.031 C 
ATOM     65  C   UNL A   1      44.680  25.455  25.871  1.00  0.00     0.029 A 
ATOM     66  C   UNL A   1      44.698  26.700  26.479  1.00  0.00     0.049 A 
ATOM     67  H   UNL A   1      43.165  27.666  27.564  1.00  0.00     0.167 HD
ATOM     68  C   UNL A   1      45.695  28.879  27.128  1.00  0.00     0.074 A 
ATOM     69  C   UNL A   1      46.769  29.852  27.147  1.00  0.00     0.031 C 
ATOM     70  C   UNL A   1      45.774  27.667  26.520  1.00  0.00     0.034 A 
BRANCH  57  71
ATOM     71  C   UNL A   1      40.610  24.258  27.057  1.00  0.00     0.023 A 
ATOM     72  C   UNL A   1      39.440  24.182  26.280  1.00  0.00     0.031 A 
ATOM     73  C   UNL A   1      41.104  23.065  27.615  1.00  0.00     0.131 A 
ATOM     74  C   UNL A   1      38.764  22.960  26.147  1.00  0.00     0.055 A 
ATOM     75  C   UNL A   1      40.475  21.836  27.404  1.00  0.00     0.041 A 
ATOM     76  F   UNL A   1      42.201  23.074  28.388  1.00  0.00    -0.206 F 
ATOM     77  C   UNL A   1      39.288  21.781  26.680  1.00  0.00     0.022 A 
BRANCH  74  78
ATOM     78  S   UNL A   1      37.107  22.962  25.408  1.00  0.00     0.124 S 
ATOM     79  O   UNL A   1      36.398  23.895  26.281  1.00  0.00    -0.237 OA
ATOM     80  O   UNL A   1      37.368  23.428  24.051  1.00  0.00    -0.237 OA
ATOM     81  O   UNL A   1      36.680  21.570  25.521  1.00  0.00    -0.744 OA
ENDBRANCH  74  78
ENDBRANCH  57  71
BRANCH  58  82
ATOM     82  C   UNL A   1      44.973  32.977  29.353  1.00  0.00     0.023 A 
ATOM     83  C   UNL A   1      44.879  34.122  28.547  1.00  0.00     0.031 A 
ATOM     84  C   UNL A   1      45.747  33.057  30.526  1.00  0.00     0.131 A 
ATOM     85  C   UNL A   1      45.579  35.285  28.902  1.00  0.00     0.055 A 
ATOM     86  C   UNL A   1      46.395  34.232  30.902  1.00  0.00     0.041 A 
ATOM     87  F   UNL A   1      45.870  31.990  31.332  1.00  0.00    -0.206 F 
ATOM     88  C   UNL A   1      46.324  35.353  30.081  1.00  0.00     0.022 A 
BRANCH  85  89
ATOM     89  S   UNL A   1      45.570  36.689  27.753  1.00  0.00     0.124 S 
ATOM     90  O   UNL A   1      46.975  37.080  27.752  1.00  0.00    -0.237 OA
ATOM     91  O   UNL A   1      45.074  36.075  26.526  1.00  0.00    -0.237 OA
ATOM     92  O   UNL A   1      44.659  37.639  28.385  1.00  0.00    -0.744 OA
ENDBRANCH  85  89
ENDBRANCH  58  82
BRANCH  70  93
ATOM     93  C   UNL A   1      47.055  27.341  25.786  1.00  0.00     0.023 A 
ATOM     94  C   UNL A   1      47.256  27.700  24.442  1.00  0.00     0.031 A 
ATOM     95  C   UNL A   1      48.092  26.654  26.445  1.00  0.00     0.131 A 
ATOM     96  C   UNL A   1      48.437  27.319  23.783  1.00  0.00     0.055 A 
ATOM     97  C   UNL A   1      49.291  26.338  25.804  1.00  0.00     0.041 A 
ATOM     98  F   UNL A   1      47.958  26.281  27.728  1.00  0.00    -0.206 F 
ATOM     99  C   UNL A   1      49.464  26.659  24.462  1.00  0.00     0.022 A 
BRANCH  96 100
ATOM    100  S   UNL A   1      48.571  27.610  21.998  1.00  0.00     0.124 S 
ATOM    101  O   UNL A   1      49.699  28.533  21.925  1.00  0.00    -0.237 OA
ATOM    102  O   UNL A   1      48.812  26.268  21.479  1.00  0.00    -0.237 OA
ATOM    103  O   UNL A   1      47.274  28.186  21.645  1.00  0.00    -0.744 OA
ENDBRANCH  96 100
ENDBRANCH  70  93
ENDBRANCH  44  45
ENDBRANCH  37  39
ENDBRANCH  36  37
ENDBRANCH  35  36
ENDBRANCH  34  35
ENDBRANCH  33  34
ENDBRANCH   1  33
TORSDOF 22
ENDMDL
MODEL 2
REMARK VINA RESULT:      -8.5      9.498     13.912
REMARK SMILES CCc1c(C)sc(NC(=O)[C@H]2CC(C)=C(C)C[C@H]2C(=O)OCCOCCOC(=O)c2ccc(-c3c4nc(c(-c5cc(S(=O)(=O)[O-])ccc5F)c5ccc([nH]5)c(-c5cc(S(=O)(=O)[O-])ccc5F)c5nc(c(-c6cc(S(=O)(=O)[O-])ccc6F)c6ccc3[nH]6)C=C5)C=C4)cc2)c1C(=O)NC1CC1
REMARK SMILES IDX 23 1 22 2 21 3 19 4 20 5 18 6 11 7 12 8 13 9 17 10 14 11
REMARK SMILES IDX 15 12 16 13 9 14 8 15 10 17 7 18 3 19 4 20 93 21 5 22 6 23
REMARK SMILES IDX 2 24 1 25 94 26 95 27 96 28 97 30 98 31 99 32 24 33 25 34
REMARK SMILES IDX 26 35 27 36 28 37 29 38 30 39 31 40 92 41 32 42 91 43 33 44
REMARK SMILES IDX 34 45 35 46 85 47 36 48 90 49 84 50 86 51 37 52 89 53 83 54
REMARK SMILES IDX 82 55 38 57 70 58 50 59 69 60 51 61 54 62 68 63 87 64 52 65
REMARK SMILES IDX 53 66 67 68 88 69 55 70 39 71 40 72 48 73 41 74 47 75 49 76
REMARK SMILES IDX 46 77 42 78 43 79 44 80 45 81 71 82 72 83 80 84 73 85 79 86
REMARK SMILES IDX 81 87 78 88 74 89 75 90 76 91 77 92 56 93 57 94 65 95 58 96
REMARK SMILES IDX 64 97 66 98 63 99 59 100 60 101 61 102 62 103
REMARK H PARENT 8 16 96 29 86 56 54 67
REMARK Flexibility Score: inf
ROOT
ATOM      1  C   UNL A   1      47.420  18.161  40.535  1.00  0.00     0.202 C 
ENDROOT
BRANCH   1   2
ATOM      2  C   UNL A   1      46.622  19.112  41.429  1.00  0.00     0.261 C 
BRANCH   2   3
ATOM      3  O   UNL A   1      46.024  18.409  42.536  1.00  0.00    -0.463 OA
BRANCH   3   4
ATOM      4  C   UNL A   1      44.690  18.538  42.675  1.00  0.00     0.310 C 
ATOM      5  O   UNL A   1      43.912  18.790  41.759  1.00  0.00    -0.252 OA
BRANCH   4   6
ATOM      6  C   UNL A   1      44.221  18.475  44.117  1.00  0.00     0.116 C 
ATOM      7  C   UNL A   1      44.406  17.192  44.996  1.00  0.00     0.097 C 
ATOM      8  C   UNL A   1      44.653  17.546  46.464  1.00  0.00     0.045 C 
ATOM      9  C   UNL A   1      45.381  18.802  46.810  1.00  0.00    -0.074 C 
ATOM     10  C   UNL A   1      44.566  19.855  44.727  1.00  0.00     0.046 C 
ATOM     11  C   UNL A   1      46.097  18.728  48.132  1.00  0.00     0.039 C 
ATOM     12  C   UNL A   1      45.342  19.875  46.007  1.00  0.00    -0.073 C 
ATOM     13  C   UNL A   1      46.009  21.174  46.359  1.00  0.00     0.039 C 
BRANCH   7  14
ATOM     14  C   UNL A   1      45.354  16.040  44.571  1.00  0.00     0.229 C 
ATOM     15  N   UNL A   1      44.995  15.150  43.548  1.00  0.00    -0.317 N 
ATOM     16  H   UNL A   1      45.474  15.179  42.688  1.00  0.00     0.170 HD
ATOM     17  O   UNL A   1      46.465  15.897  45.079  1.00  0.00    -0.274 OA
BRANCH  15  18
ATOM     18  C   UNL A   1      43.964  14.222  43.733  1.00  0.00     0.108 A 
ATOM     19  C   UNL A   1      42.357  12.676  43.186  1.00  0.00    -0.020 A 
ATOM     20  C   UNL A   1      43.099  12.042  44.189  1.00  0.00     0.008 A 
ATOM     21  C   UNL A   1      42.684  14.116  43.162  1.00  0.00     0.078 A 
ATOM     22  C   UNL A   1      43.213  10.607  44.574  1.00  0.00     0.057 C 
ATOM     23  S   UNL A   1      44.019  13.190  45.082  1.00  0.00    -0.122 S 
BRANCH  19  24
ATOM     24  C   UNL A   1      41.379  12.002  42.255  1.00  0.00     0.034 C 
ATOM     25  C   UNL A   1      41.334  12.392  40.788  1.00  0.00     0.009 C 
ENDBRANCH  19  24
BRANCH  21  26
ATOM     26  C   UNL A   1      42.066  15.302  42.536  1.00  0.00     0.254 C 
ATOM     27  O   UNL A   1      41.048  15.782  43.048  1.00  0.00    -0.269 OA
ATOM     28  N   UNL A   1      42.469  15.921  41.371  1.00  0.00    -0.349 N 
ATOM     29  H   UNL A   1      42.165  16.855  41.289  1.00  0.00     0.164 HD
BRANCH  28  30
ATOM     30  C   UNL A   1      43.237  15.466  40.266  1.00  0.00     0.082 C 
ATOM     31  C   UNL A   1      43.149  16.151  38.923  1.00  0.00     0.027 C 
ATOM     32  C   UNL A   1      44.392  16.286  39.740  1.00  0.00     0.027 C 
ENDBRANCH  28  30
ENDBRANCH  21  26
ENDBRANCH  15  18
ENDBRANCH   7  14
ENDBRANCH   4   6
ENDBRANCH   3   4
ENDBRANCH   2   3
ENDBRANCH   1   2
BRANCH   1  33
ATOM     33  O   UNL A   1      47.144  18.270  39.136  1.00  0.00    -0.374 OA
BRANCH  33  34
ATOM     34  C   UNL A   1      46.884  19.586  38.646  1.00  0.00     0.202 C 
BRANCH  34  35
ATOM     35  C   UNL A   1      46.063  19.672  37.353  1.00  0.00     0.261 C 
BRANCH  35  36
ATOM     36  O   UNL A   1      45.867  21.034  36.935  1.00  0.00    -0.460 OA
BRANCH  36  37
ATOM     37  C   UNL A   1      45.375  21.178  35.674  1.00  0.00     0.338 C 
ATOM     38  O   UNL A   1      45.073  20.278  34.918  1.00  0.00    -0.246 OA
BRANCH  37  39
ATOM     39  C   UNL A   1      45.102  22.611  35.370  1.00  0.00     0.060 A 
ATOM     40  C   UNL A   1      43.825  22.962  34.928  1.00  0.00     0.016 A 
ATOM     41  C   UNL A   1      46.070  23.606  35.496  1.00  0.00     0.016 A 
ATOM     42  C   UNL A   1      43.560  24.271  34.516  1.00  0.00     0.010 A 
ATOM     43  C   UNL A   1      45.821  24.914  35.082  1.00  0.00     0.010 A 
ATOM     44  C   UNL A   1      44.575  25.238  34.537  1.00  0.00    -0.014 A 
BRANCH  44  45
ATOM     45  C   UNL A   1      44.370  26.541  33.864  1.00  0.00     0.031 A 
ATOM     46  C   UNL A   1      44.497  26.618  32.367  1.00  0.00     0.074 A 
ATOM     47  C   UNL A   1      44.059  27.635  34.577  1.00  0.00     0.049 A 
ATOM     48  N   UNL A   1      44.282  27.630  31.567  1.00  0.00    -0.248 NA
ATOM     49  C   UNL A   1      44.938  25.394  31.682  1.00  0.00     0.031 C 
ATOM     50  C   UNL A   1      43.935  27.683  36.032  1.00  0.00     0.029 A 
ATOM     51  N   UNL A   1      43.790  28.917  34.170  1.00  0.00    -0.354 N 
ATOM     52  C   UNL A   1      44.534  27.160  30.283  1.00  0.00     0.074 A 
ATOM     53  C   UNL A   1      44.989  25.792  30.421  1.00  0.00     0.031 C 
ATOM     54  C   UNL A   1      43.605  28.933  36.398  1.00  0.00     0.029 A 
ATOM     55  C   UNL A   1      43.514  29.776  35.206  1.00  0.00     0.049 A 
ATOM     56  H   UNL A   1      43.794  29.195  33.225  1.00  0.00     0.167 HD
ATOM     57  C   UNL A   1      44.377  27.804  29.099  1.00  0.00     0.034 A 
ATOM     58  C   UNL A   1      43.225  31.092  35.193  1.00  0.00     0.034 A 
ATOM     59  C   UNL A   1      43.949  29.178  28.986  1.00  0.00     0.049 A 
ATOM     60  C   UNL A   1      43.118  31.809  33.868  1.00  0.00     0.074 A 
ATOM     61  C   UNL A   1      43.714  29.916  27.837  1.00  0.00     0.029 A 
ATOM     62  N   UNL A   1      43.714  30.032  30.057  1.00  0.00    -0.354 N 
ATOM     63  N   UNL A   1      43.288  31.336  32.655  1.00  0.00    -0.248 NA
ATOM     64  C   UNL A   1      42.762  33.233  33.914  1.00  0.00     0.031 C 
ATOM     65  C   UNL A   1      43.428  31.234  28.212  1.00  0.00     0.029 A 
ATOM     66  C   UNL A   1      43.385  31.299  29.596  1.00  0.00     0.049 A 
ATOM     67  H   UNL A   1      43.771  29.774  31.006  1.00  0.00     0.167 HD
ATOM     68  C   UNL A   1      43.024  32.399  31.792  1.00  0.00     0.074 A 
ATOM     69  C   UNL A   1      42.674  33.530  32.626  1.00  0.00     0.031 C 
ATOM     70  C   UNL A   1      43.058  32.431  30.434  1.00  0.00     0.034 A 
BRANCH  57  71
ATOM     71  C   UNL A   1      44.706  27.035  27.839  1.00  0.00     0.023 A 
ATOM     72  C   UNL A   1      45.960  27.146  27.211  1.00  0.00     0.031 A 
ATOM     73  C   UNL A   1      43.748  26.196  27.244  1.00  0.00     0.131 A 
ATOM     74  C   UNL A   1      46.193  26.496  25.990  1.00  0.00     0.055 A 
ATOM     75  C   UNL A   1      44.018  25.481  26.076  1.00  0.00     0.041 A 
ATOM     76  F   UNL A   1      42.524  26.067  27.780  1.00  0.00    -0.206 F 
ATOM     77  C   UNL A   1      45.241  25.641  25.432  1.00  0.00     0.022 A 
BRANCH  74  78
ATOM     78  S   UNL A   1      47.694  26.912  25.059  1.00  0.00     0.124 S 
ATOM     79  O   UNL A   1      48.741  26.501  25.992  1.00  0.00    -0.237 OA
ATOM     80  O   UNL A   1      47.553  26.100  23.856  1.00  0.00    -0.237 OA
ATOM     81  O   UNL A   1      47.583  28.354  24.857  1.00  0.00    -0.744 OA
ENDBRANCH  74  78
ENDBRANCH  57  71
BRANCH  58  82
ATOM     82  C   UNL A   1      43.022  31.822  36.476  1.00  0.00     0.023 A 
ATOM     83  C   UNL A   1      41.742  31.986  37.028  1.00  0.00     0.031 A 
ATOM     84  C   UNL A   1      44.113  32.393  37.155  1.00  0.00     0.131 A 
ATOM     85  C   UNL A   1      41.580  32.738  38.202  1.00  0.00     0.055 A 
ATOM     86  C   UNL A   1      43.953  33.092  38.352  1.00  0.00     0.041 A 
ATOM     87  F   UNL A   1      45.359  32.266  36.669  1.00  0.00    -0.206 F 
ATOM     88  C   UNL A   1      42.678  33.278  38.875  1.00  0.00     0.022 A 
BRANCH  85  89
ATOM     89  S   UNL A   1      39.899  33.071  38.795  1.00  0.00     0.124 S 
ATOM     90  O   UNL A   1      39.091  32.371  37.803  1.00  0.00    -0.237 OA
ATOM     91  O   UNL A   1      39.926  32.485  40.131  1.00  0.00    -0.237 OA
ATOM     92  O   UNL A   1      39.808  34.528  38.758  1.00  0.00    -0.744 OA
ENDBRANCH  85  89
ENDBRANCH  58  82
BRANCH  70  93
ATOM     93  C   UNL A   1      42.665  33.728  29.763  1.00  0.00     0.023 A 
ATOM     94  C   UNL A   1      43.623  34.644  29.294  1.00  0.00     0.031 A 
ATOM     95  C   UNL A   1      41.306  34.053  29.594  1.00  0.00     0.131 A 
ATOM     96  C   UNL A   1      43.211  35.865  28.735  1.00  0.00     0.055 A 
ATOM     97  C   UNL A   1      40.903  35.238  28.976  1.00  0.00     0.041 A 
ATOM     98  F   UNL A   1      40.345  33.221  30.025  1.00  0.00    -0.206 F 
ATOM     99  C   UNL A   1      41.857  36.159  28.555  1.00  0.00     0.022 A 
BRANCH  96 100
ATOM    100  S   UNL A   1      44.468  37.111  28.338  1.00  0.00     0.124 S 
ATOM    101  O   UNL A   1      44.648  36.914  26.904  1.00  0.00    -0.237 OA
ATOM    102  O   UNL A   1      43.813  38.354  28.733  1.00  0.00    -0.237 OA
ATOM    103  O   UNL A   1      45.609  36.723  29.166  1.00  0.00    -0.744 OA
ENDBRANCH  96 100
ENDBRANCH  70  93
ENDBRANCH  44  45
ENDBRANCH  37  39
ENDBRANCH  36  37
ENDBRANCH  35  36
ENDBRANCH  34  35
ENDBRANCH  33  34
ENDBRANCH   1  33
TORSDOF 22
ENDMDL
MODEL 3
REMARK VINA RESULT:      -8.3      2.906      8.286
REMARK SMILES CCc1c(C)sc(NC(=O)[C@H]2CC(C)=C(C)C[C@H]2C(=O)OCCOCCOC(=O)c2ccc(-c3c4nc(c(-c5cc(S(=O)(=O)[O-])ccc5F)c5ccc([nH]5)c(-c5cc(S(=O)(=O)[O-])ccc5F)c5nc(c(-c6cc(S(=O)(=O)[O-])ccc6F)c6ccc3[nH]6)C=C5)C=C4)cc2)c1C(=O)NC1CC1
REMARK SMILES IDX 23 1 22 2 21 3 19 4 20 5 18 6 11 7 12 8 13 9 17 10 14 11
REMARK SMILES IDX 15 12 16 13 9 14 8 15 10 17 7 18 3 19 4 20 93 21 5 22 6 23
REMARK SMILES IDX 2 24 1 25 94 26 95 27 96 28 97 30 98 31 99 32 24 33 25 34
REMARK SMILES IDX 26 35 27 36 28 37 29 38 30 39 31 40 92 41 32 42 91 43 33 44
REMARK SMILES IDX 34 45 35 46 85 47 36 48 90 49 84 50 86 51 37 52 89 53 83 54
REMARK SMILES IDX 82 55 38 57 70 58 50 59 69 60 51 61 54 62 68 63 87 64 52 65
REMARK SMILES IDX 53 66 67 68 88 69 55 70 39 71 40 72 48 73 41 74 47 75 49 76
REMARK SMILES IDX 46 77 42 78 43 79 44 80 45 81 71 82 72 83 80 84 73 85 79 86
REMARK SMILES IDX 81 87 78 88 74 89 75 90 76 91 77 92 56 93 57 94 65 95 58 96
REMARK SMILES IDX 64 97 66 98 63 99 59 100 60 101 61 102 62 103
REMARK H PARENT 8 16 96 29 86 56 54 67
REMARK Flexibility Score: inf
ROOT
ATOM      1  C   UNL A   1      37.247  33.636  36.300  1.00  0.00     0.202 C 
ENDROOT
BRANCH   1   2
ATOM      2  C   UNL A   1      38.738  33.306  36.198  1.00  0.00     0.261 C 
BRANCH   2   3
ATOM      3  O   UNL A   1      39.430  34.269  35.380  1.00  0.00    -0.463 OA
BRANCH   3   4
ATOM      4  C   UNL A   1      39.725  35.448  35.963  1.00  0.00     0.310 C 
ATOM      5  O   UNL A   1      39.590  36.545  35.429  1.00  0.00    -0.252 OA
BRANCH   4   6
ATOM      6  C   UNL A   1      40.382  35.305  37.324  1.00  0.00     0.116 C 
ATOM      7  C   UNL A   1      41.904  35.599  37.547  1.00  0.00     0.097 C 
ATOM      8  C   UNL A   1      42.167  36.185  38.935  1.00  0.00     0.045 C 
ATOM      9  C   UNL A   1      41.135  37.048  39.581  1.00  0.00    -0.074 C 
ATOM     10  C   UNL A   1      39.357  35.862  38.341  1.00  0.00     0.046 C 
ATOM     11  C   UNL A   1      41.715  38.033  40.562  1.00  0.00     0.039 C 
ATOM     12  C   UNL A   1      39.831  36.901  39.309  1.00  0.00    -0.073 C 
ATOM     13  C   UNL A   1      38.765  37.710  39.991  1.00  0.00     0.039 C 
BRANCH   7  14
ATOM     14  C   UNL A   1      42.754  36.356  36.491  1.00  0.00     0.229 C 
ATOM     15  N   UNL A   1      42.953  35.823  35.210  1.00  0.00    -0.317 N 
ATOM     16  H   UNL A   1      42.530  36.254  34.433  1.00  0.00     0.170 HD
ATOM     17  O   UNL A   1      43.237  37.462  36.725  1.00  0.00    -0.274 OA
BRANCH  15  18
ATOM     18  C   UNL A   1      43.747  34.686  35.021  1.00  0.00     0.108 A 
ATOM     19  C   UNL A   1      44.997  33.113  33.909  1.00  0.00    -0.020 A 
ATOM     20  C   UNL A   1      45.826  33.509  34.965  1.00  0.00     0.008 A 
ATOM     21  C   UNL A   1      43.620  33.586  34.156  1.00  0.00     0.078 A 
ATOM     22  C   UNL A   1      47.296  33.371  35.169  1.00  0.00     0.057 C 
ATOM     23  S   UNL A   1      44.912  34.292  36.195  1.00  0.00    -0.122 S 
BRANCH  19  24
ATOM     24  C   UNL A   1      45.432  32.333  32.692  1.00  0.00     0.034 C 
ATOM     25  C   UNL A   1      46.172  31.018  32.857  1.00  0.00     0.009 C 
ENDBRANCH  19  24
BRANCH  21  26
ATOM     26  C   UNL A   1      42.302  33.273  33.567  1.00  0.00     0.254 C 
ATOM     27  O   UNL A   1      41.592  34.205  33.171  1.00  0.00    -0.269 OA
ATOM     28  N   UNL A   1      41.725  32.025  33.460  1.00  0.00    -0.349 N 
ATOM     29  H   UNL A   1      41.027  31.966  32.767  1.00  0.00     0.164 HD
BRANCH  28  30
ATOM     30  C   UNL A   1      41.945  30.809  34.160  1.00  0.00     0.082 C 
ATOM     31  C   UNL A   1      41.396  29.502  33.640  1.00  0.00     0.027 C 
ATOM     32  C   UNL A   1      42.868  29.752  33.600  1.00  0.00     0.027 C 
ENDBRANCH  28  30
ENDBRANCH  21  26
ENDBRANCH  15  18
ENDBRANCH   7  14
ENDBRANCH   4   6
ENDBRANCH   3   4
ENDBRANCH   2   3
ENDBRANCH   1   2
BRANCH   1  33
ATOM     33  O   UNL A   1      36.458  33.224  35.181  1.00  0.00    -0.374 OA
BRANCH  33  34
ATOM     34  C   UNL A   1      35.477  34.156  34.724  1.00  0.00     0.202 C 
BRANCH  34  35
ATOM     35  C   UNL A   1      34.651  33.720  33.508  1.00  0.00     0.261 C 
BRANCH  35  36
ATOM     36  O   UNL A   1      35.074  32.441  33.006  1.00  0.00    -0.460 OA
BRANCH  36  37
ATOM     37  C   UNL A   1      35.133  32.351  31.649  1.00  0.00     0.338 C 
ATOM     38  O   UNL A   1      34.278  32.723  30.871  1.00  0.00    -0.246 OA
BRANCH  37  39
ATOM     39  C   UNL A   1      36.470  31.866  31.204  1.00  0.00     0.060 A 
ATOM     40  C   UNL A   1      37.379  31.446  32.178  1.00  0.00     0.016 A 
ATOM     41  C   UNL A   1      36.850  31.827  29.863  1.00  0.00     0.016 A 
ATOM     42  C   UNL A   1      38.683  31.099  31.816  1.00  0.00     0.010 A 
ATOM     43  C   UNL A   1      38.150  31.488  29.491  1.00  0.00     0.010 A 
ATOM     44  C   UNL A   1      39.090  31.175  30.477  1.00  0.00    -0.014 A 
BRANCH  44  45
ATOM     45  C   UNL A   1      40.526  31.061  30.131  1.00  0.00     0.031 A 
ATOM     46  C   UNL A   1      41.343  32.315  29.979  1.00  0.00     0.074 A 
ATOM     47  C   UNL A   1      41.095  29.856  29.973  1.00  0.00     0.049 A 
ATOM     48  N   UNL A   1      42.625  32.448  29.761  1.00  0.00    -0.248 NA
ATOM     49  C   UNL A   1      40.613  33.588  30.072  1.00  0.00     0.031 C 
ATOM     50  C   UNL A   1      40.396  28.576  30.071  1.00  0.00     0.029 A 
ATOM     51  N   UNL A   1      42.394  29.513  29.695  1.00  0.00    -0.354 N 
ATOM     52  C   UNL A   1      42.863  33.817  29.718  1.00  0.00     0.074 A 
ATOM     53  C   UNL A   1      41.578  34.470  29.859  1.00  0.00     0.031 C 
ATOM     54  C   UNL A   1      41.278  27.584  29.865  1.00  0.00     0.029 A 
ATOM     55  C   UNL A   1      42.596  28.157  29.601  1.00  0.00     0.049 A 
ATOM     56  H   UNL A   1      43.112  30.176  29.576  1.00  0.00     0.167 HD
ATOM     57  C   UNL A   1      44.047  34.469  29.595  1.00  0.00     0.034 A 
ATOM     58  C   UNL A   1      43.719  27.462  29.329  1.00  0.00     0.034 A 
ATOM     59  C   UNL A   1      45.315  33.798  29.426  1.00  0.00     0.049 A 
ATOM     60  C   UNL A   1      45.016  28.206  29.131  1.00  0.00     0.074 A 
ATOM     61  C   UNL A   1      46.580  34.356  29.336  1.00  0.00     0.029 A 
ATOM     62  N   UNL A   1      45.481  32.425  29.297  1.00  0.00    -0.354 N 
ATOM     63  N   UNL A   1      45.243  29.500  29.164  1.00  0.00    -0.248 NA
ATOM     64  C   UNL A   1      46.213  27.393  28.877  1.00  0.00     0.031 C 
ATOM     65  C   UNL A   1      47.493  33.332  29.063  1.00  0.00     0.029 A 
ATOM     66  C   UNL A   1      46.818  32.122  29.080  1.00  0.00     0.049 A 
ATOM     67  H   UNL A   1      44.755  31.762  29.353  1.00  0.00     0.167 HD
ATOM     68  C   UNL A   1      46.615  29.650  28.970  1.00  0.00     0.074 A 
ATOM     69  C   UNL A   1      47.162  28.316  28.832  1.00  0.00     0.031 C 
ATOM     70  C   UNL A   1      47.355  30.788  28.921  1.00  0.00     0.034 A 
BRANCH  57  71
ATOM     71  C   UNL A   1      44.015  35.980  29.603  1.00  0.00     0.023 A 
ATOM     72  C   UNL A   1      44.164  36.717  30.792  1.00  0.00     0.031 A 
ATOM     73  C   UNL A   1      43.810  36.696  28.410  1.00  0.00     0.131 A 
ATOM     74  C   UNL A   1      44.029  38.113  30.774  1.00  0.00     0.055 A 
ATOM     75  C   UNL A   1      43.765  38.091  28.386  1.00  0.00     0.041 A 
ATOM     76  F   UNL A   1      43.635  36.051  27.246  1.00  0.00    -0.206 F 
ATOM     77  C   UNL A   1      43.858  38.808  29.574  1.00  0.00     0.022 A 
BRANCH  74  78
ATOM     78  S   UNL A   1      43.913  38.993  32.356  1.00  0.00     0.124 S 
ATOM     79  O   UNL A   1      43.072  40.133  31.996  1.00  0.00    -0.237 OA
ATOM     80  O   UNL A   1      43.302  37.996  33.226  1.00  0.00    -0.237 OA
ATOM     81  O   UNL A   1      45.301  39.327  32.664  1.00  0.00    -0.744 OA
ENDBRANCH  74  78
ENDBRANCH  57  71
BRANCH  58  82
ATOM     82  C   UNL A   1      43.664  25.976  29.222  1.00  0.00     0.023 A 
ATOM     83  C   UNL A   1      43.227  25.344  28.047  1.00  0.00     0.031 A 
ATOM     84  C   UNL A   1      44.023  25.166  30.315  1.00  0.00     0.131 A 
ATOM     85  C   UNL A   1      43.122  23.946  28.005  1.00  0.00     0.055 A 
ATOM     86  C   UNL A   1      43.970  23.774  30.248  1.00  0.00     0.041 A 
ATOM     87  F   UNL A   1      44.446  25.720  31.462  1.00  0.00    -0.206 F 
ATOM     88  C   UNL A   1      43.505  23.156  29.091  1.00  0.00     0.022 A 
BRANCH  85  89
ATOM     89  S   UNL A   1      42.398  23.173  26.533  1.00  0.00     0.124 S 
ATOM     90  O   UNL A   1      43.274  23.669  25.477  1.00  0.00    -0.237 OA
ATOM     91  O   UNL A   1      42.512  21.753  26.847  1.00  0.00    -0.237 OA
ATOM     92  O   UNL A   1      41.035  23.698  26.510  1.00  0.00    -0.744 OA
ENDBRANCH  85  89
ENDBRANCH  58  82
BRANCH  70  93
ATOM     93  C   UNL A   1      48.850  30.636  28.750  1.00  0.00     0.023 A 
ATOM     94  C   UNL A   1      49.444  30.493  27.484  1.00  0.00     0.031 A 
ATOM     95  C   UNL A   1      49.693  30.628  29.877  1.00  0.00     0.131 A 
ATOM     96  C   UNL A   1      50.830  30.289  27.378  1.00  0.00     0.055 A 
ATOM     97  C   UNL A   1      51.078  30.493  29.761  1.00  0.00     0.041 A 
ATOM     98  F   UNL A   1      49.185  30.755  31.113  1.00  0.00    -0.206 F 
ATOM     99  C   UNL A   1      51.652  30.309  28.508  1.00  0.00     0.022 A 
BRANCH  96 100
ATOM    100  S   UNL A   1      51.532  29.897  25.753  1.00  0.00     0.124 S 
ATOM    101  O   UNL A   1      51.575  31.209  25.116  1.00  0.00    -0.237 OA
ATOM    102  O   UNL A   1      52.824  29.316  26.102  1.00  0.00    -0.237 OA
ATOM    103  O   UNL A   1      50.567  28.959  25.179  1.00  0.00    -0.744 OA
ENDBRANCH  96 100
ENDBRANCH  70  93
ENDBRANCH  44  45
ENDBRANCH  37  39
ENDBRANCH  36  37
ENDBRANCH  35  36
ENDBRANCH  34  35
ENDBRANCH  33  34
ENDBRANCH   1  33
TORSDOF 22
ENDMDL
