MODEL 1
REMARK VINA RESULT:     -12.0      0.000      0.000
REMARK SMILES O=C(OCCOCCOC(=O)c1ccc(-c2c3nc(c(-c4cc(S(=O)(=O)[O-])ccc4F)c4ccc([nH]4)c(-c4cc(S(=O)(=O)[O-])ccc4F)c4nc(c(-c5cc(S(=O)(=O)[O-])ccc5F)c5ccc2[nH]5)C=C4)C=C3)cc1)C1=Cc2cc(S(F)(F)(F)(F)F)cc(Br)c2O[C@@H]1C(F)(F)F
REMARK SMILES IDX 7 1 6 2 5 3 4 4 3 5 2 6 1 7 75 8 76 9 91 10 77 11 90 12
REMARK SMILES IDX 78 13 89 14 79 15 87 16 86 17 88 18 92 19 93 20 94 21 95 22
REMARK SMILES IDX 80 23 81 24 82 25 83 26 84 27 85 28 8 29 9 30 10 31 11 32
REMARK SMILES IDX 12 33 13 34 74 35 14 36 73 37 15 38 16 39 17 40 67 41 18 42
REMARK SMILES IDX 72 43 66 44 68 45 19 46 71 47 65 48 64 49 20 51 52 52 32 53
REMARK SMILES IDX 51 54 33 55 36 56 50 57 69 58 34 59 35 60 49 62 70 63 37 64
REMARK SMILES IDX 21 65 22 66 30 67 23 68 29 69 31 70 28 71 24 72 25 73 26 74
REMARK SMILES IDX 27 75 53 76 54 77 62 78 55 79 61 80 63 81 60 82 56 83 57 84
REMARK SMILES IDX 58 85 59 86 38 87 39 88 47 89 40 90 46 91 48 92 45 93 41 94
REMARK SMILES IDX 42 95 43 96 44 97
REMARK H PARENT 68 50 36 61
REMARK Flexibility Score: inf
ROOT
ATOM      1  C   UNL A   1      31.674  28.804  23.822  1.00  0.00     0.202 C 
ENDROOT
BRANCH   1   2
ATOM      2  O   UNL A   1      32.167  27.473  23.840  1.00  0.00    -0.374 OA
BRANCH   2   3
ATOM      3  C   UNL A   1      32.396  27.036  22.508  1.00  0.00     0.202 C 
BRANCH   3   4
ATOM      4  C   UNL A   1      33.652  26.181  22.465  1.00  0.00     0.261 C 
BRANCH   4   5
ATOM      5  O   UNL A   1      33.579  25.181  23.471  1.00  0.00    -0.460 OA
BRANCH   5   6
ATOM      6  C   UNL A   1      32.773  24.029  23.269  1.00  0.00     0.338 C 
ATOM      7  O   UNL A   1      33.003  23.258  22.285  1.00  0.00    -0.246 OA
BRANCH   6   8
ATOM      8  C   UNL A   1      31.635  23.719  24.228  1.00  0.00     0.087 C 
ATOM      9  C   UNL A   1      31.636  22.553  24.930  1.00  0.00     0.027 C 
ATOM     10  C   UNL A   1      30.497  24.710  24.401  1.00  0.00     0.316 C 
ATOM     11  C   UNL A   1      32.775  21.561  24.756  1.00  0.00     0.020 A 
ATOM     12  O   UNL A   1      34.277  23.404  24.735  1.00  0.00    -0.474 OA
ATOM     13  C   UNL A   1      32.490  20.214  24.611  1.00  0.00     0.036 A 
ATOM     14  C   UNL A   1      34.026  22.005  24.746  1.00  0.00     0.142 A 
ATOM     15  C   UNL A   1      33.617  19.371  24.751  1.00  0.00     0.109 A 
ATOM     16  C   UNL A   1      35.081  21.125  24.746  1.00  0.00     0.062 A 
ATOM     17  C   UNL A   1      34.872  19.776  24.664  1.00  0.00     0.044 A 
ATOM     18  Br  UNL A   1      36.914  21.812  24.865  1.00  0.00    -0.047 Br
BRANCH  10  19
ATOM     19  C   UNL A   1      30.431  25.155  25.854  1.00  0.00     0.430 C 
ATOM     20  F   UNL A   1      29.916  26.380  25.918  1.00  0.00    -0.167 F 
ATOM     21  F   UNL A   1      29.661  24.315  26.539  1.00  0.00    -0.167 F 
ATOM     22  F   UNL A   1      31.654  25.160  26.372  1.00  0.00    -0.167 F 
ENDBRANCH  10  19
BRANCH  15  23
ATOM     23  S   UNL A   1      33.321  17.614  25.072  1.00  0.00     0.310 S 
ATOM     24  F   UNL A   1      31.926  17.650  24.317  1.00  0.00    -0.094 F 
ATOM     25  F   UNL A   1      32.543  18.014  26.383  1.00  0.00    -0.094 F 
ATOM     26  F   UNL A   1      33.065  16.105  25.347  1.00  0.00    -0.094 F 
ATOM     27  F   UNL A   1      33.980  17.242  23.686  1.00  0.00    -0.094 F 
ATOM     28  F   UNL A   1      33.489  19.147  24.724  1.00  0.00    -0.094 F 
ENDBRANCH  15  23
ENDBRANCH   6   8
ENDBRANCH   5   6
ENDBRANCH   4   5
ENDBRANCH   3   4
ENDBRANCH   2   3
ENDBRANCH   1   2
BRANCH   1  29
ATOM     29  C   UNL A   1      31.718  29.379  25.228  1.00  0.00     0.261 C 
BRANCH  29  30
ATOM     30  O   UNL A   1      32.931  30.098  25.408  1.00  0.00    -0.460 OA
BRANCH  30  31
ATOM     31  C   UNL A   1      33.147  30.835  26.603  1.00  0.00     0.338 C 
ATOM     32  O   UNL A   1      32.261  31.645  27.020  1.00  0.00    -0.246 OA
BRANCH  31  33
ATOM     33  C   UNL A   1      34.440  30.655  27.382  1.00  0.00     0.060 A 
ATOM     34  C   UNL A   1      35.187  31.768  27.727  1.00  0.00     0.016 A 
ATOM     35  C   UNL A   1      34.830  29.431  27.720  1.00  0.00     0.016 A 
ATOM     36  C   UNL A   1      36.492  31.464  28.182  1.00  0.00     0.010 A 
ATOM     37  C   UNL A   1      36.065  29.223  28.287  1.00  0.00     0.010 A 
ATOM     38  C   UNL A   1      36.881  30.274  28.600  1.00  0.00    -0.014 A 
BRANCH  38  39
ATOM     39  C   UNL A   1      38.167  30.082  29.387  1.00  0.00     0.031 A 
ATOM     40  C   UNL A   1      38.273  30.653  30.657  1.00  0.00     0.074 A 
ATOM     41  C   UNL A   1      39.173  29.347  28.783  1.00  0.00     0.049 A 
ATOM     42  N   UNL A   1      39.301  30.572  31.502  1.00  0.00    -0.248 NA
ATOM     43  C   UNL A   1      37.220  31.463  31.286  1.00  0.00     0.031 C 
ATOM     44  C   UNL A   1      39.072  28.761  27.506  1.00  0.00     0.029 A 
ATOM     45  N   UNL A   1      40.422  29.052  29.284  1.00  0.00    -0.354 N 
ATOM     46  C   UNL A   1      39.025  31.232  32.629  1.00  0.00     0.074 A 
ATOM     47  C   UNL A   1      37.685  31.820  32.503  1.00  0.00     0.031 C 
ATOM     48  C   UNL A   1      40.245  28.132  27.236  1.00  0.00     0.029 A 
ATOM     49  C   UNL A   1      41.101  28.314  28.339  1.00  0.00     0.049 A 
ATOM     50  H   UNL A   1      40.769  29.323  30.164  1.00  0.00     0.167 HD
ATOM     51  C   UNL A   1      39.837  31.365  33.756  1.00  0.00     0.034 A 
ATOM     52  C   UNL A   1      42.393  27.819  28.417  1.00  0.00     0.034 A 
ATOM     53  C   UNL A   1      41.114  30.833  33.851  1.00  0.00     0.049 A 
ATOM     54  C   UNL A   1      43.227  28.002  29.522  1.00  0.00     0.074 A 
ATOM     55  C   UNL A   1      41.943  30.952  34.982  1.00  0.00     0.029 A 
ATOM     56  N   UNL A   1      41.801  30.116  32.896  1.00  0.00    -0.354 N 
ATOM     57  N   UNL A   1      42.936  28.628  30.663  1.00  0.00    -0.248 NA
ATOM     58  C   UNL A   1      44.610  27.511  29.602  1.00  0.00     0.031 C 
ATOM     59  C   UNL A   1      43.118  30.323  34.712  1.00  0.00     0.029 A 
ATOM     60  C   UNL A   1      43.042  29.802  33.406  1.00  0.00     0.049 A 
ATOM     61  H   UNL A   1      41.465  29.870  32.005  1.00  0.00     0.167 HD
ATOM     62  C   UNL A   1      43.982  28.583  31.492  1.00  0.00     0.074 A 
ATOM     63  C   UNL A   1      45.075  27.869  30.819  1.00  0.00     0.031 C 
ATOM     64  C   UNL A   1      44.065  29.103  32.784  1.00  0.00     0.034 A 
BRANCH  51  65
ATOM     65  C   UNL A   1      39.291  32.136  34.946  1.00  0.00     0.023 A 
ATOM     66  C   UNL A   1      39.556  33.491  35.066  1.00  0.00     0.031 A 
ATOM     67  C   UNL A   1      38.526  31.503  35.828  1.00  0.00     0.131 A 
ATOM     68  C   UNL A   1      39.202  34.035  36.323  1.00  0.00     0.055 A 
ATOM     69  C   UNL A   1      38.104  32.139  36.971  1.00  0.00     0.041 A 
ATOM     70  F   UNL A   1      38.168  30.242  35.605  1.00  0.00    -0.206 F 
ATOM     71  C   UNL A   1      38.380  33.461  37.183  1.00  0.00     0.022 A 
BRANCH  68  72
ATOM     72  S   UNL A   1      39.926  35.628  36.785  1.00  0.00     0.124 S 
ATOM     73  O   UNL A   1      41.439  35.473  36.950  1.00  0.00    -0.237 OA
ATOM     74  O   UNL A   1      39.635  36.657  35.690  1.00  0.00    -0.237 OA
ATOM     75  O   UNL A   1      39.243  36.159  38.261  1.00  0.00    -0.744 OA
ENDBRANCH  68  72
ENDBRANCH  51  65
BRANCH  52  76
ATOM     76  C   UNL A   1      42.933  27.034  27.232  1.00  0.00     0.023 A 
ATOM     77  C   UNL A   1      42.664  25.679  27.132  1.00  0.00     0.031 A 
ATOM     78  C   UNL A   1      43.691  27.654  26.335  1.00  0.00     0.131 A 
ATOM     79  C   UNL A   1      43.486  24.999  26.203  1.00  0.00     0.055 A 
ATOM     80  C   UNL A   1      44.357  26.939  25.370  1.00  0.00     0.041 A 
ATOM     81  F   UNL A   1      43.806  28.979  26.373  1.00  0.00    -0.206 F 
ATOM     82  C   UNL A   1      44.186  25.588  25.251  1.00  0.00     0.022 A 
BRANCH  79  83
ATOM     83  S   UNL A   1      43.584  23.196  26.327  1.00  0.00     0.124 S 
ATOM     84  O   UNL A   1      42.766  22.722  27.531  1.00  0.00    -0.237 OA
ATOM     85  O   UNL A   1      43.025  22.565  25.050  1.00  0.00    -0.237 OA
ATOM     86  O   UNL A   1      45.216  22.726  26.527  1.00  0.00    -0.744 OA
ENDBRANCH  79  83
ENDBRANCH  52  76
BRANCH  64  87
ATOM     87  C   UNL A   1      45.357  28.891  33.557  1.00  0.00     0.023 A 
ATOM     88  C   UNL A   1      45.519  27.747  34.320  1.00  0.00     0.031 A 
ATOM     89  C   UNL A   1      46.311  29.812  33.485  1.00  0.00     0.131 A 
ATOM     90  C   UNL A   1      46.617  27.801  35.209  1.00  0.00     0.055 A 
ATOM     91  C   UNL A   1      47.424  29.730  34.286  1.00  0.00     0.041 A 
ATOM     92  F   UNL A   1      46.190  30.822  32.628  1.00  0.00    -0.206 F 
ATOM     93  C   UNL A   1      47.620  28.655  35.110  1.00  0.00     0.022 A 
BRANCH  90  94
ATOM     94  S   UNL A   1      46.653  26.617  36.578  1.00  0.00     0.124 S 
ATOM     95  O   UNL A   1      48.101  26.203  36.855  1.00  0.00    -0.237 OA
ATOM     96  O   UNL A   1      46.059  27.266  37.830  1.00  0.00    -0.237 OA
ATOM     97  O   UNL A   1      45.735  25.236  36.161  1.00  0.00    -0.744 OA
ENDBRANCH  90  94
ENDBRANCH  64  87
ENDBRANCH  38  39
ENDBRANCH  31  33
ENDBRANCH  30  31
ENDBRANCH  29  30
ENDBRANCH   1  29
TORSDOF 19
ENDMDL
MODEL 2
REMARK VINA RESULT:     -12.0      2.691      8.564
REMARK SMILES O=C(OCCOCCOC(=O)c1ccc(-c2c3nc(c(-c4cc(S(=O)(=O)[O-])ccc4F)c4ccc([nH]4)c(-c4cc(S(=O)(=O)[O-])ccc4F)c4nc(c(-c5cc(S(=O)(=O)[O-])ccc5F)c5ccc2[nH]5)C=C4)C=C3)cc1)C1=Cc2cc(S(F)(F)(F)(F)F)cc(Br)c2O[C@@H]1C(F)(F)F
REMARK SMILES IDX 7 1 6 2 5 3 4 4 3 5 2 6 1 7 75 8 76 9 91 10 77 11 90 12
REMARK SMILES IDX 78 13 89 14 79 15 87 16 86 17 88 18 92 19 93 20 94 21 95 22
REMARK SMILES IDX 80 23 81 24 82 25 83 26 84 27 85 28 8 29 9 30 10 31 11 32
REMARK SMILES IDX 12 33 13 34 74 35 14 36 73 37 15 38 16 39 17 40 67 41 18 42
REMARK SMILES IDX 72 43 66 44 68 45 19 46 71 47 65 48 64 49 20 51 52 52 32 53
REMARK SMILES IDX 51 54 33 55 36 56 50 57 69 58 34 59 35 60 49 62 70 63 37 64
REMARK SMILES IDX 21 65 22 66 30 67 23 68 29 69 31 70 28 71 24 72 25 73 26 74
REMARK SMILES IDX 27 75 53 76 54 77 62 78 55 79 61 80 63 81 60 82 56 83 57 84
REMARK SMILES IDX 58 85 59 86 38 87 39 88 47 89 40 90 46 91 48 92 45 93 41 94
REMARK SMILES IDX 42 95 43 96 44 97
REMARK H PARENT 68 50 36 61
REMARK Flexibility Score: inf
ROOT
ATOM      1  C   UNL A   1      31.790  30.865  26.247  1.00  0.00     0.202 C 
ENDROOT
BRANCH   1   2
ATOM      2  O   UNL A   1      32.614  30.063  27.080  1.00  0.00    -0.374 OA
BRANCH   2   3
ATOM      3  C   UNL A   1      33.756  29.640  26.349  1.00  0.00     0.202 C 
BRANCH   3   4
ATOM      4  C   UNL A   1      34.138  28.233  26.777  1.00  0.00     0.261 C 
BRANCH   4   5
ATOM      5  O   UNL A   1      32.978  27.415  26.806  1.00  0.00    -0.460 OA
BRANCH   5   6
ATOM      6  C   UNL A   1      33.025  26.096  26.280  1.00  0.00     0.338 C 
ATOM      7  O   UNL A   1      34.140  25.583  25.953  1.00  0.00    -0.246 OA
BRANCH   6   8
ATOM      8  C   UNL A   1      31.741  25.300  26.109  1.00  0.00     0.087 C 
ATOM      9  C   UNL A   1      30.770  25.749  25.267  1.00  0.00     0.027 C 
ATOM     10  C   UNL A   1      31.543  24.005  26.877  1.00  0.00     0.316 C 
ATOM     11  C   UNL A   1      30.968  27.046  24.500  1.00  0.00     0.020 A 
ATOM     12  O   UNL A   1      33.221  26.387  24.117  1.00  0.00    -0.474 OA
ATOM     13  C   UNL A   1      29.936  27.966  24.437  1.00  0.00     0.036 A 
ATOM     14  C   UNL A   1      32.132  27.273  23.901  1.00  0.00     0.142 A 
ATOM     15  C   UNL A   1      30.128  28.979  23.468  1.00  0.00     0.109 A 
ATOM     16  C   UNL A   1      32.291  28.358  23.073  1.00  0.00     0.062 A 
ATOM     17  C   UNL A   1      31.292  29.278  22.917  1.00  0.00     0.044 A 
ATOM     18  Br  UNL A   1      33.978  28.592  22.101  1.00  0.00    -0.047 Br
BRANCH  10  19
ATOM     19  C   UNL A   1      31.348  22.859  25.896  1.00  0.00     0.430 C 
ATOM     20  F   UNL A   1      32.076  21.815  26.284  1.00  0.00    -0.167 F 
ATOM     21  F   UNL A   1      30.063  22.517  25.865  1.00  0.00    -0.167 F 
ATOM     22  F   UNL A   1      31.734  23.243  24.683  1.00  0.00    -0.167 F 
ENDBRANCH  10  19
BRANCH  15  23
ATOM     23  S   UNL A   1      28.681  29.932  22.946  1.00  0.00     0.310 S 
ATOM     24  F   UNL A   1      29.470  30.577  21.730  1.00  0.00    -0.094 F 
ATOM     25  F   UNL A   1      29.191  31.136  23.826  1.00  0.00    -0.094 F 
ATOM     26  F   UNL A   1      27.439  30.752  22.495  1.00  0.00    -0.094 F 
ATOM     27  F   UNL A   1      28.261  28.770  21.962  1.00  0.00    -0.094 F 
ATOM     28  F   UNL A   1      29.996  29.132  23.307  1.00  0.00    -0.094 F 
ENDBRANCH  15  23
ENDBRANCH   6   8
ENDBRANCH   5   6
ENDBRANCH   4   5
ENDBRANCH   3   4
ENDBRANCH   2   3
ENDBRANCH   1   2
BRANCH   1  29
ATOM     29  C   UNL A   1      31.520  32.195  26.932  1.00  0.00     0.261 C 
BRANCH  29  30
ATOM     30  O   UNL A   1      32.641  33.051  26.764  1.00  0.00    -0.460 OA
BRANCH  30  31
ATOM     31  C   UNL A   1      33.244  33.660  27.896  1.00  0.00     0.338 C 
ATOM     32  O   UNL A   1      32.741  34.716  28.393  1.00  0.00    -0.246 OA
BRANCH  31  33
ATOM     33  C   UNL A   1      34.491  33.048  28.514  1.00  0.00     0.060 A 
ATOM     34  C   UNL A   1      35.706  33.698  28.377  1.00  0.00     0.016 A 
ATOM     35  C   UNL A   1      34.394  31.900  29.174  1.00  0.00     0.016 A 
ATOM     36  C   UNL A   1      36.823  32.904  28.730  1.00  0.00     0.010 A 
ATOM     37  C   UNL A   1      35.522  31.246  29.608  1.00  0.00     0.010 A 
ATOM     38  C   UNL A   1      36.761  31.803  29.454  1.00  0.00    -0.014 A 
BRANCH  38  39
ATOM     39  C   UNL A   1      38.000  31.185  30.082  1.00  0.00     0.031 A 
ATOM     40  C   UNL A   1      38.736  30.254  29.347  1.00  0.00     0.074 A 
ATOM     41  C   UNL A   1      38.322  31.586  31.367  1.00  0.00     0.049 A 
ATOM     42  N   UNL A   1      39.856  29.631  29.714  1.00  0.00    -0.248 NA
ATOM     43  C   UNL A   1      38.376  29.802  27.996  1.00  0.00     0.031 C 
ATOM     44  C   UNL A   1      37.589  32.530  32.113  1.00  0.00     0.029 A 
ATOM     45  N   UNL A   1      39.376  31.161  32.146  1.00  0.00    -0.354 N 
ATOM     46  C   UNL A   1      40.278  28.827  28.736  1.00  0.00     0.074 A 
ATOM     47  C   UNL A   1      39.329  28.921  27.619  1.00  0.00     0.031 C 
ATOM     48  C   UNL A   1      38.186  32.665  33.326  1.00  0.00     0.029 A 
ATOM     49  C   UNL A   1      39.302  31.808  33.360  1.00  0.00     0.049 A 
ATOM     50  H   UNL A   1      40.063  30.509  31.880  1.00  0.00     0.167 HD
ATOM     51  C   UNL A   1      41.418  28.022  28.731  1.00  0.00     0.034 A 
ATOM     52  C   UNL A   1      40.149  31.669  34.448  1.00  0.00     0.034 A 
ATOM     53  C   UNL A   1      42.290  27.916  29.803  1.00  0.00     0.049 A 
ATOM     54  C   UNL A   1      41.257  30.819  34.465  1.00  0.00     0.074 A 
ATOM     55  C   UNL A   1      43.447  27.114  29.812  1.00  0.00     0.029 A 
ATOM     56  N   UNL A   1      42.201  28.544  31.027  1.00  0.00    -0.354 N 
ATOM     57  N   UNL A   1      41.700  30.046  33.472  1.00  0.00    -0.248 NA
ATOM     58  C   UNL A   1      42.142  30.639  35.623  1.00  0.00     0.031 C 
ATOM     59  C   UNL A   1      44.044  27.249  31.026  1.00  0.00     0.029 A 
ATOM     60  C   UNL A   1      43.268  28.136  31.796  1.00  0.00     0.049 A 
ATOM     61  H   UNL A   1      41.498  29.174  31.303  1.00  0.00     0.167 HD
ATOM     62  C   UNL A   1      42.798  29.390  33.856  1.00  0.00     0.074 A 
ATOM     63  C   UNL A   1      43.094  29.757  35.247  1.00  0.00     0.031 C 
ATOM     64  C   UNL A   1      43.566  28.504  33.100  1.00  0.00     0.034 A 
BRANCH  51  65
ATOM     65  C   UNL A   1      41.720  27.215  27.478  1.00  0.00     0.023 A 
ATOM     66  C   UNL A   1      41.316  25.893  27.400  1.00  0.00     0.031 A 
ATOM     67  C   UNL A   1      42.328  27.811  26.459  1.00  0.00     0.131 A 
ATOM     68  C   UNL A   1      41.861  25.191  26.299  1.00  0.00     0.055 A 
ATOM     69  C   UNL A   1      42.713  27.088  25.355  1.00  0.00     0.041 A 
ATOM     70  F   UNL A   1      42.569  29.118  26.508  1.00  0.00    -0.206 F 
ATOM     71  C   UNL A   1      42.399  25.763  25.238  1.00  0.00     0.022 A 
BRANCH  68  72
ATOM     72  S   UNL A   1      41.819  23.382  26.350  1.00  0.00     0.124 S 
ATOM     73  O   UNL A   1      40.366  22.904  26.347  1.00  0.00    -0.237 OA
ATOM     74  O   UNL A   1      42.542  22.820  25.124  1.00  0.00    -0.237 OA
ATOM     75  O   UNL A   1      42.597  22.833  27.771  1.00  0.00    -0.744 OA
ENDBRANCH  68  72
ENDBRANCH  51  65
BRANCH  52  76
ATOM     76  C   UNL A   1      39.855  32.488  35.695  1.00  0.00     0.023 A 
ATOM     77  C   UNL A   1      39.108  31.928  36.719  1.00  0.00     0.031 A 
ATOM     78  C   UNL A   1      40.282  33.744  35.761  1.00  0.00     0.131 A 
ATOM     79  C   UNL A   1      38.614  32.872  37.650  1.00  0.00     0.055 A 
ATOM     80  C   UNL A   1      39.865  34.571  36.776  1.00  0.00     0.041 A 
ATOM     81  F   UNL A   1      41.120  34.204  34.837  1.00  0.00    -0.206 F 
ATOM     82  C   UNL A   1      39.077  34.100  37.789  1.00  0.00     0.022 A 
BRANCH  79  83
ATOM     83  S   UNL A   1      37.251  32.358  38.724  1.00  0.00     0.124 S 
ATOM     84  O   UNL A   1      35.953  33.018  38.254  1.00  0.00    -0.237 OA
ATOM     85  O   UNL A   1      37.101  30.836  38.666  1.00  0.00    -0.237 OA
ATOM     86  O   UNL A   1      37.582  32.837  40.332  1.00  0.00    -0.744 OA
ENDBRANCH  79  83
ENDBRANCH  52  76
BRANCH  64  87
ATOM     87  C   UNL A   1      44.807  27.905  33.744  1.00  0.00     0.023 A 
ATOM     88  C   UNL A   1      44.721  26.682  34.387  1.00  0.00     0.031 A 
ATOM     89  C   UNL A   1      45.954  28.570  33.677  1.00  0.00     0.131 A 
ATOM     90  C   UNL A   1      45.847  26.374  35.186  1.00  0.00     0.055 A 
ATOM     91  C   UNL A   1      47.055  28.137  34.376  1.00  0.00     0.041 A 
ATOM     92  F   UNL A   1      46.040  29.665  32.927  1.00  0.00    -0.206 F 
ATOM     93  C   UNL A   1      47.024  26.966  35.082  1.00  0.00     0.022 A 
BRANCH  90  94
ATOM     94  S   UNL A   1      45.665  25.078  36.436  1.00  0.00     0.124 S 
ATOM     95  O   UNL A   1      46.167  23.748  35.868  1.00  0.00    -0.237 OA
ATOM     96  O   UNL A   1      46.484  25.446  37.676  1.00  0.00    -0.237 OA
ATOM     97  O   UNL A   1      44.016  24.928  36.866  1.00  0.00    -0.744 OA
ENDBRANCH  90  94
ENDBRANCH  64  87
ENDBRANCH  38  39
ENDBRANCH  31  33
ENDBRANCH  30  31
ENDBRANCH  29  30
ENDBRANCH   1  29
TORSDOF 19
ENDMDL
MODEL 3
REMARK VINA RESULT:     -12.0      5.024     10.086
REMARK SMILES O=C(OCCOCCOC(=O)c1ccc(-c2c3nc(c(-c4cc(S(=O)(=O)[O-])ccc4F)c4ccc([nH]4)c(-c4cc(S(=O)(=O)[O-])ccc4F)c4nc(c(-c5cc(S(=O)(=O)[O-])ccc5F)c5ccc2[nH]5)C=C4)C=C3)cc1)C1=Cc2cc(S(F)(F)(F)(F)F)cc(Br)c2O[C@@H]1C(F)(F)F
REMARK SMILES IDX 7 1 6 2 5 3 4 4 3 5 2 6 1 7 75 8 76 9 91 10 77 11 90 12
REMARK SMILES IDX 78 13 89 14 79 15 87 16 86 17 88 18 92 19 93 20 94 21 95 22
REMARK SMILES IDX 80 23 81 24 82 25 83 26 84 27 85 28 8 29 9 30 10 31 11 32
REMARK SMILES IDX 12 33 13 34 74 35 14 36 73 37 15 38 16 39 17 40 67 41 18 42
REMARK SMILES IDX 72 43 66 44 68 45 19 46 71 47 65 48 64 49 20 51 52 52 32 53
REMARK SMILES IDX 51 54 33 55 36 56 50 57 69 58 34 59 35 60 49 62 70 63 37 64
REMARK SMILES IDX 21 65 22 66 30 67 23 68 29 69 31 70 28 71 24 72 25 73 26 74
REMARK SMILES IDX 27 75 53 76 54 77 62 78 55 79 61 80 63 81 60 82 56 83 57 84
REMARK SMILES IDX 58 85 59 86 38 87 39 88 47 89 40 90 46 91 48 92 45 93 41 94
REMARK SMILES IDX 42 95 43 96 44 97
REMARK H PARENT 68 50 36 61
REMARK Flexibility Score: inf
ROOT
ATOM      1  C   UNL A   1      34.352  21.167  25.424  1.00  0.00     0.202 C 
ENDROOT
BRANCH   1   2
ATOM      2  O   UNL A   1      33.599  22.329  25.110  1.00  0.00    -0.374 OA
BRANCH   2   3
ATOM      3  C   UNL A   1      33.997  23.395  25.958  1.00  0.00     0.202 C 
BRANCH   3   4
ATOM      4  C   UNL A   1      32.763  24.101  26.497  1.00  0.00     0.261 C 
BRANCH   4   5
ATOM      5  O   UNL A   1      32.573  25.322  25.798  1.00  0.00    -0.460 OA
BRANCH   5   6
ATOM      6  C   UNL A   1      31.371  25.547  25.076  1.00  0.00     0.338 C 
ATOM      7  O   UNL A   1      30.302  25.842  25.699  1.00  0.00    -0.246 OA
BRANCH   6   8
ATOM      8  C   UNL A   1      31.361  25.434  23.561  1.00  0.00     0.087 C 
ATOM      9  C   UNL A   1      31.058  26.520  22.799  1.00  0.00     0.027 C 
ATOM     10  C   UNL A   1      31.688  24.107  22.896  1.00  0.00     0.316 C 
ATOM     11  C   UNL A   1      30.729  27.847  23.464  1.00  0.00     0.020 A 
ATOM     12  O   UNL A   1      32.493  27.428  25.002  1.00  0.00    -0.474 OA
ATOM     13  C   UNL A   1      29.644  28.584  23.018  1.00  0.00     0.036 A 
ATOM     14  C   UNL A   1      31.490  28.278  24.463  1.00  0.00     0.142 A 
ATOM     15  C   UNL A   1      29.614  29.912  23.504  1.00  0.00     0.109 A 
ATOM     16  C   UNL A   1      31.316  29.539  24.981  1.00  0.00     0.062 A 
ATOM     17  C   UNL A   1      30.301  30.345  24.547  1.00  0.00     0.044 A 
ATOM     18  Br  UNL A   1      32.542  30.192  26.365  1.00  0.00    -0.047 Br
BRANCH  10  19
ATOM     19  C   UNL A   1      32.903  24.277  21.998  1.00  0.00     0.430 C 
ATOM     20  F   UNL A   1      33.888  24.846  22.687  1.00  0.00    -0.167 F 
ATOM     21  F   UNL A   1      33.299  23.086  21.559  1.00  0.00    -0.167 F 
ATOM     22  F   UNL A   1      32.584  25.048  20.962  1.00  0.00    -0.167 F 
ENDBRANCH  10  19
BRANCH  15  23
ATOM     23  S   UNL A   1      28.562  31.103  22.637  1.00  0.00     0.310 S 
ATOM     24  F   UNL A   1      27.701  29.948  21.971  1.00  0.00    -0.094 F 
ATOM     25  F   UNL A   1      29.526  31.006  21.394  1.00  0.00    -0.094 F 
ATOM     26  F   UNL A   1      27.657  32.124  21.892  1.00  0.00    -0.094 F 
ATOM     27  F   UNL A   1      27.534  31.079  23.836  1.00  0.00    -0.094 F 
ATOM     28  F   UNL A   1      29.410  29.982  23.361  1.00  0.00    -0.094 F 
ENDBRANCH  15  23
ENDBRANCH   6   8
ENDBRANCH   5   6
ENDBRANCH   4   5
ENDBRANCH   3   4
ENDBRANCH   2   3
ENDBRANCH   1   2
BRANCH   1  29
ATOM     29  C   UNL A   1      35.780  21.340  24.931  1.00  0.00     0.261 C 
BRANCH  29  30
ATOM     30  O   UNL A   1      36.677  21.211  26.025  1.00  0.00    -0.460 OA
BRANCH  30  31
ATOM     31  C   UNL A   1      38.078  21.276  25.804  1.00  0.00     0.338 C 
ATOM     32  O   UNL A   1      38.684  20.295  25.270  1.00  0.00    -0.246 OA
BRANCH  31  33
ATOM     33  C   UNL A   1      38.853  22.520  26.206  1.00  0.00     0.060 A 
ATOM     34  C   UNL A   1      38.324  23.770  25.931  1.00  0.00     0.016 A 
ATOM     35  C   UNL A   1      40.026  22.387  26.815  1.00  0.00     0.016 A 
ATOM     36  C   UNL A   1      39.250  24.830  26.081  1.00  0.00     0.010 A 
ATOM     37  C   UNL A   1      40.820  23.484  27.051  1.00  0.00     0.010 A 
ATOM     38  C   UNL A   1      40.384  24.745  26.750  1.00  0.00    -0.014 A 
BRANCH  38  39
ATOM     39  C   UNL A   1      41.165  25.981  27.164  1.00  0.00     0.031 A 
ATOM     40  C   UNL A   1      42.473  26.140  26.699  1.00  0.00     0.074 A 
ATOM     41  C   UNL A   1      40.525  26.884  27.996  1.00  0.00     0.049 A 
ATOM     42  N   UNL A   1      43.299  27.161  26.928  1.00  0.00    -0.248 NA
ATOM     43  C   UNL A   1      43.167  25.167  25.844  1.00  0.00     0.031 C 
ATOM     44  C   UNL A   1      39.205  26.735  28.463  1.00  0.00     0.029 A 
ATOM     45  N   UNL A   1      41.025  28.058  28.514  1.00  0.00    -0.354 N 
ATOM     46  C   UNL A   1      44.459  26.966  26.299  1.00  0.00     0.074 A 
ATOM     47  C   UNL A   1      44.393  25.677  25.598  1.00  0.00     0.031 C 
ATOM     48  C   UNL A   1      38.916  27.797  29.259  1.00  0.00     0.029 A 
ATOM     49  C   UNL A   1      40.051  28.629  29.304  1.00  0.00     0.049 A 
ATOM     50  H   UNL A   1      41.923  28.425  28.348  1.00  0.00     0.167 HD
ATOM     51  C   UNL A   1      45.569  27.813  26.281  1.00  0.00     0.034 A 
ATOM     52  C   UNL A   1      40.131  29.806  30.031  1.00  0.00     0.034 A 
ATOM     53  C   UNL A   1      45.633  29.012  26.973  1.00  0.00     0.049 A 
ATOM     54  C   UNL A   1      41.263  30.624  30.060  1.00  0.00     0.074 A 
ATOM     55  C   UNL A   1      46.740  29.880  26.960  1.00  0.00     0.029 A 
ATOM     56  N   UNL A   1      44.667  29.570  27.783  1.00  0.00    -0.354 N 
ATOM     57  N   UNL A   1      42.407  30.448  29.399  1.00  0.00    -0.248 NA
ATOM     58  C   UNL A   1      41.370  31.856  30.852  1.00  0.00     0.031 C 
ATOM     59  C   UNL A   1      46.452  30.943  27.757  1.00  0.00     0.029 A 
ATOM     60  C   UNL A   1      45.159  30.755  28.283  1.00  0.00     0.049 A 
ATOM     61  H   UNL A   1      43.780  29.188  27.972  1.00  0.00     0.167 HD
ATOM     62  C   UNL A   1      43.249  31.449  29.663  1.00  0.00     0.074 A 
ATOM     63  C   UNL A   1      42.597  32.366  30.607  1.00  0.00     0.031 C 
ATOM     64  C   UNL A   1      44.534  31.637  29.151  1.00  0.00     0.034 A 
BRANCH  51  65
ATOM     65  C   UNL A   1      46.775  27.396  25.455  1.00  0.00     0.023 A 
ATOM     66  C   UNL A   1      47.033  28.027  24.250  1.00  0.00     0.031 A 
ATOM     67  C   UNL A   1      47.590  26.462  25.932  1.00  0.00     0.131 A 
ATOM     68  C   UNL A   1      48.031  27.394  23.473  1.00  0.00     0.055 A 
ATOM     69  C   UNL A   1      48.628  25.984  25.169  1.00  0.00     0.041 A 
ATOM     70  F   UNL A   1      47.398  25.983  27.158  1.00  0.00    -0.206 F 
ATOM     71  C   UNL A   1      48.904  26.521  23.942  1.00  0.00     0.022 A 
BRANCH  68  72
ATOM     72  S   UNL A   1      48.117  27.806  21.713  1.00  0.00     0.124 S 
ATOM     73  O   UNL A   1      48.416  26.541  20.906  1.00  0.00    -0.237 OA
ATOM     74  O   UNL A   1      46.779  28.395  21.261  1.00  0.00    -0.237 OA
ATOM     75  O   UNL A   1      49.359  28.954  21.456  1.00  0.00    -0.744 OA
ENDBRANCH  68  72
ENDBRANCH  51  65
BRANCH  52  76
ATOM     76  C   UNL A   1      38.918  30.230  30.844  1.00  0.00     0.023 A 
ATOM     77  C   UNL A   1      37.933  31.001  30.249  1.00  0.00     0.031 A 
ATOM     78  C   UNL A   1      38.846  29.890  32.126  1.00  0.00     0.131 A 
ATOM     79  C   UNL A   1      37.050  31.613  31.169  1.00  0.00     0.055 A 
ATOM     80  C   UNL A   1      37.873  30.422  32.936  1.00  0.00     0.041 A 
ATOM     81  F   UNL A   1      39.724  29.028  32.629  1.00  0.00    -0.206 F 
ATOM     82  C   UNL A   1      36.902  31.240  32.426  1.00  0.00     0.022 A 
BRANCH  79  83
ATOM     83  S   UNL A   1      36.053  33.004  30.580  1.00  0.00     0.124 S 
ATOM     84  O   UNL A   1      36.491  34.285  31.292  1.00  0.00    -0.237 OA
ATOM     85  O   UNL A   1      36.246  33.167  29.070  1.00  0.00    -0.237 OA
ATOM     86  O   UNL A   1      34.403  32.703  30.913  1.00  0.00    -0.744 OA
ENDBRANCH  79  83
ENDBRANCH  52  76
BRANCH  64  87
ATOM     87  C   UNL A   1      45.294  32.885  29.570  1.00  0.00     0.023 A 
ATOM     88  C   UNL A   1      45.102  34.069  28.877  1.00  0.00     0.031 A 
ATOM     89  C   UNL A   1      46.132  32.816  30.597  1.00  0.00     0.131 A 
ATOM     90  C   UNL A   1      46.064  35.065  29.166  1.00  0.00     0.055 A 
ATOM     91  C   UNL A   1      46.947  33.878  30.907  1.00  0.00     0.041 A 
ATOM     92  F   UNL A   1      46.183  31.711  31.335  1.00  0.00    -0.206 F 
ATOM     93  C   UNL A   1      46.853  35.060  30.226  1.00  0.00     0.022 A 
BRANCH  90  94
ATOM     94  S   UNL A   1      46.225  36.443  28.004  1.00  0.00     0.124 S 
ATOM     95  O   UNL A   1      47.567  37.144  28.227  1.00  0.00    -0.237 OA
ATOM     96  O   UNL A   1      46.159  35.912  26.570  1.00  0.00    -0.237 OA
ATOM     97  O   UNL A   1      44.951  37.556  28.258  1.00  0.00    -0.744 OA
ENDBRANCH  90  94
ENDBRANCH  64  87
ENDBRANCH  38  39
ENDBRANCH  31  33
ENDBRANCH  30  31
ENDBRANCH  29  30
ENDBRANCH   1  29
TORSDOF 19
ENDMDL
