MODEL 1
REMARK VINA RESULT:     -11.9      0.000      0.000
REMARK SMILES Cc1cc(S(F)(F)(F)(F)F)cc2c1O[C@H](C(F)(F)F)C(C(=O)OCCOCCOC(=O)c1ccc(-c3c4nc(c(-c5cc(S(=O)(=O)[O-])ccc5F)c5ccc([nH]5)c(-c5cc(S(=O)(=O)[O-])ccc5F)c5nc(c(-c6cc(S(=O)(=O)[O-])ccc6F)c6ccc3[nH]6)C=C5)C=C4)cc1)=C2
REMARK SMILES IDX 27 1 26 2 25 3 24 4 23 5 21 6 22 7 20 8 1 9 2 10 3 11 13 12
REMARK SMILES IDX 4 13 12 14 14 15 11 16 95 17 15 18 5 19 6 20 7 21 8 22 9 23
REMARK SMILES IDX 10 24 16 25 17 26 18 27 19 28 28 29 29 30 30 31 31 32 32 33
REMARK SMILES IDX 33 34 94 35 34 36 93 37 35 38 36 39 37 40 87 41 38 42 92 43
REMARK SMILES IDX 86 44 88 45 39 46 91 47 85 48 84 49 40 51 72 52 52 53 71 54
REMARK SMILES IDX 53 55 56 56 70 57 89 58 54 59 55 60 69 62 90 63 57 64 41 65
REMARK SMILES IDX 42 66 50 67 43 68 49 69 51 70 48 71 44 72 45 73 46 74 47 75
REMARK SMILES IDX 73 76 74 77 82 78 75 79 81 80 83 81 80 82 76 83 77 84 78 85
REMARK SMILES IDX 79 86 58 87 59 88 67 89 60 90 66 91 68 92 65 93 61 94 62 95
REMARK SMILES IDX 63 96 64 97
REMARK H PARENT 88 50 56 61
REMARK Flexibility Score: inf
ROOT
ATOM      1  C   UNL A   1      31.845  29.634  25.563  1.00  0.00     0.202 C 
ENDROOT
BRANCH   1   2
ATOM      2  O   UNL A   1      32.194  28.340  25.093  1.00  0.00    -0.374 OA
BRANCH   2   3
ATOM      3  C   UNL A   1      31.032  27.525  25.047  1.00  0.00     0.202 C 
BRANCH   3   4
ATOM      4  C   UNL A   1      30.893  26.919  23.660  1.00  0.00     0.261 C 
BRANCH   4   5
ATOM      5  O   UNL A   1      31.271  25.551  23.701  1.00  0.00    -0.460 OA
BRANCH   5   6
ATOM      6  C   UNL A   1      32.364  25.093  22.917  1.00  0.00     0.338 C 
ATOM      7  O   UNL A   1      32.607  25.630  21.792  1.00  0.00    -0.246 OA
BRANCH   6   8
ATOM      8  C   UNL A   1      33.241  23.961  23.426  1.00  0.00     0.087 C 
ATOM      9  C   UNL A   1      37.185  21.031  25.053  1.00  0.00     0.048 C 
ATOM     10  C   UNL A   1      35.689  20.872  24.831  1.00  0.00    -0.007 A 
ATOM     11  C   UNL A   1      35.155  19.608  24.947  1.00  0.00     0.031 A 
ATOM     12  C   UNL A   1      34.889  21.913  24.366  1.00  0.00     0.130 A 
ATOM     13  C   UNL A   1      33.833  19.361  24.600  1.00  0.00     0.108 A 
ATOM     14  C   UNL A   1      33.542  21.661  24.019  1.00  0.00     0.019 A 
ATOM     15  O   UNL A   1      35.400  23.282  24.219  1.00  0.00    -0.475 OA
ATOM     16  C   UNL A   1      33.027  20.369  24.146  1.00  0.00     0.036 A 
ATOM     17  C   UNL A   1      32.725  22.772  23.532  1.00  0.00     0.027 C 
ATOM     18  C   UNL A   1      34.566  24.241  23.761  1.00  0.00     0.316 C 
BRANCH  13  19
ATOM     19  S   UNL A   1      33.166  17.686  24.750  1.00  0.00     0.310 S 
ATOM     20  F   UNL A   1      31.796  18.102  24.068  1.00  0.00    -0.094 F 
ATOM     21  F   UNL A   1      32.523  18.094  26.129  1.00  0.00    -0.094 F 
ATOM     22  F   UNL A   1      32.595  16.245  24.879  1.00  0.00    -0.094 F 
ATOM     23  F   UNL A   1      33.697  17.337  23.304  1.00  0.00    -0.094 F 
ATOM     24  F   UNL A   1      33.656  19.176  24.555  1.00  0.00    -0.094 F 
ENDBRANCH  13  19
BRANCH  18  25
ATOM     25  C   UNL A   1      34.410  25.140  24.976  1.00  0.00     0.430 C 
ATOM     26  F   UNL A   1      34.334  26.408  24.583  1.00  0.00    -0.167 F 
ATOM     27  F   UNL A   1      33.300  24.811  25.631  1.00  0.00    -0.167 F 
ATOM     28  F   UNL A   1      35.460  24.986  25.779  1.00  0.00    -0.167 F 
ENDBRANCH  18  25
ENDBRANCH   6   8
ENDBRANCH   5   6
ENDBRANCH   4   5
ENDBRANCH   3   4
ENDBRANCH   2   3
ENDBRANCH   1   2
BRANCH   1  29
ATOM     29  C   UNL A   1      32.438  29.848  26.947  1.00  0.00     0.261 C 
BRANCH  29  30
ATOM     30  O   UNL A   1      33.855  29.829  26.863  1.00  0.00    -0.460 OA
BRANCH  30  31
ATOM     31  C   UNL A   1      34.632  30.553  27.807  1.00  0.00     0.338 C 
ATOM     32  O   UNL A   1      34.145  31.580  28.376  1.00  0.00    -0.246 OA
BRANCH  31  33
ATOM     33  C   UNL A   1      36.044  30.098  28.136  1.00  0.00     0.060 A 
ATOM     34  C   UNL A   1      36.333  29.672  29.428  1.00  0.00     0.016 A 
ATOM     35  C   UNL A   1      37.013  30.097  27.246  1.00  0.00     0.016 A 
ATOM     36  C   UNL A   1      37.447  28.816  29.575  1.00  0.00     0.010 A 
ATOM     37  C   UNL A   1      38.304  29.685  27.594  1.00  0.00     0.010 A 
ATOM     38  C   UNL A   1      38.527  29.056  28.729  1.00  0.00    -0.014 A 
BRANCH  38  39
ATOM     39  C   UNL A   1      39.929  28.605  29.106  1.00  0.00     0.031 A 
ATOM     40  C   UNL A   1      40.592  29.388  30.052  1.00  0.00     0.074 A 
ATOM     41  C   UNL A   1      40.491  27.505  28.481  1.00  0.00     0.049 A 
ATOM     42  N   UNL A   1      41.824  29.213  30.533  1.00  0.00    -0.248 NA
ATOM     43  C   UNL A   1      40.010  30.576  30.693  1.00  0.00     0.031 C 
ATOM     44  C   UNL A   1      39.825  26.704  27.532  1.00  0.00     0.029 A 
ATOM     45  N   UNL A   1      41.759  26.992  28.649  1.00  0.00    -0.354 N 
ATOM     46  C   UNL A   1      42.104  30.154  31.437  1.00  0.00     0.074 A 
ATOM     47  C   UNL A   1      40.944  31.049  31.548  1.00  0.00     0.031 C 
ATOM     48  C   UNL A   1      40.682  25.730  27.126  1.00  0.00     0.029 A 
ATOM     49  C   UNL A   1      41.898  25.906  27.815  1.00  0.00     0.049 A 
ATOM     50  H   UNL A   1      42.446  27.343  29.260  1.00  0.00     0.167 HD
ATOM     51  C   UNL A   1      43.280  30.302  32.174  1.00  0.00     0.034 A 
ATOM     52  C   UNL A   1      43.014  25.101  27.648  1.00  0.00     0.034 A 
ATOM     53  C   UNL A   1      44.380  29.471  32.039  1.00  0.00     0.049 A 
ATOM     54  C   UNL A   1      44.212  25.284  28.342  1.00  0.00     0.074 A 
ATOM     55  C   UNL A   1      45.572  29.600  32.779  1.00  0.00     0.029 A 
ATOM     56  N   UNL A   1      44.529  28.399  31.186  1.00  0.00    -0.354 N 
ATOM     57  N   UNL A   1      44.477  26.201  29.274  1.00  0.00    -0.248 NA
ATOM     58  C   UNL A   1      45.411  24.458  28.150  1.00  0.00     0.031 C 
ATOM     59  C   UNL A   1      46.429  28.626  32.373  1.00  0.00     0.029 A 
ATOM     60  C   UNL A   1      45.788  27.873  31.371  1.00  0.00     0.049 A 
ATOM     61  H   UNL A   1      43.851  28.066  30.554  1.00  0.00     0.167 HD
ATOM     62  C   UNL A   1      45.724  26.050  29.725  1.00  0.00     0.074 A 
ATOM     63  C   UNL A   1      46.346  24.932  29.004  1.00  0.00     0.031 C 
ATOM     64  C   UNL A   1      46.367  26.798  30.714  1.00  0.00     0.034 A 
BRANCH  51  65
ATOM     65  C   UNL A   1      43.358  31.436  33.183  1.00  0.00     0.023 A 
ATOM     66  C   UNL A   1      43.024  31.205  34.521  1.00  0.00     0.031 A 
ATOM     67  C   UNL A   1      43.770  32.622  32.786  1.00  0.00     0.131 A 
ATOM     68  C   UNL A   1      42.868  32.208  35.359  1.00  0.00     0.055 A 
ATOM     69  C   UNL A   1      43.861  33.640  33.734  1.00  0.00     0.041 A 
ATOM     70  F   UNL A   1      44.092  32.842  31.515  1.00  0.00    -0.206 F 
ATOM     71  C   UNL A   1      43.053  33.501  34.884  1.00  0.00     0.022 A 
BRANCH  68  72
ATOM     72  S   UNL A   1      42.424  31.910  37.089  1.00  0.00     0.124 S 
ATOM     73  O   UNL A   1      42.319  30.404  37.337  1.00  0.00    -0.237 OA
ATOM     74  O   UNL A   1      43.499  32.505  38.000  1.00  0.00    -0.237 OA
ATOM     75  O   UNL A   1      40.919  32.650  37.426  1.00  0.00    -0.744 OA
ENDBRANCH  68  72
ENDBRANCH  51  65
BRANCH  52  76
ATOM     76  C   UNL A   1      42.930  23.957  26.650  1.00  0.00     0.023 A 
ATOM     77  C   UNL A   1      42.312  22.755  27.015  1.00  0.00     0.031 A 
ATOM     78  C   UNL A   1      43.469  24.102  25.459  1.00  0.00     0.131 A 
ATOM     79  C   UNL A   1      42.471  21.670  26.290  1.00  0.00     0.055 A 
ATOM     80  C   UNL A   1      43.412  23.029  24.571  1.00  0.00     0.041 A 
ATOM     81  F   UNL A   1      44.053  25.244  25.109  1.00  0.00    -0.206 F 
ATOM     82  C   UNL A   1      43.260  21.747  25.148  1.00  0.00     0.022 A 
BRANCH  79  83
ATOM     83  S   UNL A   1      41.682  20.112  26.767  1.00  0.00     0.124 S 
ATOM     84  O   UNL A   1      40.710  19.675  25.668  1.00  0.00    -0.237 OA
ATOM     85  O   UNL A   1      42.753  19.035  26.959  1.00  0.00    -0.237 OA
ATOM     86  O   UNL A   1      40.826  20.331  28.231  1.00  0.00    -0.744 OA
ENDBRANCH  79  83
ENDBRANCH  52  76
BRANCH  64  87
ATOM     87  C   UNL A   1      47.788  26.411  31.090  1.00  0.00     0.023 A 
ATOM     88  C   UNL A   1      48.862  26.886  30.331  1.00  0.00     0.031 A 
ATOM     89  C   UNL A   1      47.990  25.625  32.126  1.00  0.00     0.131 A 
ATOM     90  C   UNL A   1      50.064  26.369  30.468  1.00  0.00     0.055 A 
ATOM     91  C   UNL A   1      49.301  25.276  32.445  1.00  0.00     0.041 A 
ATOM     92  F   UNL A   1      46.969  25.175  32.852  1.00  0.00    -0.206 F 
ATOM     93  C   UNL A   1      50.241  25.345  31.393  1.00  0.00     0.022 A 
BRANCH  90  94
ATOM     94  S   UNL A   1      51.453  26.975  29.477  1.00  0.00     0.124 S 
ATOM     95  O   UNL A   1      51.202  28.433  29.085  1.00  0.00    -0.237 OA
ATOM     96  O   UNL A   1      52.743  26.883  30.297  1.00  0.00    -0.237 OA
ATOM     97  O   UNL A   1      51.605  26.022  28.067  1.00  0.00    -0.744 OA
ENDBRANCH  90  94
ENDBRANCH  64  87
ENDBRANCH  38  39
ENDBRANCH  31  33
ENDBRANCH  30  31
ENDBRANCH  29  30
ENDBRANCH   1  29
TORSDOF 19
ENDMDL
MODEL 2
REMARK VINA RESULT:     -11.8      4.313      8.783
REMARK SMILES Cc1cc(S(F)(F)(F)(F)F)cc2c1O[C@H](C(F)(F)F)C(C(=O)OCCOCCOC(=O)c1ccc(-c3c4nc(c(-c5cc(S(=O)(=O)[O-])ccc5F)c5ccc([nH]5)c(-c5cc(S(=O)(=O)[O-])ccc5F)c5nc(c(-c6cc(S(=O)(=O)[O-])ccc6F)c6ccc3[nH]6)C=C5)C=C4)cc1)=C2
REMARK SMILES IDX 27 1 26 2 25 3 24 4 23 5 21 6 22 7 20 8 1 9 2 10 3 11 13 12
REMARK SMILES IDX 4 13 12 14 14 15 11 16 95 17 15 18 5 19 6 20 7 21 8 22 9 23
REMARK SMILES IDX 10 24 16 25 17 26 18 27 19 28 28 29 29 30 30 31 31 32 32 33
REMARK SMILES IDX 33 34 94 35 34 36 93 37 35 38 36 39 37 40 87 41 38 42 92 43
REMARK SMILES IDX 86 44 88 45 39 46 91 47 85 48 84 49 40 51 72 52 52 53 71 54
REMARK SMILES IDX 53 55 56 56 70 57 89 58 54 59 55 60 69 62 90 63 57 64 41 65
REMARK SMILES IDX 42 66 50 67 43 68 49 69 51 70 48 71 44 72 45 73 46 74 47 75
REMARK SMILES IDX 73 76 74 77 82 78 75 79 81 80 83 81 80 82 76 83 77 84 78 85
REMARK SMILES IDX 79 86 58 87 59 88 67 89 60 90 66 91 68 92 65 93 61 94 62 95
REMARK SMILES IDX 63 96 64 97
REMARK H PARENT 88 50 56 61
REMARK Flexibility Score: inf
ROOT
ATOM      1  C   UNL A   1      35.667  21.615  24.727  1.00  0.00     0.202 C 
ENDROOT
BRANCH   1   2
ATOM      2  O   UNL A   1      34.406  21.311  25.304  1.00  0.00    -0.374 OA
BRANCH   2   3
ATOM      3  C   UNL A   1      33.454  21.096  24.273  1.00  0.00     0.202 C 
BRANCH   3   4
ATOM      4  C   UNL A   1      33.125  22.420  23.603  1.00  0.00     0.261 C 
BRANCH   4   5
ATOM      5  O   UNL A   1      31.814  22.824  23.972  1.00  0.00    -0.460 OA
BRANCH   5   6
ATOM      6  C   UNL A   1      31.607  23.545  25.178  1.00  0.00     0.338 C 
ATOM      7  O   UNL A   1      31.492  22.920  26.279  1.00  0.00    -0.246 OA
BRANCH   6   8
ATOM      8  C   UNL A   1      31.523  25.062  25.151  1.00  0.00     0.087 C 
ATOM      9  C   UNL A   1      31.990  30.117  26.156  1.00  0.00     0.048 C 
ATOM     10  C   UNL A   1      31.319  29.241  25.110  1.00  0.00    -0.007 A 
ATOM     11  C   UNL A   1      30.478  29.852  24.206  1.00  0.00     0.031 A 
ATOM     12  C   UNL A   1      31.401  27.850  25.137  1.00  0.00     0.130 A 
ATOM     13  C   UNL A   1      29.710  29.096  23.330  1.00  0.00     0.108 A 
ATOM     14  C   UNL A   1      30.622  27.085  24.241  1.00  0.00     0.019 A 
ATOM     15  O   UNL A   1      32.278  27.141  26.078  1.00  0.00    -0.475 OA
ATOM     16  C   UNL A   1      29.778  27.731  23.336  1.00  0.00     0.036 A 
ATOM     17  C   UNL A   1      30.726  25.626  24.293  1.00  0.00     0.027 C 
ATOM     18  C   UNL A   1      32.304  25.791  26.048  1.00  0.00     0.316 C 
BRANCH  13  19
ATOM     19  S   UNL A   1      28.604  29.929  22.164  1.00  0.00     0.310 S 
ATOM     20  F   UNL A   1      28.950  31.359  22.759  1.00  0.00    -0.094 F 
ATOM     21  F   UNL A   1      27.452  29.840  23.235  1.00  0.00    -0.094 F 
ATOM     22  F   UNL A   1      27.654  30.644  21.162  1.00  0.00    -0.094 F 
ATOM     23  F   UNL A   1      29.805  30.136  21.160  1.00  0.00    -0.094 F 
ATOM     24  F   UNL A   1      29.607  29.306  23.214  1.00  0.00    -0.094 F 
ENDBRANCH  13  19
BRANCH  18  25
ATOM     25  C   UNL A   1      33.713  25.507  25.555  1.00  0.00     0.430 C 
ATOM     26  F   UNL A   1      34.517  26.505  25.910  1.00  0.00    -0.167 F 
ATOM     27  F   UNL A   1      34.150  24.372  26.094  1.00  0.00    -0.167 F 
ATOM     28  F   UNL A   1      33.705  25.393  24.230  1.00  0.00    -0.167 F 
ENDBRANCH  18  25
ENDBRANCH   6   8
ENDBRANCH   5   6
ENDBRANCH   4   5
ENDBRANCH   3   4
ENDBRANCH   2   3
ENDBRANCH   1   2
BRANCH   1  29
ATOM     29  C   UNL A   1      36.720  21.693  25.820  1.00  0.00     0.261 C 
BRANCH  29  30
ATOM     30  O   UNL A   1      37.746  22.592  25.426  1.00  0.00    -0.460 OA
BRANCH  30  31
ATOM     31  C   UNL A   1      38.955  22.660  26.170  1.00  0.00     0.338 C 
ATOM     32  O   UNL A   1      39.648  21.611  26.352  1.00  0.00    -0.246 OA
BRANCH  31  33
ATOM     33  C   UNL A   1      39.417  23.987  26.747  1.00  0.00     0.060 A 
ATOM     34  C   UNL A   1      40.324  24.759  26.027  1.00  0.00     0.016 A 
ATOM     35  C   UNL A   1      39.000  24.439  27.910  1.00  0.00     0.016 A 
ATOM     36  C   UNL A   1      40.344  26.142  26.314  1.00  0.00     0.010 A 
ATOM     37  C   UNL A   1      39.463  25.659  28.413  1.00  0.00     0.010 A 
ATOM     38  C   UNL A   1      40.119  26.500  27.641  1.00  0.00    -0.014 A 
BRANCH  38  39
ATOM     39  C   UNL A   1      40.619  27.828  28.186  1.00  0.00     0.031 A 
ATOM     40  C   UNL A   1      39.637  28.731  28.597  1.00  0.00     0.074 A 
ATOM     41  C   UNL A   1      41.976  28.101  28.202  1.00  0.00     0.049 A 
ATOM     42  N   UNL A   1      39.816  29.957  29.093  1.00  0.00    -0.248 NA
ATOM     43  C   UNL A   1      38.194  28.458  28.550  1.00  0.00     0.031 C 
ATOM     44  C   UNL A   1      42.974  27.191  27.797  1.00  0.00     0.029 A 
ATOM     45  N   UNL A   1      42.602  29.262  28.598  1.00  0.00    -0.354 N 
ATOM     46  C   UNL A   1      38.639  30.509  29.390  1.00  0.00     0.074 A 
ATOM     47  C   UNL A   1      37.577  29.556  29.039  1.00  0.00     0.031 C 
ATOM     48  C   UNL A   1      44.181  27.800  27.935  1.00  0.00     0.029 A 
ATOM     49  C   UNL A   1      43.958  29.099  28.431  1.00  0.00     0.049 A 
ATOM     50  H   UNL A   1      42.155  30.069  28.942  1.00  0.00     0.167 HD
ATOM     51  C   UNL A   1      38.407  31.771  29.942  1.00  0.00     0.034 A 
ATOM     52  C   UNL A   1      44.962  30.020  28.688  1.00  0.00     0.034 A 
ATOM     53  C   UNL A   1      39.414  32.675  30.240  1.00  0.00     0.049 A 
ATOM     54  C   UNL A   1      44.727  31.304  29.185  1.00  0.00     0.074 A 
ATOM     55  C   UNL A   1      39.200  33.948  30.804  1.00  0.00     0.029 A 
ATOM     56  N   UNL A   1      40.770  32.522  30.049  1.00  0.00    -0.354 N 
ATOM     57  N   UNL A   1      43.553  31.841  29.520  1.00  0.00    -0.248 NA
ATOM     58  C   UNL A   1      45.779  32.299  29.431  1.00  0.00     0.031 C 
ATOM     59  C   UNL A   1      40.407  34.557  30.943  1.00  0.00     0.029 A 
ATOM     60  C   UNL A   1      41.396  33.675  30.467  1.00  0.00     0.049 A 
ATOM     61  H   UNL A   1      41.214  31.725  29.678  1.00  0.00     0.167 HD
ATOM     62  C   UNL A   1      43.729  33.083  29.976  1.00  0.00     0.074 A 
ATOM     63  C   UNL A   1      45.162  33.398  29.919  1.00  0.00     0.031 C 
ATOM     64  C   UNL A   1      42.751  33.964  30.443  1.00  0.00     0.034 A 
BRANCH  51  65
ATOM     65  C   UNL A   1      36.971  32.174  30.234  1.00  0.00     0.023 A 
ATOM     66  C   UNL A   1      36.244  32.903  29.287  1.00  0.00     0.031 A 
ATOM     67  C   UNL A   1      36.417  31.805  31.369  1.00  0.00     0.131 A 
ATOM     68  C   UNL A   1      35.090  33.452  29.600  1.00  0.00     0.055 A 
ATOM     69  C   UNL A   1      35.090  32.160  31.603  1.00  0.00     0.041 A 
ATOM     70  F   UNL A   1      37.105  31.108  32.268  1.00  0.00    -0.206 F 
ATOM     71  C   UNL A   1      34.606  33.282  30.892  1.00  0.00     0.022 A 
BRANCH  68  72
ATOM     72  S   UNL A   1      34.154  34.406  28.378  1.00  0.00     0.124 S 
ATOM     73  O   UNL A   1      33.769  35.761  28.976  1.00  0.00    -0.237 OA
ATOM     74  O   UNL A   1      35.016  34.623  27.133  1.00  0.00    -0.237 OA
ATOM     75  O   UNL A   1      32.738  33.549  27.949  1.00  0.00    -0.744 OA
ENDBRANCH  68  72
ENDBRANCH  51  65
BRANCH  52  76
ATOM     76  C   UNL A   1      46.400  29.610  28.412  1.00  0.00     0.023 A 
ATOM     77  C   UNL A   1      47.148  28.968  29.405  1.00  0.00     0.031 A 
ATOM     78  C   UNL A   1      46.934  29.892  27.243  1.00  0.00     0.131 A 
ATOM     79  C   UNL A   1      48.454  28.858  29.299  1.00  0.00     0.055 A 
ATOM     80  C   UNL A   1      48.265  29.538  27.021  1.00  0.00     0.041 A 
ATOM     81  F   UNL A   1      46.224  30.499  26.296  1.00  0.00    -0.206 F 
ATOM     82  C   UNL A   1      49.072  29.386  28.171  1.00  0.00     0.022 A 
BRANCH  79  83
ATOM     83  S   UNL A   1      49.423  28.038  30.589  1.00  0.00     0.124 S 
ATOM     84  O   UNL A   1      48.479  27.354  31.580  1.00  0.00    -0.237 OA
ATOM     85  O   UNL A   1      50.339  26.990  29.950  1.00  0.00    -0.237 OA
ATOM     86  O   UNL A   1      50.372  29.197  31.413  1.00  0.00    -0.744 OA
ENDBRANCH  79  83
ENDBRANCH  52  76
BRANCH  64  87
ATOM     87  C   UNL A   1      43.202  35.323  30.954  1.00  0.00     0.023 A 
ATOM     88  C   UNL A   1      43.315  36.397  30.066  1.00  0.00     0.031 A 
ATOM     89  C   UNL A   1      43.487  35.471  32.230  1.00  0.00     0.131 A 
ATOM     90  C   UNL A   1      43.940  37.499  30.418  1.00  0.00     0.055 A 
ATOM     91  C   UNL A   1      43.908  36.724  32.673  1.00  0.00     0.041 A 
ATOM     92  F   UNL A   1      43.378  34.451  33.077  1.00  0.00    -0.206 F 
ATOM     93  C   UNL A   1      44.479  37.573  31.698  1.00  0.00     0.022 A 
BRANCH  90  94
ATOM     94  S   UNL A   1      44.097  38.887  29.264  1.00  0.00     0.124 S 
ATOM     95  O   UNL A   1      42.799  39.697  29.261  1.00  0.00    -0.237 OA
ATOM     96  O   UNL A   1      45.257  39.785  29.702  1.00  0.00    -0.237 OA
ATOM     97  O   UNL A   1      44.401  38.289  27.692  1.00  0.00    -0.744 OA
ENDBRANCH  90  94
ENDBRANCH  64  87
ENDBRANCH  38  39
ENDBRANCH  31  33
ENDBRANCH  30  31
ENDBRANCH  29  30
ENDBRANCH   1  29
TORSDOF 19
ENDMDL
MODEL 3
REMARK VINA RESULT:     -11.8      4.367      8.052
REMARK SMILES Cc1cc(S(F)(F)(F)(F)F)cc2c1O[C@H](C(F)(F)F)C(C(=O)OCCOCCOC(=O)c1ccc(-c3c4nc(c(-c5cc(S(=O)(=O)[O-])ccc5F)c5ccc([nH]5)c(-c5cc(S(=O)(=O)[O-])ccc5F)c5nc(c(-c6cc(S(=O)(=O)[O-])ccc6F)c6ccc3[nH]6)C=C5)C=C4)cc1)=C2
REMARK SMILES IDX 27 1 26 2 25 3 24 4 23 5 21 6 22 7 20 8 1 9 2 10 3 11 13 12
REMARK SMILES IDX 4 13 12 14 14 15 11 16 95 17 15 18 5 19 6 20 7 21 8 22 9 23
REMARK SMILES IDX 10 24 16 25 17 26 18 27 19 28 28 29 29 30 30 31 31 32 32 33
REMARK SMILES IDX 33 34 94 35 34 36 93 37 35 38 36 39 37 40 87 41 38 42 92 43
REMARK SMILES IDX 86 44 88 45 39 46 91 47 85 48 84 49 40 51 72 52 52 53 71 54
REMARK SMILES IDX 53 55 56 56 70 57 89 58 54 59 55 60 69 62 90 63 57 64 41 65
REMARK SMILES IDX 42 66 50 67 43 68 49 69 51 70 48 71 44 72 45 73 46 74 47 75
REMARK SMILES IDX 73 76 74 77 82 78 75 79 81 80 83 81 80 82 76 83 77 84 78 85
REMARK SMILES IDX 79 86 58 87 59 88 67 89 60 90 66 91 68 92 65 93 61 94 62 95
REMARK SMILES IDX 63 96 64 97
REMARK H PARENT 88 50 56 61
REMARK Flexibility Score: inf
ROOT
ATOM      1  C   UNL A   1      35.115  20.509  25.045  1.00  0.00     0.202 C 
ENDROOT
BRANCH   1   2
ATOM      2  O   UNL A   1      34.212  20.989  24.060  1.00  0.00    -0.374 OA
BRANCH   2   3
ATOM      3  C   UNL A   1      32.978  21.328  24.674  1.00  0.00     0.202 C 
BRANCH   3   4
ATOM      4  C   UNL A   1      32.486  22.657  24.125  1.00  0.00     0.261 C 
BRANCH   4   5
ATOM      5  O   UNL A   1      31.244  22.989  24.729  1.00  0.00    -0.460 OA
BRANCH   5   6
ATOM      6  C   UNL A   1      31.212  23.847  25.860  1.00  0.00     0.338 C 
ATOM      7  O   UNL A   1      31.146  23.355  27.029  1.00  0.00    -0.246 OA
BRANCH   6   8
ATOM      8  C   UNL A   1      31.258  25.355  25.670  1.00  0.00     0.087 C 
ATOM      9  C   UNL A   1      32.216  30.423  26.087  1.00  0.00     0.048 C 
ATOM     10  C   UNL A   1      31.413  29.507  25.178  1.00  0.00    -0.007 A 
ATOM     11  C   UNL A   1      30.575  30.093  24.254  1.00  0.00     0.031 A 
ATOM     12  C   UNL A   1      31.376  28.125  25.355  1.00  0.00     0.130 A 
ATOM     13  C   UNL A   1      29.694  29.324  23.506  1.00  0.00     0.108 A 
ATOM     14  C   UNL A   1      30.482  27.344  24.588  1.00  0.00     0.019 A 
ATOM     15  O   UNL A   1      32.242  27.441  26.323  1.00  0.00    -0.475 OA
ATOM     16  C   UNL A   1      29.645  27.966  23.659  1.00  0.00     0.036 A 
ATOM     17  C   UNL A   1      30.463  25.896  24.795  1.00  0.00     0.027 C 
ATOM     18  C   UNL A   1      32.150  26.099  26.441  1.00  0.00     0.316 C 
BRANCH  13  19
ATOM     19  S   UNL A   1      28.597  30.127  22.312  1.00  0.00     0.310 S 
ATOM     20  F   UNL A   1      29.132  31.571  22.696  1.00  0.00    -0.094 F 
ATOM     21  F   UNL A   1      27.525  30.297  23.453  1.00  0.00    -0.094 F 
ATOM     22  F   UNL A   1      27.655  30.817  21.285  1.00  0.00    -0.094 F 
ATOM     23  F   UNL A   1      29.736  30.075  21.219  1.00  0.00    -0.094 F 
ATOM     24  F   UNL A   1      29.606  29.528  23.371  1.00  0.00    -0.094 F 
ENDBRANCH  13  19
BRANCH  18  25
ATOM     25  C   UNL A   1      33.498  25.636  25.914  1.00  0.00     0.430 C 
ATOM     26  F   UNL A   1      33.844  24.502  26.515  1.00  0.00    -0.167 F 
ATOM     27  F   UNL A   1      33.415  25.436  24.601  1.00  0.00    -0.167 F 
ATOM     28  F   UNL A   1      34.415  26.567  26.163  1.00  0.00    -0.167 F 
ENDBRANCH  18  25
ENDBRANCH   6   8
ENDBRANCH   5   6
ENDBRANCH   4   5
ENDBRANCH   3   4
ENDBRANCH   2   3
ENDBRANCH   1   2
BRANCH   1  29
ATOM     29  C   UNL A   1      36.521  20.989  24.723  1.00  0.00     0.261 C 
BRANCH  29  30
ATOM     30  O   UNL A   1      37.127  21.501  25.900  1.00  0.00    -0.460 OA
BRANCH  30  31
ATOM     31  C   UNL A   1      38.542  21.493  26.031  1.00  0.00     0.338 C 
ATOM     32  O   UNL A   1      39.198  20.437  25.767  1.00  0.00    -0.246 OA
BRANCH  31  33
ATOM     33  C   UNL A   1      39.270  22.746  26.488  1.00  0.00     0.060 A 
ATOM     34  C   UNL A   1      38.811  23.987  26.059  1.00  0.00     0.016 A 
ATOM     35  C   UNL A   1      40.325  22.707  27.271  1.00  0.00     0.016 A 
ATOM     36  C   UNL A   1      39.158  25.099  26.859  1.00  0.00     0.010 A 
ATOM     37  C   UNL A   1      40.976  23.884  27.656  1.00  0.00     0.010 A 
ATOM     38  C   UNL A   1      40.414  25.059  27.461  1.00  0.00    -0.014 A 
BRANCH  38  39
ATOM     39  C   UNL A   1      41.118  26.338  27.882  1.00  0.00     0.031 A 
ATOM     40  C   UNL A   1      40.330  27.284  28.540  1.00  0.00     0.074 A 
ATOM     41  C   UNL A   1      42.451  26.530  27.561  1.00  0.00     0.049 A 
ATOM     42  N   UNL A   1      40.705  28.481  28.993  1.00  0.00    -0.248 NA
ATOM     43  C   UNL A   1      38.906  27.097  28.852  1.00  0.00     0.031 C 
ATOM     44  C   UNL A   1      43.255  25.577  26.905  1.00  0.00     0.029 A 
ATOM     45  N   UNL A   1      43.229  27.640  27.805  1.00  0.00    -0.354 N 
ATOM     46  C   UNL A   1      39.677  29.092  29.585  1.00  0.00     0.074 A 
ATOM     47  C   UNL A   1      38.502  28.214  29.497  1.00  0.00     0.031 C 
ATOM     48  C   UNL A   1      44.495  26.109  26.746  1.00  0.00     0.029 A 
ATOM     49  C   UNL A   1      44.487  27.404  27.301  1.00  0.00     0.049 A 
ATOM     50  H   UNL A   1      42.934  28.461  28.262  1.00  0.00     0.167 HD
ATOM     51  C   UNL A   1      39.672  30.348  30.196  1.00  0.00     0.034 A 
ATOM     52  C   UNL A   1      45.580  28.256  27.311  1.00  0.00     0.034 A 
ATOM     53  C   UNL A   1      40.777  31.182  30.245  1.00  0.00     0.049 A 
ATOM     54  C   UNL A   1      45.559  29.536  27.871  1.00  0.00     0.074 A 
ATOM     55  C   UNL A   1      40.792  32.448  30.864  1.00  0.00     0.029 A 
ATOM     56  N   UNL A   1      42.029  30.956  29.718  1.00  0.00    -0.354 N 
ATOM     57  N   UNL A   1      44.543  30.130  28.497  1.00  0.00    -0.248 NA
ATOM     58  C   UNL A   1      46.701  30.460  27.860  1.00  0.00     0.031 C 
ATOM     59  C   UNL A   1      42.033  32.980  30.704  1.00  0.00     0.029 A 
ATOM     60  C   UNL A   1      42.813  32.057  29.982  1.00  0.00     0.049 A 
ATOM     61  H   UNL A   1      42.315  30.146  29.236  1.00  0.00     0.167 HD
ATOM     62  C   UNL A   1      44.907  31.346  28.913  1.00  0.00     0.074 A 
ATOM     63  C   UNL A   1      46.298  31.578  28.503  1.00  0.00     0.031 C 
ATOM     64  C   UNL A   1      44.135  32.267  29.624  1.00  0.00     0.034 A 
BRANCH  51  65
ATOM     65  C   UNL A   1      38.383  30.825  30.845  1.00  0.00     0.023 A 
ATOM     66  C   UNL A   1      37.418  31.487  30.078  1.00  0.00     0.031 A 
ATOM     67  C   UNL A   1      38.177  30.582  32.121  1.00  0.00     0.131 A 
ATOM     68  C   UNL A   1      36.406  32.102  30.652  1.00  0.00     0.055 A 
ATOM     69  C   UNL A   1      36.975  31.003  32.690  1.00  0.00     0.041 A 
ATOM     70  F   UNL A   1      39.091  29.949  32.851  1.00  0.00    -0.206 F 
ATOM     71  C   UNL A   1      36.314  32.069  32.039  1.00  0.00     0.022 A 
BRANCH  68  72
ATOM     72  S   UNL A   1      35.164  32.969  29.661  1.00  0.00     0.124 S 
ATOM     73  O   UNL A   1      34.026  33.441  30.569  1.00  0.00    -0.237 OA
ATOM     74  O   UNL A   1      35.809  34.177  28.979  1.00  0.00    -0.237 OA
ATOM     75  O   UNL A   1      34.542  31.909  28.472  1.00  0.00    -0.744 OA
ENDBRANCH  68  72
ENDBRANCH  51  65
BRANCH  52  76
ATOM     76  C   UNL A   1      46.874  27.771  26.677  1.00  0.00     0.023 A 
ATOM     77  C   UNL A   1      47.078  27.922  25.301  1.00  0.00     0.031 A 
ATOM     78  C   UNL A   1      47.779  27.186  27.431  1.00  0.00     0.131 A 
ATOM     79  C   UNL A   1      48.042  27.271  24.687  1.00  0.00     0.055 A 
ATOM     80  C   UNL A   1      48.944  26.717  26.825  1.00  0.00     0.041 A 
ATOM     81  F   UNL A   1      47.589  27.045  28.740  1.00  0.00    -0.206 F 
ATOM     82  C   UNL A   1      48.859  26.437  25.442  1.00  0.00     0.022 A 
BRANCH  79  83
ATOM     83  S   UNL A   1      48.298  27.456  22.906  1.00  0.00     0.124 S 
ATOM     84  O   UNL A   1      48.348  26.074  22.250  1.00  0.00    -0.237 OA
ATOM     85  O   UNL A   1      47.144  28.264  22.305  1.00  0.00    -0.237 OA
ATOM     86  O   UNL A   1      49.773  28.274  22.623  1.00  0.00    -0.744 OA
ENDBRANCH  79  83
ENDBRANCH  52  76
BRANCH  64  87
ATOM     87  C   UNL A   1      44.785  33.582  30.026  1.00  0.00     0.023 A 
ATOM     88  C   UNL A   1      44.704  34.687  29.172  1.00  0.00     0.031 A 
ATOM     89  C   UNL A   1      45.424  33.662  31.173  1.00  0.00     0.131 A 
ATOM     90  C   UNL A   1      45.463  35.743  29.366  1.00  0.00     0.055 A 
ATOM     91  C   UNL A   1      46.021  34.874  31.515  1.00  0.00     0.041 A 
ATOM     92  F   UNL A   1      45.499  32.612  31.988  1.00  0.00    -0.206 F 
ATOM     93  C   UNL A   1      46.342  35.737  30.444  1.00  0.00     0.022 A 
BRANCH  90  94
ATOM     94  S   UNL A   1      45.368  37.170  28.254  1.00  0.00     0.124 S 
ATOM     95  O   UNL A   1      45.970  36.800  26.897  1.00  0.00    -0.237 OA
ATOM     96  O   UNL A   1      43.904  37.576  28.069  1.00  0.00    -0.237 OA
ATOM     97  O   UNL A   1      46.240  38.477  28.929  1.00  0.00    -0.744 OA
ENDBRANCH  90  94
ENDBRANCH  64  87
ENDBRANCH  38  39
ENDBRANCH  31  33
ENDBRANCH  30  31
ENDBRANCH  29  30
ENDBRANCH   1  29
TORSDOF 19
ENDMDL
