MODEL 1
REMARK VINA RESULT:     -11.3      0.000      0.000
REMARK SMILES O=C(Cc1ccccc1-c1ccn(C(F)F)c(=O)c1)OCCOCCOC(=O)c1ccc(-c2c3nc(c(-c4cc(S(=O)(=O)[O-])ccc4F)c4ccc([nH]4)c(-c4cc(S(=O)(=O)[O-])ccc4F)c4nc(c(-c5cc(S(=O)(=O)[O-])ccc5F)c5ccc2[nH]5)C=C4)C=C3)cc1
REMARK SMILES IDX 23 1 22 2 21 3 20 4 2 5 1 6 3 7 4 8 5 9 9 10 6 11 8 12 7 13
REMARK SMILES IDX 10 14 11 15 19 16 12 17 17 18 13 19 18 20 14 21 15 22 16 23
REMARK SMILES IDX 24 24 25 25 26 26 27 27 28 28 29 29 30 30 91 31 31 32 90 33
REMARK SMILES IDX 32 34 33 35 34 36 84 37 35 38 89 39 83 40 85 41 36 42 88 43
REMARK SMILES IDX 82 44 81 45 37 47 69 48 49 49 68 50 50 51 53 52 67 53 86 54
REMARK SMILES IDX 51 55 52 56 66 58 87 59 54 60 38 61 39 62 47 63 40 64 46 65
REMARK SMILES IDX 48 66 45 67 41 68 42 69 43 70 44 71 70 72 71 73 79 74 72 75
REMARK SMILES IDX 78 76 80 77 77 78 73 79 74 80 75 81 76 82 55 83 56 84 64 85
REMARK SMILES IDX 57 86 63 87 65 88 62 89 58 90 59 91 60 92 61 93
REMARK H PARENT 85 46 53 57
REMARK Flexibility Score: inf
ROOT
ATOM      1  O   UNL A   1      36.864  21.482  25.069  1.00  0.00    -0.374 OA
ENDROOT
BRANCH   1   2
ATOM      2  C   UNL A   1      36.957  22.228  23.863  1.00  0.00     0.202 C 
BRANCH   2   3
ATOM      3  C   UNL A   1      35.960  23.364  23.658  1.00  0.00     0.261 C 
BRANCH   3   4
ATOM      4  O   UNL A   1      35.057  23.195  22.555  1.00  0.00    -0.463 OA
BRANCH   4   5
ATOM      5  C   UNL A   1      33.789  23.664  22.516  1.00  0.00     0.310 C 
ATOM      6  O   UNL A   1      33.557  24.758  22.000  1.00  0.00    -0.252 OA
BRANCH   5   7
ATOM      7  C   UNL A   1      32.685  22.906  23.210  1.00  0.00     0.158 C 
BRANCH   7   8
ATOM      8  C   UNL A   1      32.971  22.245  24.542  1.00  0.00    -0.029 A 
ATOM      9  C   UNL A   1      33.188  20.855  24.610  1.00  0.00     0.005 A 
ATOM     10  C   UNL A   1      33.048  23.018  25.730  1.00  0.00    -0.014 A 
ATOM     11  C   UNL A   1      33.579  20.250  25.801  1.00  0.00     0.000 A 
ATOM     12  C   UNL A   1      33.402  22.374  26.930  1.00  0.00     0.009 A 
ATOM     13  C   UNL A   1      33.689  21.008  26.960  1.00  0.00     0.001 A 
BRANCH  10  14
ATOM     14  C   UNL A   1      32.788  24.485  25.751  1.00  0.00    -0.011 A 
ATOM     15  C   UNL A   1      33.848  25.476  25.850  1.00  0.00     0.027 A 
ATOM     16  C   UNL A   1      31.513  24.921  25.718  1.00  0.00     0.080 A 
ATOM     17  C   UNL A   1      33.564  26.773  26.020  1.00  0.00     0.095 A 
ATOM     18  C   UNL A   1      31.186  26.373  25.804  1.00  0.00     0.255 A 
ATOM     19  N   UNL A   1      32.258  27.221  26.028  1.00  0.00    -0.258 N 
ATOM     20  O   UNL A   1      30.016  26.723  25.679  1.00  0.00    -0.269 OA
BRANCH  19  21
ATOM     21  C   UNL A   1      31.963  28.618  26.217  1.00  0.00     0.451 C 
ATOM     22  F   UNL A   1      31.216  29.104  25.195  1.00  0.00    -0.185 F 
ATOM     23  F   UNL A   1      31.285  28.830  27.372  1.00  0.00    -0.185 F 
ENDBRANCH  19  21
ENDBRANCH  10  14
ENDBRANCH   7   8
ENDBRANCH   5   7
ENDBRANCH   4   5
ENDBRANCH   3   4
ENDBRANCH   2   3
ENDBRANCH   1   2
BRANCH   1  24
ATOM     24  C   UNL A   1      37.096  20.072  24.991  1.00  0.00     0.202 C 
BRANCH  24  25
ATOM     25  C   UNL A   1      38.478  19.553  25.406  1.00  0.00     0.261 C 
BRANCH  25  26
ATOM     26  O   UNL A   1      39.445  20.614  25.483  1.00  0.00    -0.460 OA
BRANCH  26  27
ATOM     27  C   UNL A   1      40.268  20.565  26.558  1.00  0.00     0.338 C 
ATOM     28  O   UNL A   1      40.909  19.600  26.949  1.00  0.00    -0.246 OA
BRANCH  27  29
ATOM     29  C   UNL A   1      40.484  21.933  27.062  1.00  0.00     0.060 A 
ATOM     30  C   UNL A   1      39.717  22.969  26.509  1.00  0.00     0.016 A 
ATOM     31  C   UNL A   1      41.453  22.202  28.030  1.00  0.00     0.016 A 
ATOM     32  C   UNL A   1      39.957  24.288  26.880  1.00  0.00     0.010 A 
ATOM     33  C   UNL A   1      41.701  23.525  28.392  1.00  0.00     0.010 A 
ATOM     34  C   UNL A   1      40.984  24.575  27.787  1.00  0.00    -0.014 A 
BRANCH  34  35
ATOM     35  C   UNL A   1      41.448  25.970  27.953  1.00  0.00     0.031 A 
ATOM     36  C   UNL A   1      42.787  26.344  27.378  1.00  0.00     0.074 A 
ATOM     37  C   UNL A   1      40.691  26.880  28.588  1.00  0.00     0.049 A 
ATOM     38  N   UNL A   1      43.451  27.464  27.476  1.00  0.00    -0.248 NA
ATOM     39  C   UNL A   1      43.473  25.303  26.595  1.00  0.00     0.031 C 
ATOM     40  C   UNL A   1      39.356  26.635  29.131  1.00  0.00     0.029 A 
ATOM     41  N   UNL A   1      40.944  28.192  28.894  1.00  0.00    -0.354 N 
ATOM     42  C   UNL A   1      44.638  27.260  26.780  1.00  0.00     0.074 A 
ATOM     43  C   UNL A   1      44.618  25.897  26.297  1.00  0.00     0.031 C 
ATOM     44  C   UNL A   1      38.913  27.759  29.719  1.00  0.00     0.029 A 
ATOM     45  C   UNL A   1      39.950  28.785  29.636  1.00  0.00     0.049 A 
ATOM     46  H   UNL A   1      41.760  28.665  28.610  1.00  0.00     0.167 HD
ATOM     47  C   UNL A   1      45.648  28.137  26.562  1.00  0.00     0.034 A 
ATOM     48  C   UNL A   1      39.905  30.004  30.210  1.00  0.00     0.034 A 
ATOM     49  C   UNL A   1      45.647  29.489  27.064  1.00  0.00     0.049 A 
ATOM     50  C   UNL A   1      41.083  30.934  30.030  1.00  0.00     0.074 A 
ATOM     51  C   UNL A   1      46.608  30.470  26.898  1.00  0.00     0.029 A 
ATOM     52  N   UNL A   1      44.640  30.046  27.843  1.00  0.00    -0.354 N 
ATOM     53  N   UNL A   1      42.202  30.735  29.371  1.00  0.00    -0.248 NA
ATOM     54  C   UNL A   1      40.989  32.255  30.664  1.00  0.00     0.031 C 
ATOM     55  C   UNL A   1      46.221  31.589  27.642  1.00  0.00     0.029 A 
ATOM     56  C   UNL A   1      44.973  31.344  28.195  1.00  0.00     0.049 A 
ATOM     57  H   UNL A   1      43.811  29.585  28.106  1.00  0.00     0.167 HD
ATOM     58  C   UNL A   1      42.925  31.921  29.478  1.00  0.00     0.074 A 
ATOM     59  C   UNL A   1      42.110  32.831  30.258  1.00  0.00     0.031 C 
ATOM     60  C   UNL A   1      44.147  32.235  28.975  1.00  0.00     0.034 A 
BRANCH  47  61
ATOM     61  C   UNL A   1      46.852  27.638  25.799  1.00  0.00     0.023 A 
ATOM     62  C   UNL A   1      47.084  27.993  24.458  1.00  0.00     0.031 A 
ATOM     63  C   UNL A   1      47.772  26.773  26.418  1.00  0.00     0.131 A 
ATOM     64  C   UNL A   1      48.167  27.433  23.763  1.00  0.00     0.055 A 
ATOM     65  C   UNL A   1      48.894  26.285  25.745  1.00  0.00     0.041 A 
ATOM     66  F   UNL A   1      47.590  26.376  27.687  1.00  0.00    -0.206 F 
ATOM     67  C   UNL A   1      49.090  26.604  24.405  1.00  0.00     0.022 A 
BRANCH  64  68
ATOM     68  S   UNL A   1      48.271  27.688  21.970  1.00  0.00     0.124 S 
ATOM     69  O   UNL A   1      49.397  28.614  21.868  1.00  0.00    -0.237 OA
ATOM     70  O   UNL A   1      48.507  26.339  21.472  1.00  0.00    -0.237 OA
ATOM     71  O   UNL A   1      46.970  28.261  21.630  1.00  0.00    -0.744 OA
ENDBRANCH  64  68
ENDBRANCH  47  61
BRANCH  48  72
ATOM     72  C   UNL A   1      38.734  30.410  31.040  1.00  0.00     0.023 A 
ATOM     73  C   UNL A   1      37.636  31.074  30.472  1.00  0.00     0.031 A 
ATOM     74  C   UNL A   1      38.721  30.189  32.430  1.00  0.00     0.131 A 
ATOM     75  C   UNL A   1      36.598  31.541  31.293  1.00  0.00     0.055 A 
ATOM     76  C   UNL A   1      37.656  30.600  33.234  1.00  0.00     0.041 A 
ATOM     77  F   UNL A   1      39.746  29.561  33.028  1.00  0.00    -0.206 F 
ATOM     78  C   UNL A   1      36.593  31.295  32.668  1.00  0.00     0.022 A 
BRANCH  75  79
ATOM     79  S   UNL A   1      35.302  32.570  30.550  1.00  0.00     0.124 S 
ATOM     80  O   UNL A   1      34.280  32.555  31.590  1.00  0.00    -0.237 OA
ATOM     81  O   UNL A   1      35.999  33.836  30.350  1.00  0.00    -0.237 OA
ATOM     82  O   UNL A   1      34.958  31.850  29.325  1.00  0.00    -0.744 OA
ENDBRANCH  75  79
ENDBRANCH  48  72
BRANCH  60  83
ATOM     83  C   UNL A   1      44.645  33.643  29.200  1.00  0.00     0.023 A 
ATOM     84  C   UNL A   1      44.185  34.729  28.434  1.00  0.00     0.031 A 
ATOM     85  C   UNL A   1      45.600  33.899  30.201  1.00  0.00     0.131 A 
ATOM     86  C   UNL A   1      44.723  36.008  28.643  1.00  0.00     0.055 A 
ATOM     87  C   UNL A   1      46.078  35.185  30.452  1.00  0.00     0.041 A 
ATOM     88  F   UNL A   1      46.079  32.901  30.961  1.00  0.00    -0.206 F 
ATOM     89  C   UNL A   1      45.651  36.246  29.660  1.00  0.00     0.022 A 
BRANCH  86  90
ATOM     90  S   UNL A   1      44.271  37.340  27.498  1.00  0.00     0.124 S 
ATOM     91  O   UNL A   1      43.340  36.664  26.600  1.00  0.00    -0.237 OA
ATOM     92  O   UNL A   1      43.686  38.335  28.392  1.00  0.00    -0.237 OA
ATOM     93  O   UNL A   1      45.546  37.722  26.895  1.00  0.00    -0.744 OA
ENDBRANCH  86  90
ENDBRANCH  60  83
ENDBRANCH  34  35
ENDBRANCH  27  29
ENDBRANCH  26  27
ENDBRANCH  25  26
ENDBRANCH  24  25
ENDBRANCH   1  24
TORSDOF 20
ENDMDL
MODEL 2
REMARK VINA RESULT:     -11.3      4.719      7.346
REMARK SMILES O=C(Cc1ccccc1-c1ccn(C(F)F)c(=O)c1)OCCOCCOC(=O)c1ccc(-c2c3nc(c(-c4cc(S(=O)(=O)[O-])ccc4F)c4ccc([nH]4)c(-c4cc(S(=O)(=O)[O-])ccc4F)c4nc(c(-c5cc(S(=O)(=O)[O-])ccc5F)c5ccc2[nH]5)C=C4)C=C3)cc1
REMARK SMILES IDX 23 1 22 2 21 3 20 4 2 5 1 6 3 7 4 8 5 9 9 10 6 11 8 12 7 13
REMARK SMILES IDX 10 14 11 15 19 16 12 17 17 18 13 19 18 20 14 21 15 22 16 23
REMARK SMILES IDX 24 24 25 25 26 26 27 27 28 28 29 29 30 30 91 31 31 32 90 33
REMARK SMILES IDX 32 34 33 35 34 36 84 37 35 38 89 39 83 40 85 41 36 42 88 43
REMARK SMILES IDX 82 44 81 45 37 47 69 48 49 49 68 50 50 51 53 52 67 53 86 54
REMARK SMILES IDX 51 55 52 56 66 58 87 59 54 60 38 61 39 62 47 63 40 64 46 65
REMARK SMILES IDX 48 66 45 67 41 68 42 69 43 70 44 71 70 72 71 73 79 74 72 75
REMARK SMILES IDX 78 76 80 77 77 78 73 79 74 80 75 81 76 82 55 83 56 84 64 85
REMARK SMILES IDX 57 86 63 87 65 88 62 89 58 90 59 91 60 92 61 93
REMARK H PARENT 85 46 53 57
REMARK Flexibility Score: inf
ROOT
ATOM      1  O   UNL A   1      31.174  28.381  24.496  1.00  0.00    -0.374 OA
ENDROOT
BRANCH   1   2
ATOM      2  C   UNL A   1      30.881  26.997  24.357  1.00  0.00     0.202 C 
BRANCH   2   3
ATOM      3  C   UNL A   1      31.437  26.279  23.132  1.00  0.00     0.261 C 
BRANCH   3   4
ATOM      4  O   UNL A   1      32.756  25.735  23.288  1.00  0.00    -0.463 OA
BRANCH   4   5
ATOM      5  C   UNL A   1      33.449  25.098  22.315  1.00  0.00     0.310 C 
ATOM      6  O   UNL A   1      33.272  25.407  21.136  1.00  0.00    -0.252 OA
BRANCH   5   7
ATOM      7  C   UNL A   1      34.340  23.933  22.666  1.00  0.00     0.158 C 
BRANCH   7   8
ATOM      8  C   UNL A   1      33.709  22.644  23.149  1.00  0.00    -0.029 A 
ATOM      9  C   UNL A   1      32.553  22.143  22.520  1.00  0.00     0.005 A 
ATOM     10  C   UNL A   1      34.286  21.914  24.222  1.00  0.00    -0.014 A 
ATOM     11  C   UNL A   1      32.034  20.898  22.864  1.00  0.00     0.000 A 
ATOM     12  C   UNL A   1      33.716  20.679  24.579  1.00  0.00     0.009 A 
ATOM     13  C   UNL A   1      32.616  20.164  23.890  1.00  0.00     0.001 A 
BRANCH  10  14
ATOM     14  C   UNL A   1      35.482  22.397  24.968  1.00  0.00    -0.011 A 
ATOM     15  C   UNL A   1      35.484  23.619  25.756  1.00  0.00     0.027 A 
ATOM     16  C   UNL A   1      36.630  21.697  24.879  1.00  0.00     0.080 A 
ATOM     17  C   UNL A   1      36.618  24.098  26.282  1.00  0.00     0.095 A 
ATOM     18  C   UNL A   1      37.879  22.166  25.547  1.00  0.00     0.255 A 
ATOM     19  N   UNL A   1      37.807  23.405  26.161  1.00  0.00    -0.258 N 
ATOM     20  O   UNL A   1      38.873  21.447  25.510  1.00  0.00    -0.269 OA
BRANCH  19  21
ATOM     21  C   UNL A   1      39.023  23.930  26.727  1.00  0.00     0.451 C 
ATOM     22  F   UNL A   1      39.504  24.959  25.987  1.00  0.00    -0.185 F 
ATOM     23  F   UNL A   1      38.828  24.376  27.992  1.00  0.00    -0.185 F 
ENDBRANCH  19  21
ENDBRANCH  10  14
ENDBRANCH   7   8
ENDBRANCH   5   7
ENDBRANCH   4   5
ENDBRANCH   3   4
ENDBRANCH   2   3
ENDBRANCH   1   2
BRANCH   1  24
ATOM     24  C   UNL A   1      31.888  28.788  25.668  1.00  0.00     0.202 C 
BRANCH  24  25
ATOM     25  C   UNL A   1      31.833  30.269  26.058  1.00  0.00     0.261 C 
BRANCH  25  26
ATOM     26  O   UNL A   1      32.500  30.517  27.308  1.00  0.00    -0.460 OA
BRANCH  26  27
ATOM     27  C   UNL A   1      33.203  31.673  27.365  1.00  0.00     0.338 C 
ATOM     28  O   UNL A   1      32.756  32.809  27.301  1.00  0.00    -0.246 OA
BRANCH  27  29
ATOM     29  C   UNL A   1      34.588  31.375  27.774  1.00  0.00     0.060 A 
ATOM     30  C   UNL A   1      34.919  30.042  28.056  1.00  0.00     0.016 A 
ATOM     31  C   UNL A   1      35.533  32.391  27.918  1.00  0.00     0.016 A 
ATOM     32  C   UNL A   1      36.185  29.726  28.542  1.00  0.00     0.010 A 
ATOM     33  C   UNL A   1      36.797  32.076  28.417  1.00  0.00     0.010 A 
ATOM     34  C   UNL A   1      37.111  30.750  28.771  1.00  0.00    -0.014 A 
BRANCH  34  35
ATOM     35  C   UNL A   1      38.330  30.474  29.564  1.00  0.00     0.031 A 
ATOM     36  C   UNL A   1      39.356  29.539  28.985  1.00  0.00     0.074 A 
ATOM     37  C   UNL A   1      38.519  31.050  30.764  1.00  0.00     0.049 A 
ATOM     38  N   UNL A   1      40.448  29.068  29.521  1.00  0.00    -0.248 NA
ATOM     39  C   UNL A   1      39.105  29.066  27.613  1.00  0.00     0.031 C 
ATOM     40  C   UNL A   1      37.614  32.012  31.389  1.00  0.00     0.029 A 
ATOM     41  N   UNL A   1      39.532  30.898  31.674  1.00  0.00    -0.354 N 
ATOM     42  C   UNL A   1      41.009  28.231  28.561  1.00  0.00     0.074 A 
ATOM     43  C   UNL A   1      40.116  28.233  27.424  1.00  0.00     0.031 C 
ATOM     44  C   UNL A   1      38.106  32.354  32.592  1.00  0.00     0.029 A 
ATOM     45  C   UNL A   1      39.333  31.599  32.840  1.00  0.00     0.049 A 
ATOM     46  H   UNL A   1      40.327  30.340  31.510  1.00  0.00     0.167 HD
ATOM     47  C   UNL A   1      42.168  27.532  28.626  1.00  0.00     0.034 A 
ATOM     48  C   UNL A   1      40.044  31.600  33.985  1.00  0.00     0.034 A 
ATOM     49  C   UNL A   1      43.036  27.541  29.777  1.00  0.00     0.049 A 
ATOM     50  C   UNL A   1      41.285  30.741  34.068  1.00  0.00     0.074 A 
ATOM     51  C   UNL A   1      44.240  26.881  29.954  1.00  0.00     0.029 A 
ATOM     52  N   UNL A   1      42.786  28.234  30.955  1.00  0.00    -0.354 N 
ATOM     53  N   UNL A   1      41.809  29.953  33.156  1.00  0.00    -0.248 NA
ATOM     54  C   UNL A   1      42.034  30.777  35.330  1.00  0.00     0.031 C 
ATOM     55  C   UNL A   1      44.674  27.110  31.264  1.00  0.00     0.029 A 
ATOM     56  C   UNL A   1      43.793  27.989  31.875  1.00  0.00     0.049 A 
ATOM     57  H   UNL A   1      42.006  28.814  31.113  1.00  0.00     0.167 HD
ATOM     58  C   UNL A   1      42.972  29.433  33.723  1.00  0.00     0.074 A 
ATOM     59  C   UNL A   1      43.074  30.005  35.050  1.00  0.00     0.031 C 
ATOM     60  C   UNL A   1      43.876  28.568  33.196  1.00  0.00     0.034 A 
BRANCH  47  61
ATOM     61  C   UNL A   1      42.525  26.663  27.444  1.00  0.00     0.023 A 
ATOM     62  C   UNL A   1      42.374  25.264  27.475  1.00  0.00     0.031 A 
ATOM     63  C   UNL A   1      43.048  27.241  26.273  1.00  0.00     0.131 A 
ATOM     64  C   UNL A   1      42.803  24.490  26.386  1.00  0.00     0.055 A 
ATOM     65  C   UNL A   1      43.396  26.470  25.162  1.00  0.00     0.041 A 
ATOM     66  F   UNL A   1      43.243  28.566  26.193  1.00  0.00    -0.206 F 
ATOM     67  C   UNL A   1      43.287  25.084  25.219  1.00  0.00     0.022 A 
BRANCH  64  68
ATOM     68  S   UNL A   1      42.855  22.686  26.574  1.00  0.00     0.124 S 
ATOM     69  O   UNL A   1      42.041  22.490  27.771  1.00  0.00    -0.237 OA
ATOM     70  O   UNL A   1      42.271  22.222  25.321  1.00  0.00    -0.237 OA
ATOM     71  O   UNL A   1      44.278  22.400  26.743  1.00  0.00    -0.744 OA
ENDBRANCH  64  68
ENDBRANCH  47  61
BRANCH  48  72
ATOM     72  C   UNL A   1      39.591  32.399  35.160  1.00  0.00     0.023 A 
ATOM     73  C   UNL A   1      38.891  31.800  36.219  1.00  0.00     0.031 A 
ATOM     74  C   UNL A   1      39.800  33.789  35.214  1.00  0.00     0.131 A 
ATOM     75  C   UNL A   1      38.381  32.593  37.259  1.00  0.00     0.055 A 
ATOM     76  C   UNL A   1      39.345  34.565  36.282  1.00  0.00     0.041 A 
ATOM     77  F   UNL A   1      40.460  34.416  34.227  1.00  0.00    -0.206 F 
ATOM     78  C   UNL A   1      38.616  33.969  37.306  1.00  0.00     0.022 A 
BRANCH  75  79
ATOM     79  S   UNL A   1      37.312  31.812  38.499  1.00  0.00     0.124 S 
ATOM     80  O   UNL A   1      36.157  32.702  38.497  1.00  0.00    -0.237 OA
ATOM     81  O   UNL A   1      37.104  30.486  37.927  1.00  0.00    -0.237 OA
ATOM     82  O   UNL A   1      38.123  31.843  39.714  1.00  0.00    -0.744 OA
ENDBRANCH  75  79
ENDBRANCH  48  72
BRANCH  60  83
ATOM     83  C   UNL A   1      45.088  28.240  34.035  1.00  0.00     0.023 A 
ATOM     84  C   UNL A   1      46.297  28.946  33.907  1.00  0.00     0.031 A 
ATOM     85  C   UNL A   1      45.028  27.199  34.980  1.00  0.00     0.131 A 
ATOM     86  C   UNL A   1      47.412  28.563  34.668  1.00  0.00     0.055 A 
ATOM     87  C   UNL A   1      46.118  26.871  35.784  1.00  0.00     0.041 A 
ATOM     88  F   UNL A   1      43.900  26.488  35.143  1.00  0.00    -0.206 F 
ATOM     89  C   UNL A   1      47.325  27.544  35.620  1.00  0.00     0.022 A 
BRANCH  86  90
ATOM     90  S   UNL A   1      49.012  29.347  34.324  1.00  0.00     0.124 S 
ATOM     91  O   UNL A   1      49.768  29.033  35.532  1.00  0.00    -0.237 OA
ATOM     92  O   UNL A   1      49.440  28.663  33.108  1.00  0.00    -0.237 OA
ATOM     93  O   UNL A   1      48.673  30.758  34.154  1.00  0.00    -0.744 OA
ENDBRANCH  86  90
ENDBRANCH  60  83
ENDBRANCH  34  35
ENDBRANCH  27  29
ENDBRANCH  26  27
ENDBRANCH  25  26
ENDBRANCH  24  25
ENDBRANCH   1  24
TORSDOF 20
ENDMDL
MODEL 3
REMARK VINA RESULT:     -11.2      2.968      3.984
REMARK SMILES O=C(Cc1ccccc1-c1ccn(C(F)F)c(=O)c1)OCCOCCOC(=O)c1ccc(-c2c3nc(c(-c4cc(S(=O)(=O)[O-])ccc4F)c4ccc([nH]4)c(-c4cc(S(=O)(=O)[O-])ccc4F)c4nc(c(-c5cc(S(=O)(=O)[O-])ccc5F)c5ccc2[nH]5)C=C4)C=C3)cc1
REMARK SMILES IDX 23 1 22 2 21 3 20 4 2 5 1 6 3 7 4 8 5 9 9 10 6 11 8 12 7 13
REMARK SMILES IDX 10 14 11 15 19 16 12 17 17 18 13 19 18 20 14 21 15 22 16 23
REMARK SMILES IDX 24 24 25 25 26 26 27 27 28 28 29 29 30 30 91 31 31 32 90 33
REMARK SMILES IDX 32 34 33 35 34 36 84 37 35 38 89 39 83 40 85 41 36 42 88 43
REMARK SMILES IDX 82 44 81 45 37 47 69 48 49 49 68 50 50 51 53 52 67 53 86 54
REMARK SMILES IDX 51 55 52 56 66 58 87 59 54 60 38 61 39 62 47 63 40 64 46 65
REMARK SMILES IDX 48 66 45 67 41 68 42 69 43 70 44 71 70 72 71 73 79 74 72 75
REMARK SMILES IDX 78 76 80 77 77 78 73 79 74 80 75 81 76 82 55 83 56 84 64 85
REMARK SMILES IDX 57 86 63 87 65 88 62 89 58 90 59 91 60 92 61 93
REMARK H PARENT 85 46 53 57
REMARK Flexibility Score: inf
ROOT
ATOM      1  O   UNL A   1      36.277  22.512  26.202  1.00  0.00    -0.374 OA
ENDROOT
BRANCH   1   2
ATOM      2  C   UNL A   1      34.966  23.044  26.072  1.00  0.00     0.202 C 
BRANCH   2   3
ATOM      3  C   UNL A   1      34.084  23.056  27.316  1.00  0.00     0.261 C 
BRANCH   3   4
ATOM      4  O   UNL A   1      32.871  22.294  27.214  1.00  0.00    -0.463 OA
BRANCH   4   5
ATOM      5  C   UNL A   1      31.684  22.783  26.788  1.00  0.00     0.310 C 
ATOM      6  O   UNL A   1      31.014  23.499  27.534  1.00  0.00    -0.252 OA
BRANCH   5   7
ATOM      7  C   UNL A   1      31.129  22.355  25.452  1.00  0.00     0.158 C 
BRANCH   7   8
ATOM      8  C   UNL A   1      31.691  22.974  24.190  1.00  0.00    -0.029 A 
ATOM      9  C   UNL A   1      31.420  24.322  23.882  1.00  0.00     0.005 A 
ATOM     10  C   UNL A   1      32.514  22.216  23.317  1.00  0.00    -0.014 A 
ATOM     11  C   UNL A   1      32.030  24.944  22.797  1.00  0.00     0.000 A 
ATOM     12  C   UNL A   1      33.084  22.857  22.202  1.00  0.00     0.009 A 
ATOM     13  C   UNL A   1      32.865  24.214  21.959  1.00  0.00     0.001 A 
BRANCH  10  14
ATOM     14  C   UNL A   1      32.813  20.774  23.548  1.00  0.00    -0.011 A 
ATOM     15  C   UNL A   1      33.715  20.309  24.589  1.00  0.00     0.027 A 
ATOM     16  C   UNL A   1      32.258  19.856  22.733  1.00  0.00     0.080 A 
ATOM     17  C   UNL A   1      34.076  19.022  24.664  1.00  0.00     0.095 A 
ATOM     18  C   UNL A   1      32.571  18.404  22.870  1.00  0.00     0.255 A 
ATOM     19  N   UNL A   1      33.541  18.082  23.805  1.00  0.00    -0.258 N 
ATOM     20  O   UNL A   1      31.971  17.601  22.162  1.00  0.00    -0.269 OA
BRANCH  19  21
ATOM     21  C   UNL A   1      33.938  16.700  23.890  1.00  0.00     0.451 C 
ATOM     22  F   UNL A   1      32.895  15.911  24.246  1.00  0.00    -0.185 F 
ATOM     23  F   UNL A   1      34.422  16.250  22.706  1.00  0.00    -0.185 F 
ENDBRANCH  19  21
ENDBRANCH  10  14
ENDBRANCH   7   8
ENDBRANCH   5   7
ENDBRANCH   4   5
ENDBRANCH   3   4
ENDBRANCH   2   3
ENDBRANCH   1   2
BRANCH   1  24
ATOM     24  C   UNL A   1      36.875  21.941  25.033  1.00  0.00     0.202 C 
BRANCH  24  25
ATOM     25  C   UNL A   1      38.216  21.217  25.200  1.00  0.00     0.261 C 
BRANCH  25  26
ATOM     26  O   UNL A   1      38.732  21.349  26.535  1.00  0.00    -0.460 OA
BRANCH  26  27
ATOM     27  C   UNL A   1      40.078  21.475  26.622  1.00  0.00     0.338 C 
ATOM     28  O   UNL A   1      40.918  20.700  26.188  1.00  0.00    -0.246 OA
BRANCH  27  29
ATOM     29  C   UNL A   1      40.403  22.829  27.106  1.00  0.00     0.060 A 
ATOM     30  C   UNL A   1      39.739  23.916  26.520  1.00  0.00     0.016 A 
ATOM     31  C   UNL A   1      41.375  23.031  28.087  1.00  0.00     0.016 A 
ATOM     32  C   UNL A   1      40.086  25.217  26.873  1.00  0.00     0.010 A 
ATOM     33  C   UNL A   1      41.731  24.335  28.431  1.00  0.00     0.010 A 
ATOM     34  C   UNL A   1      41.118  25.431  27.793  1.00  0.00    -0.014 A 
BRANCH  34  35
ATOM     35  C   UNL A   1      41.699  26.783  27.944  1.00  0.00     0.031 A 
ATOM     36  C   UNL A   1      43.058  27.040  27.351  1.00  0.00     0.074 A 
ATOM     37  C   UNL A   1      41.028  27.758  28.582  1.00  0.00     0.049 A 
ATOM     38  N   UNL A   1      43.813  28.102  27.432  1.00  0.00    -0.248 NA
ATOM     39  C   UNL A   1      43.644  25.941  26.566  1.00  0.00     0.031 C 
ATOM     40  C   UNL A   1      39.685  27.628  29.142  1.00  0.00     0.029 A 
ATOM     41  N   UNL A   1      41.394  29.045  28.875  1.00  0.00    -0.354 N 
ATOM     42  C   UNL A   1      44.971  27.796  26.724  1.00  0.00     0.074 A 
ATOM     43  C   UNL A   1      44.831  26.436  26.251  1.00  0.00     0.031 C 
ATOM     44  C   UNL A   1      39.344  28.788  29.727  1.00  0.00     0.029 A 
ATOM     45  C   UNL A   1      40.462  29.724  29.624  1.00  0.00     0.049 A 
ATOM     46  H   UNL A   1      42.243  29.447  28.578  1.00  0.00     0.167 HD
ATOM     47  C   UNL A   1      46.047  28.584  26.487  1.00  0.00     0.034 A 
ATOM     48  C   UNL A   1      40.526  30.946  30.190  1.00  0.00     0.034 A 
ATOM     49  C   UNL A   1      46.165  29.934  26.979  1.00  0.00     0.049 A 
ATOM     50  C   UNL A   1      41.775  31.773  29.989  1.00  0.00     0.074 A 
ATOM     51  C   UNL A   1      47.202  30.831  26.794  1.00  0.00     0.029 A 
ATOM     52  N   UNL A   1      45.218  30.578  27.766  1.00  0.00    -0.354 N 
ATOM     53  N   UNL A   1      42.865  31.478  29.318  1.00  0.00    -0.248 NA
ATOM     54  C   UNL A   1      41.799  33.101  30.615  1.00  0.00     0.031 C 
ATOM     55  C   UNL A   1      46.919  31.983  27.535  1.00  0.00     0.029 A 
ATOM     56  C   UNL A   1      45.663  31.846  28.104  1.00  0.00     0.049 A 
ATOM     57  H   UNL A   1      44.357  30.190  28.043  1.00  0.00     0.167 HD
ATOM     58  C   UNL A   1      43.686  32.600  29.408  1.00  0.00     0.074 A 
ATOM     59  C   UNL A   1      42.960  33.579  30.191  1.00  0.00     0.031 C 
ATOM     60  C   UNL A   1      44.924  32.808  28.888  1.00  0.00     0.034 A 
BRANCH  47  61
ATOM     61  C   UNL A   1      47.196  27.982  25.713  1.00  0.00     0.023 A 
ATOM     62  C   UNL A   1      47.365  28.206  24.335  1.00  0.00     0.031 A 
ATOM     63  C   UNL A   1      48.126  27.149  26.362  1.00  0.00     0.131 A 
ATOM     64  C   UNL A   1      48.395  27.552  23.641  1.00  0.00     0.055 A 
ATOM     65  C   UNL A   1      49.197  26.568  25.681  1.00  0.00     0.041 A 
ATOM     66  F   UNL A   1      48.001  26.874  27.670  1.00  0.00    -0.206 F 
ATOM     67  C   UNL A   1      49.329  26.758  24.309  1.00  0.00     0.022 A 
BRANCH  64  68
ATOM     68  S   UNL A   1      48.410  27.641  21.829  1.00  0.00     0.124 S 
ATOM     69  O   UNL A   1      49.507  28.574  21.588  1.00  0.00    -0.237 OA
ATOM     70  O   UNL A   1      48.654  26.255  21.447  1.00  0.00    -0.237 OA
ATOM     71  O   UNL A   1      47.081  28.154  21.500  1.00  0.00    -0.744 OA
ENDBRANCH  64  68
ENDBRANCH  47  61
BRANCH  48  72
ATOM     72  C   UNL A   1      39.403  31.453  31.031  1.00  0.00     0.023 A 
ATOM     73  C   UNL A   1      39.461  31.392  32.432  1.00  0.00     0.031 A 
ATOM     74  C   UNL A   1      38.227  31.954  30.443  1.00  0.00     0.131 A 
ATOM     75  C   UNL A   1      38.347  31.775  33.196  1.00  0.00     0.055 A 
ATOM     76  C   UNL A   1      37.145  32.392  31.209  1.00  0.00     0.041 A 
ATOM     77  F   UNL A   1      38.115  32.032  29.107  1.00  0.00    -0.206 F 
ATOM     78  C   UNL A   1      37.196  32.288  32.596  1.00  0.00     0.022 A 
BRANCH  75  79
ATOM     79  S   UNL A   1      38.388  31.491  34.987  1.00  0.00     0.124 S 
ATOM     80  O   UNL A   1      39.650  32.120  35.358  1.00  0.00    -0.237 OA
ATOM     81  O   UNL A   1      37.176  32.173  35.428  1.00  0.00    -0.237 OA
ATOM     82  O   UNL A   1      38.358  30.034  35.102  1.00  0.00    -0.744 OA
ENDBRANCH  75  79
ENDBRANCH  48  72
BRANCH  60  83
ATOM     83  C   UNL A   1      45.540  34.171  29.097  1.00  0.00     0.023 A 
ATOM     84  C   UNL A   1      45.387  35.210  28.162  1.00  0.00     0.031 A 
ATOM     85  C   UNL A   1      46.295  34.430  30.256  1.00  0.00     0.131 A 
ATOM     86  C   UNL A   1      46.030  36.439  28.375  1.00  0.00     0.055 A 
ATOM     87  C   UNL A   1      46.871  35.677  30.495  1.00  0.00     0.041 A 
ATOM     88  F   UNL A   1      46.478  33.475  31.181  1.00  0.00    -0.206 F 
ATOM     89  C   UNL A   1      46.754  36.686  29.544  1.00  0.00     0.022 A 
BRANCH  86  90
ATOM     90  S   UNL A   1      45.994  37.680  27.052  1.00  0.00     0.124 S 
ATOM     91  O   UNL A   1      46.668  36.981  25.963  1.00  0.00    -0.237 OA
ATOM     92  O   UNL A   1      44.562  37.906  26.875  1.00  0.00    -0.237 OA
ATOM     93  O   UNL A   1      46.733  38.806  27.618  1.00  0.00    -0.744 OA
ENDBRANCH  86  90
ENDBRANCH  60  83
ENDBRANCH  34  35
ENDBRANCH  27  29
ENDBRANCH  26  27
ENDBRANCH  25  26
ENDBRANCH  24  25
ENDBRANCH   1  24
TORSDOF 20
ENDMDL
