MODEL 1
REMARK VINA RESULT:      -9.7      0.000      0.000
REMARK SMILES CC(=O)N[C@@H](C(=O)N(CC(=O)OCCOCCOC(=O)c1ccc(-c2c3nc(c(-c4cc(S(=O)(=O)[O-])ccc4F)c4ccc([nH]4)c(-c4cc(S(=O)(=O)[O-])ccc4F)c4nc(c(-c5cc(S(=O)(=O)[O-])ccc5F)c5ccc2[nH]5)C=C4)C=C3)cc1)C(C)(C)C)C(C)C
REMARK SMILES IDX 14 1 13 2 12 3 10 4 11 5 9 6 8 7 6 8 7 9 5 10 4 11 1 12 2 13
REMARK SMILES IDX 3 14 88 16 89 17 90 18 84 19 85 20 86 21 87 22 15 23 16 24
REMARK SMILES IDX 17 25 18 26 19 27 20 28 21 29 22 30 83 31 23 32 82 33 24 34
REMARK SMILES IDX 25 35 26 36 76 37 27 38 81 39 75 40 77 41 28 42 80 43 74 44
REMARK SMILES IDX 73 45 29 47 61 48 41 49 60 50 42 51 45 52 59 53 78 54 43 55
REMARK SMILES IDX 44 56 58 58 79 59 46 60 30 61 31 62 39 63 32 64 38 65 40 66
REMARK SMILES IDX 37 67 33 68 34 69 35 70 36 71 62 72 63 73 71 74 64 75 70 76
REMARK SMILES IDX 72 77 69 78 65 79 66 80 67 81 68 82 47 83 48 84 56 85 49 86
REMARK SMILES IDX 55 87 57 88 54 89 50 90 51 91 52 92 53 93
REMARK H PARENT 4 15 77 46 45 57
REMARK Flexibility Score: inf
ROOT
ATOM      1  C   UNL A   1      36.568  21.943  24.963  1.00  0.00     0.202 C 
ENDROOT
BRANCH   1   2
ATOM      2  C   UNL A   1      36.718  23.033  23.891  1.00  0.00     0.261 C 
BRANCH   2   3
ATOM      3  O   UNL A   1      35.757  22.925  22.811  1.00  0.00    -0.462 OA
BRANCH   3   4
ATOM      4  C   UNL A   1      34.484  23.279  23.127  1.00  0.00     0.325 C 
ATOM      5  O   UNL A   1      33.562  22.491  23.326  1.00  0.00    -0.250 OA
BRANCH   4   6
ATOM      6  C   UNL A   1      34.237  24.791  23.236  1.00  0.00     0.242 C 
BRANCH   6   7
ATOM      7  N   UNL A   1      32.880  25.368  23.165  1.00  0.00    -0.325 N 
BRANCH   7   8
ATOM      8  C   UNL A   1      31.878  25.009  24.086  1.00  0.00     0.246 C 
ATOM      9  O   UNL A   1      30.842  24.451  23.717  1.00  0.00    -0.272 OA
BRANCH   8  10
ATOM     10  C   UNL A   1      32.069  25.329  25.605  1.00  0.00     0.174 C 
BRANCH  10  11
ATOM     11  N   UNL A   1      30.950  24.714  26.318  1.00  0.00    -0.344 N 
ATOM     12  C   UNL A   1      32.128  22.674  27.070  1.00  0.00     0.114 C 
ATOM     13  C   UNL A   1      30.895  23.533  26.996  1.00  0.00     0.217 C 
ATOM     14  O   UNL A   1      29.832  23.178  27.502  1.00  0.00    -0.275 OA
ATOM     15  H   UNL A   1      30.112  25.230  26.309  1.00  0.00     0.164 HD
ENDBRANCH  10  11
BRANCH  10  16
ATOM     16  C   UNL A   1      32.121  26.869  25.836  1.00  0.00     0.015 C 
ATOM     17  C   UNL A   1      31.311  27.326  27.053  1.00  0.00     0.010 C 
ATOM     18  C   UNL A   1      33.569  27.352  26.020  1.00  0.00     0.010 C 
ENDBRANCH  10  16
ENDBRANCH   8  10
ENDBRANCH   7   8
BRANCH   7  19
ATOM     19  C   UNL A   1      32.557  26.417  22.122  1.00  0.00     0.035 C 
ATOM     20  C   UNL A   1      33.607  27.549  22.112  1.00  0.00     0.034 C 
ATOM     21  C   UNL A   1      32.508  25.743  20.729  1.00  0.00     0.034 C 
ATOM     22  C   UNL A   1      31.170  27.080  22.296  1.00  0.00     0.034 C 
ENDBRANCH   7  19
ENDBRANCH   6   7
ENDBRANCH   4   6
ENDBRANCH   3   4
ENDBRANCH   2   3
ENDBRANCH   1   2
BRANCH   1  23
ATOM     23  O   UNL A   1      36.801  20.595  24.543  1.00  0.00    -0.374 OA
BRANCH  23  24
ATOM     24  C   UNL A   1      38.030  20.003  24.951  1.00  0.00     0.202 C 
BRANCH  24  25
ATOM     25  C   UNL A   1      38.945  20.868  25.826  1.00  0.00     0.261 C 
BRANCH  25  26
ATOM     26  O   UNL A   1      40.014  20.104  26.405  1.00  0.00    -0.460 OA
BRANCH  26  27
ATOM     27  C   UNL A   1      41.238  20.662  26.262  1.00  0.00     0.338 C 
ATOM     28  O   UNL A   1      42.166  20.224  25.593  1.00  0.00    -0.246 OA
BRANCH  27  29
ATOM     29  C   UNL A   1      41.272  21.999  26.878  1.00  0.00     0.060 A 
ATOM     30  C   UNL A   1      40.979  23.087  26.048  1.00  0.00     0.016 A 
ATOM     31  C   UNL A   1      41.675  22.201  28.201  1.00  0.00     0.016 A 
ATOM     32  C   UNL A   1      41.159  24.385  26.514  1.00  0.00     0.010 A 
ATOM     33  C   UNL A   1      41.859  23.512  28.667  1.00  0.00     0.010 A 
ATOM     34  C   UNL A   1      41.647  24.607  27.809  1.00  0.00    -0.014 A 
BRANCH  34  35
ATOM     35  C   UNL A   1      42.080  25.981  28.173  1.00  0.00     0.031 A 
ATOM     36  C   UNL A   1      43.472  26.427  27.810  1.00  0.00     0.074 A 
ATOM     37  C   UNL A   1      41.215  26.848  28.731  1.00  0.00     0.049 A 
ATOM     38  N   UNL A   1      44.027  27.606  27.929  1.00  0.00    -0.248 NA
ATOM     39  C   UNL A   1      44.355  25.403  27.231  1.00  0.00     0.031 C 
ATOM     40  C   UNL A   1      39.834  26.539  29.097  1.00  0.00     0.029 A 
ATOM     41  N   UNL A   1      41.366  28.169  29.068  1.00  0.00    -0.354 N 
ATOM     42  C   UNL A   1      45.318  27.472  27.428  1.00  0.00     0.074 A 
ATOM     43  C   UNL A   1      45.478  26.083  27.051  1.00  0.00     0.031 C 
ATOM     44  C   UNL A   1      39.261  27.643  29.604  1.00  0.00     0.029 A 
ATOM     45  C   UNL A   1      40.237  28.732  29.617  1.00  0.00     0.049 A 
ATOM     46  H   UNL A   1      42.204  28.668  28.932  1.00  0.00     0.167 HD
ATOM     47  C   UNL A   1      46.277  28.421  27.280  1.00  0.00     0.034 A 
ATOM     48  C   UNL A   1      40.018  29.980  30.080  1.00  0.00     0.034 A 
ATOM     49  C   UNL A   1      46.109  29.797  27.681  1.00  0.00     0.049 A 
ATOM     50  C   UNL A   1      41.124  31.002  29.973  1.00  0.00     0.074 A 
ATOM     51  C   UNL A   1      47.007  30.845  27.569  1.00  0.00     0.029 A 
ATOM     52  N   UNL A   1      44.973  30.316  28.290  1.00  0.00    -0.354 N 
ATOM     53  N   UNL A   1      42.330  30.869  29.469  1.00  0.00    -0.248 NA
ATOM     54  C   UNL A   1      40.831  32.347  30.484  1.00  0.00     0.031 C 
ATOM     55  C   UNL A   1      46.441  31.975  28.172  1.00  0.00     0.029 A 
ATOM     56  C   UNL A   1      45.161  31.656  28.593  1.00  0.00     0.049 A 
ATOM     57  H   UNL A   1      44.152  29.805  28.479  1.00  0.00     0.167 HD
ATOM     58  C   UNL A   1      42.929  32.121  29.581  1.00  0.00     0.074 A 
ATOM     59  C   UNL A   1      41.946  32.997  30.184  1.00  0.00     0.031 C 
ATOM     60  C   UNL A   1      44.178  32.513  29.215  1.00  0.00     0.034 A 
BRANCH  47  61
ATOM     61  C   UNL A   1      47.603  27.979  26.709  1.00  0.00     0.023 A 
ATOM     62  C   UNL A   1      47.835  27.934  25.322  1.00  0.00     0.031 A 
ATOM     63  C   UNL A   1      48.637  27.555  27.562  1.00  0.00     0.131 A 
ATOM     64  C   UNL A   1      49.040  27.408  24.829  1.00  0.00     0.055 A 
ATOM     65  C   UNL A   1      49.863  27.104  27.067  1.00  0.00     0.041 A 
ATOM     66  F   UNL A   1      48.468  27.555  28.893  1.00  0.00    -0.206 F 
ATOM     67  C   UNL A   1      50.065  27.014  25.693  1.00  0.00     0.022 A 
BRANCH  64  68
ATOM     68  S   UNL A   1      49.195  27.110  23.046  1.00  0.00     0.124 S 
ATOM     69  O   UNL A   1      50.645  27.097  22.872  1.00  0.00    -0.237 OA
ATOM     70  O   UNL A   1      48.518  25.830  22.881  1.00  0.00    -0.237 OA
ATOM     71  O   UNL A   1      48.515  28.257  22.447  1.00  0.00    -0.744 OA
ENDBRANCH  64  68
ENDBRANCH  47  61
BRANCH  48  72
ATOM     72  C   UNL A   1      38.713  30.330  30.711  1.00  0.00     0.023 A 
ATOM     73  C   UNL A   1      37.800  31.190  30.081  1.00  0.00     0.031 A 
ATOM     74  C   UNL A   1      38.383  29.836  31.986  1.00  0.00     0.131 A 
ATOM     75  C   UNL A   1      36.618  31.559  30.743  1.00  0.00     0.055 A 
ATOM     76  C   UNL A   1      37.184  30.167  32.618  1.00  0.00     0.041 A 
ATOM     77  F   UNL A   1      39.223  29.011  32.633  1.00  0.00    -0.206 F 
ATOM     78  C   UNL A   1      36.298  31.043  32.001  1.00  0.00     0.022 A 
BRANCH  75  79
ATOM     79  S   UNL A   1      35.530  32.785  29.965  1.00  0.00     0.124 S 
ATOM     80  O   UNL A   1      34.414  31.956  29.523  1.00  0.00    -0.237 OA
ATOM     81  O   UNL A   1      35.256  33.694  31.073  1.00  0.00    -0.237 OA
ATOM     82  O   UNL A   1      36.355  33.343  28.895  1.00  0.00    -0.744 OA
ENDBRANCH  75  79
ENDBRANCH  48  72
BRANCH  60  83
ATOM     83  C   UNL A   1      44.530  33.964  29.436  1.00  0.00     0.023 A 
ATOM     84  C   UNL A   1      44.200  34.956  28.496  1.00  0.00     0.031 A 
ATOM     85  C   UNL A   1      45.223  34.357  30.595  1.00  0.00     0.131 A 
ATOM     86  C   UNL A   1      44.615  36.281  28.702  1.00  0.00     0.055 A 
ATOM     87  C   UNL A   1      45.582  35.686  30.822  1.00  0.00     0.041 A 
ATOM     88  F   UNL A   1      45.566  33.451  31.526  1.00  0.00    -0.206 F 
ATOM     89  C   UNL A   1      45.290  36.655  29.867  1.00  0.00     0.022 A 
BRANCH  86  90
ATOM     90  S   UNL A   1      44.343  37.495  27.382  1.00  0.00     0.124 S 
ATOM     91  O   UNL A   1      44.028  38.702  28.139  1.00  0.00    -0.237 OA
ATOM     92  O   UNL A   1      45.625  37.494  26.687  1.00  0.00    -0.237 OA
ATOM     93  O   UNL A   1      43.227  36.932  26.623  1.00  0.00    -0.744 OA
ENDBRANCH  86  90
ENDBRANCH  60  83
ENDBRANCH  34  35
ENDBRANCH  27  29
ENDBRANCH  26  27
ENDBRANCH  25  26
ENDBRANCH  24  25
ENDBRANCH  23  24
ENDBRANCH   1  23
TORSDOF 23
ENDMDL
MODEL 2
REMARK VINA RESULT:      -9.7      2.097      2.853
REMARK SMILES CC(=O)N[C@@H](C(=O)N(CC(=O)OCCOCCOC(=O)c1ccc(-c2c3nc(c(-c4cc(S(=O)(=O)[O-])ccc4F)c4ccc([nH]4)c(-c4cc(S(=O)(=O)[O-])ccc4F)c4nc(c(-c5cc(S(=O)(=O)[O-])ccc5F)c5ccc2[nH]5)C=C4)C=C3)cc1)C(C)(C)C)C(C)C
REMARK SMILES IDX 14 1 13 2 12 3 10 4 11 5 9 6 8 7 6 8 7 9 5 10 4 11 1 12 2 13
REMARK SMILES IDX 3 14 88 16 89 17 90 18 84 19 85 20 86 21 87 22 15 23 16 24
REMARK SMILES IDX 17 25 18 26 19 27 20 28 21 29 22 30 83 31 23 32 82 33 24 34
REMARK SMILES IDX 25 35 26 36 76 37 27 38 81 39 75 40 77 41 28 42 80 43 74 44
REMARK SMILES IDX 73 45 29 47 61 48 41 49 60 50 42 51 45 52 59 53 78 54 43 55
REMARK SMILES IDX 44 56 58 58 79 59 46 60 30 61 31 62 39 63 32 64 38 65 40 66
REMARK SMILES IDX 37 67 33 68 34 69 35 70 36 71 62 72 63 73 71 74 64 75 70 76
REMARK SMILES IDX 72 77 69 78 65 79 66 80 67 81 68 82 47 83 48 84 56 85 49 86
REMARK SMILES IDX 55 87 57 88 54 89 50 90 51 91 52 92 53 93
REMARK H PARENT 4 15 77 46 45 57
REMARK Flexibility Score: inf
ROOT
ATOM      1  C   UNL A   1      34.302  20.862  24.592  1.00  0.00     0.202 C 
ENDROOT
BRANCH   1   2
ATOM      2  C   UNL A   1      34.300  22.074  23.650  1.00  0.00     0.261 C 
BRANCH   2   3
ATOM      3  O   UNL A   1      32.996  22.383  23.098  1.00  0.00    -0.462 OA
BRANCH   3   4
ATOM      4  C   UNL A   1      32.671  23.703  23.077  1.00  0.00     0.325 C 
ATOM      5  O   UNL A   1      33.465  24.621  22.886  1.00  0.00    -0.250 OA
BRANCH   4   6
ATOM      6  C   UNL A   1      31.184  24.010  23.308  1.00  0.00     0.242 C 
BRANCH   6   7
ATOM      7  N   UNL A   1      30.698  24.618  24.562  1.00  0.00    -0.325 N 
BRANCH   7   8
ATOM      8  C   UNL A   1      30.069  25.877  24.575  1.00  0.00     0.246 C 
ATOM      9  O   UNL A   1      28.849  25.984  24.427  1.00  0.00    -0.272 OA
BRANCH   8  10
ATOM     10  C   UNL A   1      30.927  27.171  24.770  1.00  0.00     0.174 C 
BRANCH  10  11
ATOM     11  N   UNL A   1      30.893  27.499  26.195  1.00  0.00    -0.344 N 
ATOM     12  C   UNL A   1      33.336  27.590  26.563  1.00  0.00     0.114 C 
ATOM     13  C   UNL A   1      31.922  27.701  27.065  1.00  0.00     0.217 C 
ATOM     14  O   UNL A   1      31.674  27.935  28.246  1.00  0.00    -0.275 OA
ATOM     15  H   UNL A   1      29.992  27.588  26.583  1.00  0.00     0.164 HD
ENDBRANCH  10  11
BRANCH  10  16
ATOM     16  C   UNL A   1      30.365  28.334  23.898  1.00  0.00     0.015 C 
ATOM     17  C   UNL A   1      30.854  29.715  24.346  1.00  0.00     0.010 C 
ATOM     18  C   UNL A   1      30.746  28.150  22.420  1.00  0.00     0.010 C 
ENDBRANCH  10  16
ENDBRANCH   8  10
ENDBRANCH   7   8
BRANCH   7  19
ATOM     19  C   UNL A   1      30.814  23.859  25.866  1.00  0.00     0.035 C 
ATOM     20  C   UNL A   1      29.700  24.260  26.857  1.00  0.00     0.034 C 
ATOM     21  C   UNL A   1      30.727  22.341  25.575  1.00  0.00     0.034 C 
ATOM     22  C   UNL A   1      32.166  24.049  26.595  1.00  0.00     0.034 C 
ENDBRANCH   7  19
ENDBRANCH   6   7
ENDBRANCH   4   6
ENDBRANCH   3   4
ENDBRANCH   2   3
ENDBRANCH   1   2
BRANCH   1  23
ATOM     23  O   UNL A   1      35.442  20.714  25.443  1.00  0.00    -0.374 OA
BRANCH  23  24
ATOM     24  C   UNL A   1      36.709  21.016  24.870  1.00  0.00     0.202 C 
BRANCH  24  25
ATOM     25  C   UNL A   1      37.900  20.197  25.382  1.00  0.00     0.261 C 
BRANCH  25  26
ATOM     26  O   UNL A   1      39.139  20.912  25.253  1.00  0.00    -0.460 OA
BRANCH  26  27
ATOM     27  C   UNL A   1      40.002  20.719  26.276  1.00  0.00     0.338 C 
ATOM     28  O   UNL A   1      40.608  19.686  26.536  1.00  0.00    -0.246 OA
BRANCH  27  29
ATOM     29  C   UNL A   1      40.283  21.991  26.962  1.00  0.00     0.060 A 
ATOM     30  C   UNL A   1      39.670  23.138  26.445  1.00  0.00     0.016 A 
ATOM     31  C   UNL A   1      41.194  22.086  28.018  1.00  0.00     0.016 A 
ATOM     32  C   UNL A   1      40.022  24.394  26.932  1.00  0.00     0.010 A 
ATOM     33  C   UNL A   1      41.550  23.353  28.503  1.00  0.00     0.010 A 
ATOM     34  C   UNL A   1      40.999  24.514  27.929  1.00  0.00    -0.014 A 
BRANCH  34  35
ATOM     35  C   UNL A   1      41.539  25.866  28.228  1.00  0.00     0.031 A 
ATOM     36  C   UNL A   1      42.917  26.225  27.736  1.00  0.00     0.074 A 
ATOM     37  C   UNL A   1      40.777  26.789  28.841  1.00  0.00     0.049 A 
ATOM     38  N   UNL A   1      43.546  27.372  27.784  1.00  0.00    -0.248 NA
ATOM     39  C   UNL A   1      43.687  25.144  27.103  1.00  0.00     0.031 C 
ATOM     40  C   UNL A   1      39.418  26.566  29.332  1.00  0.00     0.029 A 
ATOM     41  N   UNL A   1      41.031  28.104  29.138  1.00  0.00    -0.354 N 
ATOM     42  C   UNL A   1      44.779  27.155  27.175  1.00  0.00     0.074 A 
ATOM     43  C   UNL A   1      44.826  25.755  26.814  1.00  0.00     0.031 C 
ATOM     44  C   UNL A   1      38.955  27.709  29.865  1.00  0.00     0.029 A 
ATOM     45  C   UNL A   1      39.988  28.739  29.772  1.00  0.00     0.049 A 
ATOM     46  H   UNL A   1      41.880  28.552  28.920  1.00  0.00     0.167 HD
ATOM     47  C   UNL A   1      45.772  28.046  26.927  1.00  0.00     0.034 A 
ATOM     48  C   UNL A   1      39.881  30.004  30.228  1.00  0.00     0.034 A 
ATOM     49  C   UNL A   1      45.719  29.435  27.314  1.00  0.00     0.049 A 
ATOM     50  C   UNL A   1      41.029  30.959  30.005  1.00  0.00     0.074 A 
ATOM     51  C   UNL A   1      46.661  30.427  27.104  1.00  0.00     0.029 A 
ATOM     52  N   UNL A   1      44.671  30.027  28.009  1.00  0.00    -0.354 N 
ATOM     53  N   UNL A   1      42.177  30.749  29.401  1.00  0.00    -0.248 NA
ATOM     54  C   UNL A   1      40.859  32.326  30.514  1.00  0.00     0.031 C 
ATOM     55  C   UNL A   1      46.215  31.597  27.731  1.00  0.00     0.029 A 
ATOM     56  C   UNL A   1      44.960  31.359  28.268  1.00  0.00     0.049 A 
ATOM     57  H   UNL A   1      43.842  29.567  28.278  1.00  0.00     0.167 HD
ATOM     58  C   UNL A   1      42.854  31.966  29.437  1.00  0.00     0.074 A 
ATOM     59  C   UNL A   1      41.978  32.906  30.105  1.00  0.00     0.031 C 
ATOM     60  C   UNL A   1      44.085  32.279  28.957  1.00  0.00     0.034 A 
BRANCH  47  61
ATOM     61  C   UNL A   1      47.016  27.519  26.251  1.00  0.00     0.023 A 
ATOM     62  C   UNL A   1      48.111  27.031  26.988  1.00  0.00     0.031 A 
ATOM     63  C   UNL A   1      47.127  27.544  24.850  1.00  0.00     0.131 A 
ATOM     64  C   UNL A   1      49.292  26.657  26.327  1.00  0.00     0.055 A 
ATOM     65  C   UNL A   1      48.277  27.099  24.193  1.00  0.00     0.041 A 
ATOM     66  F   UNL A   1      46.125  28.018  24.093  1.00  0.00    -0.206 F 
ATOM     67  C   UNL A   1      49.374  26.667  24.933  1.00  0.00     0.022 A 
BRANCH  64  68
ATOM     68  S   UNL A   1      50.768  26.298  27.319  1.00  0.00     0.124 S 
ATOM     69  O   UNL A   1      50.329  26.688  28.656  1.00  0.00    -0.237 OA
ATOM     70  O   UNL A   1      50.956  24.870  27.097  1.00  0.00    -0.237 OA
ATOM     71  O   UNL A   1      51.793  27.161  26.733  1.00  0.00    -0.744 OA
ENDBRANCH  64  68
ENDBRANCH  47  61
BRANCH  48  72
ATOM     72  C   UNL A   1      38.659  30.438  30.962  1.00  0.00     0.023 A 
ATOM     73  C   UNL A   1      37.602  31.091  30.309  1.00  0.00     0.031 A 
ATOM     74  C   UNL A   1      38.554  30.240  32.351  1.00  0.00     0.131 A 
ATOM     75  C   UNL A   1      36.503  31.556  31.050  1.00  0.00     0.055 A 
ATOM     76  C   UNL A   1      37.437  30.660  33.075  1.00  0.00     0.041 A 
ATOM     77  F   UNL A   1      39.538  29.622  33.025  1.00  0.00    -0.206 F 
ATOM     78  C   UNL A   1      36.408  31.333  32.426  1.00  0.00     0.022 A 
BRANCH  75  79
ATOM     79  S   UNL A   1      35.225  32.523  30.200  1.00  0.00     0.124 S 
ATOM     80  O   UNL A   1      35.986  33.676  29.729  1.00  0.00    -0.237 OA
ATOM     81  O   UNL A   1      34.771  31.591  29.173  1.00  0.00    -0.237 OA
ATOM     82  O   UNL A   1      34.253  32.805  31.254  1.00  0.00    -0.744 OA
ENDBRANCH  75  79
ENDBRANCH  48  72
BRANCH  60  83
ATOM     83  C   UNL A   1      44.537  33.711  29.118  1.00  0.00     0.023 A 
ATOM     84  C   UNL A   1      45.254  34.137  30.250  1.00  0.00     0.031 A 
ATOM     85  C   UNL A   1      44.226  34.667  28.135  1.00  0.00     0.131 A 
ATOM     86  C   UNL A   1      45.586  35.492  30.399  1.00  0.00     0.055 A 
ATOM     87  C   UNL A   1      44.611  36.002  28.260  1.00  0.00     0.041 A 
ATOM     88  F   UNL A   1      43.541  34.317  27.034  1.00  0.00    -0.206 F 
ATOM     89  C   UNL A   1      45.283  36.425  29.404  1.00  0.00     0.022 A 
BRANCH  86  90
ATOM     90  S   UNL A   1      46.338  36.039  31.956  1.00  0.00     0.124 S 
ATOM     91  O   UNL A   1      45.397  37.059  32.406  1.00  0.00    -0.237 OA
ATOM     92  O   UNL A   1      46.369  34.809  32.739  1.00  0.00    -0.237 OA
ATOM     93  O   UNL A   1      47.647  36.545  31.546  1.00  0.00    -0.744 OA
ENDBRANCH  86  90
ENDBRANCH  60  83
ENDBRANCH  34  35
ENDBRANCH  27  29
ENDBRANCH  26  27
ENDBRANCH  25  26
ENDBRANCH  24  25
ENDBRANCH  23  24
ENDBRANCH   1  23
TORSDOF 23
ENDMDL
MODEL 3
REMARK VINA RESULT:      -9.4      2.233      2.863
REMARK SMILES CC(=O)N[C@@H](C(=O)N(CC(=O)OCCOCCOC(=O)c1ccc(-c2c3nc(c(-c4cc(S(=O)(=O)[O-])ccc4F)c4ccc([nH]4)c(-c4cc(S(=O)(=O)[O-])ccc4F)c4nc(c(-c5cc(S(=O)(=O)[O-])ccc5F)c5ccc2[nH]5)C=C4)C=C3)cc1)C(C)(C)C)C(C)C
REMARK SMILES IDX 14 1 13 2 12 3 10 4 11 5 9 6 8 7 6 8 7 9 5 10 4 11 1 12 2 13
REMARK SMILES IDX 3 14 88 16 89 17 90 18 84 19 85 20 86 21 87 22 15 23 16 24
REMARK SMILES IDX 17 25 18 26 19 27 20 28 21 29 22 30 83 31 23 32 82 33 24 34
REMARK SMILES IDX 25 35 26 36 76 37 27 38 81 39 75 40 77 41 28 42 80 43 74 44
REMARK SMILES IDX 73 45 29 47 61 48 41 49 60 50 42 51 45 52 59 53 78 54 43 55
REMARK SMILES IDX 44 56 58 58 79 59 46 60 30 61 31 62 39 63 32 64 38 65 40 66
REMARK SMILES IDX 37 67 33 68 34 69 35 70 36 71 62 72 63 73 71 74 64 75 70 76
REMARK SMILES IDX 72 77 69 78 65 79 66 80 67 81 68 82 47 83 48 84 56 85 49 86
REMARK SMILES IDX 55 87 57 88 54 89 50 90 51 91 52 92 53 93
REMARK H PARENT 4 15 77 46 45 57
REMARK Flexibility Score: inf
ROOT
ATOM      1  C   UNL A   1      34.210  20.860  24.760  1.00  0.00     0.202 C 
ENDROOT
BRANCH   1   2
ATOM      2  C   UNL A   1      34.124  22.339  24.353  1.00  0.00     0.261 C 
BRANCH   2   3
ATOM      3  O   UNL A   1      32.799  22.756  23.942  1.00  0.00    -0.462 OA
BRANCH   3   4
ATOM      4  C   UNL A   1      32.341  23.896  24.524  1.00  0.00     0.325 C 
ATOM      5  O   UNL A   1      31.213  24.046  24.988  1.00  0.00    -0.250 OA
BRANCH   4   6
ATOM      6  C   UNL A   1      33.354  25.048  24.586  1.00  0.00     0.242 C 
BRANCH   6   7
ATOM      7  N   UNL A   1      33.138  26.318  23.868  1.00  0.00    -0.325 N 
BRANCH   7   8
ATOM      8  C   UNL A   1      33.139  27.554  24.541  1.00  0.00     0.246 C 
ATOM      9  O   UNL A   1      34.173  28.218  24.656  1.00  0.00    -0.272 OA
BRANCH   8  10
ATOM     10  C   UNL A   1      31.813  28.099  25.168  1.00  0.00     0.174 C 
BRANCH  10  11
ATOM     11  N   UNL A   1      31.309  29.139  24.271  1.00  0.00    -0.344 N 
ATOM     12  C   UNL A   1      29.153  28.067  23.711  1.00  0.00     0.114 C 
ATOM     13  C   UNL A   1      30.135  29.200  23.583  1.00  0.00     0.217 C 
ATOM     14  O   UNL A   1      29.918  30.160  22.847  1.00  0.00    -0.275 OA
ATOM     15  H   UNL A   1      31.908  29.912  24.148  1.00  0.00     0.164 HD
ENDBRANCH  10  11
BRANCH  10  16
ATOM     16  C   UNL A   1      32.074  28.651  26.601  1.00  0.00     0.015 C 
ATOM     17  C   UNL A   1      31.802  30.153  26.729  1.00  0.00     0.010 C 
ATOM     18  C   UNL A   1      31.208  27.921  27.641  1.00  0.00     0.010 C 
ENDBRANCH  10  16
ENDBRANCH   8  10
ENDBRANCH   7   8
BRANCH   7  19
ATOM     19  C   UNL A   1      32.967  26.319  22.364  1.00  0.00     0.035 C 
ATOM     20  C   UNL A   1      33.606  27.569  21.722  1.00  0.00     0.034 C 
ATOM     21  C   UNL A   1      33.625  25.044  21.782  1.00  0.00     0.034 C 
ATOM     22  C   UNL A   1      31.495  26.263  21.890  1.00  0.00     0.034 C 
ENDBRANCH   7  19
ENDBRANCH   6   7
ENDBRANCH   4   6
ENDBRANCH   3   4
ENDBRANCH   2   3
ENDBRANCH   1   2
BRANCH   1  23
ATOM     23  O   UNL A   1      35.387  20.457  25.467  1.00  0.00    -0.374 OA
BRANCH  23  24
ATOM     24  C   UNL A   1      36.633  20.868  24.915  1.00  0.00     0.202 C 
BRANCH  24  25
ATOM     25  C   UNL A   1      37.856  20.025  25.295  1.00  0.00     0.261 C 
BRANCH  25  26
ATOM     26  O   UNL A   1      39.081  20.760  25.153  1.00  0.00    -0.460 OA
BRANCH  26  27
ATOM     27  C   UNL A   1      39.967  20.566  26.155  1.00  0.00     0.338 C 
ATOM     28  O   UNL A   1      40.589  19.537  26.392  1.00  0.00    -0.246 OA
BRANCH  27  29
ATOM     29  C   UNL A   1      40.247  21.834  26.850  1.00  0.00     0.060 A 
ATOM     30  C   UNL A   1      39.695  22.994  26.296  1.00  0.00     0.016 A 
ATOM     31  C   UNL A   1      41.105  21.909  27.951  1.00  0.00     0.016 A 
ATOM     32  C   UNL A   1      40.057  24.243  26.795  1.00  0.00     0.010 A 
ATOM     33  C   UNL A   1      41.471  23.169  28.448  1.00  0.00     0.010 A 
ATOM     34  C   UNL A   1      40.983  24.341  27.841  1.00  0.00    -0.014 A 
BRANCH  34  35
ATOM     35  C   UNL A   1      41.545  25.679  28.161  1.00  0.00     0.031 A 
ATOM     36  C   UNL A   1      42.937  26.017  27.692  1.00  0.00     0.074 A 
ATOM     37  C   UNL A   1      40.793  26.610  28.774  1.00  0.00     0.049 A 
ATOM     38  N   UNL A   1      43.586  27.151  27.761  1.00  0.00    -0.248 NA
ATOM     39  C   UNL A   1      43.693  24.928  27.058  1.00  0.00     0.031 C 
ATOM     40  C   UNL A   1      39.423  26.409  29.245  1.00  0.00     0.029 A 
ATOM     41  N   UNL A   1      41.068  27.917  29.089  1.00  0.00    -0.354 N 
ATOM     42  C   UNL A   1      44.823  26.917  27.166  1.00  0.00     0.074 A 
ATOM     43  C   UNL A   1      44.848  25.520  26.790  1.00  0.00     0.031 C 
ATOM     44  C   UNL A   1      38.974  27.554  29.784  1.00  0.00     0.029 A 
ATOM     45  C   UNL A   1      40.029  28.566  29.716  1.00  0.00     0.049 A 
ATOM     46  H   UNL A   1      41.928  28.351  28.887  1.00  0.00     0.167 HD
ATOM     47  C   UNL A   1      45.836  27.791  26.940  1.00  0.00     0.034 A 
ATOM     48  C   UNL A   1      39.940  29.827  30.183  1.00  0.00     0.034 A 
ATOM     49  C   UNL A   1      45.804  29.177  27.341  1.00  0.00     0.049 A 
ATOM     50  C   UNL A   1      41.108  30.763  29.986  1.00  0.00     0.074 A 
ATOM     51  C   UNL A   1      46.768  30.153  27.155  1.00  0.00     0.029 A 
ATOM     52  N   UNL A   1      44.758  29.781  28.028  1.00  0.00    -0.354 N 
ATOM     53  N   UNL A   1      42.260  30.537  29.396  1.00  0.00    -0.248 NA
ATOM     54  C   UNL A   1      40.958  32.127  30.507  1.00  0.00     0.031 C 
ATOM     55  C   UNL A   1      46.335  31.324  27.788  1.00  0.00     0.029 A 
ATOM     56  C   UNL A   1      45.069  31.105  28.306  1.00  0.00     0.049 A 
ATOM     57  H   UNL A   1      43.918  29.334  28.282  1.00  0.00     0.167 HD
ATOM     58  C   UNL A   1      42.959  31.740  29.453  1.00  0.00     0.074 A 
ATOM     59  C   UNL A   1      42.093  32.690  30.120  1.00  0.00     0.031 C 
ATOM     60  C   UNL A   1      44.203  32.035  28.993  1.00  0.00     0.034 A 
BRANCH  47  61
ATOM     61  C   UNL A   1      47.079  27.248  26.275  1.00  0.00     0.023 A 
ATOM     62  C   UNL A   1      48.135  26.691  27.019  1.00  0.00     0.031 A 
ATOM     63  C   UNL A   1      47.228  27.325  24.879  1.00  0.00     0.131 A 
ATOM     64  C   UNL A   1      49.320  26.302  26.373  1.00  0.00     0.055 A 
ATOM     65  C   UNL A   1      48.379  26.866  24.235  1.00  0.00     0.041 A 
ATOM     66  F   UNL A   1      46.264  27.865  24.118  1.00  0.00    -0.206 F 
ATOM     67  C   UNL A   1      49.440  26.365  24.984  1.00  0.00     0.022 A 
BRANCH  64  68
ATOM     68  S   UNL A   1      50.755  25.850  27.387  1.00  0.00     0.124 S 
ATOM     69  O   UNL A   1      51.428  24.875  26.531  1.00  0.00    -0.237 OA
ATOM     70  O   UNL A   1      51.434  27.128  27.560  1.00  0.00    -0.237 OA
ATOM     71  O   UNL A   1      50.157  25.292  28.599  1.00  0.00    -0.744 OA
ENDBRANCH  64  68
ENDBRANCH  47  61
BRANCH  48  72
ATOM     72  C   UNL A   1      38.716  30.277  30.907  1.00  0.00     0.023 A 
ATOM     73  C   UNL A   1      37.688  30.972  30.250  1.00  0.00     0.031 A 
ATOM     74  C   UNL A   1      38.582  30.051  32.289  1.00  0.00     0.131 A 
ATOM     75  C   UNL A   1      36.589  31.449  30.982  1.00  0.00     0.055 A 
ATOM     76  C   UNL A   1      37.463  30.485  33.002  1.00  0.00     0.041 A 
ATOM     77  F   UNL A   1      39.537  29.394  32.965  1.00  0.00    -0.206 F 
ATOM     78  C   UNL A   1      36.463  31.199  32.351  1.00  0.00     0.022 A 
BRANCH  75  79
ATOM     79  S   UNL A   1      35.351  32.468  30.132  1.00  0.00     0.124 S 
ATOM     80  O   UNL A   1      36.136  33.638  29.755  1.00  0.00    -0.237 OA
ATOM     81  O   UNL A   1      34.937  31.593  29.039  1.00  0.00    -0.237 OA
ATOM     82  O   UNL A   1      34.337  32.700  31.159  1.00  0.00    -0.744 OA
ENDBRANCH  75  79
ENDBRANCH  48  72
BRANCH  60  83
ATOM     83  C   UNL A   1      44.679  33.456  29.175  1.00  0.00     0.023 A 
ATOM     84  C   UNL A   1      45.396  33.854  30.317  1.00  0.00     0.031 A 
ATOM     85  C   UNL A   1      44.394  34.429  28.202  1.00  0.00     0.131 A 
ATOM     86  C   UNL A   1      45.752  35.201  30.486  1.00  0.00     0.055 A 
ATOM     87  C   UNL A   1      44.802  35.756  28.347  1.00  0.00     0.041 A 
ATOM     88  F   UNL A   1      43.711  34.106  27.092  1.00  0.00    -0.206 F 
ATOM     89  C   UNL A   1      45.473  36.151  29.501  1.00  0.00     0.022 A 
BRANCH  86  90
ATOM     90  S   UNL A   1      46.503  35.715  32.055  1.00  0.00     0.124 S 
ATOM     91  O   UNL A   1      47.904  35.361  31.851  1.00  0.00    -0.237 OA
ATOM     92  O   UNL A   1      46.204  37.142  32.094  1.00  0.00    -0.237 OA
ATOM     93  O   UNL A   1      45.800  34.908  33.052  1.00  0.00    -0.744 OA
ENDBRANCH  86  90
ENDBRANCH  60  83
ENDBRANCH  34  35
ENDBRANCH  27  29
ENDBRANCH  26  27
ENDBRANCH  25  26
ENDBRANCH  24  25
ENDBRANCH  23  24
ENDBRANCH   1  23
TORSDOF 23
ENDMDL
