MODEL 1
REMARK VINA RESULT:     -12.5      0.000      0.000
REMARK SMILES Cc1ccccc1C(=O)Nc1cc(C(=O)OCCOCCOC(=O)c2ccc(-c3c4nc(c(-c5cc(S(=O)(=O)[O-])ccc5F)c5ccc([nH]5)c(-c5cc(S(=O)(=O)[O-])ccc5F)c5nc(c(-c6cc(S(=O)(=O)[O-])ccc6F)c6ccc3[nH]6)C=C5)C=C4)cc2)ccc1N1CC[NH+](CC(=O)Nc2ccc(F)cc2)CC1
REMARK SMILES IDX 18 1 17 2 16 3 14 4 15 5 13 6 11 7 12 8 90 9 89 10 88 11
REMARK SMILES IDX 10 12 8 13 9 14 7 16 1 17 2 18 3 19 4 20 6 21 5 22 91 23
REMARK SMILES IDX 92 24 107 25 93 26 106 27 94 28 95 30 96 31 97 32 98 33
REMARK SMILES IDX 99 35 100 36 105 37 101 38 104 39 102 40 103 41 19 42 20 43
REMARK SMILES IDX 21 44 22 45 23 46 24 47 25 48 26 49 87 50 27 51 86 52 28 53
REMARK SMILES IDX 29 54 30 55 80 56 31 57 85 58 79 59 81 60 32 61 84 62 78 63
REMARK SMILES IDX 77 64 33 66 65 67 45 68 64 69 46 70 49 71 63 72 82 73 47 74
REMARK SMILES IDX 48 75 62 77 83 78 50 79 34 80 35 81 43 82 36 83 42 84 44 85
REMARK SMILES IDX 41 86 37 87 38 88 39 89 40 90 66 91 67 92 75 93 68 94 74 95
REMARK SMILES IDX 76 96 73 97 69 98 70 99 71 100 72 101 51 102 52 103 60 104
REMARK SMILES IDX 53 105 59 106 61 107 58 108 54 109 55 110 56 111 57 112
REMARK H PARENT 10 15 94 29 98 34 81 65 49 76
REMARK Flexibility Score: inf
ROOT
ATOM      1  C   UNL A   1      35.503  31.741  27.842  1.00  0.00     0.202 C 
ENDROOT
BRANCH   1   2
ATOM      2  C   UNL A   1      34.731  30.502  27.510  1.00  0.00     0.261 C 
BRANCH   2   3
ATOM      3  O   UNL A   1      33.316  30.449  27.827  1.00  0.00    -0.460 OA
BRANCH   3   4
ATOM      4  C   UNL A   1      32.391  30.493  26.849  1.00  0.00     0.338 C 
ATOM      5  O   UNL A   1      31.896  31.525  26.396  1.00  0.00    -0.246 OA
BRANCH   4   6
ATOM      6  C   UNL A   1      31.817  29.156  26.592  1.00  0.00     0.062 A 
ATOM      7  C   UNL A   1      31.491  27.418  24.990  1.00  0.00     0.065 A 
ATOM      8  C   UNL A   1      31.663  28.751  25.275  1.00  0.00     0.044 A 
ATOM      9  C   UNL A   1      31.327  26.430  26.007  1.00  0.00     0.061 A 
ATOM     10  C   UNL A   1      31.357  26.890  27.336  1.00  0.00     0.029 A 
ATOM     11  C   UNL A   1      31.643  28.235  27.629  1.00  0.00     0.018 A 
BRANCH   7  12
ATOM     12  N   UNL A   1      31.623  27.067  23.648  1.00  0.00    -0.320 N 
ATOM     13  C   UNL A   1      30.840  27.469  22.572  1.00  0.00     0.255 C 
ATOM     14  O   UNL A   1      31.342  27.247  21.457  1.00  0.00    -0.269 OA
ATOM     15  H   UNL A   1      32.364  26.456  23.435  1.00  0.00     0.170 HD
BRANCH  13  16
ATOM     16  C   UNL A   1      29.558  28.287  22.595  1.00  0.00     0.043 A 
ATOM     17  C   UNL A   1      27.799  26.817  23.895  1.00  0.00     0.045 C 
ATOM     18  C   UNL A   1      28.281  28.029  23.160  1.00  0.00    -0.038 A 
ATOM     19  C   UNL A   1      27.284  29.036  23.112  1.00  0.00     0.004 A 
ATOM     20  C   UNL A   1      27.557  30.322  22.670  1.00  0.00     0.000 A 
ATOM     21  C   UNL A   1      29.783  29.602  22.119  1.00  0.00     0.014 A 
ATOM     22  C   UNL A   1      28.817  30.611  22.185  1.00  0.00     0.001 A 
ENDBRANCH  13  16
ENDBRANCH   7  12
BRANCH   9  23
ATOM     23  N   UNL A   1      31.333  25.061  25.700  1.00  0.00    -0.359 N 
ATOM     24  C   UNL A   1      30.571  24.049  26.474  1.00  0.00     0.178 C 
ATOM     25  C   UNL A   1      32.643  24.523  25.325  1.00  0.00     0.178 C 
ATOM     26  C   UNL A   1      30.679  22.618  25.821  1.00  0.00     0.284 C 
ATOM     27  C   UNL A   1      32.430  23.334  24.397  1.00  0.00     0.284 C 
ATOM     28  N   UNL A   1      31.948  22.203  25.174  1.00  0.00    -0.324 N 
ATOM     29  H   UNL A   1      31.686  21.393  24.612  1.00  0.00     0.348 HD
BRANCH  28  30
ATOM     30  C   UNL A   1      33.031  21.564  25.969  1.00  0.00     0.364 C 
BRANCH  30  31
ATOM     31  C   UNL A   1      34.043  20.622  25.302  1.00  0.00     0.279 C 
ATOM     32  O   UNL A   1      33.627  19.546  24.841  1.00  0.00    -0.268 OA
ATOM     33  N   UNL A   1      35.369  20.892  25.060  1.00  0.00    -0.321 N 
ATOM     34  H   UNL A   1      35.699  20.313  24.336  1.00  0.00     0.170 HD
BRANCH  33  35
ATOM     35  C   UNL A   1      36.417  21.734  25.518  1.00  0.00     0.041 A 
ATOM     36  C   UNL A   1      36.075  23.083  25.743  1.00  0.00     0.029 A 
ATOM     37  C   UNL A   1      37.764  21.411  25.642  1.00  0.00     0.029 A 
ATOM     38  C   UNL A   1      37.037  24.050  26.081  1.00  0.00     0.041 A 
ATOM     39  C   UNL A   1      38.744  22.382  25.922  1.00  0.00     0.041 A 
ATOM     40  C   UNL A   1      38.372  23.693  26.155  1.00  0.00     0.123 A 
ATOM     41  F   UNL A   1      39.297  24.612  26.459  1.00  0.00    -0.207 F 
ENDBRANCH  33  35
ENDBRANCH  30  31
ENDBRANCH  28  30
ENDBRANCH   9  23
ENDBRANCH   4   6
ENDBRANCH   3   4
ENDBRANCH   2   3
ENDBRANCH   1   2
BRANCH   1  42
ATOM     42  O   UNL A   1      36.852  31.342  28.031  1.00  0.00    -0.374 OA
BRANCH  42  43
ATOM     43  C   UNL A   1      37.540  32.027  29.054  1.00  0.00     0.202 C 
BRANCH  43  44
ATOM     44  C   UNL A   1      37.114  31.549  30.446  1.00  0.00     0.261 C 
BRANCH  44  45
ATOM     45  O   UNL A   1      38.129  30.675  30.989  1.00  0.00    -0.460 OA
BRANCH  45  46
ATOM     46  C   UNL A   1      37.755  29.372  31.170  1.00  0.00     0.338 C 
ATOM     47  O   UNL A   1      36.695  29.014  31.632  1.00  0.00    -0.246 OA
BRANCH  46  48
ATOM     48  C   UNL A   1      38.904  28.461  30.874  1.00  0.00     0.060 A 
ATOM     49  C   UNL A   1      40.113  28.583  31.588  1.00  0.00     0.016 A 
ATOM     50  C   UNL A   1      38.865  27.713  29.703  1.00  0.00     0.016 A 
ATOM     51  C   UNL A   1      41.311  28.102  31.035  1.00  0.00     0.010 A 
ATOM     52  C   UNL A   1      40.056  27.371  29.105  1.00  0.00     0.010 A 
ATOM     53  C   UNL A   1      41.289  27.591  29.743  1.00  0.00    -0.014 A 
BRANCH  53  54
ATOM     54  C   UNL A   1      42.435  27.318  28.870  1.00  0.00     0.031 A 
ATOM     55  C   UNL A   1      42.863  25.903  28.792  1.00  0.00     0.074 A 
ATOM     56  C   UNL A   1      42.802  28.191  27.896  1.00  0.00     0.049 A 
ATOM     57  N   UNL A   1      43.617  25.439  27.872  1.00  0.00    -0.248 NA
ATOM     58  C   UNL A   1      42.418  24.860  29.715  1.00  0.00     0.031 C 
ATOM     59  C   UNL A   1      43.488  27.915  26.634  1.00  0.00     0.029 A 
ATOM     60  N   UNL A   1      42.691  29.586  27.859  1.00  0.00    -0.354 N 
ATOM     61  C   UNL A   1      43.565  24.073  27.888  1.00  0.00     0.074 A 
ATOM     62  C   UNL A   1      42.822  23.753  29.078  1.00  0.00     0.031 C 
ATOM     63  C   UNL A   1      44.069  29.037  26.183  1.00  0.00     0.029 A 
ATOM     64  C   UNL A   1      43.812  30.067  27.166  1.00  0.00     0.049 A 
ATOM     65  H   UNL A   1      41.964  30.125  28.246  1.00  0.00     0.167 HD
ATOM     66  C   UNL A   1      44.121  23.439  26.818  1.00  0.00     0.034 A 
ATOM     67  C   UNL A   1      44.713  30.860  27.792  1.00  0.00     0.034 A 
ATOM     68  C   UNL A   1      44.989  24.387  26.091  1.00  0.00     0.049 A 
ATOM     69  C   UNL A   1      45.988  30.050  27.813  1.00  0.00     0.074 A 
ATOM     70  C   UNL A   1      44.939  25.037  24.870  1.00  0.00     0.029 A 
ATOM     71  N   UNL A   1      45.970  25.052  26.836  1.00  0.00    -0.354 N 
ATOM     72  N   UNL A   1      46.021  28.736  27.903  1.00  0.00    -0.248 NA
ATOM     73  C   UNL A   1      47.243  30.626  27.340  1.00  0.00     0.031 C 
ATOM     74  C   UNL A   1      45.813  26.174  24.954  1.00  0.00     0.029 A 
ATOM     75  C   UNL A   1      46.396  26.210  26.217  1.00  0.00     0.049 A 
ATOM     76  H   UNL A   1      46.316  24.732  27.701  1.00  0.00     0.167 HD
ATOM     77  C   UNL A   1      47.171  28.292  27.294  1.00  0.00     0.074 A 
ATOM     78  C   UNL A   1      47.920  29.517  27.007  1.00  0.00     0.031 C 
ATOM     79  C   UNL A   1      47.442  27.029  26.828  1.00  0.00     0.034 A 
BRANCH  66  80
ATOM     80  C   UNL A   1      43.841  22.021  26.369  1.00  0.00     0.023 A 
ATOM     81  C   UNL A   1      44.884  21.280  25.774  1.00  0.00     0.031 A 
ATOM     82  C   UNL A   1      42.590  21.366  26.401  1.00  0.00     0.131 A 
ATOM     83  C   UNL A   1      44.674  19.982  25.265  1.00  0.00     0.055 A 
ATOM     84  C   UNL A   1      42.389  20.062  25.927  1.00  0.00     0.041 A 
ATOM     85  F   UNL A   1      41.478  21.950  26.858  1.00  0.00    -0.206 F 
ATOM     86  C   UNL A   1      43.432  19.361  25.352  1.00  0.00     0.022 A 
BRANCH  83  87
ATOM     87  S   UNL A   1      46.044  19.115  24.452  1.00  0.00     0.124 S 
ATOM     88  O   UNL A   1      46.248  17.968  25.330  1.00  0.00    -0.237 OA
ATOM     89  O   UNL A   1      45.493  18.830  23.132  1.00  0.00    -0.237 OA
ATOM     90  O   UNL A   1      47.126  20.099  24.466  1.00  0.00    -0.744 OA
ENDBRANCH  83  87
ENDBRANCH  66  80
BRANCH  67  91
ATOM     91  C   UNL A   1      44.008  31.781  28.747  1.00  0.00     0.023 A 
ATOM     92  C   UNL A   1      44.061  31.382  30.117  1.00  0.00     0.031 A 
ATOM     93  C   UNL A   1      43.860  33.154  28.498  1.00  0.00     0.131 A 
ATOM     94  C   UNL A   1      44.175  32.336  31.149  1.00  0.00     0.055 A 
ATOM     95  C   UNL A   1      43.920  34.098  29.542  1.00  0.00     0.041 A 
ATOM     96  F   UNL A   1      43.829  33.621  27.240  1.00  0.00    -0.206 F 
ATOM     97  C   UNL A   1      44.136  33.698  30.862  1.00  0.00     0.022 A 
BRANCH  94  98
ATOM     98  S   UNL A   1      44.616  31.779  32.832  1.00  0.00     0.124 S 
ATOM     99  O   UNL A   1      46.007  32.200  32.941  1.00  0.00    -0.237 OA
ATOM    100  O   UNL A   1      43.660  32.502  33.666  1.00  0.00    -0.237 OA
ATOM    101  O   UNL A   1      44.397  30.334  32.784  1.00  0.00    -0.744 OA
ENDBRANCH  94  98
ENDBRANCH  67  91
BRANCH  79 102
ATOM    102  C   UNL A   1      48.851  26.485  26.881  1.00  0.00     0.023 A 
ATOM    103  C   UNL A   1      49.822  26.890  25.961  1.00  0.00     0.031 A 
ATOM    104  C   UNL A   1      49.309  25.646  27.922  1.00  0.00     0.131 A 
ATOM    105  C   UNL A   1      51.119  26.377  25.993  1.00  0.00     0.055 A 
ATOM    106  C   UNL A   1      50.639  25.230  28.026  1.00  0.00     0.041 A 
ATOM    107  F   UNL A   1      48.507  25.215  28.905  1.00  0.00    -0.206 F 
ATOM    108  C   UNL A   1      51.551  25.573  27.039  1.00  0.00     0.022 A 
BRANCH 105 109
ATOM    109  S   UNL A   1      52.163  26.719  24.562  1.00  0.00     0.124 S 
ATOM    110  O   UNL A   1      52.996  25.520  24.514  1.00  0.00    -0.237 OA
ATOM    111  O   UNL A   1      51.189  26.853  23.483  1.00  0.00    -0.237 OA
ATOM    112  O   UNL A   1      52.857  27.948  24.933  1.00  0.00    -0.744 OA
ENDBRANCH 105 109
ENDBRANCH  79 102
ENDBRANCH  53  54
ENDBRANCH  46  48
ENDBRANCH  45  46
ENDBRANCH  44  45
ENDBRANCH  43  44
ENDBRANCH  42  43
ENDBRANCH   1  42
TORSDOF 23
ENDMDL
MODEL 2
REMARK VINA RESULT:     -11.2      2.531      7.344
REMARK SMILES Cc1ccccc1C(=O)Nc1cc(C(=O)OCCOCCOC(=O)c2ccc(-c3c4nc(c(-c5cc(S(=O)(=O)[O-])ccc5F)c5ccc([nH]5)c(-c5cc(S(=O)(=O)[O-])ccc5F)c5nc(c(-c6cc(S(=O)(=O)[O-])ccc6F)c6ccc3[nH]6)C=C5)C=C4)cc2)ccc1N1CC[NH+](CC(=O)Nc2ccc(F)cc2)CC1
REMARK SMILES IDX 18 1 17 2 16 3 14 4 15 5 13 6 11 7 12 8 90 9 89 10 88 11
REMARK SMILES IDX 10 12 8 13 9 14 7 16 1 17 2 18 3 19 4 20 6 21 5 22 91 23
REMARK SMILES IDX 92 24 107 25 93 26 106 27 94 28 95 30 96 31 97 32 98 33
REMARK SMILES IDX 99 35 100 36 105 37 101 38 104 39 102 40 103 41 19 42 20 43
REMARK SMILES IDX 21 44 22 45 23 46 24 47 25 48 26 49 87 50 27 51 86 52 28 53
REMARK SMILES IDX 29 54 30 55 80 56 31 57 85 58 79 59 81 60 32 61 84 62 78 63
REMARK SMILES IDX 77 64 33 66 65 67 45 68 64 69 46 70 49 71 63 72 82 73 47 74
REMARK SMILES IDX 48 75 62 77 83 78 50 79 34 80 35 81 43 82 36 83 42 84 44 85
REMARK SMILES IDX 41 86 37 87 38 88 39 89 40 90 66 91 67 92 75 93 68 94 74 95
REMARK SMILES IDX 76 96 73 97 69 98 70 99 71 100 72 101 51 102 52 103 60 104
REMARK SMILES IDX 53 105 59 106 61 107 58 108 54 109 55 110 56 111 57 112
REMARK H PARENT 10 15 94 29 98 34 81 65 49 76
REMARK Flexibility Score: inf
ROOT
ATOM      1  C   UNL A   1      35.594  32.134  28.122  1.00  0.00     0.202 C 
ENDROOT
BRANCH   1   2
ATOM      2  C   UNL A   1      34.760  31.083  27.457  1.00  0.00     0.261 C 
BRANCH   2   3
ATOM      3  O   UNL A   1      33.367  30.944  27.840  1.00  0.00    -0.460 OA
BRANCH   3   4
ATOM      4  C   UNL A   1      32.407  30.822  26.905  1.00  0.00     0.338 C 
ATOM      5  O   UNL A   1      31.718  31.749  26.479  1.00  0.00    -0.246 OA
BRANCH   4   6
ATOM      6  C   UNL A   1      32.066  29.404  26.666  1.00  0.00     0.062 A 
ATOM      7  C   UNL A   1      31.807  27.678  25.040  1.00  0.00     0.065 A 
ATOM      8  C   UNL A   1      31.765  29.011  25.371  1.00  0.00     0.044 A 
ATOM      9  C   UNL A   1      32.017  26.651  26.009  1.00  0.00     0.061 A 
ATOM     10  C   UNL A   1      32.189  27.074  27.339  1.00  0.00     0.029 A 
ATOM     11  C   UNL A   1      32.256  28.440  27.661  1.00  0.00     0.018 A 
BRANCH   7  12
ATOM     12  N   UNL A   1      31.768  27.396  23.676  1.00  0.00    -0.320 N 
ATOM     13  C   UNL A   1      30.694  27.516  22.801  1.00  0.00     0.255 C 
ATOM     14  O   UNL A   1      31.002  27.478  21.598  1.00  0.00    -0.269 OA
ATOM     15  H   UNL A   1      32.609  27.068  23.281  1.00  0.00     0.170 HD
BRANCH  13  16
ATOM     16  C   UNL A   1      29.248  27.858  23.129  1.00  0.00     0.043 A 
ATOM     17  C   UNL A   1      28.755  30.127  21.881  1.00  0.00     0.045 C 
ATOM     18  C   UNL A   1      28.422  28.943  22.736  1.00  0.00    -0.038 A 
ATOM     19  C   UNL A   1      27.057  28.951  23.121  1.00  0.00     0.004 A 
ATOM     20  C   UNL A   1      26.460  27.862  23.737  1.00  0.00     0.000 A 
ATOM     21  C   UNL A   1      28.607  26.784  23.791  1.00  0.00     0.014 A 
ATOM     22  C   UNL A   1      27.235  26.766  24.060  1.00  0.00     0.001 A 
ENDBRANCH  13  16
ENDBRANCH   7  12
BRANCH   9  23
ATOM     23  N   UNL A   1      32.233  25.320  25.624  1.00  0.00    -0.359 N 
ATOM     24  C   UNL A   1      31.539  24.167  26.250  1.00  0.00     0.178 C 
ATOM     25  C   UNL A   1      33.633  24.978  25.359  1.00  0.00     0.178 C 
ATOM     26  C   UNL A   1      31.898  22.812  25.528  1.00  0.00     0.284 C 
ATOM     27  C   UNL A   1      33.672  23.843  24.345  1.00  0.00     0.284 C 
ATOM     28  N   UNL A   1      33.269  22.607  24.998  1.00  0.00    -0.324 N 
ATOM     29  H   UNL A   1      33.173  21.813  24.364  1.00  0.00     0.348 HD
BRANCH  28  30
ATOM     30  C   UNL A   1      34.344  22.052  25.865  1.00  0.00     0.364 C 
BRANCH  30  31
ATOM     31  C   UNL A   1      35.452  21.170  25.274  1.00  0.00     0.279 C 
ATOM     32  O   UNL A   1      35.125  20.096  24.741  1.00  0.00    -0.268 OA
ATOM     33  N   UNL A   1      36.783  21.493  25.175  1.00  0.00    -0.321 N 
ATOM     34  H   UNL A   1      37.205  20.951  24.470  1.00  0.00     0.170 HD
BRANCH  33  35
ATOM     35  C   UNL A   1      37.748  22.355  25.760  1.00  0.00     0.041 A 
ATOM     36  C   UNL A   1      38.938  21.744  26.203  1.00  0.00     0.029 A 
ATOM     37  C   UNL A   1      37.599  23.705  26.063  1.00  0.00     0.029 A 
ATOM     38  C   UNL A   1      39.925  22.455  26.907  1.00  0.00     0.041 A 
ATOM     39  C   UNL A   1      38.554  24.413  26.818  1.00  0.00     0.041 A 
ATOM     40  C   UNL A   1      39.718  23.786  27.222  1.00  0.00     0.123 A 
ATOM     41  F   UNL A   1      40.646  24.467  27.907  1.00  0.00    -0.207 F 
ENDBRANCH  33  35
ENDBRANCH  30  31
ENDBRANCH  28  30
ENDBRANCH   9  23
ENDBRANCH   4   6
ENDBRANCH   3   4
ENDBRANCH   2   3
ENDBRANCH   1   2
BRANCH   1  42
ATOM     42  O   UNL A   1      36.873  31.559  28.342  1.00  0.00    -0.374 OA
BRANCH  42  43
ATOM     43  C   UNL A   1      37.194  31.317  29.695  1.00  0.00     0.202 C 
BRANCH  43  44
ATOM     44  C   UNL A   1      37.162  29.822  30.029  1.00  0.00     0.261 C 
BRANCH  44  45
ATOM     45  O   UNL A   1      38.499  29.280  29.945  1.00  0.00    -0.460 OA
BRANCH  45  46
ATOM     46  C   UNL A   1      38.828  28.696  28.753  1.00  0.00     0.338 C 
ATOM     47  O   UNL A   1      38.240  27.764  28.252  1.00  0.00    -0.246 OA
BRANCH  46  48
ATOM     48  C   UNL A   1      40.114  29.262  28.241  1.00  0.00     0.060 A 
ATOM     49  C   UNL A   1      40.666  28.797  27.030  1.00  0.00     0.016 A 
ATOM     50  C   UNL A   1      40.894  30.017  29.110  1.00  0.00     0.016 A 
ATOM     51  C   UNL A   1      42.041  28.941  26.778  1.00  0.00     0.010 A 
ATOM     52  C   UNL A   1      42.257  30.032  28.923  1.00  0.00     0.010 A 
ATOM     53  C   UNL A   1      42.848  29.467  27.780  1.00  0.00    -0.014 A 
BRANCH  53  54
ATOM     54  C   UNL A   1      44.312  29.433  27.858  1.00  0.00     0.031 A 
ATOM     55  C   UNL A   1      45.014  30.615  27.310  1.00  0.00     0.074 A 
ATOM     56  C   UNL A   1      44.951  28.609  28.728  1.00  0.00     0.049 A 
ATOM     57  N   UNL A   1      46.232  30.899  27.564  1.00  0.00    -0.248 NA
ATOM     58  C   UNL A   1      44.378  31.630  26.472  1.00  0.00     0.031 C 
ATOM     59  C   UNL A   1      46.263  28.781  29.351  1.00  0.00     0.029 A 
ATOM     60  N   UNL A   1      44.572  27.351  29.209  1.00  0.00    -0.354 N 
ATOM     61  C   UNL A   1      46.487  32.188  27.188  1.00  0.00     0.074 A 
ATOM     62  C   UNL A   1      45.302  32.600  26.482  1.00  0.00     0.031 C 
ATOM     63  C   UNL A   1      46.729  27.590  29.756  1.00  0.00     0.029 A 
ATOM     64  C   UNL A   1      45.748  26.601  29.366  1.00  0.00     0.049 A 
ATOM     65  H   UNL A   1      43.654  27.050  29.401  1.00  0.00     0.167 HD
ATOM     66  C   UNL A   1      47.667  32.716  27.615  1.00  0.00     0.034 A 
ATOM     67  C   UNL A   1      45.945  25.480  28.633  1.00  0.00     0.034 A 
ATOM     68  C   UNL A   1      48.556  31.621  28.057  1.00  0.00     0.049 A 
ATOM     69  C   UNL A   1      47.135  25.796  27.760  1.00  0.00     0.074 A 
ATOM     70  C   UNL A   1      49.048  31.177  29.271  1.00  0.00     0.029 A 
ATOM     71  N   UNL A   1      48.779  30.578  27.151  1.00  0.00    -0.354 N 
ATOM     72  N   UNL A   1      47.405  27.000  27.295  1.00  0.00    -0.248 NA
ATOM     73  C   UNL A   1      48.275  24.886  27.697  1.00  0.00     0.031 C 
ATOM     74  C   UNL A   1      49.448  29.808  29.097  1.00  0.00     0.029 A 
ATOM     75  C   UNL A   1      49.206  29.426  27.780  1.00  0.00     0.049 A 
ATOM     76  H   UNL A   1      48.647  30.656  26.177  1.00  0.00     0.167 HD
ATOM     77  C   UNL A   1      48.764  27.092  27.106  1.00  0.00     0.074 A 
ATOM     78  C   UNL A   1      49.249  25.729  27.322  1.00  0.00     0.031 C 
ATOM     79  C   UNL A   1      49.521  28.233  26.996  1.00  0.00     0.034 A 
BRANCH  66  80
ATOM     80  C   UNL A   1      48.009  34.187  27.719  1.00  0.00     0.023 A 
ATOM     81  C   UNL A   1      48.050  34.785  28.996  1.00  0.00     0.031 A 
ATOM     82  C   UNL A   1      48.213  35.075  26.640  1.00  0.00     0.131 A 
ATOM     83  C   UNL A   1      48.287  36.166  29.160  1.00  0.00     0.055 A 
ATOM     84  C   UNL A   1      48.484  36.440  26.804  1.00  0.00     0.041 A 
ATOM     85  F   UNL A   1      48.130  34.693  25.362  1.00  0.00    -0.206 F 
ATOM     86  C   UNL A   1      48.520  36.996  28.069  1.00  0.00     0.022 A 
BRANCH  83  87
ATOM     87  S   UNL A   1      48.258  36.879  30.828  1.00  0.00     0.124 S 
ATOM     88  O   UNL A   1      47.100  37.765  30.764  1.00  0.00    -0.237 OA
ATOM     89  O   UNL A   1      48.123  35.695  31.670  1.00  0.00    -0.237 OA
ATOM     90  O   UNL A   1      49.548  37.560  30.929  1.00  0.00    -0.744 OA
ENDBRANCH  83  87
ENDBRANCH  66  80
BRANCH  67  91
ATOM     91  C   UNL A   1      44.644  24.749  28.455  1.00  0.00     0.023 A 
ATOM     92  C   UNL A   1      44.445  24.181  27.161  1.00  0.00     0.031 A 
ATOM     93  C   UNL A   1      43.977  24.128  29.523  1.00  0.00     0.131 A 
ATOM     94  C   UNL A   1      43.792  22.942  27.002  1.00  0.00     0.055 A 
ATOM     95  C   UNL A   1      43.279  22.917  29.345  1.00  0.00     0.041 A 
ATOM     96  F   UNL A   1      44.129  24.578  30.778  1.00  0.00    -0.206 F 
ATOM     97  C   UNL A   1      43.233  22.290  28.099  1.00  0.00     0.022 A 
BRANCH  94  98
ATOM     98  S   UNL A   1      43.893  22.082  25.393  1.00  0.00     0.124 S 
ATOM     99  O   UNL A   1      42.497  22.050  24.974  1.00  0.00    -0.237 OA
ATOM    100  O   UNL A   1      44.774  22.952  24.621  1.00  0.00    -0.237 OA
ATOM    101  O   UNL A   1      44.477  20.785  25.734  1.00  0.00    -0.744 OA
ENDBRANCH  94  98
ENDBRANCH  67  91
BRANCH  79 102
ATOM    102  C   UNL A   1      50.742  28.252  26.106  1.00  0.00     0.023 A 
ATOM    103  C   UNL A   1      50.658  28.630  24.763  1.00  0.00     0.031 A 
ATOM    104  C   UNL A   1      52.049  28.018  26.594  1.00  0.00     0.131 A 
ATOM    105  C   UNL A   1      51.779  28.630  23.932  1.00  0.00     0.055 A 
ATOM    106  C   UNL A   1      53.186  28.138  25.791  1.00  0.00     0.041 A 
ATOM    107  F   UNL A   1      52.294  27.695  27.871  1.00  0.00    -0.206 F 
ATOM    108  C   UNL A   1      53.054  28.420  24.439  1.00  0.00     0.022 A 
BRANCH 105 109
ATOM    109  S   UNL A   1      51.476  28.807  22.162  1.00  0.00     0.124 S 
ATOM    110  O   UNL A   1      51.062  30.205  22.075  1.00  0.00    -0.237 OA
ATOM    111  O   UNL A   1      52.782  28.500  21.584  1.00  0.00    -0.237 OA
ATOM    112  O   UNL A   1      50.429  27.827  21.896  1.00  0.00    -0.744 OA
ENDBRANCH 105 109
ENDBRANCH  79 102
ENDBRANCH  53  54
ENDBRANCH  46  48
ENDBRANCH  45  46
ENDBRANCH  44  45
ENDBRANCH  43  44
ENDBRANCH  42  43
ENDBRANCH   1  42
TORSDOF 23
ENDMDL
MODEL 3
REMARK VINA RESULT:     -10.8      4.734      8.309
REMARK SMILES Cc1ccccc1C(=O)Nc1cc(C(=O)OCCOCCOC(=O)c2ccc(-c3c4nc(c(-c5cc(S(=O)(=O)[O-])ccc5F)c5ccc([nH]5)c(-c5cc(S(=O)(=O)[O-])ccc5F)c5nc(c(-c6cc(S(=O)(=O)[O-])ccc6F)c6ccc3[nH]6)C=C5)C=C4)cc2)ccc1N1CC[NH+](CC(=O)Nc2ccc(F)cc2)CC1
REMARK SMILES IDX 18 1 17 2 16 3 14 4 15 5 13 6 11 7 12 8 90 9 89 10 88 11
REMARK SMILES IDX 10 12 8 13 9 14 7 16 1 17 2 18 3 19 4 20 6 21 5 22 91 23
REMARK SMILES IDX 92 24 107 25 93 26 106 27 94 28 95 30 96 31 97 32 98 33
REMARK SMILES IDX 99 35 100 36 105 37 101 38 104 39 102 40 103 41 19 42 20 43
REMARK SMILES IDX 21 44 22 45 23 46 24 47 25 48 26 49 87 50 27 51 86 52 28 53
REMARK SMILES IDX 29 54 30 55 80 56 31 57 85 58 79 59 81 60 32 61 84 62 78 63
REMARK SMILES IDX 77 64 33 66 65 67 45 68 64 69 46 70 49 71 63 72 82 73 47 74
REMARK SMILES IDX 48 75 62 77 83 78 50 79 34 80 35 81 43 82 36 83 42 84 44 85
REMARK SMILES IDX 41 86 37 87 38 88 39 89 40 90 66 91 67 92 75 93 68 94 74 95
REMARK SMILES IDX 76 96 73 97 69 98 70 99 71 100 72 101 51 102 52 103 60 104
REMARK SMILES IDX 53 105 59 106 61 107 58 108 54 109 55 110 56 111 57 112
REMARK H PARENT 10 15 94 29 98 34 81 65 49 76
REMARK Flexibility Score: inf
ROOT
ATOM      1  C   UNL A   1      44.276  31.606  36.236  1.00  0.00     0.202 C 
ENDROOT
BRANCH   1   2
ATOM      2  C   UNL A   1      43.544  32.907  36.118  1.00  0.00     0.261 C 
BRANCH   2   3
ATOM      3  O   UNL A   1      42.285  33.073  36.819  1.00  0.00    -0.460 OA
BRANCH   3   4
ATOM      4  C   UNL A   1      41.362  32.092  36.813  1.00  0.00     0.338 C 
ATOM      5  O   UNL A   1      41.456  31.034  37.435  1.00  0.00    -0.246 OA
BRANCH   4   6
ATOM      6  C   UNL A   1      40.368  32.297  35.739  1.00  0.00     0.062 A 
ATOM      7  C   UNL A   1      38.587  31.330  34.480  1.00  0.00     0.065 A 
ATOM      8  C   UNL A   1      39.752  31.182  35.193  1.00  0.00     0.044 A 
ATOM      9  C   UNL A   1      38.043  32.608  34.155  1.00  0.00     0.061 A 
ATOM     10  C   UNL A   1      38.761  33.728  34.612  1.00  0.00     0.029 A 
ATOM     11  C   UNL A   1      39.891  33.576  35.433  1.00  0.00     0.018 A 
BRANCH   7  12
ATOM     12  N   UNL A   1      37.894  30.152  34.209  1.00  0.00    -0.320 N 
ATOM     13  C   UNL A   1      37.933  29.375  33.058  1.00  0.00     0.255 C 
ATOM     14  O   UNL A   1      37.449  28.237  33.186  1.00  0.00    -0.269 OA
ATOM     15  H   UNL A   1      37.298  29.830  34.924  1.00  0.00     0.170 HD
BRANCH  13  16
ATOM     16  C   UNL A   1      38.639  29.674  31.744  1.00  0.00     0.043 A 
ATOM     17  C   UNL A   1      40.919  30.818  32.406  1.00  0.00     0.045 C 
ATOM     18  C   UNL A   1      39.898  30.266  31.460  1.00  0.00    -0.038 A 
ATOM     19  C   UNL A   1      40.348  30.329  30.118  1.00  0.00     0.004 A 
ATOM     20  C   UNL A   1      39.675  29.695  29.084  1.00  0.00     0.000 A 
ATOM     21  C   UNL A   1      37.964  29.073  30.654  1.00  0.00     0.014 A 
ATOM     22  C   UNL A   1      38.484  29.051  29.356  1.00  0.00     0.001 A 
ENDBRANCH  13  16
ENDBRANCH   7  12
BRANCH   9  23
ATOM     23  N   UNL A   1      36.767  32.733  33.585  1.00  0.00    -0.359 N 
ATOM     24  C   UNL A   1      36.415  32.192  32.248  1.00  0.00     0.178 C 
ATOM     25  C   UNL A   1      36.134  34.041  33.778  1.00  0.00     0.178 C 
ATOM     26  C   UNL A   1      34.882  32.382  31.931  1.00  0.00     0.284 C 
ATOM     27  C   UNL A   1      34.623  33.854  33.769  1.00  0.00     0.284 C 
ATOM     28  N   UNL A   1      34.183  33.603  32.405  1.00  0.00    -0.324 N 
ATOM     29  H   UNL A   1      33.193  33.369  32.323  1.00  0.00     0.348 HD
BRANCH  28  30
ATOM     30  C   UNL A   1      34.173  34.841  31.579  1.00  0.00     0.364 C 
BRANCH  30  31
ATOM     31  C   UNL A   1      33.382  34.901  30.265  1.00  0.00     0.279 C 
ATOM     32  O   UNL A   1      32.449  35.717  30.180  1.00  0.00    -0.268 OA
ATOM     33  N   UNL A   1      33.666  34.211  29.112  1.00  0.00    -0.321 N 
ATOM     34  H   UNL A   1      33.258  34.668  28.342  1.00  0.00     0.170 HD
BRANCH  33  35
ATOM     35  C   UNL A   1      34.357  33.051  28.671  1.00  0.00     0.041 A 
ATOM     36  C   UNL A   1      35.763  33.095  28.762  1.00  0.00     0.029 A 
ATOM     37  C   UNL A   1      33.815  31.935  28.042  1.00  0.00     0.029 A 
ATOM     38  C   UNL A   1      36.576  32.068  28.252  1.00  0.00     0.041 A 
ATOM     39  C   UNL A   1      34.621  30.930  27.475  1.00  0.00     0.041 A 
ATOM     40  C   UNL A   1      35.997  30.996  27.598  1.00  0.00     0.123 A 
ATOM     41  F   UNL A   1      36.765  30.021  27.094  1.00  0.00    -0.207 F 
ENDBRANCH  33  35
ENDBRANCH  30  31
ENDBRANCH  28  30
ENDBRANCH   9  23
ENDBRANCH   4   6
ENDBRANCH   3   4
ENDBRANCH   2   3
ENDBRANCH   1   2
BRANCH   1  42
ATOM     42  O   UNL A   1      44.489  31.384  37.622  1.00  0.00    -0.374 OA
BRANCH  42  43
ATOM     43  C   UNL A   1      44.799  30.053  37.972  1.00  0.00     0.202 C 
BRANCH  43  44
ATOM     44  C   UNL A   1      44.595  29.092  36.796  1.00  0.00     0.261 C 
BRANCH  44  45
ATOM     45  O   UNL A   1      43.503  28.193  37.090  1.00  0.00    -0.460 OA
BRANCH  45  46
ATOM     46  C   UNL A   1      43.305  27.186  36.186  1.00  0.00     0.338 C 
ATOM     47  O   UNL A   1      43.336  26.004  36.447  1.00  0.00    -0.246 OA
BRANCH  46  48
ATOM     48  C   UNL A   1      43.212  27.747  34.803  1.00  0.00     0.060 A 
ATOM     49  C   UNL A   1      42.098  27.457  33.989  1.00  0.00     0.016 A 
ATOM     50  C   UNL A   1      44.357  28.294  34.236  1.00  0.00     0.016 A 
ATOM     51  C   UNL A   1      42.199  27.554  32.592  1.00  0.00     0.010 A 
ATOM     52  C   UNL A   1      44.495  28.253  32.868  1.00  0.00     0.010 A 
ATOM     53  C   UNL A   1      43.437  27.852  32.034  1.00  0.00    -0.014 A 
BRANCH  53  54
ATOM     54  C   UNL A   1      43.842  27.712  30.632  1.00  0.00     0.031 A 
ATOM     55  C   UNL A   1      44.110  26.331  30.173  1.00  0.00     0.074 A 
ATOM     56  C   UNL A   1      43.586  28.690  29.724  1.00  0.00     0.049 A 
ATOM     57  N   UNL A   1      44.167  25.990  28.945  1.00  0.00    -0.248 NA
ATOM     58  C   UNL A   1      44.270  25.186  31.068  1.00  0.00     0.031 C 
ATOM     59  C   UNL A   1      43.391  28.565  28.280  1.00  0.00     0.029 A 
ATOM     60  N   UNL A   1      43.507  30.076  29.903  1.00  0.00    -0.354 N 
ATOM     61  C   UNL A   1      44.103  24.627  28.848  1.00  0.00     0.074 A 
ATOM     62  C   UNL A   1      44.196  24.163  30.207  1.00  0.00     0.031 C 
ATOM     63  C   UNL A   1      43.621  29.749  27.691  1.00  0.00     0.029 A 
ATOM     64  C   UNL A   1      44.015  30.668  28.736  1.00  0.00     0.049 A 
ATOM     65  H   UNL A   1      43.160  30.545  30.696  1.00  0.00     0.167 HD
ATOM     66  C   UNL A   1      43.907  24.122  27.598  1.00  0.00     0.034 A 
ATOM     67  C   UNL A   1      45.131  31.434  28.791  1.00  0.00     0.034 A 
ATOM     68  C   UNL A   1      44.203  25.172  26.601  1.00  0.00     0.049 A 
ATOM     69  C   UNL A   1      46.154  30.680  27.975  1.00  0.00     0.074 A 
ATOM     70  C   UNL A   1      43.458  25.933  25.717  1.00  0.00     0.029 A 
ATOM     71  N   UNL A   1      45.449  25.802  26.690  1.00  0.00    -0.354 N 
ATOM     72  N   UNL A   1      46.204  29.365  27.894  1.00  0.00    -0.248 NA
ATOM     73  C   UNL A   1      46.903  31.351  26.917  1.00  0.00     0.031 C 
ATOM     74  C   UNL A   1      44.240  27.093  25.387  1.00  0.00     0.029 A 
ATOM     75  C   UNL A   1      45.456  27.031  26.062  1.00  0.00     0.049 A 
ATOM     76  H   UNL A   1      46.231  25.415  27.149  1.00  0.00     0.167 HD
ATOM     77  C   UNL A   1      46.764  29.031  26.684  1.00  0.00     0.074 A 
ATOM     78  C   UNL A   1      47.228  30.307  26.138  1.00  0.00     0.031 C 
ATOM     79  C   UNL A   1      46.679  27.830  26.021  1.00  0.00     0.034 A 
BRANCH  66  80
ATOM     80  C   UNL A   1      43.385  22.744  27.257  1.00  0.00     0.023 A 
ATOM     81  C   UNL A   1      44.129  21.937  26.370  1.00  0.00     0.031 A 
ATOM     82  C   UNL A   1      42.153  22.191  27.672  1.00  0.00     0.131 A 
ATOM     83  C   UNL A   1      43.663  20.673  25.950  1.00  0.00     0.055 A 
ATOM     84  C   UNL A   1      41.705  20.921  27.282  1.00  0.00     0.041 A 
ATOM     85  F   UNL A   1      41.288  22.852  28.447  1.00  0.00    -0.206 F 
ATOM     86  C   UNL A   1      42.459  20.153  26.415  1.00  0.00     0.022 A 
BRANCH  83  87
ATOM     87  S   UNL A   1      44.640  19.720  24.756  1.00  0.00     0.124 S 
ATOM     88  O   UNL A   1      45.988  19.824  25.306  1.00  0.00    -0.237 OA
ATOM     89  O   UNL A   1      44.014  18.404  24.822  1.00  0.00    -0.237 OA
ATOM     90  O   UNL A   1      44.433  20.437  23.498  1.00  0.00    -0.744 OA
ENDBRANCH  83  87
ENDBRANCH  66  80
BRANCH  67  91
ATOM     91  C   UNL A   1      45.145  32.228  30.066  1.00  0.00     0.023 A 
ATOM     92  C   UNL A   1      44.212  33.308  30.112  1.00  0.00     0.031 A 
ATOM     93  C   UNL A   1      45.521  31.670  31.297  1.00  0.00     0.131 A 
ATOM     94  C   UNL A   1      43.547  33.644  31.308  1.00  0.00     0.055 A 
ATOM     95  C   UNL A   1      44.889  32.051  32.497  1.00  0.00     0.041 A 
ATOM     96  F   UNL A   1      46.372  30.633  31.346  1.00  0.00    -0.206 F 
ATOM     97  C   UNL A   1      43.861  32.995  32.500  1.00  0.00     0.022 A 
BRANCH  94  98
ATOM     98  S   UNL A   1      42.104  34.763  31.241  1.00  0.00     0.124 S 
ATOM     99  O   UNL A   1      41.701  34.829  32.641  1.00  0.00    -0.237 OA
ATOM    100  O   UNL A   1      42.674  35.984  30.680  1.00  0.00    -0.237 OA
ATOM    101  O   UNL A   1      41.174  34.071  30.351  1.00  0.00    -0.744 OA
ENDBRANCH  94  98
ENDBRANCH  67  91
BRANCH  79 102
ATOM    102  C   UNL A   1      47.837  27.343  25.180  1.00  0.00     0.023 A 
ATOM    103  C   UNL A   1      47.991  27.748  23.851  1.00  0.00     0.031 A 
ATOM    104  C   UNL A   1      48.892  26.563  25.707  1.00  0.00     0.131 A 
ATOM    105  C   UNL A   1      49.048  27.287  23.064  1.00  0.00     0.055 A 
ATOM    106  C   UNL A   1      50.012  26.203  24.954  1.00  0.00     0.041 A 
ATOM    107  F   UNL A   1      48.909  26.141  26.979  1.00  0.00    -0.206 F 
ATOM    108  C   UNL A   1      50.083  26.541  23.611  1.00  0.00     0.022 A 
BRANCH 105 109
ATOM    109  S   UNL A   1      48.942  27.612  21.293  1.00  0.00     0.124 S 
ATOM    110  O   UNL A   1      49.679  26.477  20.743  1.00  0.00    -0.237 OA
ATOM    111  O   UNL A   1      47.501  27.604  21.054  1.00  0.00    -0.237 OA
ATOM    112  O   UNL A   1      49.591  28.911  21.146  1.00  0.00    -0.744 OA
ENDBRANCH 105 109
ENDBRANCH  79 102
ENDBRANCH  53  54
ENDBRANCH  46  48
ENDBRANCH  45  46
ENDBRANCH  44  45
ENDBRANCH  43  44
ENDBRANCH  42  43
ENDBRANCH   1  42
TORSDOF 23
ENDMDL
