MODEL 1
REMARK VINA RESULT:     -11.5      0.000      0.000
REMARK SMILES Cc1c(C[NH2+]Cc2cccc(F)c2)c(C(=O)OCCOCCOC(=O)c2ccc(-c3c4nc(c(-c5cc(S(=O)(=O)[O-])ccc5F)c5ccc([nH]5)c(-c5cc(S(=O)(=O)[O-])ccc5F)c5nc(c(-c6cc(S(=O)(=O)[O-])ccc6F)c6ccc3[nH]6)C=C5)C=C4)cc2)c(C)n1Cc1c(F)cccc1Cl
REMARK SMILES IDX 19 1 18 2 17 3 15 4 16 5 14 6 1 7 2 8 3 9 91 10 89 11 90 12
REMARK SMILES IDX 4 13 5 14 6 17 7 18 8 19 13 20 9 21 11 22 10 23 12 24 92 25
REMARK SMILES IDX 93 26 94 27 99 28 95 29 96 30 98 31 100 32 97 33 20 34 21 35
REMARK SMILES IDX 22 36 23 37 24 38 25 39 26 40 27 41 88 42 28 43 87 44 29 45
REMARK SMILES IDX 30 46 31 47 81 48 32 49 86 50 80 51 82 52 33 53 85 54 79 55
REMARK SMILES IDX 78 56 34 58 66 59 46 60 65 61 47 62 50 63 64 64 83 65 48 66
REMARK SMILES IDX 49 67 63 69 84 70 51 71 35 72 36 73 44 74 37 75 43 76 45 77
REMARK SMILES IDX 42 78 38 79 39 80 40 81 41 82 67 83 68 84 76 85 69 86 75 87
REMARK SMILES IDX 77 88 74 89 70 90 71 91 72 92 73 93 52 94 53 95 61 96 54 97
REMARK SMILES IDX 60 98 62 99 59 100 55 101 56 102 57 103 58 104
REMARK H PARENT 5 15 5 16 82 57 50 68
REMARK Flexibility Score: inf
ROOT
ATOM      1  C   UNL A   1      35.767  30.454  27.805  1.00  0.00     0.202 C 
ENDROOT
BRANCH   1   2
ATOM      2  C   UNL A   1      34.448  30.005  27.151  1.00  0.00     0.261 C 
BRANCH   2   3
ATOM      3  O   UNL A   1      34.360  28.581  27.102  1.00  0.00    -0.460 OA
BRANCH   3   4
ATOM      4  C   UNL A   1      33.137  28.027  26.902  1.00  0.00     0.340 C 
ATOM      5  O   UNL A   1      32.317  27.823  27.814  1.00  0.00    -0.246 OA
BRANCH   4   6
ATOM      6  C   UNL A   1      32.882  27.761  25.483  1.00  0.00     0.089 A 
ATOM      7  C   UNL A   1      33.122  26.041  22.172  1.00  0.00     0.065 C 
ATOM      8  C   UNL A   1      32.834  26.851  23.394  1.00  0.00     0.025 A 
ATOM      9  C   UNL A   1      33.412  26.715  24.659  1.00  0.00     0.042 A 
ATOM     10  N   UNL A   1      31.880  27.865  23.459  1.00  0.00    -0.343 N 
ATOM     11  C   UNL A   1      32.027  28.513  24.675  1.00  0.00     0.030 A 
ATOM     12  C   UNL A   1      31.338  29.783  25.052  1.00  0.00     0.065 C 
BRANCH   9  13
ATOM     13  C   UNL A   1      34.377  25.645  25.109  1.00  0.00     0.300 C 
BRANCH  13  14
ATOM     14  N   UNL A   1      33.625  24.509  25.618  1.00  0.00    -0.339 N 
ATOM     15  H   UNL A   1      33.373  23.912  24.830  1.00  0.00     0.346 HD
ATOM     16  H   UNL A   1      32.810  24.889  26.100  1.00  0.00     0.346 HD
BRANCH  14  17
ATOM     17  C   UNL A   1      34.349  23.704  26.590  1.00  0.00     0.297 C 
BRANCH  17  18
ATOM     18  C   UNL A   1      35.438  22.804  26.037  1.00  0.00     0.009 A 
ATOM     19  C   UNL A   1      36.782  23.193  25.924  1.00  0.00     0.010 A 
ATOM     20  C   UNL A   1      35.092  21.505  25.626  1.00  0.00     0.048 A 
ATOM     21  C   UNL A   1      37.744  22.337  25.381  1.00  0.00     0.004 A 
ATOM     22  C   UNL A   1      36.059  20.652  25.101  1.00  0.00     0.123 A 
ATOM     23  C   UNL A   1      37.380  21.061  24.964  1.00  0.00     0.039 A 
ATOM     24  F   UNL A   1      35.711  19.417  24.716  1.00  0.00    -0.207 F 
ENDBRANCH  17  18
ENDBRANCH  14  17
ENDBRANCH  13  14
ENDBRANCH   9  13
BRANCH  10  25
ATOM     25  C   UNL A   1      30.964  28.283  22.376  1.00  0.00     0.162 C 
BRANCH  25  26
ATOM     26  C   UNL A   1      29.501  28.346  22.767  1.00  0.00     0.026 A 
ATOM     27  C   UNL A   1      28.900  27.257  23.418  1.00  0.00     0.129 A 
ATOM     28  C   UNL A   1      28.691  29.477  22.587  1.00  0.00     0.048 A 
ATOM     29  F   UNL A   1      29.641  26.223  23.825  1.00  0.00    -0.207 F 
ATOM     30  C   UNL A   1      27.551  27.229  23.765  1.00  0.00     0.040 A 
ATOM     31  C   UNL A   1      27.338  29.475  22.973  1.00  0.00     0.021 A 
ATOM     32  Cl  UNL A   1      29.312  30.968  21.971  1.00  0.00    -0.084 Cl
ATOM     33  C   UNL A   1      26.758  28.339  23.533  1.00  0.00     0.005 A 
ENDBRANCH  25  26
ENDBRANCH  10  25
ENDBRANCH   4   6
ENDBRANCH   3   4
ENDBRANCH   2   3
ENDBRANCH   1   2
BRANCH   1  34
ATOM     34  O   UNL A   1      35.719  31.721  28.462  1.00  0.00    -0.374 OA
BRANCH  34  35
ATOM     35  C   UNL A   1      34.520  32.502  28.264  1.00  0.00     0.202 C 
BRANCH  35  36
ATOM     36  C   UNL A   1      34.301  33.716  29.234  1.00  0.00     0.261 C 
BRANCH  36  37
ATOM     37  O   UNL A   1      34.155  33.464  30.704  1.00  0.00    -0.460 OA
BRANCH  37  38
ATOM     38  C   UNL A   1      35.211  33.861  31.518  1.00  0.00     0.338 C 
ATOM     39  O   UNL A   1      35.204  34.949  32.082  1.00  0.00    -0.246 OA
BRANCH  38  40
ATOM     40  C   UNL A   1      36.417  32.884  31.732  1.00  0.00     0.060 A 
ATOM     41  C   UNL A   1      37.522  32.928  30.887  1.00  0.00     0.016 A 
ATOM     42  C   UNL A   1      36.380  31.694  32.505  1.00  0.00     0.016 A 
ATOM     43  C   UNL A   1      38.555  31.883  30.882  1.00  0.00     0.010 A 
ATOM     44  C   UNL A   1      37.411  30.594  32.450  1.00  0.00     0.010 A 
ATOM     45  C   UNL A   1      38.565  30.635  31.634  1.00  0.00    -0.014 A 
BRANCH  45  46
ATOM     46  C   UNL A   1      39.559  29.362  31.045  1.00  0.00     0.031 A 
ATOM     47  C   UNL A   1      40.424  29.157  32.244  1.00  0.00     0.074 A 
ATOM     48  C   UNL A   1      39.981  28.551  29.940  1.00  0.00     0.049 A 
ATOM     49  N   UNL A   1      41.047  30.182  32.760  1.00  0.00    -0.248 NA
ATOM     50  C   UNL A   1      40.331  28.002  33.137  1.00  0.00     0.031 C 
ATOM     51  C   UNL A   1      39.590  28.649  28.515  1.00  0.00     0.029 A 
ATOM     52  N   UNL A   1      40.908  27.408  29.799  1.00  0.00    -0.354 N 
ATOM     53  C   UNL A   1      41.771  29.691  33.810  1.00  0.00     0.074 A 
ATOM     54  C   UNL A   1      41.074  28.457  34.156  1.00  0.00     0.031 C 
ATOM     55  C   UNL A   1      40.070  27.617  27.744  1.00  0.00     0.029 A 
ATOM     56  C   UNL A   1      40.920  26.685  28.503  1.00  0.00     0.049 A 
ATOM     57  H   UNL A   1      41.498  27.136  30.539  1.00  0.00     0.167 HD
ATOM     58  C   UNL A   1      43.116  29.909  33.716  1.00  0.00     0.034 A 
ATOM     59  C   UNL A   1      41.616  25.530  28.032  1.00  0.00     0.034 A 
ATOM     60  C   UNL A   1      43.834  28.738  33.290  1.00  0.00     0.049 A 
ATOM     61  C   UNL A   1      42.916  25.568  28.698  1.00  0.00     0.074 A 
ATOM     62  C   UNL A   1      43.707  27.393  33.570  1.00  0.00     0.029 A 
ATOM     63  N   UNL A   1      44.541  28.832  32.109  1.00  0.00    -0.354 N 
ATOM     64  N   UNL A   1      43.844  26.394  28.325  1.00  0.00    -0.248 NA
ATOM     65  C   UNL A   1      43.308  24.580  29.697  1.00  0.00     0.031 C 
ATOM     66  C   UNL A   1      43.852  26.760  32.320  1.00  0.00     0.029 A 
ATOM     67  C   UNL A   1      44.452  27.642  31.427  1.00  0.00     0.049 A 
ATOM     68  H   UNL A   1      45.032  29.628  31.802  1.00  0.00     0.167 HD
ATOM     69  C   UNL A   1      44.670  26.402  29.407  1.00  0.00     0.074 A 
ATOM     70  C   UNL A   1      44.486  25.105  30.038  1.00  0.00     0.031 C 
ATOM     71  C   UNL A   1      44.789  27.607  30.019  1.00  0.00     0.034 A 
BRANCH  58  72
ATOM     72  C   UNL A   1      43.501  31.302  33.280  1.00  0.00     0.023 A 
ATOM     73  C   UNL A   1      42.648  32.005  32.426  1.00  0.00     0.031 A 
ATOM     74  C   UNL A   1      44.709  31.928  33.669  1.00  0.00     0.131 A 
ATOM     75  C   UNL A   1      43.042  33.260  31.932  1.00  0.00     0.055 A 
ATOM     76  C   UNL A   1      45.125  33.141  33.126  1.00  0.00     0.041 A 
ATOM     77  F   UNL A   1      45.496  31.383  34.611  1.00  0.00    -0.206 F 
ATOM     78  C   UNL A   1      44.289  33.813  32.244  1.00  0.00     0.022 A 
BRANCH  75  79
ATOM     79  S   UNL A   1      41.863  34.197  30.929  1.00  0.00     0.124 S 
ATOM     80  O   UNL A   1      40.731  34.348  31.838  1.00  0.00    -0.237 OA
ATOM     81  O   UNL A   1      42.605  35.422  30.640  1.00  0.00    -0.237 OA
ATOM     82  O   UNL A   1      41.625  33.334  29.774  1.00  0.00    -0.744 OA
ENDBRANCH  75  79
ENDBRANCH  58  72
BRANCH  59  83
ATOM     83  C   UNL A   1      41.755  24.348  26.918  1.00  0.00     0.023 A 
ATOM     84  C   UNL A   1      42.897  24.249  25.986  1.00  0.00     0.031 A 
ATOM     85  C   UNL A   1      41.034  23.151  27.005  1.00  0.00     0.131 A 
ATOM     86  C   UNL A   1      43.274  23.045  25.296  1.00  0.00     0.055 A 
ATOM     87  C   UNL A   1      41.403  21.963  26.301  1.00  0.00     0.041 A 
ATOM     88  F   UNL A   1      39.995  23.051  27.846  1.00  0.00    -0.206 F 
ATOM     89  C   UNL A   1      42.525  21.895  25.472  1.00  0.00     0.022 A 
BRANCH  86  90
ATOM     90  S   UNL A   1      44.856  22.857  24.329  1.00  0.00     0.124 S 
ATOM     91  O   UNL A   1      44.407  22.252  23.080  1.00  0.00    -0.237 OA
ATOM     92  O   UNL A   1      45.364  24.221  24.245  1.00  0.00    -0.237 OA
ATOM     93  O   UNL A   1      45.663  21.971  25.172  1.00  0.00    -0.744 OA
ENDBRANCH  86  90
ENDBRANCH  59  83
BRANCH  71  94
ATOM     94  C   UNL A   1      45.041  28.822  29.134  1.00  0.00     0.023 A 
ATOM     95  C   UNL A   1      46.275  29.202  28.536  1.00  0.00     0.031 A 
ATOM     96  C   UNL A   1      43.959  29.693  28.936  1.00  0.00     0.131 A 
ATOM     97  C   UNL A   1      46.386  30.403  27.803  1.00  0.00     0.055 A 
ATOM     98  C   UNL A   1      44.058  30.861  28.181  1.00  0.00     0.041 A 
ATOM     99  F   UNL A   1      42.764  29.412  29.482  1.00  0.00    -0.206 F 
ATOM    100  C   UNL A   1      45.275  31.228  27.619  1.00  0.00     0.022 A 
BRANCH  97 101
ATOM    101  S   UNL A   1      47.992  30.927  27.106  1.00  0.00     0.124 S 
ATOM    102  O   UNL A   1      47.636  32.069  26.271  1.00  0.00    -0.237 OA
ATOM    103  O   UNL A   1      48.781  31.229  28.296  1.00  0.00    -0.237 OA
ATOM    104  O   UNL A   1      48.443  29.750  26.360  1.00  0.00    -0.744 OA
ENDBRANCH  97 101
ENDBRANCH  71  94
ENDBRANCH  45  46
ENDBRANCH  38  40
ENDBRANCH  37  38
ENDBRANCH  36  37
ENDBRANCH  35  36
ENDBRANCH  34  35
ENDBRANCH   1  34
TORSDOF 23
ENDMDL
MODEL 2
REMARK VINA RESULT:     -11.3      3.396      8.564
REMARK SMILES Cc1c(C[NH2+]Cc2cccc(F)c2)c(C(=O)OCCOCCOC(=O)c2ccc(-c3c4nc(c(-c5cc(S(=O)(=O)[O-])ccc5F)c5ccc([nH]5)c(-c5cc(S(=O)(=O)[O-])ccc5F)c5nc(c(-c6cc(S(=O)(=O)[O-])ccc6F)c6ccc3[nH]6)C=C5)C=C4)cc2)c(C)n1Cc1c(F)cccc1Cl
REMARK SMILES IDX 19 1 18 2 17 3 15 4 16 5 14 6 1 7 2 8 3 9 91 10 89 11 90 12
REMARK SMILES IDX 4 13 5 14 6 17 7 18 8 19 13 20 9 21 11 22 10 23 12 24 92 25
REMARK SMILES IDX 93 26 94 27 99 28 95 29 96 30 98 31 100 32 97 33 20 34 21 35
REMARK SMILES IDX 22 36 23 37 24 38 25 39 26 40 27 41 88 42 28 43 87 44 29 45
REMARK SMILES IDX 30 46 31 47 81 48 32 49 86 50 80 51 82 52 33 53 85 54 79 55
REMARK SMILES IDX 78 56 34 58 66 59 46 60 65 61 47 62 50 63 64 64 83 65 48 66
REMARK SMILES IDX 49 67 63 69 84 70 51 71 35 72 36 73 44 74 37 75 43 76 45 77
REMARK SMILES IDX 42 78 38 79 39 80 40 81 41 82 67 83 68 84 76 85 69 86 75 87
REMARK SMILES IDX 77 88 74 89 70 90 71 91 72 92 73 93 52 94 53 95 61 96 54 97
REMARK SMILES IDX 60 98 62 99 59 100 55 101 56 102 57 103 58 104
REMARK H PARENT 5 15 5 16 82 57 50 68
REMARK Flexibility Score: inf
ROOT
ATOM      1  C   UNL A   1      38.208  21.484  25.375  1.00  0.00     0.202 C 
ENDROOT
BRANCH   1   2
ATOM      2  C   UNL A   1      37.049  21.670  24.381  1.00  0.00     0.261 C 
BRANCH   2   3
ATOM      3  O   UNL A   1      36.143  22.677  24.834  1.00  0.00    -0.460 OA
BRANCH   3   4
ATOM      4  C   UNL A   1      35.279  23.206  23.931  1.00  0.00     0.340 C 
ATOM      5  O   UNL A   1      35.562  23.391  22.734  1.00  0.00    -0.246 OA
BRANCH   4   6
ATOM      6  C   UNL A   1      33.963  23.471  24.522  1.00  0.00     0.089 A 
ATOM      7  C   UNL A   1      31.169  23.299  27.000  1.00  0.00     0.065 C 
ATOM      8  C   UNL A   1      32.156  23.555  25.908  1.00  0.00     0.025 A 
ATOM      9  C   UNL A   1      33.422  22.984  25.757  1.00  0.00     0.042 A 
ATOM     10  N   UNL A   1      31.963  24.466  24.872  1.00  0.00    -0.343 N 
ATOM     11  C   UNL A   1      32.988  24.294  23.954  1.00  0.00     0.030 A 
ATOM     12  C   UNL A   1      33.039  24.931  22.605  1.00  0.00     0.065 C 
BRANCH   9  13
ATOM     13  C   UNL A   1      34.127  22.064  26.724  1.00  0.00     0.300 C 
BRANCH  13  14
ATOM     14  N   UNL A   1      34.352  20.779  26.082  1.00  0.00    -0.339 N 
ATOM     15  H   UNL A   1      34.830  20.169  26.745  1.00  0.00     0.346 HD
ATOM     16  H   UNL A   1      34.907  20.961  25.245  1.00  0.00     0.346 HD
BRANCH  14  17
ATOM     17  C   UNL A   1      33.135  20.113  25.641  1.00  0.00     0.297 C 
BRANCH  17  18
ATOM     18  C   UNL A   1      33.312  18.988  24.640  1.00  0.00     0.009 A 
ATOM     19  C   UNL A   1      34.165  17.892  24.848  1.00  0.00     0.010 A 
ATOM     20  C   UNL A   1      32.575  19.030  23.444  1.00  0.00     0.048 A 
ATOM     21  C   UNL A   1      34.315  16.893  23.882  1.00  0.00     0.004 A 
ATOM     22  C   UNL A   1      32.717  18.022  22.493  1.00  0.00     0.123 A 
ATOM     23  C   UNL A   1      33.590  16.961  22.697  1.00  0.00     0.039 A 
ATOM     24  F   UNL A   1      32.005  18.079  21.360  1.00  0.00    -0.207 F 
ENDBRANCH  17  18
ENDBRANCH  14  17
ENDBRANCH  13  14
ENDBRANCH   9  13
BRANCH  10  25
ATOM     25  C   UNL A   1      30.802  25.364  24.692  1.00  0.00     0.162 C 
BRANCH  25  26
ATOM     26  C   UNL A   1      31.087  26.832  24.934  1.00  0.00     0.026 A 
ATOM     27  C   UNL A   1      31.529  27.265  26.193  1.00  0.00     0.129 A 
ATOM     28  C   UNL A   1      31.010  27.819  23.938  1.00  0.00     0.048 A 
ATOM     29  F   UNL A   1      31.839  26.375  27.140  1.00  0.00    -0.207 F 
ATOM     30  C   UNL A   1      31.767  28.604  26.499  1.00  0.00     0.040 A 
ATOM     31  C   UNL A   1      31.290  29.168  24.224  1.00  0.00     0.021 A 
ATOM     32  Cl  UNL A   1      30.661  27.439  22.288  1.00  0.00    -0.084 Cl
ATOM     33  C   UNL A   1      31.637  29.567  25.513  1.00  0.00     0.005 A 
ENDBRANCH  25  26
ENDBRANCH  10  25
ENDBRANCH   4   6
ENDBRANCH   3   4
ENDBRANCH   2   3
ENDBRANCH   1   2
BRANCH   1  34
ATOM     34  O   UNL A   1      38.467  22.603  26.224  1.00  0.00    -0.374 OA
BRANCH  34  35
ATOM     35  C   UNL A   1      39.760  22.636  26.866  1.00  0.00     0.202 C 
BRANCH  35  36
ATOM     36  C   UNL A   1      40.652  21.353  26.722  1.00  0.00     0.261 C 
BRANCH  36  37
ATOM     37  O   UNL A   1      42.008  21.325  27.360  1.00  0.00    -0.460 OA
BRANCH  37  38
ATOM     38  C   UNL A   1      42.991  22.123  26.785  1.00  0.00     0.338 C 
ATOM     39  O   UNL A   1      43.797  21.661  25.986  1.00  0.00    -0.246 OA
BRANCH  38  40
ATOM     40  C   UNL A   1      43.049  23.646  27.152  1.00  0.00     0.060 A 
ATOM     41  C   UNL A   1      42.649  24.086  28.411  1.00  0.00     0.016 A 
ATOM     42  C   UNL A   1      43.149  24.710  26.218  1.00  0.00     0.016 A 
ATOM     43  C   UNL A   1      42.443  25.507  28.722  1.00  0.00     0.010 A 
ATOM     44  C   UNL A   1      42.876  26.161  26.528  1.00  0.00     0.010 A 
ATOM     45  C   UNL A   1      42.512  26.639  27.807  1.00  0.00    -0.014 A 
BRANCH  45  46
ATOM     46  C   UNL A   1      41.697  28.081  28.267  1.00  0.00     0.031 A 
ATOM     47  C   UNL A   1      42.805  29.060  28.065  1.00  0.00     0.074 A 
ATOM     48  C   UNL A   1      40.539  28.701  28.844  1.00  0.00     0.049 A 
ATOM     49  N   UNL A   1      43.958  28.843  28.639  1.00  0.00    -0.248 NA
ATOM     50  C   UNL A   1      42.855  30.029  26.969  1.00  0.00     0.031 C 
ATOM     51  C   UNL A   1      39.352  28.061  29.455  1.00  0.00     0.029 A 
ATOM     52  N   UNL A   1      40.121  30.103  29.054  1.00  0.00    -0.354 N 
ATOM     53  C   UNL A   1      44.750  29.903  28.301  1.00  0.00     0.074 A 
ATOM     54  C   UNL A   1      44.135  30.413  27.080  1.00  0.00     0.031 C 
ATOM     55  C   UNL A   1      38.355  28.952  29.778  1.00  0.00     0.029 A 
ATOM     56  C   UNL A   1      38.727  30.349  29.502  1.00  0.00     0.049 A 
ATOM     57  H   UNL A   1      40.745  30.850  28.903  1.00  0.00     0.167 HD
ATOM     58  C   UNL A   1      45.232  30.608  29.367  1.00  0.00     0.034 A 
ATOM     59  C   UNL A   1      37.970  31.535  29.743  1.00  0.00     0.034 A 
ATOM     60  C   UNL A   1      44.508  31.830  29.589  1.00  0.00     0.049 A 
ATOM     61  C   UNL A   1      38.933  32.507  30.255  1.00  0.00     0.074 A 
ATOM     62  C   UNL A   1      43.967  32.780  28.746  1.00  0.00     0.029 A 
ATOM     63  N   UNL A   1      43.867  31.967  30.803  1.00  0.00    -0.354 N 
ATOM     64  N   UNL A   1      39.385  32.438  31.468  1.00  0.00    -0.248 NA
ATOM     65  C   UNL A   1      39.314  33.697  29.501  1.00  0.00     0.031 C 
ATOM     66  C   UNL A   1      42.701  33.056  29.297  1.00  0.00     0.029 A 
ATOM     67  C   UNL A   1      42.670  32.618  30.616  1.00  0.00     0.049 A 
ATOM     68  H   UNL A   1      44.212  31.647  31.668  1.00  0.00     0.167 HD
ATOM     69  C   UNL A   1      40.503  33.212  31.401  1.00  0.00     0.074 A 
ATOM     70  C   UNL A   1      40.244  34.166  30.335  1.00  0.00     0.031 C 
ATOM     71  C   UNL A   1      41.662  32.555  31.654  1.00  0.00     0.034 A 
BRANCH  58  72
ATOM     72  C   UNL A   1      45.760  29.759  30.498  1.00  0.00     0.023 A 
ATOM     73  C   UNL A   1      44.950  28.749  31.023  1.00  0.00     0.031 A 
ATOM     74  C   UNL A   1      47.033  29.955  31.083  1.00  0.00     0.131 A 
ATOM     75  C   UNL A   1      45.390  28.020  32.141  1.00  0.00     0.055 A 
ATOM     76  C   UNL A   1      47.437  29.276  32.229  1.00  0.00     0.041 A 
ATOM     77  F   UNL A   1      47.925  30.794  30.529  1.00  0.00    -0.206 F 
ATOM     78  C   UNL A   1      46.606  28.303  32.770  1.00  0.00     0.022 A 
BRANCH  75  79
ATOM     79  S   UNL A   1      44.373  26.638  32.718  1.00  0.00     0.124 S 
ATOM     80  O   UNL A   1      44.134  26.989  34.115  1.00  0.00    -0.237 OA
ATOM     81  O   UNL A   1      43.208  26.721  31.840  1.00  0.00    -0.237 OA
ATOM     82  O   UNL A   1      45.222  25.468  32.507  1.00  0.00    -0.744 OA
ENDBRANCH  75  79
ENDBRANCH  58  72
BRANCH  59  83
ATOM     83  C   UNL A   1      36.515  32.235  29.968  1.00  0.00     0.023 A 
ATOM     84  C   UNL A   1      35.904  32.413  31.301  1.00  0.00     0.031 A 
ATOM     85  C   UNL A   1      35.918  33.048  28.997  1.00  0.00     0.131 A 
ATOM     86  C   UNL A   1      34.863  33.361  31.592  1.00  0.00     0.055 A 
ATOM     87  C   UNL A   1      34.869  33.974  29.290  1.00  0.00     0.041 A 
ATOM     88  F   UNL A   1      36.385  33.049  27.741  1.00  0.00    -0.206 F 
ATOM     89  C   UNL A   1      34.358  34.153  30.577  1.00  0.00     0.022 A 
BRANCH  86  90
ATOM     90  S   UNL A   1      34.278  33.761  33.316  1.00  0.00     0.124 S 
ATOM     91  O   UNL A   1      34.381  35.216  33.368  1.00  0.00    -0.237 OA
ATOM     92  O   UNL A   1      32.933  33.202  33.355  1.00  0.00    -0.237 OA
ATOM     93  O   UNL A   1      35.241  33.058  34.170  1.00  0.00    -0.744 OA
ENDBRANCH  86  90
ENDBRANCH  59  83
BRANCH  71  94
ATOM     94  C   UNL A   1      41.702  31.648  32.880  1.00  0.00     0.023 A 
ATOM     95  C   UNL A   1      41.782  32.056  34.240  1.00  0.00     0.031 A 
ATOM     96  C   UNL A   1      41.724  30.266  32.640  1.00  0.00     0.131 A 
ATOM     97  C   UNL A   1      41.895  31.103  35.276  1.00  0.00     0.055 A 
ATOM     98  C   UNL A   1      41.797  29.323  33.665  1.00  0.00     0.041 A 
ATOM     99  F   UNL A   1      41.668  29.803  31.381  1.00  0.00    -0.206 F 
ATOM    100  C   UNL A   1      41.894  29.737  34.989  1.00  0.00     0.022 A 
BRANCH  97 101
ATOM    101  S   UNL A   1      42.079  31.633  37.015  1.00  0.00     0.124 S 
ATOM    102  O   UNL A   1      42.913  32.826  36.913  1.00  0.00    -0.237 OA
ATOM    103  O   UNL A   1      40.700  31.854  37.438  1.00  0.00    -0.237 OA
ATOM    104  O   UNL A   1      42.736  30.491  37.656  1.00  0.00    -0.744 OA
ENDBRANCH  97 101
ENDBRANCH  71  94
ENDBRANCH  45  46
ENDBRANCH  38  40
ENDBRANCH  37  38
ENDBRANCH  36  37
ENDBRANCH  35  36
ENDBRANCH  34  35
ENDBRANCH   1  34
TORSDOF 23
ENDMDL
MODEL 3
REMARK VINA RESULT:     -11.2      1.963      4.768
REMARK SMILES Cc1c(C[NH2+]Cc2cccc(F)c2)c(C(=O)OCCOCCOC(=O)c2ccc(-c3c4nc(c(-c5cc(S(=O)(=O)[O-])ccc5F)c5ccc([nH]5)c(-c5cc(S(=O)(=O)[O-])ccc5F)c5nc(c(-c6cc(S(=O)(=O)[O-])ccc6F)c6ccc3[nH]6)C=C5)C=C4)cc2)c(C)n1Cc1c(F)cccc1Cl
REMARK SMILES IDX 19 1 18 2 17 3 15 4 16 5 14 6 1 7 2 8 3 9 91 10 89 11 90 12
REMARK SMILES IDX 4 13 5 14 6 17 7 18 8 19 13 20 9 21 11 22 10 23 12 24 92 25
REMARK SMILES IDX 93 26 94 27 99 28 95 29 96 30 98 31 100 32 97 33 20 34 21 35
REMARK SMILES IDX 22 36 23 37 24 38 25 39 26 40 27 41 88 42 28 43 87 44 29 45
REMARK SMILES IDX 30 46 31 47 81 48 32 49 86 50 80 51 82 52 33 53 85 54 79 55
REMARK SMILES IDX 78 56 34 58 66 59 46 60 65 61 47 62 50 63 64 64 83 65 48 66
REMARK SMILES IDX 49 67 63 69 84 70 51 71 35 72 36 73 44 74 37 75 43 76 45 77
REMARK SMILES IDX 42 78 38 79 39 80 40 81 41 82 67 83 68 84 76 85 69 86 75 87
REMARK SMILES IDX 77 88 74 89 70 90 71 91 72 92 73 93 52 94 53 95 61 96 54 97
REMARK SMILES IDX 60 98 62 99 59 100 55 101 56 102 57 103 58 104
REMARK H PARENT 5 15 5 16 82 57 50 68
REMARK Flexibility Score: inf
ROOT
ATOM      1  C   UNL A   1      35.385  29.571  27.923  1.00  0.00     0.202 C 
ENDROOT
BRANCH   1   2
ATOM      2  C   UNL A   1      34.340  29.239  26.844  1.00  0.00     0.261 C 
BRANCH   2   3
ATOM      3  O   UNL A   1      34.251  27.829  26.634  1.00  0.00    -0.460 OA
BRANCH   3   4
ATOM      4  C   UNL A   1      33.019  27.291  26.449  1.00  0.00     0.340 C 
ATOM      5  O   UNL A   1      32.063  27.480  27.221  1.00  0.00    -0.246 OA
BRANCH   4   6
ATOM      6  C   UNL A   1      32.940  26.519  25.206  1.00  0.00     0.089 A 
ATOM      7  C   UNL A   1      33.002  25.834  21.531  1.00  0.00     0.065 C 
ATOM      8  C   UNL A   1      32.983  25.859  23.024  1.00  0.00     0.025 A 
ATOM      9  C   UNL A   1      33.093  26.977  23.856  1.00  0.00     0.042 A 
ATOM     10  N   UNL A   1      32.893  24.726  23.829  1.00  0.00    -0.343 N 
ATOM     11  C   UNL A   1      32.709  25.143  25.138  1.00  0.00     0.030 A 
ATOM     12  C   UNL A   1      32.364  24.243  26.278  1.00  0.00     0.065 C 
BRANCH   9  13
ATOM     13  C   UNL A   1      33.371  28.400  23.437  1.00  0.00     0.300 C 
BRANCH  13  14
ATOM     14  N   UNL A   1      32.138  29.006  22.961  1.00  0.00    -0.339 N 
ATOM     15  H   UNL A   1      31.888  28.569  22.074  1.00  0.00     0.346 HD
ATOM     16  H   UNL A   1      32.318  30.006  22.869  1.00  0.00     0.346 HD
BRANCH  14  17
ATOM     17  C   UNL A   1      31.014  28.865  23.874  1.00  0.00     0.297 C 
BRANCH  17  18
ATOM     18  C   UNL A   1      29.743  29.599  23.492  1.00  0.00     0.009 A 
ATOM     19  C   UNL A   1      28.606  28.960  22.971  1.00  0.00     0.010 A 
ATOM     20  C   UNL A   1      29.689  30.991  23.679  1.00  0.00     0.048 A 
ATOM     21  C   UNL A   1      27.468  29.685  22.608  1.00  0.00     0.004 A 
ATOM     22  C   UNL A   1      28.544  31.704  23.329  1.00  0.00     0.123 A 
ATOM     23  C   UNL A   1      27.438  31.064  22.784  1.00  0.00     0.039 A 
ATOM     24  F   UNL A   1      28.510  33.030  23.516  1.00  0.00    -0.207 F 
ENDBRANCH  17  18
ENDBRANCH  14  17
ENDBRANCH  13  14
ENDBRANCH   9  13
BRANCH  10  25
ATOM     25  C   UNL A   1      32.854  23.320  23.370  1.00  0.00     0.162 C 
BRANCH  25  26
ATOM     26  C   UNL A   1      33.976  22.447  23.895  1.00  0.00     0.026 A 
ATOM     27  C   UNL A   1      35.312  22.837  23.719  1.00  0.00     0.129 A 
ATOM     28  C   UNL A   1      33.772  21.272  24.634  1.00  0.00     0.048 A 
ATOM     29  F   UNL A   1      35.602  24.041  23.219  1.00  0.00    -0.207 F 
ATOM     30  C   UNL A   1      36.393  22.061  24.134  1.00  0.00     0.040 A 
ATOM     31  C   UNL A   1      34.856  20.503  25.097  1.00  0.00     0.021 A 
ATOM     32  Cl  UNL A   1      32.195  20.739  25.104  1.00  0.00    -0.084 Cl
ATOM     33  C   UNL A   1      36.167  20.880  24.819  1.00  0.00     0.005 A 
ENDBRANCH  25  26
ENDBRANCH  10  25
ENDBRANCH   4   6
ENDBRANCH   3   4
ENDBRANCH   2   3
ENDBRANCH   1   2
BRANCH   1  34
ATOM     34  O   UNL A   1      35.508  30.957  28.244  1.00  0.00    -0.374 OA
BRANCH  34  35
ATOM     35  C   UNL A   1      34.442  31.819  27.786  1.00  0.00     0.202 C 
BRANCH  35  36
ATOM     36  C   UNL A   1      34.286  33.197  28.520  1.00  0.00     0.261 C 
BRANCH  36  37
ATOM     37  O   UNL A   1      34.006  33.219  29.992  1.00  0.00    -0.460 OA
BRANCH  37  38
ATOM     38  C   UNL A   1      35.003  33.734  30.815  1.00  0.00     0.338 C 
ATOM     39  O   UNL A   1      34.901  34.849  31.314  1.00  0.00    -0.246 OA
BRANCH  38  40
ATOM     40  C   UNL A   1      36.265  32.858  31.123  1.00  0.00     0.060 A 
ATOM     41  C   UNL A   1      37.409  32.963  30.337  1.00  0.00     0.016 A 
ATOM     42  C   UNL A   1      36.274  31.691  31.930  1.00  0.00     0.016 A 
ATOM     43  C   UNL A   1      38.515  32.000  30.419  1.00  0.00     0.010 A 
ATOM     44  C   UNL A   1      37.386  30.672  31.965  1.00  0.00     0.010 A 
ATOM     45  C   UNL A   1      38.576  30.778  31.210  1.00  0.00    -0.014 A 
BRANCH  45  46
ATOM     46  C   UNL A   1      39.693  29.569  30.716  1.00  0.00     0.031 A 
ATOM     47  C   UNL A   1      40.330  29.274  32.033  1.00  0.00     0.074 A 
ATOM     48  C   UNL A   1      40.331  28.856  29.647  1.00  0.00     0.049 A 
ATOM     49  N   UNL A   1      40.823  30.260  32.735  1.00  0.00    -0.248 NA
ATOM     50  C   UNL A   1      40.105  28.049  32.800  1.00  0.00     0.031 C 
ATOM     51  C   UNL A   1      40.205  29.066  28.186  1.00  0.00     0.029 A 
ATOM     52  N   UNL A   1      41.298  27.738  29.589  1.00  0.00    -0.354 N 
ATOM     53  C   UNL A   1      41.354  29.692  33.857  1.00  0.00     0.074 A 
ATOM     54  C   UNL A   1      40.638  28.426  33.971  1.00  0.00     0.031 C 
ATOM     55  C   UNL A   1      40.844  28.106  27.438  1.00  0.00     0.029 A 
ATOM     56  C   UNL A   1      41.565  27.124  28.264  1.00  0.00     0.049 A 
ATOM     57  H   UNL A   1      41.749  27.412  30.401  1.00  0.00     0.167 HD
ATOM     58  C   UNL A   1      42.688  29.931  34.031  1.00  0.00     0.034 A 
ATOM     59  C   UNL A   1      42.365  26.020  27.839  1.00  0.00     0.034 A 
ATOM     60  C   UNL A   1      43.501  28.807  33.652  1.00  0.00     0.049 A 
ATOM     61  C   UNL A   1      43.519  26.017  28.734  1.00  0.00     0.074 A 
ATOM     62  C   UNL A   1      43.360  27.442  33.797  1.00  0.00     0.029 A 
ATOM     63  N   UNL A   1      44.410  29.006  32.633  1.00  0.00    -0.354 N 
ATOM     64  N   UNL A   1      44.478  26.881  28.605  1.00  0.00    -0.248 NA
ATOM     65  C   UNL A   1      43.747  24.954  29.707  1.00  0.00     0.031 C 
ATOM     66  C   UNL A   1      43.747  26.916  32.549  1.00  0.00     0.029 A 
ATOM     67  C   UNL A   1      44.477  27.875  31.855  1.00  0.00     0.049 A 
ATOM     68  H   UNL A   1      44.928  29.830  32.486  1.00  0.00     0.167 HD
ATOM     69  C   UNL A   1      45.092  26.808  29.818  1.00  0.00     0.074 A 
ATOM     70  C   UNL A   1      44.830  25.462  30.300  1.00  0.00     0.031 C 
ATOM     71  C   UNL A   1      45.066  27.960  30.535  1.00  0.00     0.034 A 
BRANCH  58  72
ATOM     72  C   UNL A   1      43.110  31.359  33.784  1.00  0.00     0.023 A 
ATOM     73  C   UNL A   1      42.655  32.013  32.637  1.00  0.00     0.031 A 
ATOM     74  C   UNL A   1      43.979  32.069  34.647  1.00  0.00     0.131 A 
ATOM     75  C   UNL A   1      43.120  33.306  32.345  1.00  0.00     0.055 A 
ATOM     76  C   UNL A   1      44.489  33.323  34.321  1.00  0.00     0.041 A 
ATOM     77  F   UNL A   1      44.326  31.565  35.844  1.00  0.00    -0.206 F 
ATOM     78  C   UNL A   1      44.063  33.947  33.156  1.00  0.00     0.022 A 
BRANCH  75  79
ATOM     79  S   UNL A   1      42.416  34.171  30.919  1.00  0.00     0.124 S 
ATOM     80  O   UNL A   1      42.568  33.187  29.852  1.00  0.00    -0.237 OA
ATOM     81  O   UNL A   1      41.044  34.421  31.354  1.00  0.00    -0.237 OA
ATOM     82  O   UNL A   1      43.249  35.365  30.790  1.00  0.00    -0.744 OA
ENDBRANCH  75  79
ENDBRANCH  58  72
BRANCH  59  83
ATOM     83  C   UNL A   1      42.734  24.936  26.680  1.00  0.00     0.023 A 
ATOM     84  C   UNL A   1      44.110  24.720  26.187  1.00  0.00     0.031 A 
ATOM     85  C   UNL A   1      41.877  23.880  26.343  1.00  0.00     0.131 A 
ATOM     86  C   UNL A   1      44.546  23.534  25.500  1.00  0.00     0.055 A 
ATOM     87  C   UNL A   1      42.313  22.714  25.642  1.00  0.00     0.041 A 
ATOM     88  F   UNL A   1      40.603  23.891  26.757  1.00  0.00    -0.206 F 
ATOM     89  C   UNL A   1      43.638  22.523  25.243  1.00  0.00     0.022 A 
BRANCH  86  90
ATOM     90  S   UNL A   1      46.329  23.158  25.112  1.00  0.00     0.124 S 
ATOM     91  O   UNL A   1      47.043  23.761  26.232  1.00  0.00    -0.237 OA
ATOM     92  O   UNL A   1      46.357  21.702  25.030  1.00  0.00    -0.237 OA
ATOM     93  O   UNL A   1      46.544  23.831  23.827  1.00  0.00    -0.744 OA
ENDBRANCH  86  90
ENDBRANCH  59  83
BRANCH  71  94
ATOM     94  C   UNL A   1      45.444  29.246  29.810  1.00  0.00     0.023 A 
ATOM     95  C   UNL A   1      44.772  29.830  28.700  1.00  0.00     0.031 A 
ATOM     96  C   UNL A   1      46.612  29.892  30.241  1.00  0.00     0.131 A 
ATOM     97  C   UNL A   1      45.282  30.986  28.070  1.00  0.00     0.055 A 
ATOM     98  C   UNL A   1      47.096  31.056  29.644  1.00  0.00     0.041 A 
ATOM     99  F   UNL A   1      47.313  29.394  31.273  1.00  0.00    -0.206 F 
ATOM    100  C   UNL A   1      46.439  31.604  28.548  1.00  0.00     0.022 A 
BRANCH  97 101
ATOM    101  S   UNL A   1      44.460  31.685  26.595  1.00  0.00     0.124 S 
ATOM    102  O   UNL A   1      44.070  33.022  27.033  1.00  0.00    -0.237 OA
ATOM    103  O   UNL A   1      45.507  31.628  25.580  1.00  0.00    -0.237 OA
ATOM    104  O   UNL A   1      43.337  30.774  26.363  1.00  0.00    -0.744 OA
ENDBRANCH  97 101
ENDBRANCH  71  94
ENDBRANCH  45  46
ENDBRANCH  38  40
ENDBRANCH  37  38
ENDBRANCH  36  37
ENDBRANCH  35  36
ENDBRANCH  34  35
ENDBRANCH   1  34
TORSDOF 23
ENDMDL
