MODEL 1
REMARK VINA RESULT:      -9.0      0.000      0.000
REMARK SMILES C=CCCCn1cc(C(=O)OCCOCCOC(=O)c2ccc(-c3c4nc(c(-c5cc(S(=O)(=O)[O-])ccc5F)c5ccc([nH]5)c(-c5cc(S(=O)(=O)[O-])ccc5F)c5nc(c(-c6cc(S(=O)(=O)[O-])ccc6F)c6ccc3[nH]6)C=C5)C=C4)cc2)cc1Br
REMARK SMILES IDX 13 1 12 2 11 3 9 4 10 5 8 6 6 7 7 8 84 9 83 10 85 11 5 12
REMARK SMILES IDX 4 13 3 14 2 15 1 16 14 17 15 18 16 19 17 20 18 21 19 22
REMARK SMILES IDX 20 23 21 24 82 25 22 26 81 27 23 28 24 29 25 30 75 31 26 32
REMARK SMILES IDX 80 33 74 34 76 35 27 36 79 37 73 38 72 39 28 41 60 42 40 43
REMARK SMILES IDX 59 44 41 45 44 46 58 47 77 48 42 49 43 50 57 52 78 53 45 54
REMARK SMILES IDX 29 55 30 56 38 57 31 58 37 59 39 60 36 61 32 62 33 63 34 64
REMARK SMILES IDX 35 65 61 66 62 67 70 68 63 69 69 70 71 71 68 72 64 73 65 74
REMARK SMILES IDX 66 75 67 76 46 77 47 78 55 79 48 80 54 81 56 82 53 83 49 84
REMARK SMILES IDX 50 85 51 86 52 87
REMARK H PARENT 76 40 44 51
REMARK Flexibility Score: inf
ROOT
ATOM      1  C   UNL A   1      34.466  33.037  28.149  1.00  0.00     0.202 C 
ENDROOT
BRANCH   1   2
ATOM      2  C   UNL A   1      33.622  34.026  28.955  1.00  0.00     0.261 C 
BRANCH   2   3
ATOM      3  O   UNL A   1      34.372  34.683  29.985  1.00  0.00    -0.460 OA
BRANCH   3   4
ATOM      4  C   UNL A   1      34.743  33.880  31.027  1.00  0.00     0.339 C 
ATOM      5  O   UNL A   1      34.017  33.074  31.583  1.00  0.00    -0.246 OA
BRANCH   4   6
ATOM      6  C   UNL A   1      36.169  33.976  31.311  1.00  0.00     0.078 A 
ATOM      7  N   UNL A   1      38.405  33.957  31.101  1.00  0.00    -0.341 N 
ATOM      8  C   UNL A   1      37.216  33.740  30.439  1.00  0.00     0.102 A 
ATOM      9  C   UNL A   1      38.124  34.254  32.409  1.00  0.00     0.085 A 
ATOM     10  C   UNL A   1      36.759  34.301  32.566  1.00  0.00     0.051 A 
ATOM     11  Br  UNL A   1      39.336  34.583  33.795  1.00  0.00    -0.031 Br
BRANCH   7  12
ATOM     12  C   UNL A   1      39.703  34.043  30.451  1.00  0.00     0.123 C 
BRANCH  12  13
ATOM     13  C   UNL A   1      40.714  32.951  30.807  1.00  0.00     0.026 C 
BRANCH  13  14
ATOM     14  C   UNL A   1      40.221  31.502  30.697  1.00  0.00     0.028 C 
BRANCH  14  15
ATOM     15  C   UNL A   1      40.517  30.649  31.901  1.00  0.00    -0.035 C 
ATOM     16  C   UNL A   1      39.864  29.522  32.209  1.00  0.00     0.004 C 
ENDBRANCH  14  15
ENDBRANCH  13  14
ENDBRANCH  12  13
ENDBRANCH   7  12
ENDBRANCH   4   6
ENDBRANCH   3   4
ENDBRANCH   2   3
ENDBRANCH   1   2
BRANCH   1  17
ATOM     17  O   UNL A   1      33.813  31.905  27.575  1.00  0.00    -0.374 OA
BRANCH  17  18
ATOM     18  C   UNL A   1      34.192  30.587  27.966  1.00  0.00     0.202 C 
BRANCH  18  19
ATOM     19  C   UNL A   1      35.457  29.976  27.384  1.00  0.00     0.261 C 
BRANCH  19  20
ATOM     20  O   UNL A   1      36.618  30.598  27.904  1.00  0.00    -0.460 OA
BRANCH  20  21
ATOM     21  C   UNL A   1      37.205  29.910  28.914  1.00  0.00     0.338 C 
ATOM     22  O   UNL A   1      37.076  30.096  30.105  1.00  0.00    -0.246 OA
BRANCH  21  23
ATOM     23  C   UNL A   1      38.154  28.967  28.312  1.00  0.00     0.060 A 
ATOM     24  C   UNL A   1      38.486  27.872  29.109  1.00  0.00     0.016 A 
ATOM     25  C   UNL A   1      38.969  29.411  27.262  1.00  0.00     0.016 A 
ATOM     26  C   UNL A   1      39.786  27.433  29.074  1.00  0.00     0.010 A 
ATOM     27  C   UNL A   1      40.273  29.004  27.259  1.00  0.00     0.010 A 
ATOM     28  C   UNL A   1      40.684  28.099  28.237  1.00  0.00    -0.014 A 
BRANCH  28  29
ATOM     29  C   UNL A   1      42.077  27.715  28.262  1.00  0.00     0.031 A 
ATOM     30  C   UNL A   1      42.253  26.418  27.575  1.00  0.00     0.074 A 
ATOM     31  C   UNL A   1      43.045  28.532  28.717  1.00  0.00     0.049 A 
ATOM     32  N   UNL A   1      42.389  25.257  28.127  1.00  0.00    -0.248 NA
ATOM     33  C   UNL A   1      41.905  26.356  26.141  1.00  0.00     0.031 C 
ATOM     34  C   UNL A   1      42.933  29.915  29.186  1.00  0.00     0.029 A 
ATOM     35  N   UNL A   1      44.385  28.312  28.766  1.00  0.00    -0.354 N 
ATOM     36  C   UNL A   1      42.461  24.375  27.058  1.00  0.00     0.074 A 
ATOM     37  C   UNL A   1      41.813  25.039  25.969  1.00  0.00     0.031 C 
ATOM     38  C   UNL A   1      44.168  30.472  29.244  1.00  0.00     0.029 A 
ATOM     39  C   UNL A   1      45.163  29.459  28.930  1.00  0.00     0.049 A 
ATOM     40  H   UNL A   1      44.776  27.412  28.692  1.00  0.00     0.167 HD
ATOM     41  C   UNL A   1      43.399  23.388  27.047  1.00  0.00     0.034 A 
ATOM     42  C   UNL A   1      46.511  29.549  28.721  1.00  0.00     0.034 A 
ATOM     43  C   UNL A   1      43.893  23.152  28.393  1.00  0.00     0.049 A 
ATOM     44  C   UNL A   1      47.034  28.154  28.802  1.00  0.00     0.074 A 
ATOM     45  C   UNL A   1      43.292  22.824  29.595  1.00  0.00     0.029 A 
ATOM     46  N   UNL A   1      45.130  23.663  28.728  1.00  0.00    -0.354 N 
ATOM     47  N   UNL A   1      47.002  27.450  29.904  1.00  0.00    -0.248 NA
ATOM     48  C   UNL A   1      47.058  27.370  27.572  1.00  0.00     0.031 C 
ATOM     49  C   UNL A   1      43.975  23.603  30.575  1.00  0.00     0.029 A 
ATOM     50  C   UNL A   1      45.026  24.279  29.951  1.00  0.00     0.049 A 
ATOM     51  H   UNL A   1      45.949  23.597  28.184  1.00  0.00     0.167 HD
ATOM     52  C   UNL A   1      46.570  26.188  29.517  1.00  0.00     0.074 A 
ATOM     53  C   UNL A   1      46.682  26.182  28.057  1.00  0.00     0.031 C 
ATOM     54  C   UNL A   1      45.866  25.386  30.374  1.00  0.00     0.034 A 
BRANCH  41  55
ATOM     55  C   UNL A   1      44.198  23.008  25.808  1.00  0.00     0.023 A 
ATOM     56  C   UNL A   1      44.145  21.653  25.442  1.00  0.00     0.031 A 
ATOM     57  C   UNL A   1      45.207  23.766  25.163  1.00  0.00     0.131 A 
ATOM     58  C   UNL A   1      45.150  21.077  24.650  1.00  0.00     0.055 A 
ATOM     59  C   UNL A   1      46.173  23.199  24.328  1.00  0.00     0.041 A 
ATOM     60  F   UNL A   1      45.373  25.081  25.328  1.00  0.00    -0.206 F 
ATOM     61  C   UNL A   1      46.176  21.838  24.102  1.00  0.00     0.022 A 
BRANCH  58  62
ATOM     62  S   UNL A   1      45.188  19.277  24.524  1.00  0.00     0.124 S 
ATOM     63  O   UNL A   1      44.310  18.898  25.625  1.00  0.00    -0.237 OA
ATOM     64  O   UNL A   1      44.667  19.065  23.178  1.00  0.00    -0.237 OA
ATOM     65  O   UNL A   1      46.602  18.959  24.706  1.00  0.00    -0.744 OA
ENDBRANCH  58  62
ENDBRANCH  41  55
BRANCH  42  66
ATOM     66  C   UNL A   1      47.256  30.671  28.060  1.00  0.00     0.023 A 
ATOM     67  C   UNL A   1      46.634  31.701  27.311  1.00  0.00     0.031 A 
ATOM     68  C   UNL A   1      48.620  30.872  28.376  1.00  0.00     0.131 A 
ATOM     69  C   UNL A   1      47.371  32.850  26.914  1.00  0.00     0.055 A 
ATOM     70  C   UNL A   1      49.338  32.007  27.986  1.00  0.00     0.041 A 
ATOM     71  F   UNL A   1      49.289  30.009  29.154  1.00  0.00    -0.206 F 
ATOM     72  C   UNL A   1      48.714  33.006  27.261  1.00  0.00     0.022 A 
BRANCH  69  73
ATOM     73  S   UNL A   1      46.583  34.218  25.988  1.00  0.00     0.124 S 
ATOM     74  O   UNL A   1      46.154  35.112  27.056  1.00  0.00    -0.237 OA
ATOM     75  O   UNL A   1      47.669  34.692  25.138  1.00  0.00    -0.237 OA
ATOM     76  O   UNL A   1      45.490  33.560  25.268  1.00  0.00    -0.744 OA
ENDBRANCH  69  73
ENDBRANCH  42  66
BRANCH  54  77
ATOM     77  C   UNL A   1      45.811  25.763  31.843  1.00  0.00     0.023 A 
ATOM     78  C   UNL A   1      46.827  25.518  32.798  1.00  0.00     0.031 A 
ATOM     79  C   UNL A   1      44.704  26.527  32.255  1.00  0.00     0.131 A 
ATOM     80  C   UNL A   1      46.700  26.030  34.108  1.00  0.00     0.055 A 
ATOM     81  C   UNL A   1      44.597  27.052  33.541  1.00  0.00     0.041 A 
ATOM     82  F   UNL A   1      43.719  26.815  31.389  1.00  0.00    -0.206 F 
ATOM     83  C   UNL A   1      45.592  26.800  34.475  1.00  0.00     0.022 A 
BRANCH  80  84
ATOM     84  S   UNL A   1      47.964  25.687  35.378  1.00  0.00     0.124 S 
ATOM     85  O   UNL A   1      48.550  24.424  34.943  1.00  0.00    -0.237 OA
ATOM     86  O   UNL A   1      48.831  26.858  35.287  1.00  0.00    -0.237 OA
ATOM     87  O   UNL A   1      47.187  25.601  36.618  1.00  0.00    -0.744 OA
ENDBRANCH  80  84
ENDBRANCH  54  77
ENDBRANCH  28  29
ENDBRANCH  21  23
ENDBRANCH  20  21
ENDBRANCH  19  20
ENDBRANCH  18  19
ENDBRANCH  17  18
ENDBRANCH   1  17
TORSDOF 21
ENDMDL
MODEL 2
REMARK VINA RESULT:      -8.6      3.959     11.868
REMARK SMILES C=CCCCn1cc(C(=O)OCCOCCOC(=O)c2ccc(-c3c4nc(c(-c5cc(S(=O)(=O)[O-])ccc5F)c5ccc([nH]5)c(-c5cc(S(=O)(=O)[O-])ccc5F)c5nc(c(-c6cc(S(=O)(=O)[O-])ccc6F)c6ccc3[nH]6)C=C5)C=C4)cc2)cc1Br
REMARK SMILES IDX 13 1 12 2 11 3 9 4 10 5 8 6 6 7 7 8 84 9 83 10 85 11 5 12
REMARK SMILES IDX 4 13 3 14 2 15 1 16 14 17 15 18 16 19 17 20 18 21 19 22
REMARK SMILES IDX 20 23 21 24 82 25 22 26 81 27 23 28 24 29 25 30 75 31 26 32
REMARK SMILES IDX 80 33 74 34 76 35 27 36 79 37 73 38 72 39 28 41 60 42 40 43
REMARK SMILES IDX 59 44 41 45 44 46 58 47 77 48 42 49 43 50 57 52 78 53 45 54
REMARK SMILES IDX 29 55 30 56 38 57 31 58 37 59 39 60 36 61 32 62 33 63 34 64
REMARK SMILES IDX 35 65 61 66 62 67 70 68 63 69 69 70 71 71 68 72 64 73 65 74
REMARK SMILES IDX 66 75 67 76 46 77 47 78 55 79 48 80 54 81 56 82 53 83 49 84
REMARK SMILES IDX 50 85 51 86 52 87
REMARK H PARENT 76 40 44 51
REMARK Flexibility Score: inf
ROOT
ATOM      1  C   UNL A   1      41.702  20.697  27.203  1.00  0.00     0.202 C 
ENDROOT
BRANCH   1   2
ATOM      2  C   UNL A   1      42.225  20.357  25.806  1.00  0.00     0.261 C 
BRANCH   2   3
ATOM      3  O   UNL A   1      42.961  21.434  25.213  1.00  0.00    -0.460 OA
BRANCH   3   4
ATOM      4  C   UNL A   1      44.276  21.503  25.581  1.00  0.00     0.339 C 
ATOM      5  O   UNL A   1      45.081  20.594  25.475  1.00  0.00    -0.246 OA
BRANCH   4   6
ATOM      6  C   UNL A   1      44.663  22.852  25.976  1.00  0.00     0.078 A 
ATOM      7  N   UNL A   1      44.637  25.061  26.376  1.00  0.00    -0.341 N 
ATOM      8  C   UNL A   1      43.907  24.004  25.876  1.00  0.00     0.102 A 
ATOM      9  C   UNL A   1      45.882  24.602  26.721  1.00  0.00     0.085 A 
ATOM     10  C   UNL A   1      45.922  23.243  26.515  1.00  0.00     0.051 A 
ATOM     11  Br  UNL A   1      47.320  25.588  27.395  1.00  0.00    -0.031 Br
BRANCH   7  12
ATOM     12  C   UNL A   1      44.089  26.378  26.659  1.00  0.00     0.123 C 
BRANCH  12  13
ATOM     13  C   UNL A   1      43.906  26.733  28.136  1.00  0.00     0.026 C 
BRANCH  13  14
ATOM     14  C   UNL A   1      43.158  25.708  28.998  1.00  0.00     0.028 C 
BRANCH  14  15
ATOM     15  C   UNL A   1      43.835  25.375  30.300  1.00  0.00    -0.035 C 
ATOM     16  C   UNL A   1      45.161  25.353  30.480  1.00  0.00     0.004 C 
ENDBRANCH  14  15
ENDBRANCH  13  14
ENDBRANCH  12  13
ENDBRANCH   7  12
ENDBRANCH   4   6
ENDBRANCH   3   4
ENDBRANCH   2   3
ENDBRANCH   1   2
BRANCH   1  17
ATOM     17  O   UNL A   1      40.380  21.225  27.318  1.00  0.00    -0.374 OA
BRANCH  17  18
ATOM     18  C   UNL A   1      39.916  22.196  26.383  1.00  0.00     0.202 C 
BRANCH  18  19
ATOM     19  C   UNL A   1      39.199  23.435  26.895  1.00  0.00     0.261 C 
BRANCH  19  20
ATOM     20  O   UNL A   1      40.100  24.334  27.513  1.00  0.00    -0.460 OA
BRANCH  20  21
ATOM     21  C   UNL A   1      40.255  25.503  26.844  1.00  0.00     0.338 C 
ATOM     22  O   UNL A   1      40.929  25.703  25.856  1.00  0.00    -0.246 OA
BRANCH  21  23
ATOM     23  C   UNL A   1      39.567  26.546  27.613  1.00  0.00     0.060 A 
ATOM     24  C   UNL A   1      39.657  27.832  27.079  1.00  0.00     0.016 A 
ATOM     25  C   UNL A   1      39.280  26.308  28.963  1.00  0.00     0.016 A 
ATOM     26  C   UNL A   1      39.797  28.875  27.961  1.00  0.00     0.010 A 
ATOM     27  C   UNL A   1      39.463  27.340  29.840  1.00  0.00     0.010 A 
ATOM     28  C   UNL A   1      39.824  28.585  29.327  1.00  0.00    -0.014 A 
BRANCH  28  29
ATOM     29  C   UNL A   1      40.069  29.659  30.262  1.00  0.00     0.031 A 
ATOM     30  C   UNL A   1      38.851  30.480  30.416  1.00  0.00     0.074 A 
ATOM     31  C   UNL A   1      41.208  29.751  30.975  1.00  0.00     0.049 A 
ATOM     32  N   UNL A   1      38.608  31.623  29.862  1.00  0.00    -0.248 NA
ATOM     33  C   UNL A   1      37.649  29.818  30.960  1.00  0.00     0.031 C 
ATOM     34  C   UNL A   1      42.339  28.822  31.022  1.00  0.00     0.029 A 
ATOM     35  N   UNL A   1      41.551  30.680  31.905  1.00  0.00    -0.354 N 
ATOM     36  C   UNL A   1      37.322  31.940  30.278  1.00  0.00     0.074 A 
ATOM     37  C   UNL A   1      36.707  30.690  30.606  1.00  0.00     0.031 C 
ATOM     38  C   UNL A   1      43.118  29.115  32.093  1.00  0.00     0.029 A 
ATOM     39  C   UNL A   1      42.610  30.315  32.739  1.00  0.00     0.049 A 
ATOM     40  H   UNL A   1      41.088  31.545  31.984  1.00  0.00     0.167 HD
ATOM     41  C   UNL A   1      37.032  33.197  30.713  1.00  0.00     0.034 A 
ATOM     42  C   UNL A   1      42.951  30.924  33.913  1.00  0.00     0.034 A 
ATOM     43  C   UNL A   1      38.040  34.132  30.243  1.00  0.00     0.049 A 
ATOM     44  C   UNL A   1      42.350  32.289  33.859  1.00  0.00     0.074 A 
ATOM     45  C   UNL A   1      38.529  34.474  28.995  1.00  0.00     0.029 A 
ATOM     46  N   UNL A   1      38.996  34.561  31.142  1.00  0.00    -0.354 N 
ATOM     47  N   UNL A   1      42.728  33.194  32.994  1.00  0.00    -0.248 NA
ATOM     48  C   UNL A   1      40.989  32.447  34.360  1.00  0.00     0.031 C 
ATOM     49  C   UNL A   1      39.936  34.625  29.177  1.00  0.00     0.029 A 
ATOM     50  C   UNL A   1      40.225  34.481  30.535  1.00  0.00     0.049 A 
ATOM     51  H   UNL A   1      38.825  34.871  32.061  1.00  0.00     0.167 HD
ATOM     52  C   UNL A   1      41.551  33.758  32.519  1.00  0.00     0.074 A 
ATOM     53  C   UNL A   1      40.514  33.301  33.446  1.00  0.00     0.031 C 
ATOM     54  C   UNL A   1      41.470  34.273  31.254  1.00  0.00     0.034 A 
BRANCH  41  55
ATOM     55  C   UNL A   1      36.159  33.482  31.926  1.00  0.00     0.023 A 
ATOM     56  C   UNL A   1      35.132  34.420  31.730  1.00  0.00     0.031 A 
ATOM     57  C   UNL A   1      36.427  33.157  33.279  1.00  0.00     0.131 A 
ATOM     58  C   UNL A   1      34.569  35.112  32.812  1.00  0.00     0.055 A 
ATOM     59  C   UNL A   1      35.822  33.810  34.356  1.00  0.00     0.041 A 
ATOM     60  F   UNL A   1      37.318  32.239  33.665  1.00  0.00    -0.206 F 
ATOM     61  C   UNL A   1      34.918  34.827  34.127  1.00  0.00     0.022 A 
BRANCH  58  62
ATOM     62  S   UNL A   1      33.519  36.533  32.441  1.00  0.00     0.124 S 
ATOM     63  O   UNL A   1      32.331  36.220  33.228  1.00  0.00    -0.237 OA
ATOM     64  O   UNL A   1      34.341  37.639  32.921  1.00  0.00    -0.237 OA
ATOM     65  O   UNL A   1      33.353  36.458  30.992  1.00  0.00    -0.744 OA
ENDBRANCH  58  62
ENDBRANCH  41  55
BRANCH  42  66
ATOM     66  C   UNL A   1      43.380  30.263  35.190  1.00  0.00     0.023 A 
ATOM     67  C   UNL A   1      42.966  28.966  35.587  1.00  0.00     0.031 A 
ATOM     68  C   UNL A   1      44.431  30.836  35.943  1.00  0.00     0.131 A 
ATOM     69  C   UNL A   1      43.591  28.315  36.685  1.00  0.00     0.055 A 
ATOM     70  C   UNL A   1      45.044  30.188  37.019  1.00  0.00     0.041 A 
ATOM     71  F   UNL A   1      44.965  32.019  35.606  1.00  0.00    -0.206 F 
ATOM     72  C   UNL A   1      44.633  28.920  37.390  1.00  0.00     0.022 A 
BRANCH  69  73
ATOM     73  S   UNL A   1      43.112  26.623  37.191  1.00  0.00     0.124 S 
ATOM     74  O   UNL A   1      43.846  26.450  38.438  1.00  0.00    -0.237 OA
ATOM     75  O   UNL A   1      41.661  26.723  37.297  1.00  0.00    -0.237 OA
ATOM     76  O   UNL A   1      43.585  25.788  36.085  1.00  0.00    -0.744 OA
ENDBRANCH  69  73
ENDBRANCH  42  66
BRANCH  54  77
ATOM     77  C   UNL A   1      42.754  34.488  30.473  1.00  0.00     0.023 A 
ATOM     78  C   UNL A   1      43.616  35.606  30.591  1.00  0.00     0.031 A 
ATOM     79  C   UNL A   1      43.177  33.426  29.655  1.00  0.00     0.131 A 
ATOM     80  C   UNL A   1      44.843  35.624  29.893  1.00  0.00     0.055 A 
ATOM     81  C   UNL A   1      44.401  33.438  28.989  1.00  0.00     0.041 A 
ATOM     82  F   UNL A   1      42.417  32.327  29.521  1.00  0.00    -0.206 F 
ATOM     83  C   UNL A   1      45.237  34.541  29.102  1.00  0.00     0.022 A 
BRANCH  80  84
ATOM     84  S   UNL A   1      45.952  37.071  29.979  1.00  0.00     0.124 S 
ATOM     85  O   UNL A   1      45.049  38.203  29.801  1.00  0.00    -0.237 OA
ATOM     86  O   UNL A   1      46.551  36.933  31.303  1.00  0.00    -0.237 OA
ATOM     87  O   UNL A   1      46.881  36.854  28.867  1.00  0.00    -0.744 OA
ENDBRANCH  80  84
ENDBRANCH  54  77
ENDBRANCH  28  29
ENDBRANCH  21  23
ENDBRANCH  20  21
ENDBRANCH  19  20
ENDBRANCH  18  19
ENDBRANCH  17  18
ENDBRANCH   1  17
TORSDOF 21
ENDMDL
MODEL 3
REMARK VINA RESULT:      -8.3      2.849      7.803
REMARK SMILES C=CCCCn1cc(C(=O)OCCOCCOC(=O)c2ccc(-c3c4nc(c(-c5cc(S(=O)(=O)[O-])ccc5F)c5ccc([nH]5)c(-c5cc(S(=O)(=O)[O-])ccc5F)c5nc(c(-c6cc(S(=O)(=O)[O-])ccc6F)c6ccc3[nH]6)C=C5)C=C4)cc2)cc1Br
REMARK SMILES IDX 13 1 12 2 11 3 9 4 10 5 8 6 6 7 7 8 84 9 83 10 85 11 5 12
REMARK SMILES IDX 4 13 3 14 2 15 1 16 14 17 15 18 16 19 17 20 18 21 19 22
REMARK SMILES IDX 20 23 21 24 82 25 22 26 81 27 23 28 24 29 25 30 75 31 26 32
REMARK SMILES IDX 80 33 74 34 76 35 27 36 79 37 73 38 72 39 28 41 60 42 40 43
REMARK SMILES IDX 59 44 41 45 44 46 58 47 77 48 42 49 43 50 57 52 78 53 45 54
REMARK SMILES IDX 29 55 30 56 38 57 31 58 37 59 39 60 36 61 32 62 33 63 34 64
REMARK SMILES IDX 35 65 61 66 62 67 70 68 63 69 69 70 71 71 68 72 64 73 65 74
REMARK SMILES IDX 66 75 67 76 46 77 47 78 55 79 48 80 54 81 56 82 53 83 49 84
REMARK SMILES IDX 50 85 51 86 52 87
REMARK H PARENT 76 40 44 51
REMARK Flexibility Score: inf
ROOT
ATOM      1  C   UNL A   1      34.507  33.426  32.629  1.00  0.00     0.202 C 
ENDROOT
BRANCH   1   2
ATOM      2  C   UNL A   1      35.504  32.266  32.671  1.00  0.00     0.261 C 
BRANCH   2   3
ATOM      3  O   UNL A   1      36.690  32.582  33.411  1.00  0.00    -0.460 OA
BRANCH   3   4
ATOM      4  C   UNL A   1      37.695  31.662  33.305  1.00  0.00     0.339 C 
ATOM      5  O   UNL A   1      37.560  30.519  32.903  1.00  0.00    -0.246 OA
BRANCH   4   6
ATOM      6  C   UNL A   1      39.002  32.246  33.583  1.00  0.00     0.078 A 
ATOM      7  N   UNL A   1      40.867  32.930  34.628  1.00  0.00    -0.341 N 
ATOM      8  C   UNL A   1      39.647  32.315  34.803  1.00  0.00     0.102 A 
ATOM      9  C   UNL A   1      40.970  33.324  33.319  1.00  0.00     0.085 A 
ATOM     10  C   UNL A   1      39.852  32.894  32.642  1.00  0.00     0.051 A 
ATOM     11  Br  UNL A   1      42.372  34.259  32.509  1.00  0.00    -0.031 Br
BRANCH   7  12
ATOM     12  C   UNL A   1      41.922  32.965  35.628  1.00  0.00     0.123 C 
BRANCH  12  13
ATOM     13  C   UNL A   1      41.812  31.947  36.766  1.00  0.00     0.026 C 
BRANCH  13  14
ATOM     14  C   UNL A   1      41.568  32.514  38.170  1.00  0.00     0.028 C 
BRANCH  14  15
ATOM     15  C   UNL A   1      40.319  33.342  38.300  1.00  0.00    -0.035 C 
ATOM     16  C   UNL A   1      39.373  33.145  39.226  1.00  0.00     0.004 C 
ENDBRANCH  14  15
ENDBRANCH  13  14
ENDBRANCH  12  13
ENDBRANCH   7  12
ENDBRANCH   4   6
ENDBRANCH   3   4
ENDBRANCH   2   3
ENDBRANCH   1   2
BRANCH   1  17
ATOM     17  O   UNL A   1      33.817  33.678  31.405  1.00  0.00    -0.374 OA
BRANCH  17  18
ATOM     18  C   UNL A   1      34.533  34.152  30.267  1.00  0.00     0.202 C 
BRANCH  18  19
ATOM     19  C   UNL A   1      34.556  33.309  29.001  1.00  0.00     0.261 C 
BRANCH  19  20
ATOM     20  O   UNL A   1      35.882  33.005  28.608  1.00  0.00    -0.460 OA
BRANCH  20  21
ATOM     21  C   UNL A   1      36.074  31.704  28.281  1.00  0.00     0.338 C 
ATOM     22  O   UNL A   1      35.528  31.078  27.398  1.00  0.00    -0.246 OA
BRANCH  21  23
ATOM     23  C   UNL A   1      36.971  31.124  29.287  1.00  0.00     0.060 A 
ATOM     24  C   UNL A   1      38.057  31.924  29.643  1.00  0.00     0.016 A 
ATOM     25  C   UNL A   1      36.962  29.736  29.474  1.00  0.00     0.016 A 
ATOM     26  C   UNL A   1      39.257  31.298  29.870  1.00  0.00     0.010 A 
ATOM     27  C   UNL A   1      38.167  29.116  29.658  1.00  0.00     0.010 A 
ATOM     28  C   UNL A   1      39.310  29.908  29.746  1.00  0.00    -0.014 A 
BRANCH  28  29
ATOM     29  C   UNL A   1      40.586  29.244  29.884  1.00  0.00     0.031 A 
ATOM     30  C   UNL A   1      40.913  29.076  31.315  1.00  0.00     0.074 A 
ATOM     31  C   UNL A   1      41.255  28.736  28.832  1.00  0.00     0.049 A 
ATOM     32  N   UNL A   1      41.722  29.799  32.019  1.00  0.00    -0.248 NA
ATOM     33  C   UNL A   1      40.002  28.244  32.128  1.00  0.00     0.031 C 
ATOM     34  C   UNL A   1      40.847  28.676  27.427  1.00  0.00     0.029 A 
ATOM     35  N   UNL A   1      42.436  28.064  28.824  1.00  0.00    -0.354 N 
ATOM     36  C   UNL A   1      41.631  29.270  33.298  1.00  0.00     0.074 A 
ATOM     37  C   UNL A   1      40.357  28.620  33.355  1.00  0.00     0.031 C 
ATOM     38  C   UNL A   1      41.648  27.807  26.762  1.00  0.00     0.029 A 
ATOM     39  C   UNL A   1      42.692  27.339  27.659  1.00  0.00     0.049 A 
ATOM     40  H   UNL A   1      43.062  28.087  29.583  1.00  0.00     0.167 HD
ATOM     41  C   UNL A   1      42.758  29.049  34.031  1.00  0.00     0.034 A 
ATOM     42  C   UNL A   1      43.642  26.367  27.514  1.00  0.00     0.034 A 
ATOM     43  C   UNL A   1      43.860  29.833  33.499  1.00  0.00     0.049 A 
ATOM     44  C   UNL A   1      44.636  26.596  28.603  1.00  0.00     0.074 A 
ATOM     45  C   UNL A   1      44.054  31.181  33.258  1.00  0.00     0.029 A 
ATOM     46  N   UNL A   1      44.808  29.183  32.735  1.00  0.00    -0.354 N 
ATOM     47  N   UNL A   1      45.386  27.666  28.661  1.00  0.00    -0.248 NA
ATOM     48  C   UNL A   1      44.395  25.942  29.884  1.00  0.00     0.031 C 
ATOM     49  C   UNL A   1      44.750  31.239  32.015  1.00  0.00     0.029 A 
ATOM     50  C   UNL A   1      45.046  29.935  31.611  1.00  0.00     0.049 A 
ATOM     51  H   UNL A   1      45.240  28.327  32.958  1.00  0.00     0.167 HD
ATOM     52  C   UNL A   1      45.349  28.064  29.992  1.00  0.00     0.074 A 
ATOM     53  C   UNL A   1      44.774  26.925  30.710  1.00  0.00     0.031 C 
ATOM     54  C   UNL A   1      45.486  29.379  30.343  1.00  0.00     0.034 A 
BRANCH  41  55
ATOM     55  C   UNL A   1      42.978  27.799  34.871  1.00  0.00     0.023 A 
ATOM     56  C   UNL A   1      43.942  26.901  34.384  1.00  0.00     0.031 A 
ATOM     57  C   UNL A   1      42.145  27.290  35.897  1.00  0.00     0.131 A 
ATOM     58  C   UNL A   1      43.928  25.550  34.762  1.00  0.00     0.055 A 
ATOM     59  C   UNL A   1      42.171  25.955  36.312  1.00  0.00     0.041 A 
ATOM     60  F   UNL A   1      41.216  28.010  36.532  1.00  0.00    -0.206 F 
ATOM     61  C   UNL A   1      43.037  25.064  35.712  1.00  0.00     0.022 A 
BRANCH  58  62
ATOM     62  S   UNL A   1      44.970  24.409  33.829  1.00  0.00     0.124 S 
ATOM     63  O   UNL A   1      46.066  25.286  33.434  1.00  0.00    -0.237 OA
ATOM     64  O   UNL A   1      45.278  23.401  34.837  1.00  0.00    -0.237 OA
ATOM     65  O   UNL A   1      44.096  23.966  32.746  1.00  0.00    -0.744 OA
ENDBRANCH  58  62
ENDBRANCH  41  55
BRANCH  42  66
ATOM     66  C   UNL A   1      43.505  25.063  26.785  1.00  0.00     0.023 A 
ATOM     67  C   UNL A   1      42.723  23.975  27.250  1.00  0.00     0.031 A 
ATOM     68  C   UNL A   1      43.974  24.964  25.455  1.00  0.00     0.131 A 
ATOM     69  C   UNL A   1      42.452  22.867  26.401  1.00  0.00     0.055 A 
ATOM     70  C   UNL A   1      43.701  23.874  24.624  1.00  0.00     0.041 A 
ATOM     71  F   UNL A   1      44.648  25.970  24.877  1.00  0.00    -0.206 F 
ATOM     72  C   UNL A   1      42.930  22.823  25.091  1.00  0.00     0.022 A 
BRANCH  69  73
ATOM     73  S   UNL A   1      41.407  21.472  26.957  1.00  0.00     0.124 S 
ATOM     74  O   UNL A   1      40.311  21.501  25.996  1.00  0.00    -0.237 OA
ATOM     75  O   UNL A   1      42.320  20.338  26.870  1.00  0.00    -0.237 OA
ATOM     76  O   UNL A   1      41.031  21.847  28.322  1.00  0.00    -0.744 OA
ENDBRANCH  69  73
ENDBRANCH  42  66
BRANCH  54  77
ATOM     77  C   UNL A   1      45.969  30.366  29.295  1.00  0.00     0.023 A 
ATOM     78  C   UNL A   1      45.143  31.117  28.424  1.00  0.00     0.031 A 
ATOM     79  C   UNL A   1      47.348  30.638  29.279  1.00  0.00     0.131 A 
ATOM     80  C   UNL A   1      45.716  32.092  27.579  1.00  0.00     0.055 A 
ATOM     81  C   UNL A   1      47.905  31.619  28.460  1.00  0.00     0.041 A 
ATOM     82  F   UNL A   1      48.181  29.977  30.098  1.00  0.00    -0.206 F 
ATOM     83  C   UNL A   1      47.091  32.346  27.603  1.00  0.00     0.022 A 
BRANCH  80  84
ATOM     84  S   UNL A   1      44.689  33.040  26.406  1.00  0.00     0.124 S 
ATOM     85  O   UNL A   1      45.670  33.729  25.575  1.00  0.00    -0.237 OA
ATOM     86  O   UNL A   1      43.914  31.993  25.746  1.00  0.00    -0.237 OA
ATOM     87  O   UNL A   1      43.903  33.920  27.275  1.00  0.00    -0.744 OA
ENDBRANCH  80  84
ENDBRANCH  54  77
ENDBRANCH  28  29
ENDBRANCH  21  23
ENDBRANCH  20  21
ENDBRANCH  19  20
ENDBRANCH  18  19
ENDBRANCH  17  18
ENDBRANCH   1  17
TORSDOF 21
ENDMDL
