MODEL 1
REMARK VINA RESULT:     -11.5      0.000      0.000
REMARK SMILES CC(C)[N@@H+](C)Cc1cc2c(cc1Cl)C=C(C(=O)OCCOCCOC(=O)c1ccc(-c3c4nc(c(-c5cc(S(=O)(=O)[O-])ccc5F)c5ccc([nH]5)c(-c5cc(S(=O)(=O)[O-])ccc5F)c5nc(c(-c6cc(S(=O)(=O)[O-])ccc6F)c6ccc3[nH]6)C=C5)C=C4)cc1)[C@@H](C(F)(F)F)O2
REMARK SMILES IDX 21 1 20 2 19 3 18 4 16 5 17 6 15 7 7 8 8 9 12 10 9 11 11 12
REMARK SMILES IDX 13 13 10 14 95 15 14 16 90 17 6 18 4 19 5 20 2 22 1 23 3 24
REMARK SMILES IDX 91 25 92 26 93 27 94 28 22 29 23 30 24 31 25 32 26 33 27 34
REMARK SMILES IDX 28 35 89 36 29 37 88 38 30 39 31 40 32 41 82 42 33 43 87 44
REMARK SMILES IDX 81 45 83 46 34 47 86 48 80 49 79 50 35 52 67 53 47 54 66 55
REMARK SMILES IDX 48 56 51 57 65 58 84 59 49 60 50 61 64 63 85 64 52 65 36 66
REMARK SMILES IDX 37 67 45 68 38 69 44 70 46 71 43 72 39 73 40 74 41 75 42 76
REMARK SMILES IDX 68 77 69 78 77 79 70 80 76 81 78 82 75 83 71 84 72 85 73 86
REMARK SMILES IDX 74 87 53 88 54 89 62 90 55 91 61 92 63 93 60 94 56 95 57 96
REMARK SMILES IDX 58 97 59 98
REMARK H PARENT 4 21 83 51 51 62
REMARK Flexibility Score: inf
ROOT
ATOM      1  O   UNL A   1      35.190  20.454  25.098  1.00  0.00    -0.374 OA
ENDROOT
BRANCH   1   2
ATOM      2  C   UNL A   1      33.959  20.974  25.593  1.00  0.00     0.202 C 
BRANCH   2   3
ATOM      3  C   UNL A   1      34.001  21.871  26.835  1.00  0.00     0.261 C 
BRANCH   3   4
ATOM      4  O   UNL A   1      33.935  23.264  26.506  1.00  0.00    -0.460 OA
BRANCH   4   5
ATOM      5  C   UNL A   1      32.710  23.810  26.672  1.00  0.00     0.338 C 
ATOM      6  O   UNL A   1      31.946  23.636  27.608  1.00  0.00    -0.246 OA
BRANCH   5   7
ATOM      7  C   UNL A   1      32.446  24.781  25.594  1.00  0.00     0.087 C 
ATOM      8  C   UNL A   1      30.910  28.880  23.144  1.00  0.00     0.029 A 
ATOM      9  C   UNL A   1      31.174  27.542  22.788  1.00  0.00     0.058 A 
ATOM     10  C   UNL A   1      31.154  29.261  24.476  1.00  0.00     0.050 A 
ATOM     11  C   UNL A   1      31.707  26.637  23.700  1.00  0.00     0.128 A 
ATOM     12  C   UNL A   1      31.686  28.349  25.393  1.00  0.00     0.033 A 
ATOM     13  Cl  UNL A   1      30.796  30.838  25.086  1.00  0.00    -0.084 Cl
ATOM     14  C   UNL A   1      31.950  27.035  25.009  1.00  0.00     0.019 A 
ATOM     15  O   UNL A   1      31.978  25.387  23.224  1.00  0.00    -0.475 OA
ATOM     16  C   UNL A   1      32.386  26.060  25.985  1.00  0.00     0.027 C 
ATOM     17  C   UNL A   1      32.222  24.317  24.181  1.00  0.00     0.316 C 
BRANCH   8  18
ATOM     18  C   UNL A   1      30.359  29.826  22.097  1.00  0.00     0.300 C 
BRANCH  18  19
ATOM     19  N   UNL A   1      28.898  29.957  21.991  1.00  0.00    -0.332 N 
ATOM     20  C   UNL A   1      28.439  31.027  21.114  1.00  0.00     0.333 C 
ATOM     21  H   UNL A   1      28.706  29.076  21.513  1.00  0.00     0.348 HD
BRANCH  19  22
ATOM     22  C   UNL A   1      28.074  29.806  23.200  1.00  0.00     0.177 C 
ATOM     23  C   UNL A   1      27.403  31.125  23.598  1.00  0.00     0.075 C 
ATOM     24  C   UNL A   1      27.048  28.667  23.190  1.00  0.00     0.075 C 
ENDBRANCH  19  22
ENDBRANCH  18  19
ENDBRANCH   8  18
BRANCH  17  25
ATOM     25  C   UNL A   1      31.077  23.302  24.062  1.00  0.00     0.430 C 
ATOM     26  F   UNL A   1      31.555  22.043  23.918  1.00  0.00    -0.167 F 
ATOM     27  F   UNL A   1      30.286  23.301  25.157  1.00  0.00    -0.167 F 
ATOM     28  F   UNL A   1      30.291  23.561  22.991  1.00  0.00    -0.167 F 
ENDBRANCH  17  25
ENDBRANCH   5   7
ENDBRANCH   4   5
ENDBRANCH   3   4
ENDBRANCH   2   3
ENDBRANCH   1   2
BRANCH   1  29
ATOM     29  C   UNL A   1      36.360  21.269  25.172  1.00  0.00     0.202 C 
BRANCH  29  30
ATOM     30  C   UNL A   1      37.729  20.598  25.346  1.00  0.00     0.261 C 
BRANCH  30  31
ATOM     31  O   UNL A   1      38.816  21.538  25.385  1.00  0.00    -0.460 OA
BRANCH  31  32
ATOM     32  C   UNL A   1      39.658  21.384  26.438  1.00  0.00     0.338 C 
ATOM     33  O   UNL A   1      40.220  20.355  26.783  1.00  0.00    -0.246 OA
BRANCH  32  34
ATOM     34  C   UNL A   1      39.987  22.708  27.000  1.00  0.00     0.060 A 
ATOM     35  C   UNL A   1      40.997  22.863  27.948  1.00  0.00     0.016 A 
ATOM     36  C   UNL A   1      39.285  23.821  26.516  1.00  0.00     0.016 A 
ATOM     37  C   UNL A   1      41.330  24.149  28.383  1.00  0.00     0.010 A 
ATOM     38  C   UNL A   1      39.618  25.102  26.953  1.00  0.00     0.010 A 
ATOM     39  C   UNL A   1      40.662  25.279  27.869  1.00  0.00    -0.014 A 
BRANCH  39  40
ATOM     40  C   UNL A   1      41.188  26.640  28.144  1.00  0.00     0.031 A 
ATOM     41  C   UNL A   1      40.342  27.717  28.753  1.00  0.00     0.074 A 
ATOM     42  C   UNL A   1      42.462  26.903  27.791  1.00  0.00     0.049 A 
ATOM     43  N   UNL A   1      40.698  28.916  29.134  1.00  0.00    -0.248 NA
ATOM     44  C   UNL A   1      38.915  27.420  28.949  1.00  0.00     0.031 C 
ATOM     45  C   UNL A   1      43.349  25.953  27.121  1.00  0.00     0.029 A 
ATOM     46  N   UNL A   1      43.232  28.028  27.945  1.00  0.00    -0.354 N 
ATOM     47  C   UNL A   1      39.549  29.516  29.635  1.00  0.00     0.074 A 
ATOM     48  C   UNL A   1      38.471  28.565  29.456  1.00  0.00     0.031 C 
ATOM     49  C   UNL A   1      44.552  26.518  26.957  1.00  0.00     0.029 A 
ATOM     50  C   UNL A   1      44.516  27.884  27.475  1.00  0.00     0.049 A 
ATOM     51  H   UNL A   1      42.898  28.860  28.354  1.00  0.00     0.167 HD
ATOM     52  C   UNL A   1      39.421  30.737  30.210  1.00  0.00     0.034 A 
ATOM     53  C   UNL A   1      45.555  28.746  27.464  1.00  0.00     0.034 A 
ATOM     54  C   UNL A   1      40.510  31.673  30.365  1.00  0.00     0.049 A 
ATOM     55  C   UNL A   1      45.382  30.098  28.106  1.00  0.00     0.074 A 
ATOM     56  C   UNL A   1      40.492  32.904  30.997  1.00  0.00     0.029 A 
ATOM     57  N   UNL A   1      41.799  31.500  29.876  1.00  0.00    -0.354 N 
ATOM     58  N   UNL A   1      44.329  30.595  28.709  1.00  0.00    -0.248 NA
ATOM     59  C   UNL A   1      46.542  30.999  28.087  1.00  0.00     0.031 C 
ATOM     60  C   UNL A   1      41.737  33.510  30.819  1.00  0.00     0.029 A 
ATOM     61  C   UNL A   1      42.568  32.622  30.155  1.00  0.00     0.049 A 
ATOM     62  H   UNL A   1      42.120  30.700  29.401  1.00  0.00     0.167 HD
ATOM     63  C   UNL A   1      44.702  31.861  29.152  1.00  0.00     0.074 A 
ATOM     64  C   UNL A   1      46.093  32.032  28.788  1.00  0.00     0.031 C 
ATOM     65  C   UNL A   1      43.955  32.798  29.790  1.00  0.00     0.034 A 
BRANCH  52  66
ATOM     66  C   UNL A   1      38.075  31.149  30.759  1.00  0.00     0.023 A 
ATOM     67  C   UNL A   1      37.143  31.803  29.930  1.00  0.00     0.031 A 
ATOM     68  C   UNL A   1      37.790  31.057  32.133  1.00  0.00     0.131 A 
ATOM     69  C   UNL A   1      35.998  32.385  30.491  1.00  0.00     0.055 A 
ATOM     70  C   UNL A   1      36.623  31.596  32.679  1.00  0.00     0.041 A 
ATOM     71  F   UNL A   1      38.649  30.452  32.969  1.00  0.00    -0.206 F 
ATOM     72  C   UNL A   1      35.730  32.279  31.859  1.00  0.00     0.022 A 
BRANCH  69  73
ATOM     73  S   UNL A   1      34.862  33.381  29.487  1.00  0.00     0.124 S 
ATOM     74  O   UNL A   1      33.831  33.731  30.461  1.00  0.00    -0.237 OA
ATOM     75  O   UNL A   1      35.719  34.485  29.063  1.00  0.00    -0.237 OA
ATOM     76  O   UNL A   1      34.436  32.470  28.431  1.00  0.00    -0.744 OA
ENDBRANCH  69  73
ENDBRANCH  52  66
BRANCH  53  77
ATOM     77  C   UNL A   1      46.856  28.302  26.885  1.00  0.00     0.023 A 
ATOM     78  C   UNL A   1      47.063  28.304  25.493  1.00  0.00     0.031 A 
ATOM     79  C   UNL A   1      47.864  27.763  27.701  1.00  0.00     0.131 A 
ATOM     80  C   UNL A   1      48.211  27.705  24.958  1.00  0.00     0.055 A 
ATOM     81  C   UNL A   1      49.045  27.243  27.168  1.00  0.00     0.041 A 
ATOM     82  F   UNL A   1      47.707  27.722  29.033  1.00  0.00    -0.206 F 
ATOM     83  C   UNL A   1      49.214  27.194  25.788  1.00  0.00     0.022 A 
BRANCH  80  84
ATOM     84  S   UNL A   1      48.369  27.433  23.172  1.00  0.00     0.124 S 
ATOM     85  O   UNL A   1      49.690  27.985  22.893  1.00  0.00    -0.237 OA
ATOM     86  O   UNL A   1      48.261  25.978  23.083  1.00  0.00    -0.237 OA
ATOM     87  O   UNL A   1      47.244  28.172  22.610  1.00  0.00    -0.744 OA
ENDBRANCH  80  84
ENDBRANCH  53  77
BRANCH  65  88
ATOM     88  C   UNL A   1      44.600  34.124  30.135  1.00  0.00     0.023 A 
ATOM     89  C   UNL A   1      45.295  34.284  31.350  1.00  0.00     0.031 A 
ATOM     90  C   UNL A   1      44.412  35.262  29.329  1.00  0.00     0.131 A 
ATOM     91  C   UNL A   1      45.737  35.554  31.742  1.00  0.00     0.055 A 
ATOM     92  C   UNL A   1      44.908  36.514  29.695  1.00  0.00     0.041 A 
ATOM     93  F   UNL A   1      43.744  35.172  28.167  1.00  0.00    -0.206 F 
ATOM     94  C   UNL A   1      45.561  36.668  30.914  1.00  0.00     0.022 A 
BRANCH  91  95
ATOM     95  S   UNL A   1      46.471  35.830  33.378  1.00  0.00     0.124 S 
ATOM     96  O   UNL A   1      45.285  35.950  34.225  1.00  0.00    -0.237 OA
ATOM     97  O   UNL A   1      47.254  34.612  33.574  1.00  0.00    -0.237 OA
ATOM     98  O   UNL A   1      47.245  37.056  33.216  1.00  0.00    -0.744 OA
ENDBRANCH  91  95
ENDBRANCH  65  88
ENDBRANCH  39  40
ENDBRANCH  32  34
ENDBRANCH  31  32
ENDBRANCH  30  31
ENDBRANCH  29  30
ENDBRANCH   1  29
TORSDOF 21
ENDMDL
MODEL 2
REMARK VINA RESULT:     -11.5      1.651      1.993
REMARK SMILES CC(C)[N@@H+](C)Cc1cc2c(cc1Cl)C=C(C(=O)OCCOCCOC(=O)c1ccc(-c3c4nc(c(-c5cc(S(=O)(=O)[O-])ccc5F)c5ccc([nH]5)c(-c5cc(S(=O)(=O)[O-])ccc5F)c5nc(c(-c6cc(S(=O)(=O)[O-])ccc6F)c6ccc3[nH]6)C=C5)C=C4)cc1)[C@@H](C(F)(F)F)O2
REMARK SMILES IDX 21 1 20 2 19 3 18 4 16 5 17 6 15 7 7 8 8 9 12 10 9 11 11 12
REMARK SMILES IDX 13 13 10 14 95 15 14 16 90 17 6 18 4 19 5 20 2 22 1 23 3 24
REMARK SMILES IDX 91 25 92 26 93 27 94 28 22 29 23 30 24 31 25 32 26 33 27 34
REMARK SMILES IDX 28 35 89 36 29 37 88 38 30 39 31 40 32 41 82 42 33 43 87 44
REMARK SMILES IDX 81 45 83 46 34 47 86 48 80 49 79 50 35 52 67 53 47 54 66 55
REMARK SMILES IDX 48 56 51 57 65 58 84 59 49 60 50 61 64 63 85 64 52 65 36 66
REMARK SMILES IDX 37 67 45 68 38 69 44 70 46 71 43 72 39 73 40 74 41 75 42 76
REMARK SMILES IDX 68 77 69 78 77 79 70 80 76 81 78 82 75 83 71 84 72 85 73 86
REMARK SMILES IDX 74 87 53 88 54 89 62 90 55 91 61 92 63 93 60 94 56 95 57 96
REMARK SMILES IDX 58 97 59 98
REMARK H PARENT 4 21 83 51 51 62
REMARK Flexibility Score: inf
ROOT
ATOM      1  O   UNL A   1      35.315  20.311  24.811  1.00  0.00    -0.374 OA
ENDROOT
BRANCH   1   2
ATOM      2  C   UNL A   1      34.103  20.682  25.462  1.00  0.00     0.202 C 
BRANCH   2   3
ATOM      3  C   UNL A   1      34.169  21.744  26.564  1.00  0.00     0.261 C 
BRANCH   3   4
ATOM      4  O   UNL A   1      34.045  23.075  26.049  1.00  0.00    -0.460 OA
BRANCH   4   5
ATOM      5  C   UNL A   1      32.946  23.732  26.482  1.00  0.00     0.338 C 
ATOM      6  O   UNL A   1      32.390  23.605  27.562  1.00  0.00    -0.246 OA
BRANCH   5   7
ATOM      7  C   UNL A   1      32.555  24.755  25.496  1.00  0.00     0.087 C 
ATOM      8  C   UNL A   1      30.764  28.979  23.466  1.00  0.00     0.029 A 
ATOM      9  C   UNL A   1      30.959  27.658  23.016  1.00  0.00     0.058 A 
ATOM     10  C   UNL A   1      31.190  29.294  24.769  1.00  0.00     0.050 A 
ATOM     11  C   UNL A   1      31.596  26.705  23.806  1.00  0.00     0.128 A 
ATOM     12  C   UNL A   1      31.827  28.335  25.563  1.00  0.00     0.033 A 
ATOM     13  Cl  UNL A   1      30.940  30.843  25.494  1.00  0.00    -0.084 Cl
ATOM     14  C   UNL A   1      32.018  27.039  25.087  1.00  0.00     0.019 A 
ATOM     15  O   UNL A   1      31.783  25.477  23.240  1.00  0.00    -0.475 OA
ATOM     16  C   UNL A   1      32.566  26.015  25.950  1.00  0.00     0.027 C 
ATOM     17  C   UNL A   1      32.137  24.362  24.106  1.00  0.00     0.316 C 
BRANCH   8  18
ATOM     18  C   UNL A   1      30.092  29.978  22.548  1.00  0.00     0.300 C 
BRANCH  18  19
ATOM     19  N   UNL A   1      28.718  30.391  22.870  1.00  0.00    -0.332 N 
ATOM     20  C   UNL A   1      27.730  29.319  22.835  1.00  0.00     0.333 C 
ATOM     21  H   UNL A   1      28.863  30.632  23.851  1.00  0.00     0.348 HD
BRANCH  19  22
ATOM     22  C   UNL A   1      28.208  31.664  22.339  1.00  0.00     0.177 C 
ATOM     23  C   UNL A   1      28.939  32.866  22.947  1.00  0.00     0.075 C 
ATOM     24  C   UNL A   1      28.146  31.793  20.813  1.00  0.00     0.075 C 
ENDBRANCH  19  22
ENDBRANCH  18  19
ENDBRANCH   8  18
BRANCH  17  25
ATOM     25  C   UNL A   1      30.972  23.363  24.095  1.00  0.00     0.430 C 
ATOM     26  F   UNL A   1      30.216  23.482  25.213  1.00  0.00    -0.167 F 
ATOM     27  F   UNL A   1      30.150  23.557  23.040  1.00  0.00    -0.167 F 
ATOM     28  F   UNL A   1      31.412  22.084  24.039  1.00  0.00    -0.167 F 
ENDBRANCH  17  25
ENDBRANCH   5   7
ENDBRANCH   4   5
ENDBRANCH   3   4
ENDBRANCH   2   3
ENDBRANCH   1   2
BRANCH   1  29
ATOM     29  C   UNL A   1      36.526  20.968  25.187  1.00  0.00     0.202 C 
BRANCH  29  30
ATOM     30  C   UNL A   1      37.822  20.153  25.275  1.00  0.00     0.261 C 
BRANCH  30  31
ATOM     31  O   UNL A   1      39.004  20.970  25.249  1.00  0.00    -0.460 OA
BRANCH  31  32
ATOM     32  C   UNL A   1      39.802  20.845  26.339  1.00  0.00     0.338 C 
ATOM     33  O   UNL A   1      40.308  19.816  26.763  1.00  0.00    -0.246 OA
BRANCH  32  34
ATOM     34  C   UNL A   1      40.167  22.185  26.837  1.00  0.00     0.060 A 
ATOM     35  C   UNL A   1      41.166  22.357  27.793  1.00  0.00     0.016 A 
ATOM     36  C   UNL A   1      39.511  23.294  26.284  1.00  0.00     0.016 A 
ATOM     37  C   UNL A   1      41.535  23.653  28.167  1.00  0.00     0.010 A 
ATOM     38  C   UNL A   1      39.879  24.584  26.658  1.00  0.00     0.010 A 
ATOM     39  C   UNL A   1      40.914  24.775  27.582  1.00  0.00    -0.014 A 
BRANCH  39  40
ATOM     40  C   UNL A   1      41.481  26.131  27.795  1.00  0.00     0.031 A 
ATOM     41  C   UNL A   1      40.726  27.210  28.510  1.00  0.00     0.074 A 
ATOM     42  C   UNL A   1      42.702  26.387  27.286  1.00  0.00     0.049 A 
ATOM     43  N   UNL A   1      41.137  28.405  28.849  1.00  0.00    -0.248 NA
ATOM     44  C   UNL A   1      39.334  26.923  28.883  1.00  0.00     0.031 C 
ATOM     45  C   UNL A   1      43.490  25.434  26.505  1.00  0.00     0.029 A 
ATOM     46  N   UNL A   1      43.494  27.505  27.347  1.00  0.00    -0.354 N 
ATOM     47  C   UNL A   1      40.065  29.010  29.493  1.00  0.00     0.074 A 
ATOM     48  C   UNL A   1      38.966  28.068  29.447  1.00  0.00     0.031 C 
ATOM     49  C   UNL A   1      44.668  25.991  26.193  1.00  0.00     0.029 A 
ATOM     50  C   UNL A   1      44.708  27.354  26.718  1.00  0.00     0.049 A 
ATOM     51  H   UNL A   1      43.221  28.337  27.798  1.00  0.00     0.167 HD
ATOM     52  C   UNL A   1      40.019  30.229  30.085  1.00  0.00     0.034 A 
ATOM     53  C   UNL A   1      45.744  28.209  26.580  1.00  0.00     0.034 A 
ATOM     54  C   UNL A   1      41.127  31.156  30.106  1.00  0.00     0.049 A 
ATOM     55  C   UNL A   1      45.664  29.558  27.245  1.00  0.00     0.074 A 
ATOM     56  C   UNL A   1      41.198  32.384  30.741  1.00  0.00     0.029 A 
ATOM     57  N   UNL A   1      42.343  30.977  29.458  1.00  0.00    -0.354 N 
ATOM     58  N   UNL A   1      44.698  30.060  27.978  1.00  0.00    -0.248 NA
ATOM     59  C   UNL A   1      46.819  30.452  27.084  1.00  0.00     0.031 C 
ATOM     60  C   UNL A   1      42.416  32.981  30.410  1.00  0.00     0.029 A 
ATOM     61  C   UNL A   1      43.150  32.091  29.643  1.00  0.00     0.049 A 
ATOM     62  H   UNL A   1      42.596  30.177  28.942  1.00  0.00     0.167 HD
ATOM     63  C   UNL A   1      45.135  31.321  28.376  1.00  0.00     0.074 A 
ATOM     64  C   UNL A   1      46.470  31.483  27.841  1.00  0.00     0.031 C 
ATOM     65  C   UNL A   1      44.481  32.260  29.108  1.00  0.00     0.034 A 
BRANCH  52  66
ATOM     66  C   UNL A   1      38.757  30.647  30.801  1.00  0.00     0.023 A 
ATOM     67  C   UNL A   1      37.844  31.518  30.174  1.00  0.00     0.031 A 
ATOM     68  C   UNL A   1      38.549  30.333  32.156  1.00  0.00     0.131 A 
ATOM     69  C   UNL A   1      36.798  32.084  30.916  1.00  0.00     0.055 A 
ATOM     70  C   UNL A   1      37.477  30.861  32.877  1.00  0.00     0.041 A 
ATOM     71  F   UNL A   1      39.396  29.516  32.804  1.00  0.00    -0.206 F 
ATOM     72  C   UNL A   1      36.606  31.754  32.261  1.00  0.00     0.022 A 
BRANCH  69  73
ATOM     73  S   UNL A   1      35.705  33.338  30.193  1.00  0.00     0.124 S 
ATOM     74  O   UNL A   1      36.489  33.794  29.047  1.00  0.00    -0.237 OA
ATOM     75  O   UNL A   1      34.519  32.553  29.862  1.00  0.00    -0.237 OA
ATOM     76  O   UNL A   1      35.539  34.317  31.260  1.00  0.00    -0.744 OA
ENDBRANCH  69  73
ENDBRANCH  52  66
BRANCH  53  77
ATOM     77  C   UNL A   1      46.959  27.759  25.840  1.00  0.00     0.023 A 
ATOM     78  C   UNL A   1      47.153  28.112  24.492  1.00  0.00     0.031 A 
ATOM     79  C   UNL A   1      47.879  26.878  26.430  1.00  0.00     0.131 A 
ATOM     80  C   UNL A   1      48.192  27.525  23.760  1.00  0.00     0.055 A 
ATOM     81  C   UNL A   1      48.963  26.359  25.719  1.00  0.00     0.041 A 
ATOM     82  F   UNL A   1      47.728  26.496  27.707  1.00  0.00    -0.206 F 
ATOM     83  C   UNL A   1      49.112  26.667  24.370  1.00  0.00     0.022 A 
BRANCH  80  84
ATOM     84  S   UNL A   1      48.293  27.734  21.960  1.00  0.00     0.124 S 
ATOM     85  O   UNL A   1      49.411  28.660  21.822  1.00  0.00    -0.237 OA
ATOM     86  O   UNL A   1      48.548  26.365  21.517  1.00  0.00    -0.237 OA
ATOM     87  O   UNL A   1      46.983  28.266  21.601  1.00  0.00    -0.744 OA
ENDBRANCH  80  84
ENDBRANCH  53  77
BRANCH  65  88
ATOM     88  C   UNL A   1      45.175  33.579  29.375  1.00  0.00     0.023 A 
ATOM     89  C   UNL A   1      45.006  34.664  28.492  1.00  0.00     0.031 A 
ATOM     90  C   UNL A   1      46.105  33.719  30.421  1.00  0.00     0.131 A 
ATOM     91  C   UNL A   1      45.782  35.820  28.647  1.00  0.00     0.055 A 
ATOM     92  C   UNL A   1      46.832  34.896  30.608  1.00  0.00     0.041 A 
ATOM     93  F   UNL A   1      46.318  32.712  31.283  1.00  0.00    -0.206 F 
ATOM     94  C   UNL A   1      46.684  35.948  29.709  1.00  0.00     0.022 A 
BRANCH  91  95
ATOM     95  S   UNL A   1      45.725  37.161  27.426  1.00  0.00     0.124 S 
ATOM     96  O   UNL A   1      46.751  36.745  26.472  1.00  0.00    -0.237 OA
ATOM     97  O   UNL A   1      44.350  37.074  26.939  1.00  0.00    -0.237 OA
ATOM     98  O   UNL A   1      46.043  38.356  28.200  1.00  0.00    -0.744 OA
ENDBRANCH  91  95
ENDBRANCH  65  88
ENDBRANCH  39  40
ENDBRANCH  32  34
ENDBRANCH  31  32
ENDBRANCH  30  31
ENDBRANCH  29  30
ENDBRANCH   1  29
TORSDOF 21
ENDMDL
MODEL 3
REMARK VINA RESULT:     -11.3      1.109      7.346
REMARK SMILES CC(C)[N@@H+](C)Cc1cc2c(cc1Cl)C=C(C(=O)OCCOCCOC(=O)c1ccc(-c3c4nc(c(-c5cc(S(=O)(=O)[O-])ccc5F)c5ccc([nH]5)c(-c5cc(S(=O)(=O)[O-])ccc5F)c5nc(c(-c6cc(S(=O)(=O)[O-])ccc6F)c6ccc3[nH]6)C=C5)C=C4)cc1)[C@@H](C(F)(F)F)O2
REMARK SMILES IDX 21 1 20 2 19 3 18 4 16 5 17 6 15 7 7 8 8 9 12 10 9 11 11 12
REMARK SMILES IDX 13 13 10 14 95 15 14 16 90 17 6 18 4 19 5 20 2 22 1 23 3 24
REMARK SMILES IDX 91 25 92 26 93 27 94 28 22 29 23 30 24 31 25 32 26 33 27 34
REMARK SMILES IDX 28 35 89 36 29 37 88 38 30 39 31 40 32 41 82 42 33 43 87 44
REMARK SMILES IDX 81 45 83 46 34 47 86 48 80 49 79 50 35 52 67 53 47 54 66 55
REMARK SMILES IDX 48 56 51 57 65 58 84 59 49 60 50 61 64 63 85 64 52 65 36 66
REMARK SMILES IDX 37 67 45 68 38 69 44 70 46 71 43 72 39 73 40 74 41 75 42 76
REMARK SMILES IDX 68 77 69 78 77 79 70 80 76 81 78 82 75 83 71 84 72 85 73 86
REMARK SMILES IDX 74 87 53 88 54 89 62 90 55 91 61 92 63 93 60 94 56 95 57 96
REMARK SMILES IDX 58 97 59 98
REMARK H PARENT 4 21 83 51 51 62
REMARK Flexibility Score: inf
ROOT
ATOM      1  O   UNL A   1      35.052  20.480  24.601  1.00  0.00    -0.374 OA
ENDROOT
BRANCH   1   2
ATOM      2  C   UNL A   1      33.762  20.286  25.174  1.00  0.00     0.202 C 
BRANCH   2   3
ATOM      3  C   UNL A   1      33.322  21.228  26.298  1.00  0.00     0.261 C 
BRANCH   3   4
ATOM      4  O   UNL A   1      33.122  22.571  25.841  1.00  0.00    -0.460 OA
BRANCH   4   5
ATOM      5  C   UNL A   1      31.861  22.830  25.431  1.00  0.00     0.338 C 
ATOM      6  O   UNL A   1      30.881  22.115  25.564  1.00  0.00    -0.246 OA
BRANCH   5   7
ATOM      7  C   UNL A   1      31.785  24.198  24.886  1.00  0.00     0.087 C 
ATOM      8  C   UNL A   1      30.036  28.383  22.744  1.00  0.00     0.029 A 
ATOM      9  C   UNL A   1      31.308  27.798  22.903  1.00  0.00     0.058 A 
ATOM     10  C   UNL A   1      28.939  27.732  23.336  1.00  0.00     0.050 A 
ATOM     11  C   UNL A   1      31.490  26.647  23.663  1.00  0.00     0.128 A 
ATOM     12  C   UNL A   1      29.123  26.573  24.097  1.00  0.00     0.033 A 
ATOM     13  Cl  UNL A   1      27.309  28.277  23.155  1.00  0.00    -0.084 Cl
ATOM     14  C   UNL A   1      30.395  26.024  24.248  1.00  0.00     0.019 A 
ATOM     15  O   UNL A   1      32.775  26.208  23.797  1.00  0.00    -0.475 OA
ATOM     16  C   UNL A   1      30.571  24.760  24.932  1.00  0.00     0.027 C 
ATOM     17  C   UNL A   1      32.999  24.856  24.290  1.00  0.00     0.316 C 
BRANCH   8  18
ATOM     18  C   UNL A   1      29.907  29.655  21.931  1.00  0.00     0.300 C 
BRANCH  18  19
ATOM     19  N   UNL A   1      28.686  30.457  22.101  1.00  0.00    -0.332 N 
ATOM     20  C   UNL A   1      28.025  30.842  20.860  1.00  0.00     0.333 C 
ATOM     21  H   UNL A   1      28.103  29.745  22.542  1.00  0.00     0.348 HD
BRANCH  19  22
ATOM     22  C   UNL A   1      28.659  31.515  23.123  1.00  0.00     0.177 C 
ATOM     23  C   UNL A   1      29.002  32.886  22.529  1.00  0.00     0.075 C 
ATOM     24  C   UNL A   1      27.392  31.607  23.979  1.00  0.00     0.075 C 
ENDBRANCH  19  22
ENDBRANCH  18  19
ENDBRANCH   8  18
BRANCH  17  25
ATOM     25  C   UNL A   1      33.626  24.034  23.157  1.00  0.00     0.430 C 
ATOM     26  F   UNL A   1      33.875  24.808  22.073  1.00  0.00    -0.167 F 
ATOM     27  F   UNL A   1      34.803  23.482  23.525  1.00  0.00    -0.167 F 
ATOM     28  F   UNL A   1      32.812  23.030  22.759  1.00  0.00    -0.167 F 
ENDBRANCH  17  25
ENDBRANCH   5   7
ENDBRANCH   4   5
ENDBRANCH   3   4
ENDBRANCH   2   3
ENDBRANCH   1   2
BRANCH   1  29
ATOM     29  C   UNL A   1      36.127  20.885  25.448  1.00  0.00     0.202 C 
BRANCH  29  30
ATOM     30  C   UNL A   1      37.571  20.626  25.001  1.00  0.00     0.261 C 
BRANCH  30  31
ATOM     31  O   UNL A   1      38.449  21.735  25.259  1.00  0.00    -0.460 OA
BRANCH  31  32
ATOM     32  C   UNL A   1      39.426  21.482  26.166  1.00  0.00     0.338 C 
ATOM     33  O   UNL A   1      40.023  20.427  26.325  1.00  0.00    -0.246 OA
BRANCH  32  34
ATOM     34  C   UNL A   1      39.836  22.744  26.810  1.00  0.00     0.060 A 
ATOM     35  C   UNL A   1      40.852  22.775  27.764  1.00  0.00     0.016 A 
ATOM     36  C   UNL A   1      39.207  23.928  26.399  1.00  0.00     0.016 A 
ATOM     37  C   UNL A   1      41.264  24.008  28.279  1.00  0.00     0.010 A 
ATOM     38  C   UNL A   1      39.619  25.155  26.914  1.00  0.00     0.010 A 
ATOM     39  C   UNL A   1      40.670  25.208  27.838  1.00  0.00    -0.014 A 
BRANCH  39  40
ATOM     40  C   UNL A   1      41.280  26.513  28.197  1.00  0.00     0.031 A 
ATOM     41  C   UNL A   1      42.707  26.844  27.880  1.00  0.00     0.074 A 
ATOM     42  C   UNL A   1      40.515  27.400  28.862  1.00  0.00     0.049 A 
ATOM     43  N   UNL A   1      43.338  27.977  28.050  1.00  0.00    -0.248 NA
ATOM     44  C   UNL A   1      43.537  25.770  27.315  1.00  0.00     0.031 C 
ATOM     45  C   UNL A   1      39.138  27.151  29.290  1.00  0.00     0.029 A 
ATOM     46  N   UNL A   1      40.772  28.679  29.290  1.00  0.00    -0.354 N 
ATOM     47  C   UNL A   1      44.634  27.765  27.595  1.00  0.00     0.074 A 
ATOM     48  C   UNL A   1      44.713  26.375  27.194  1.00  0.00     0.031 C 
ATOM     49  C   UNL A   1      38.658  28.252  29.882  1.00  0.00     0.029 A 
ATOM     50  C   UNL A   1      39.700  29.275  29.913  1.00  0.00     0.049 A 
ATOM     51  H   UNL A   1      41.639  29.126  29.164  1.00  0.00     0.167 HD
ATOM     52  C   UNL A   1      45.649  28.659  27.503  1.00  0.00     0.034 A 
ATOM     53  C   UNL A   1      39.562  30.507  30.446  1.00  0.00     0.034 A 
ATOM     54  C   UNL A   1      45.549  30.038  27.922  1.00  0.00     0.049 A 
ATOM     55  C   UNL A   1      40.708  31.479  30.333  1.00  0.00     0.074 A 
ATOM     56  C   UNL A   1      46.501  31.035  27.803  1.00  0.00     0.029 A 
ATOM     57  N   UNL A   1      44.452  30.612  28.552  1.00  0.00    -0.354 N 
ATOM     58  N   UNL A   1      41.880  31.310  29.765  1.00  0.00    -0.248 NA
ATOM     59  C   UNL A   1      40.511  32.815  30.911  1.00  0.00     0.031 C 
ATOM     60  C   UNL A   1      46.017  32.184  28.432  1.00  0.00     0.029 A 
ATOM     61  C   UNL A   1      44.724  31.937  28.865  1.00  0.00     0.049 A 
ATOM     62  H   UNL A   1      43.607  30.149  28.748  1.00  0.00     0.167 HD
ATOM     63  C   UNL A   1      42.553  32.520  29.907  1.00  0.00     0.074 A 
ATOM     64  C   UNL A   1      41.639  33.425  30.571  1.00  0.00     0.031 C 
ATOM     65  C   UNL A   1      43.817  32.844  29.531  1.00  0.00     0.034 A 
BRANCH  52  66
ATOM     66  C   UNL A   1      46.960  28.216  26.896  1.00  0.00     0.023 A 
ATOM     67  C   UNL A   1      47.123  28.203  25.497  1.00  0.00     0.031 A 
ATOM     68  C   UNL A   1      47.972  27.642  27.686  1.00  0.00     0.131 A 
ATOM     69  C   UNL A   1      48.244  27.582  24.931  1.00  0.00     0.055 A 
ATOM     70  C   UNL A   1      49.112  27.069  27.119  1.00  0.00     0.041 A 
ATOM     71  F   UNL A   1      47.862  27.620  29.025  1.00  0.00    -0.206 F 
ATOM     72  C   UNL A   1      49.242  27.022  25.735  1.00  0.00     0.022 A 
BRANCH  69  73
ATOM     73  S   UNL A   1      48.408  27.394  23.134  1.00  0.00     0.124 S 
ATOM     74  O   UNL A   1      47.259  28.155  22.648  1.00  0.00    -0.237 OA
ATOM     75  O   UNL A   1      49.711  28.003  22.882  1.00  0.00    -0.237 OA
ATOM     76  O   UNL A   1      48.331  25.953  22.924  1.00  0.00    -0.744 OA
ENDBRANCH  69  73
ENDBRANCH  52  66
BRANCH  53  77
ATOM     77  C   UNL A   1      38.257  30.888  31.059  1.00  0.00     0.023 A 
ATOM     78  C   UNL A   1      37.245  31.489  30.287  1.00  0.00     0.031 A 
ATOM     79  C   UNL A   1      38.046  30.767  32.443  1.00  0.00     0.131 A 
ATOM     80  C   UNL A   1      36.109  32.015  30.914  1.00  0.00     0.055 A 
ATOM     81  C   UNL A   1      36.874  31.218  33.052  1.00  0.00     0.041 A 
ATOM     82  F   UNL A   1      38.987  30.218  33.226  1.00  0.00    -0.206 F 
ATOM     83  C   UNL A   1      35.906  31.864  32.289  1.00  0.00     0.022 A 
BRANCH  80  84
ATOM     84  S   UNL A   1      34.933  33.044  29.991  1.00  0.00     0.124 S 
ATOM     85  O   UNL A   1      34.042  33.512  31.047  1.00  0.00    -0.237 OA
ATOM     86  O   UNL A   1      35.815  34.056  29.414  1.00  0.00    -0.237 OA
ATOM     87  O   UNL A   1      34.344  32.117  29.031  1.00  0.00    -0.744 OA
ENDBRANCH  80  84
ENDBRANCH  53  77
BRANCH  65  88
ATOM     88  C   UNL A   1      44.327  34.236  29.837  1.00  0.00     0.023 A 
ATOM     89  C   UNL A   1      45.092  34.476  30.995  1.00  0.00     0.031 A 
ATOM     90  C   UNL A   1      43.943  35.344  29.059  1.00  0.00     0.131 A 
ATOM     91  C   UNL A   1      45.412  35.790  31.363  1.00  0.00     0.055 A 
ATOM     92  C   UNL A   1      44.317  36.645  29.396  1.00  0.00     0.041 A 
ATOM     93  F   UNL A   1      43.200  35.176  27.952  1.00  0.00    -0.206 F 
ATOM     94  C   UNL A   1      45.041  36.875  30.562  1.00  0.00     0.022 A 
BRANCH  91  95
ATOM     95  S   UNL A   1      46.236  36.150  32.938  1.00  0.00     0.124 S 
ATOM     96  O   UNL A   1      45.767  35.052  33.782  1.00  0.00    -0.237 OA
ATOM     97  O   UNL A   1      47.648  36.090  32.568  1.00  0.00    -0.237 OA
ATOM     98  O   UNL A   1      45.737  37.472  33.304  1.00  0.00    -0.744 OA
ENDBRANCH  91  95
ENDBRANCH  65  88
ENDBRANCH  39  40
ENDBRANCH  32  34
ENDBRANCH  31  32
ENDBRANCH  30  31
ENDBRANCH  29  30
ENDBRANCH   1  29
TORSDOF 21
ENDMDL
