MODEL 1
REMARK VINA RESULT:     -12.8      0.000      0.000
REMARK SMILES Cc1ccc(-c2nc(C)cc(N3CCCC[C@H]3C(=O)OCCOCCOC(=O)c3ccc(-c4c5nc(c(-c6cc(S(=O)(=O)[O-])ccc6F)c6ccc([nH]6)c(-c6cc(S(=O)(=O)[O-])ccc6F)c6nc(c(-c7cc(S(=O)(=O)[O-])ccc7F)c7ccc4[nH]7)C=C6)C=C5)cc3)n2)cc1
REMARK SMILES IDX 24 1 23 2 22 3 21 4 20 5 18 6 19 7 17 8 12 9 13 10 14 11
REMARK SMILES IDX 16 12 15 13 11 14 6 15 7 16 92 17 8 18 9 19 10 20 5 21 1 22
REMARK SMILES IDX 2 23 3 24 94 25 4 26 93 27 25 28 26 29 27 30 28 31 29 32
REMARK SMILES IDX 30 33 91 34 31 35 90 36 32 37 33 38 34 39 84 40 35 41 89 42
REMARK SMILES IDX 83 43 85 44 36 45 88 46 82 47 81 48 37 50 69 51 49 52 68 53
REMARK SMILES IDX 50 54 53 55 67 56 86 57 51 58 52 59 66 61 87 62 54 63 38 64
REMARK SMILES IDX 39 65 47 66 40 67 46 68 48 69 45 70 41 71 42 72 43 73 44 74
REMARK SMILES IDX 70 75 71 76 79 77 72 78 78 79 80 80 77 81 73 82 74 83 75 84
REMARK SMILES IDX 76 85 55 86 56 87 64 88 57 89 63 90 65 91 62 92 58 93 59 94
REMARK SMILES IDX 60 95 61 96
REMARK H PARENT 85 49 53 60
REMARK Flexibility Score: inf
ROOT
ATOM      1  C   UNL A   1      32.555  30.000  26.752  1.00  0.00     0.202 C 
ENDROOT
BRANCH   1   2
ATOM      2  O   UNL A   1      31.812  30.177  25.569  1.00  0.00    -0.374 OA
BRANCH   2   3
ATOM      3  C   UNL A   1      31.669  29.044  24.727  1.00  0.00     0.202 C 
BRANCH   3   4
ATOM      4  C   UNL A   1      33.032  28.757  24.178  1.00  0.00     0.261 C 
BRANCH   4   5
ATOM      5  O   UNL A   1      33.214  27.415  23.694  1.00  0.00    -0.462 OA
BRANCH   5   6
ATOM      6  C   UNL A   1      33.460  26.362  24.510  1.00  0.00     0.328 C 
ATOM      7  O   UNL A   1      33.560  26.396  25.731  1.00  0.00    -0.250 OA
BRANCH   6   8
ATOM      8  C   UNL A   1      33.542  25.083  23.673  1.00  0.00     0.193 C 
ATOM      9  N   UNL A   1      33.257  23.922  24.516  1.00  0.00    -0.343 N 
ATOM     10  C   UNL A   1      31.889  23.563  24.870  1.00  0.00     0.119 C 
ATOM     11  C   UNL A   1      30.861  23.775  23.764  1.00  0.00     0.022 C 
ATOM     12  C   UNL A   1      32.601  25.051  22.453  1.00  0.00     0.037 C 
ATOM     13  C   UNL A   1      31.124  24.945  22.836  1.00  0.00     0.005 C 
BRANCH   9  14
ATOM     14  C   UNL A   1      34.259  23.045  24.826  1.00  0.00     0.133 A 
ATOM     15  C   UNL A   1      34.823  20.846  25.089  1.00  0.00     0.161 A 
ATOM     16  N   UNL A   1      36.099  21.090  25.418  1.00  0.00    -0.233 NA
ATOM     17  N   UNL A   1      33.896  21.768  24.831  1.00  0.00    -0.211 NA
ATOM     18  C   UNL A   1      36.456  22.395  25.411  1.00  0.00     0.043 A 
ATOM     19  C   UNL A   1      37.887  22.699  25.745  1.00  0.00     0.067 C 
ATOM     20  C   UNL A   1      35.563  23.411  25.098  1.00  0.00     0.070 A 
BRANCH  15  21
ATOM     21  C   UNL A   1      34.332  19.486  24.933  1.00  0.00     0.019 A 
ATOM     22  C   UNL A   1      32.896  15.422  25.042  1.00  0.00     0.044 C 
ATOM     23  C   UNL A   1      33.383  16.837  24.987  1.00  0.00    -0.051 A 
ATOM     24  C   UNL A   1      34.710  17.114  24.625  1.00  0.00     0.004 A 
ATOM     25  C   UNL A   1      32.529  17.889  25.318  1.00  0.00     0.004 A 
ATOM     26  C   UNL A   1      35.179  18.429  24.588  1.00  0.00     0.012 A 
ATOM     27  C   UNL A   1      33.001  19.196  25.293  1.00  0.00     0.012 A 
ENDBRANCH  15  21
ENDBRANCH   9  14
ENDBRANCH   6   8
ENDBRANCH   5   6
ENDBRANCH   4   5
ENDBRANCH   3   4
ENDBRANCH   2   3
ENDBRANCH   1   2
BRANCH   1  28
ATOM     28  C   UNL A   1      32.991  31.318  27.402  1.00  0.00     0.261 C 
BRANCH  28  29
ATOM     29  O   UNL A   1      34.432  31.415  27.497  1.00  0.00    -0.460 OA
BRANCH  29  30
ATOM     30  C   UNL A   1      34.967  31.331  28.748  1.00  0.00     0.338 C 
ATOM     31  O   UNL A   1      34.707  32.101  29.667  1.00  0.00    -0.246 OA
BRANCH  30  32
ATOM     32  C   UNL A   1      35.990  30.250  28.812  1.00  0.00     0.060 A 
ATOM     33  C   UNL A   1      36.405  29.698  30.040  1.00  0.00     0.016 A 
ATOM     34  C   UNL A   1      36.743  30.030  27.668  1.00  0.00     0.016 A 
ATOM     35  C   UNL A   1      37.659  29.071  30.140  1.00  0.00     0.010 A 
ATOM     36  C   UNL A   1      38.041  29.615  27.825  1.00  0.00     0.010 A 
ATOM     37  C   UNL A   1      38.517  29.116  29.044  1.00  0.00    -0.014 A 
BRANCH  37  38
ATOM     38  C   UNL A   1      39.928  28.730  29.005  1.00  0.00     0.031 A 
ATOM     39  C   UNL A   1      40.226  27.348  28.567  1.00  0.00     0.074 A 
ATOM     40  C   UNL A   1      40.940  29.622  29.157  1.00  0.00     0.049 A 
ATOM     41  N   UNL A   1      41.283  26.707  28.915  1.00  0.00    -0.248 NA
ATOM     42  C   UNL A   1      39.329  26.531  27.744  1.00  0.00     0.031 C 
ATOM     43  C   UNL A   1      42.337  29.500  28.737  1.00  0.00     0.029 A 
ATOM     44  N   UNL A   1      40.911  30.877  29.762  1.00  0.00    -0.354 N 
ATOM     45  C   UNL A   1      41.370  25.597  28.106  1.00  0.00     0.074 A 
ATOM     46  C   UNL A   1      40.080  25.461  27.491  1.00  0.00     0.031 C 
ATOM     47  C   UNL A   1      43.066  30.480  29.308  1.00  0.00     0.029 A 
ATOM     48  C   UNL A   1      42.192  31.214  30.211  1.00  0.00     0.049 A 
ATOM     49  H   UNL A   1      40.110  31.441  29.859  1.00  0.00     0.167 HD
ATOM     50  C   UNL A   1      42.584  25.024  27.898  1.00  0.00     0.034 A 
ATOM     51  C   UNL A   1      42.387  31.528  31.519  1.00  0.00     0.034 A 
ATOM     52  C   UNL A   1      43.630  25.794  28.576  1.00  0.00     0.049 A 
ATOM     53  C   UNL A   1      43.198  30.411  32.131  1.00  0.00     0.074 A 
ATOM     54  C   UNL A   1      44.561  26.714  28.123  1.00  0.00     0.029 A 
ATOM     55  N   UNL A   1      43.573  25.950  29.957  1.00  0.00    -0.354 N 
ATOM     56  N   UNL A   1      43.326  29.244  31.558  1.00  0.00    -0.248 NA
ATOM     57  C   UNL A   1      43.995  30.524  33.344  1.00  0.00     0.031 C 
ATOM     58  C   UNL A   1      45.033  27.449  29.247  1.00  0.00     0.029 A 
ATOM     59  C   UNL A   1      44.411  26.960  30.384  1.00  0.00     0.049 A 
ATOM     60  H   UNL A   1      43.006  25.408  30.554  1.00  0.00     0.167 HD
ATOM     61  C   UNL A   1      44.224  28.483  32.237  1.00  0.00     0.074 A 
ATOM     62  C   UNL A   1      44.603  29.323  33.364  1.00  0.00     0.031 C 
ATOM     63  C   UNL A   1      44.571  27.232  31.808  1.00  0.00     0.034 A 
BRANCH  50  64
ATOM     64  C   UNL A   1      42.850  23.988  26.834  1.00  0.00     0.023 A 
ATOM     65  C   UNL A   1      42.333  22.692  27.011  1.00  0.00     0.031 A 
ATOM     66  C   UNL A   1      43.581  24.189  25.644  1.00  0.00     0.131 A 
ATOM     67  C   UNL A   1      42.611  21.659  26.100  1.00  0.00     0.055 A 
ATOM     68  C   UNL A   1      43.916  23.145  24.769  1.00  0.00     0.041 A 
ATOM     69  F   UNL A   1      43.951  25.411  25.237  1.00  0.00    -0.206 F 
ATOM     70  C   UNL A   1      43.433  21.867  24.997  1.00  0.00     0.022 A 
BRANCH  67  71
ATOM     71  S   UNL A   1      41.832  20.045  26.360  1.00  0.00     0.124 S 
ATOM     72  O   UNL A   1      42.277  19.704  27.706  1.00  0.00    -0.237 OA
ATOM     73  O   UNL A   1      40.415  20.358  26.207  1.00  0.00    -0.237 OA
ATOM     74  O   UNL A   1      42.398  19.221  25.292  1.00  0.00    -0.744 OA
ENDBRANCH  67  71
ENDBRANCH  50  64
BRANCH  51  75
ATOM     75  C   UNL A   1      41.216  32.280  32.094  1.00  0.00     0.023 A 
ATOM     76  C   UNL A   1      40.321  31.568  32.940  1.00  0.00     0.031 A 
ATOM     77  C   UNL A   1      41.261  33.678  32.246  1.00  0.00     0.131 A 
ATOM     78  C   UNL A   1      39.617  32.228  33.970  1.00  0.00     0.055 A 
ATOM     79  C   UNL A   1      40.556  34.329  33.272  1.00  0.00     0.041 A 
ATOM     80  F   UNL A   1      42.108  34.413  31.513  1.00  0.00    -0.206 F 
ATOM     81  C   UNL A   1      39.760  33.605  34.158  1.00  0.00     0.022 A 
BRANCH  78  82
ATOM     82  S   UNL A   1      38.732  31.282  35.267  1.00  0.00     0.124 S 
ATOM     83  O   UNL A   1      38.788  29.919  34.749  1.00  0.00    -0.237 OA
ATOM     84  O   UNL A   1      39.520  31.536  36.469  1.00  0.00    -0.237 OA
ATOM     85  O   UNL A   1      37.402  31.892  35.271  1.00  0.00    -0.744 OA
ENDBRANCH  78  82
ENDBRANCH  51  75
BRANCH  63  86
ATOM     86  C   UNL A   1      45.169  26.169  32.690  1.00  0.00     0.023 A 
ATOM     87  C   UNL A   1      44.374  25.325  33.468  1.00  0.00     0.031 A 
ATOM     88  C   UNL A   1      46.557  25.887  32.700  1.00  0.00     0.131 A 
ATOM     89  C   UNL A   1      44.945  24.354  34.298  1.00  0.00     0.055 A 
ATOM     90  C   UNL A   1      47.112  24.836  33.432  1.00  0.00     0.041 A 
ATOM     91  F   UNL A   1      47.440  26.602  31.989  1.00  0.00    -0.206 F 
ATOM     92  C   UNL A   1      46.306  24.077  34.264  1.00  0.00     0.022 A 
BRANCH  89  93
ATOM     93  S   UNL A   1      43.855  23.558  35.496  1.00  0.00     0.124 S 
ATOM     94  O   UNL A   1      43.778  24.571  36.546  1.00  0.00    -0.237 OA
ATOM     95  O   UNL A   1      42.632  23.356  34.726  1.00  0.00    -0.237 OA
ATOM     96  O   UNL A   1      44.575  22.340  35.858  1.00  0.00    -0.744 OA
ENDBRANCH  89  93
ENDBRANCH  63  86
ENDBRANCH  37  38
ENDBRANCH  30  32
ENDBRANCH  29  30
ENDBRANCH  28  29
ENDBRANCH   1  28
TORSDOF 19
ENDMDL
MODEL 2
REMARK VINA RESULT:     -12.0      1.757      4.256
REMARK SMILES Cc1ccc(-c2nc(C)cc(N3CCCC[C@H]3C(=O)OCCOCCOC(=O)c3ccc(-c4c5nc(c(-c6cc(S(=O)(=O)[O-])ccc6F)c6ccc([nH]6)c(-c6cc(S(=O)(=O)[O-])ccc6F)c6nc(c(-c7cc(S(=O)(=O)[O-])ccc7F)c7ccc4[nH]7)C=C6)C=C5)cc3)n2)cc1
REMARK SMILES IDX 24 1 23 2 22 3 21 4 20 5 18 6 19 7 17 8 12 9 13 10 14 11
REMARK SMILES IDX 16 12 15 13 11 14 6 15 7 16 92 17 8 18 9 19 10 20 5 21 1 22
REMARK SMILES IDX 2 23 3 24 94 25 4 26 93 27 25 28 26 29 27 30 28 31 29 32
REMARK SMILES IDX 30 33 91 34 31 35 90 36 32 37 33 38 34 39 84 40 35 41 89 42
REMARK SMILES IDX 83 43 85 44 36 45 88 46 82 47 81 48 37 50 69 51 49 52 68 53
REMARK SMILES IDX 50 54 53 55 67 56 86 57 51 58 52 59 66 61 87 62 54 63 38 64
REMARK SMILES IDX 39 65 47 66 40 67 46 68 48 69 45 70 41 71 42 72 43 73 44 74
REMARK SMILES IDX 70 75 71 76 79 77 72 78 78 79 80 80 77 81 73 82 74 83 75 84
REMARK SMILES IDX 76 85 55 86 56 87 64 88 57 89 63 90 65 91 62 92 58 93 59 94
REMARK SMILES IDX 60 95 61 96
REMARK H PARENT 85 49 53 60
REMARK Flexibility Score: inf
ROOT
ATOM      1  C   UNL A   1      33.151  29.510  26.223  1.00  0.00     0.202 C 
ENDROOT
BRANCH   1   2
ATOM      2  O   UNL A   1      32.662  28.204  26.027  1.00  0.00    -0.374 OA
BRANCH   2   3
ATOM      3  C   UNL A   1      31.313  27.963  26.395  1.00  0.00     0.202 C 
BRANCH   3   4
ATOM      4  C   UNL A   1      31.310  26.667  27.145  1.00  0.00     0.261 C 
BRANCH   4   5
ATOM      5  O   UNL A   1      31.023  25.509  26.342  1.00  0.00    -0.462 OA
BRANCH   5   6
ATOM      6  C   UNL A   1      31.618  24.308  26.539  1.00  0.00     0.328 C 
ATOM      7  O   UNL A   1      31.674  23.688  27.594  1.00  0.00    -0.250 OA
BRANCH   6   8
ATOM      8  C   UNL A   1      32.177  23.798  25.208  1.00  0.00     0.193 C 
ATOM      9  N   UNL A   1      32.917  24.869  24.541  1.00  0.00    -0.343 N 
ATOM     10  C   UNL A   1      34.276  25.212  24.942  1.00  0.00     0.119 C 
ATOM     11  C   UNL A   1      35.151  24.026  25.336  1.00  0.00     0.022 C 
ATOM     12  C   UNL A   1      33.092  22.565  25.325  1.00  0.00     0.037 C 
ATOM     13  C   UNL A   1      34.430  22.870  26.001  1.00  0.00     0.005 C 
BRANCH   9  14
ATOM     14  C   UNL A   1      32.415  25.436  23.402  1.00  0.00     0.133 A 
ATOM     15  C   UNL A   1      30.999  27.015  22.551  1.00  0.00     0.161 A 
ATOM     16  N   UNL A   1      31.260  26.728  21.269  1.00  0.00    -0.233 NA
ATOM     17  N   UNL A   1      31.512  26.387  23.609  1.00  0.00    -0.211 NA
ATOM     18  C   UNL A   1      32.180  25.756  21.072  1.00  0.00     0.043 A 
ATOM     19  C   UNL A   1      32.518  25.433  19.645  1.00  0.00     0.067 C 
ATOM     20  C   UNL A   1      32.801  25.093  22.122  1.00  0.00     0.070 A 
BRANCH  15  21
ATOM     21  C   UNL A   1      30.126  28.120  22.914  1.00  0.00     0.019 A 
ATOM     22  C   UNL A   1      27.403  31.422  23.433  1.00  0.00     0.044 C 
ATOM     23  C   UNL A   1      28.344  30.269  23.272  1.00  0.00    -0.051 A 
ATOM     24  C   UNL A   1      29.731  30.482  23.277  1.00  0.00     0.004 A 
ATOM     25  C   UNL A   1      27.849  28.977  23.092  1.00  0.00     0.004 A 
ATOM     26  C   UNL A   1      30.616  29.415  23.109  1.00  0.00     0.012 A 
ATOM     27  C   UNL A   1      28.732  27.918  22.913  1.00  0.00     0.012 A 
ENDBRANCH  15  21
ENDBRANCH   9  14
ENDBRANCH   6   8
ENDBRANCH   5   6
ENDBRANCH   4   5
ENDBRANCH   3   4
ENDBRANCH   2   3
ENDBRANCH   1   2
BRANCH   1  28
ATOM     28  C   UNL A   1      33.697  29.751  27.635  1.00  0.00     0.261 C 
BRANCH  28  29
ATOM     29  O   UNL A   1      34.341  31.043  27.744  1.00  0.00    -0.460 OA
BRANCH  29  30
ATOM     30  C   UNL A   1      35.205  31.208  28.786  1.00  0.00     0.338 C 
ATOM     31  O   UNL A   1      35.189  32.162  29.557  1.00  0.00    -0.246 OA
BRANCH  30  32
ATOM     32  C   UNL A   1      36.236  30.133  28.789  1.00  0.00     0.060 A 
ATOM     33  C   UNL A   1      36.616  29.478  29.977  1.00  0.00     0.016 A 
ATOM     34  C   UNL A   1      37.028  30.019  27.656  1.00  0.00     0.016 A 
ATOM     35  C   UNL A   1      37.873  28.854  30.065  1.00  0.00     0.010 A 
ATOM     36  C   UNL A   1      38.324  29.601  27.820  1.00  0.00     0.010 A 
ATOM     37  C   UNL A   1      38.765  29.001  29.005  1.00  0.00    -0.014 A 
BRANCH  37  38
ATOM     38  C   UNL A   1      40.181  28.629  28.980  1.00  0.00     0.031 A 
ATOM     39  C   UNL A   1      40.499  27.257  28.526  1.00  0.00     0.074 A 
ATOM     40  C   UNL A   1      41.181  29.529  29.158  1.00  0.00     0.049 A 
ATOM     41  N   UNL A   1      41.558  26.622  28.880  1.00  0.00    -0.248 NA
ATOM     42  C   UNL A   1      39.621  26.443  27.680  1.00  0.00     0.031 C 
ATOM     43  C   UNL A   1      42.585  29.428  28.756  1.00  0.00     0.029 A 
ATOM     44  N   UNL A   1      41.132  30.775  29.780  1.00  0.00    -0.354 N 
ATOM     45  C   UNL A   1      41.666  25.524  28.057  1.00  0.00     0.074 A 
ATOM     46  C   UNL A   1      40.386  25.385  27.423  1.00  0.00     0.031 C 
ATOM     47  C   UNL A   1      43.296  30.407  29.350  1.00  0.00     0.029 A 
ATOM     48  C   UNL A   1      42.403  31.118  30.251  1.00  0.00     0.049 A 
ATOM     49  H   UNL A   1      40.323  31.330  29.875  1.00  0.00     0.167 HD
ATOM     50  C   UNL A   1      42.889  24.967  27.857  1.00  0.00     0.034 A 
ATOM     51  C   UNL A   1      42.577  31.416  31.567  1.00  0.00     0.034 A 
ATOM     52  C   UNL A   1      43.918  25.737  28.560  1.00  0.00     0.049 A 
ATOM     53  C   UNL A   1      43.391  30.299  32.173  1.00  0.00     0.074 A 
ATOM     54  C   UNL A   1      44.846  26.673  28.132  1.00  0.00     0.029 A 
ATOM     55  N   UNL A   1      43.841  25.873  29.942  1.00  0.00    -0.354 N 
ATOM     56  N   UNL A   1      43.539  29.141  31.586  1.00  0.00    -0.248 NA
ATOM     57  C   UNL A   1      44.171  30.402  33.399  1.00  0.00     0.031 C 
ATOM     58  C   UNL A   1      45.295  27.397  29.272  1.00  0.00     0.029 A 
ATOM     59  C   UNL A   1      44.663  26.885  30.395  1.00  0.00     0.049 A 
ATOM     60  H   UNL A   1      43.272  25.317  30.524  1.00  0.00     0.167 HD
ATOM     61  C   UNL A   1      44.435  28.380  32.266  1.00  0.00     0.074 A 
ATOM     62  C   UNL A   1      44.791  29.207  33.410  1.00  0.00     0.031 C 
ATOM     63  C   UNL A   1      44.801  27.139  31.824  1.00  0.00     0.034 A 
BRANCH  50  64
ATOM     64  C   UNL A   1      43.180  23.948  26.782  1.00  0.00     0.023 A 
ATOM     65  C   UNL A   1      42.763  22.620  26.981  1.00  0.00     0.031 A 
ATOM     66  C   UNL A   1      43.843  24.197  25.561  1.00  0.00     0.131 A 
ATOM     67  C   UNL A   1      43.072  21.606  26.058  1.00  0.00     0.055 A 
ATOM     68  C   UNL A   1      44.211  23.177  24.672  1.00  0.00     0.041 A 
ATOM     69  F   UNL A   1      44.108  25.440  25.139  1.00  0.00    -0.206 F 
ATOM     70  C   UNL A   1      43.829  21.868  24.920  1.00  0.00     0.022 A 
BRANCH  67  71
ATOM     71  S   UNL A   1      42.420  19.943  26.353  1.00  0.00     0.124 S 
ATOM     72  O   UNL A   1      41.964  20.033  27.735  1.00  0.00    -0.237 OA
ATOM     73  O   UNL A   1      41.380  19.835  25.334  1.00  0.00    -0.237 OA
ATOM     74  O   UNL A   1      43.583  19.082  26.138  1.00  0.00    -0.744 OA
ENDBRANCH  67  71
ENDBRANCH  50  64
BRANCH  51  75
ATOM     75  C   UNL A   1      41.391  32.148  32.136  1.00  0.00     0.023 A 
ATOM     76  C   UNL A   1      40.440  31.394  32.880  1.00  0.00     0.031 A 
ATOM     77  C   UNL A   1      41.451  33.529  32.394  1.00  0.00     0.131 A 
ATOM     78  C   UNL A   1      39.695  31.991  33.920  1.00  0.00     0.055 A 
ATOM     79  C   UNL A   1      40.705  34.118  33.429  1.00  0.00     0.041 A 
ATOM     80  F   UNL A   1      42.349  34.299  31.763  1.00  0.00    -0.206 F 
ATOM     81  C   UNL A   1      39.852  33.347  34.217  1.00  0.00     0.022 A 
BRANCH  78  82
ATOM     82  S   UNL A   1      38.728  30.970  35.095  1.00  0.00     0.124 S 
ATOM     83  O   UNL A   1      37.563  31.809  35.349  1.00  0.00    -0.237 OA
ATOM     84  O   UNL A   1      38.475  29.742  34.349  1.00  0.00    -0.237 OA
ATOM     85  O   UNL A   1      39.643  30.816  36.227  1.00  0.00    -0.744 OA
ENDBRANCH  78  82
ENDBRANCH  51  75
BRANCH  63  86
ATOM     86  C   UNL A   1      45.398  26.069  32.699  1.00  0.00     0.023 A 
ATOM     87  C   UNL A   1      44.603  25.136  33.368  1.00  0.00     0.031 A 
ATOM     88  C   UNL A   1      46.796  25.875  32.809  1.00  0.00     0.131 A 
ATOM     89  C   UNL A   1      45.171  24.160  34.192  1.00  0.00     0.055 A 
ATOM     90  C   UNL A   1      47.362  24.823  33.531  1.00  0.00     0.041 A 
ATOM     91  F   UNL A   1      47.683  26.681  32.207  1.00  0.00    -0.206 F 
ATOM     92  C   UNL A   1      46.546  23.971  34.257  1.00  0.00     0.022 A 
BRANCH  89  93
ATOM     93  S   UNL A   1      44.047  23.233  35.258  1.00  0.00     0.124 S 
ATOM     94  O   UNL A   1      44.778  21.981  35.444  1.00  0.00    -0.237 OA
ATOM     95  O   UNL A   1      43.954  24.088  36.438  1.00  0.00    -0.237 OA
ATOM     96  O   UNL A   1      42.827  23.129  34.463  1.00  0.00    -0.744 OA
ENDBRANCH  89  93
ENDBRANCH  63  86
ENDBRANCH  37  38
ENDBRANCH  30  32
ENDBRANCH  29  30
ENDBRANCH  28  29
ENDBRANCH   1  28
TORSDOF 19
ENDMDL
MODEL 3
REMARK VINA RESULT:     -12.0      4.246     10.165
REMARK SMILES Cc1ccc(-c2nc(C)cc(N3CCCC[C@H]3C(=O)OCCOCCOC(=O)c3ccc(-c4c5nc(c(-c6cc(S(=O)(=O)[O-])ccc6F)c6ccc([nH]6)c(-c6cc(S(=O)(=O)[O-])ccc6F)c6nc(c(-c7cc(S(=O)(=O)[O-])ccc7F)c7ccc4[nH]7)C=C6)C=C5)cc3)n2)cc1
REMARK SMILES IDX 24 1 23 2 22 3 21 4 20 5 18 6 19 7 17 8 12 9 13 10 14 11
REMARK SMILES IDX 16 12 15 13 11 14 6 15 7 16 92 17 8 18 9 19 10 20 5 21 1 22
REMARK SMILES IDX 2 23 3 24 94 25 4 26 93 27 25 28 26 29 27 30 28 31 29 32
REMARK SMILES IDX 30 33 91 34 31 35 90 36 32 37 33 38 34 39 84 40 35 41 89 42
REMARK SMILES IDX 83 43 85 44 36 45 88 46 82 47 81 48 37 50 69 51 49 52 68 53
REMARK SMILES IDX 50 54 53 55 67 56 86 57 51 58 52 59 66 61 87 62 54 63 38 64
REMARK SMILES IDX 39 65 47 66 40 67 46 68 48 69 45 70 41 71 42 72 43 73 44 74
REMARK SMILES IDX 70 75 71 76 79 77 72 78 78 79 80 80 77 81 73 82 74 83 75 84
REMARK SMILES IDX 76 85 55 86 56 87 64 88 57 89 63 90 65 91 62 92 58 93 59 94
REMARK SMILES IDX 60 95 61 96
REMARK H PARENT 85 49 53 60
REMARK Flexibility Score: inf
ROOT
ATOM      1  C   UNL A   1      38.712  22.099  25.906  1.00  0.00     0.202 C 
ENDROOT
BRANCH   1   2
ATOM      2  O   UNL A   1      38.204  20.906  25.356  1.00  0.00    -0.374 OA
BRANCH   2   3
ATOM      3  C   UNL A   1      36.978  20.998  24.648  1.00  0.00     0.202 C 
BRANCH   3   4
ATOM      4  C   UNL A   1      35.991  21.605  25.597  1.00  0.00     0.261 C 
BRANCH   4   5
ATOM      5  O   UNL A   1      34.839  22.194  24.970  1.00  0.00    -0.462 OA
BRANCH   5   6
ATOM      6  C   UNL A   1      34.210  23.289  25.460  1.00  0.00     0.328 C 
ATOM      7  O   UNL A   1      34.746  24.294  25.911  1.00  0.00    -0.250 OA
BRANCH   6   8
ATOM      8  C   UNL A   1      32.697  23.108  25.316  1.00  0.00     0.193 C 
ATOM      9  N   UNL A   1      32.217  23.867  24.161  1.00  0.00    -0.343 N 
ATOM     10  C   UNL A   1      32.373  23.357  22.804  1.00  0.00     0.119 C 
ATOM     11  C   UNL A   1      32.190  21.851  22.656  1.00  0.00     0.022 C 
ATOM     12  C   UNL A   1      32.234  21.646  25.172  1.00  0.00     0.037 C 
ATOM     13  C   UNL A   1      32.639  21.015  23.840  1.00  0.00     0.005 C 
BRANCH   9  14
ATOM     14  C   UNL A   1      31.442  24.978  24.351  1.00  0.00     0.133 A 
ATOM     15  C   UNL A   1      31.380  27.116  25.155  1.00  0.00     0.161 A 
ATOM     16  N   UNL A   1      30.093  27.321  24.845  1.00  0.00    -0.233 NA
ATOM     17  N   UNL A   1      32.056  25.983  24.963  1.00  0.00    -0.211 NA
ATOM     18  C   UNL A   1      29.479  26.288  24.225  1.00  0.00     0.043 A 
ATOM     19  C   UNL A   1      28.044  26.498  23.837  1.00  0.00     0.067 C 
ATOM     20  C   UNL A   1      30.129  25.095  23.939  1.00  0.00     0.070 A 
BRANCH  15  21
ATOM     21  C   UNL A   1      32.201  28.180  25.711  1.00  0.00     0.019 A 
ATOM     22  C   UNL A   1      34.480  31.133  27.872  1.00  0.00     0.044 C 
ATOM     23  C   UNL A   1      33.703  30.108  27.106  1.00  0.00    -0.051 A 
ATOM     24  C   UNL A   1      32.480  30.450  26.509  1.00  0.00     0.004 A 
ATOM     25  C   UNL A   1      34.176  28.800  27.001  1.00  0.00     0.004 A 
ATOM     26  C   UNL A   1      31.739  29.496  25.808  1.00  0.00     0.012 A 
ATOM     27  C   UNL A   1      33.431  27.849  26.313  1.00  0.00     0.012 A 
ENDBRANCH  15  21
ENDBRANCH   9  14
ENDBRANCH   6   8
ENDBRANCH   5   6
ENDBRANCH   4   5
ENDBRANCH   3   4
ENDBRANCH   2   3
ENDBRANCH   1   2
BRANCH   1  28
ATOM     28  C   UNL A   1      39.901  21.878  26.848  1.00  0.00     0.261 C 
BRANCH  28  29
ATOM     29  O   UNL A   1      40.203  23.069  27.613  1.00  0.00    -0.460 OA
BRANCH  29  30
ATOM     30  C   UNL A   1      40.918  24.039  26.976  1.00  0.00     0.338 C 
ATOM     31  O   UNL A   1      41.923  23.832  26.304  1.00  0.00    -0.246 OA
BRANCH  30  32
ATOM     32  C   UNL A   1      40.377  25.389  27.298  1.00  0.00     0.060 A 
ATOM     33  C   UNL A   1      40.656  26.508  26.490  1.00  0.00     0.016 A 
ATOM     34  C   UNL A   1      39.863  25.571  28.574  1.00  0.00     0.016 A 
ATOM     35  C   UNL A   1      40.574  27.804  27.030  1.00  0.00     0.010 A 
ATOM     36  C   UNL A   1      39.995  26.811  29.146  1.00  0.00     0.010 A 
ATOM     37  C   UNL A   1      40.332  27.942  28.394  1.00  0.00    -0.014 A 
BRANCH  37  38
ATOM     38  C   UNL A   1      40.425  29.167  29.192  1.00  0.00     0.031 A 
ATOM     39  C   UNL A   1      39.267  30.086  29.135  1.00  0.00     0.074 A 
ATOM     40  C   UNL A   1      41.410  29.379  30.101  1.00  0.00     0.049 A 
ATOM     41  N   UNL A   1      39.354  31.349  29.350  1.00  0.00    -0.248 NA
ATOM     42  C   UNL A   1      37.907  29.679  28.766  1.00  0.00     0.031 C 
ATOM     43  C   UNL A   1      41.422  30.300  31.239  1.00  0.00     0.029 A 
ATOM     44  N   UNL A   1      42.669  28.786  30.176  1.00  0.00    -0.354 N 
ATOM     45  C   UNL A   1      38.071  31.825  29.501  1.00  0.00     0.074 A 
ATOM     46  C   UNL A   1      37.211  30.788  29.005  1.00  0.00     0.031 C 
ATOM     47  C   UNL A   1      42.675  30.400  31.725  1.00  0.00     0.029 A 
ATOM     48  C   UNL A   1      43.551  29.635  30.852  1.00  0.00     0.049 A 
ATOM     49  H   UNL A   1      42.902  27.902  29.808  1.00  0.00     0.167 HD
ATOM     50  C   UNL A   1      37.869  32.967  30.208  1.00  0.00     0.034 A 
ATOM     51  C   UNL A   1      44.708  30.022  30.251  1.00  0.00     0.034 A 
ATOM     52  C   UNL A   1      39.139  33.460  30.749  1.00  0.00     0.049 A 
ATOM     53  C   UNL A   1      44.583  31.496  29.950  1.00  0.00     0.074 A 
ATOM     54  C   UNL A   1      39.709  33.392  32.010  1.00  0.00     0.029 A 
ATOM     55  N   UNL A   1      40.168  33.791  29.875  1.00  0.00    -0.354 N 
ATOM     56  N   UNL A   1      43.434  32.116  29.953  1.00  0.00    -0.248 NA
ATOM     57  C   UNL A   1      45.701  32.401  29.726  1.00  0.00     0.031 C 
ATOM     58  C   UNL A   1      41.102  33.651  31.873  1.00  0.00     0.029 A 
ATOM     59  C   UNL A   1      41.374  33.901  30.537  1.00  0.00     0.049 A 
ATOM     60  H   UNL A   1      40.051  33.930  28.906  1.00  0.00     0.167 HD
ATOM     61  C   UNL A   1      43.620  33.453  29.803  1.00  0.00     0.074 A 
ATOM     62  C   UNL A   1      45.062  33.583  29.644  1.00  0.00     0.031 C 
ATOM     63  C   UNL A   1      42.571  34.329  29.823  1.00  0.00     0.034 A 
BRANCH  50  64
ATOM     64  C   UNL A   1      36.512  33.437  30.670  1.00  0.00     0.023 A 
ATOM     65  C   UNL A   1      35.678  34.099  29.752  1.00  0.00     0.031 A 
ATOM     66  C   UNL A   1      35.974  33.275  31.965  1.00  0.00     0.131 A 
ATOM     67  C   UNL A   1      34.437  34.633  30.137  1.00  0.00     0.055 A 
ATOM     68  C   UNL A   1      34.768  33.864  32.369  1.00  0.00     0.041 A 
ATOM     69  F   UNL A   1      36.555  32.486  32.879  1.00  0.00    -0.206 F 
ATOM     70  C   UNL A   1      33.991  34.554  31.453  1.00  0.00     0.022 A 
BRANCH  67  71
ATOM     71  S   UNL A   1      33.391  35.392  28.868  1.00  0.00     0.124 S 
ATOM     72  O   UNL A   1      32.450  36.165  29.669  1.00  0.00    -0.237 OA
ATOM     73  O   UNL A   1      34.359  36.156  28.089  1.00  0.00    -0.237 OA
ATOM     74  O   UNL A   1      32.815  34.241  28.173  1.00  0.00    -0.744 OA
ENDBRANCH  67  71
ENDBRANCH  50  64
BRANCH  51  75
ATOM     75  C   UNL A   1      45.294  28.922  29.404  1.00  0.00     0.023 A 
ATOM     76  C   UNL A   1      45.312  29.110  27.994  1.00  0.00     0.031 A 
ATOM     77  C   UNL A   1      46.230  28.021  29.940  1.00  0.00     0.131 A 
ATOM     78  C   UNL A   1      46.316  28.518  27.198  1.00  0.00     0.055 A 
ATOM     79  C   UNL A   1      47.225  27.432  29.142  1.00  0.00     0.041 A 
ATOM     80  F   UNL A   1      46.300  27.822  31.264  1.00  0.00    -0.206 F 
ATOM     81  C   UNL A   1      47.294  27.705  27.776  1.00  0.00     0.022 A 
BRANCH  78  82
ATOM     82  S   UNL A   1      46.553  29.017  25.450  1.00  0.00     0.124 S 
ATOM     83  O   UNL A   1      47.953  28.683  25.218  1.00  0.00    -0.237 OA
ATOM     84  O   UNL A   1      45.578  28.204  24.730  1.00  0.00    -0.237 OA
ATOM     85  O   UNL A   1      46.251  30.449  25.473  1.00  0.00    -0.744 OA
ENDBRANCH  78  82
ENDBRANCH  51  75
BRANCH  63  86
ATOM     86  C   UNL A   1      42.609  35.712  29.227  1.00  0.00     0.023 A 
ATOM     87  C   UNL A   1      43.266  36.768  29.859  1.00  0.00     0.031 A 
ATOM     88  C   UNL A   1      42.080  35.996  27.944  1.00  0.00     0.131 A 
ATOM     89  C   UNL A   1      43.277  38.051  29.302  1.00  0.00     0.055 A 
ATOM     90  C   UNL A   1      42.201  37.246  27.335  1.00  0.00     0.041 A 
ATOM     91  F   UNL A   1      41.438  35.075  27.211  1.00  0.00    -0.206 F 
ATOM     92  C   UNL A   1      42.778  38.296  28.028  1.00  0.00     0.022 A 
BRANCH  89  93
ATOM     93  S   UNL A   1      43.859  39.397  30.355  1.00  0.00     0.124 S 
ATOM     94  O   UNL A   1      44.054  38.711  31.631  1.00  0.00    -0.237 OA
ATOM     95  O   UNL A   1      45.080  39.823  29.677  1.00  0.00    -0.237 OA
ATOM     96  O   UNL A   1      42.759  40.357  30.326  1.00  0.00    -0.744 OA
ENDBRANCH  89  93
ENDBRANCH  63  86
ENDBRANCH  37  38
ENDBRANCH  30  32
ENDBRANCH  29  30
ENDBRANCH  28  29
ENDBRANCH   1  28
TORSDOF 19
ENDMDL
