MODEL 1
REMARK VINA RESULT:     -10.7      0.000      0.000
REMARK SMILES CC[NH2+][C@@]1(C(=O)OCCOCCOC(=O)c2ccc(-c3c4nc(c(-c5cc(S(=O)(=O)[O-])ccc5F)c5ccc([nH]5)c(-c5cc(S(=O)(=O)[O-])ccc5F)c5nc(c(-c6cc(S(=O)(=O)[O-])ccc6F)c6ccc3[nH]6)C=C5)C=C4)cc2)CC[C@H]([NH+]2CCC(C(C)(C)C)CC2)C1
REMARK SMILES IDX 11 1 10 2 9 3 8 4 7 5 5 6 6 7 4 8 79 9 92 10 80 11 81 12
REMARK SMILES IDX 3 13 2 16 1 17 82 18 83 19 91 20 84 22 90 23 85 24 86 25
REMARK SMILES IDX 87 26 88 27 89 28 12 29 13 30 14 31 15 32 16 33 17 34 78 35
REMARK SMILES IDX 18 36 77 37 19 38 20 39 21 40 71 41 22 42 76 43 70 44 72 45
REMARK SMILES IDX 23 46 75 47 69 48 68 49 24 51 56 52 36 53 55 54 37 55 40 56
REMARK SMILES IDX 54 57 73 58 38 59 39 60 53 62 74 63 41 64 25 65 26 66 34 67
REMARK SMILES IDX 27 68 33 69 35 70 32 71 28 72 29 73 30 74 31 75 57 76 58 77
REMARK SMILES IDX 66 78 59 79 65 80 67 81 64 82 60 83 61 84 62 85 63 86 42 87
REMARK SMILES IDX 43 88 51 89 44 90 50 91 52 92 49 93 45 94 46 95 47 96 48 97
REMARK H PARENT 3 14 3 15 82 21 72 50 40 61
REMARK Flexibility Score: inf
ROOT
ATOM      1  C   UNL A   1      35.184  21.024  25.343  1.00  0.00     0.202 C 
ENDROOT
BRANCH   1   2
ATOM      2  O   UNL A   1      34.625  22.054  24.525  1.00  0.00    -0.374 OA
BRANCH   2   3
ATOM      3  C   UNL A   1      33.207  22.040  24.335  1.00  0.00     0.202 C 
BRANCH   3   4
ATOM      4  C   UNL A   1      32.562  23.414  24.145  1.00  0.00     0.261 C 
BRANCH   4   5
ATOM      5  O   UNL A   1      33.138  24.309  25.108  1.00  0.00    -0.459 OA
BRANCH   5   6
ATOM      6  C   UNL A   1      33.472  25.554  24.698  1.00  0.00     0.368 C 
ATOM      7  O   UNL A   1      34.124  25.779  23.684  1.00  0.00    -0.245 OA
BRANCH   6   8
ATOM      8  C   UNL A   1      32.845  26.656  25.626  1.00  0.00     0.200 C 
ATOM      9  C   UNL A   1      31.738  26.068  26.509  1.00  0.00     0.087 C 
ATOM     10  C   UNL A   1      32.092  27.795  24.881  1.00  0.00     0.146 C 
ATOM     11  C   UNL A   1      30.442  26.221  25.728  1.00  0.00     0.072 C 
ATOM     12  C   UNL A   1      30.603  27.386  24.754  1.00  0.00     0.191 C 
BRANCH   8  13
ATOM     13  N   UNL A   1      33.949  27.261  26.441  1.00  0.00    -0.332 N 
ATOM     14  H   UNL A   1      33.899  26.875  27.384  1.00  0.00     0.347 HD
ATOM     15  H   UNL A   1      34.823  27.033  25.966  1.00  0.00     0.347 HD
BRANCH  13  16
ATOM     16  C   UNL A   1      33.892  28.725  26.539  1.00  0.00     0.257 C 
ATOM     17  C   UNL A   1      35.125  29.249  27.260  1.00  0.00     0.071 C 
ENDBRANCH  13  16
ENDBRANCH   8  13
BRANCH  12  18
ATOM     18  N   UNL A   1      30.023  27.262  23.406  1.00  0.00    -0.332 N 
ATOM     19  C   UNL A   1      30.659  28.032  22.330  1.00  0.00     0.262 C 
ATOM     20  C   UNL A   1      28.582  27.363  23.240  1.00  0.00     0.262 C 
ATOM     21  H   UNL A   1      30.261  26.275  23.306  1.00  0.00     0.348 HD
ATOM     22  C   UNL A   1      30.227  29.509  22.210  1.00  0.00     0.066 C 
ATOM     23  C   UNL A   1      28.065  28.778  23.407  1.00  0.00     0.066 C 
ATOM     24  C   UNL A   1      28.729  29.816  22.492  1.00  0.00     0.005 C 
BRANCH  24  25
ATOM     25  C   UNL A   1      28.435  31.296  22.989  1.00  0.00    -0.035 C 
ATOM     26  C   UNL A   1      28.261  32.221  21.773  1.00  0.00     0.011 C 
ATOM     27  C   UNL A   1      27.133  31.348  23.825  1.00  0.00     0.011 C 
ATOM     28  C   UNL A   1      29.539  31.905  23.883  1.00  0.00     0.011 C 
ENDBRANCH  24  25
ENDBRANCH  12  18
ENDBRANCH   6   8
ENDBRANCH   5   6
ENDBRANCH   4   5
ENDBRANCH   3   4
ENDBRANCH   2   3
ENDBRANCH   1   2
BRANCH   1  29
ATOM     29  C   UNL A   1      36.613  20.572  25.008  1.00  0.00     0.261 C 
BRANCH  29  30
ATOM     30  O   UNL A   1      37.609  21.604  25.134  1.00  0.00    -0.460 OA
BRANCH  30  31
ATOM     31  C   UNL A   1      38.712  21.256  25.841  1.00  0.00     0.338 C 
ATOM     32  O   UNL A   1      39.251  20.157  25.860  1.00  0.00    -0.246 OA
BRANCH  31  33
ATOM     33  C   UNL A   1      39.313  22.446  26.478  1.00  0.00     0.060 A 
ATOM     34  C   UNL A   1      38.790  23.704  26.149  1.00  0.00     0.016 A 
ATOM     35  C   UNL A   1      40.417  22.348  27.326  1.00  0.00     0.016 A 
ATOM     36  C   UNL A   1      39.388  24.867  26.637  1.00  0.00     0.010 A 
ATOM     37  C   UNL A   1      41.017  23.518  27.815  1.00  0.00     0.010 A 
ATOM     38  C   UNL A   1      40.527  24.786  27.450  1.00  0.00    -0.014 A 
BRANCH  38  39
ATOM     39  C   UNL A   1      41.291  26.018  27.796  1.00  0.00     0.031 A 
ATOM     40  C   UNL A   1      40.585  27.130  28.531  1.00  0.00     0.074 A 
ATOM     41  C   UNL A   1      42.594  26.149  27.479  1.00  0.00     0.049 A 
ATOM     42  N   UNL A   1      41.022  28.320  28.856  1.00  0.00    -0.248 NA
ATOM     43  C   UNL A   1      39.200  26.863  28.949  1.00  0.00     0.031 C 
ATOM     44  C   UNL A   1      43.410  25.128  26.825  1.00  0.00     0.029 A 
ATOM     45  N   UNL A   1      43.458  27.205  27.653  1.00  0.00    -0.354 N 
ATOM     46  C   UNL A   1      39.959  28.952  29.496  1.00  0.00     0.074 A 
ATOM     47  C   UNL A   1      38.852  28.020  29.491  1.00  0.00     0.031 C 
ATOM     48  C   UNL A   1      44.651  25.612  26.638  1.00  0.00     0.029 A 
ATOM     49  C   UNL A   1      44.707  26.995  27.112  1.00  0.00     0.049 A 
ATOM     50  H   UNL A   1      43.207  28.034  28.121  1.00  0.00     0.167 HD
ATOM     51  C   UNL A   1      39.913  30.194  30.038  1.00  0.00     0.034 A 
ATOM     52  C   UNL A   1      45.759  27.832  26.978  1.00  0.00     0.034 A 
ATOM     53  C   UNL A   1      41.028  31.110  30.049  1.00  0.00     0.049 A 
ATOM     54  C   UNL A   1      45.649  29.248  27.504  1.00  0.00     0.074 A 
ATOM     55  C   UNL A   1      41.097  32.369  30.623  1.00  0.00     0.029 A 
ATOM     56  N   UNL A   1      42.255  30.882  29.444  1.00  0.00    -0.354 N 
ATOM     57  N   UNL A   1      44.648  29.820  28.135  1.00  0.00    -0.248 NA
ATOM     58  C   UNL A   1      46.807  30.131  27.300  1.00  0.00     0.031 C 
ATOM     59  C   UNL A   1      42.328  32.937  30.283  1.00  0.00     0.029 A 
ATOM     60  C   UNL A   1      43.066  31.999  29.580  1.00  0.00     0.049 A 
ATOM     61  H   UNL A   1      42.513  30.049  28.986  1.00  0.00     0.167 HD
ATOM     62  C   UNL A   1      45.075  31.114  28.431  1.00  0.00     0.074 A 
ATOM     63  C   UNL A   1      46.424  31.234  27.924  1.00  0.00     0.031 C 
ATOM     64  C   UNL A   1      44.410  32.113  29.067  1.00  0.00     0.034 A 
BRANCH  51  65
ATOM     65  C   UNL A   1      38.599  30.667  30.610  1.00  0.00     0.023 A 
ATOM     66  C   UNL A   1      37.673  31.406  29.854  1.00  0.00     0.031 A 
ATOM     67  C   UNL A   1      38.264  30.357  31.941  1.00  0.00     0.131 A 
ATOM     68  C   UNL A   1      36.483  31.852  30.450  1.00  0.00     0.055 A 
ATOM     69  C   UNL A   1      37.046  30.737  32.504  1.00  0.00     0.041 A 
ATOM     70  F   UNL A   1      39.121  29.674  32.719  1.00  0.00    -0.206 F 
ATOM     71  C   UNL A   1      36.152  31.500  31.761  1.00  0.00     0.022 A 
BRANCH  68  72
ATOM     72  S   UNL A   1      35.429  33.005  29.529  1.00  0.00     0.124 S 
ATOM     73  O   UNL A   1      36.318  33.420  28.446  1.00  0.00    -0.237 OA
ATOM     74  O   UNL A   1      34.303  32.161  29.142  1.00  0.00    -0.237 OA
ATOM     75  O   UNL A   1      35.121  34.046  30.506  1.00  0.00    -0.744 OA
ENDBRANCH  68  72
ENDBRANCH  51  65
BRANCH  52  76
ATOM     76  C   UNL A   1      46.997  27.396  26.261  1.00  0.00     0.023 A 
ATOM     77  C   UNL A   1      47.241  27.778  24.932  1.00  0.00     0.031 A 
ATOM     78  C   UNL A   1      47.908  26.510  26.865  1.00  0.00     0.131 A 
ATOM     79  C   UNL A   1      48.326  27.225  24.231  1.00  0.00     0.055 A 
ATOM     80  C   UNL A   1      49.024  26.016  26.186  1.00  0.00     0.041 A 
ATOM     81  F   UNL A   1      47.722  26.100  28.131  1.00  0.00    -0.206 F 
ATOM     82  C   UNL A   1      49.228  26.360  24.854  1.00  0.00     0.022 A 
BRANCH  79  83
ATOM     83  S   UNL A   1      48.464  27.549  22.451  1.00  0.00     0.124 S 
ATOM     84  O   UNL A   1      49.694  28.330  22.388  1.00  0.00    -0.237 OA
ATOM     85  O   UNL A   1      48.531  26.200  21.902  1.00  0.00    -0.237 OA
ATOM     86  O   UNL A   1      47.240  28.286  22.144  1.00  0.00    -0.744 OA
ENDBRANCH  79  83
ENDBRANCH  52  76
BRANCH  64  87
ATOM     87  C   UNL A   1      45.150  33.411  29.297  1.00  0.00     0.023 A 
ATOM     88  C   UNL A   1      45.163  34.439  28.338  1.00  0.00     0.031 A 
ATOM     89  C   UNL A   1      45.833  33.631  30.508  1.00  0.00     0.131 A 
ATOM     90  C   UNL A   1      45.878  35.621  28.588  1.00  0.00     0.055 A 
ATOM     91  C   UNL A   1      46.489  34.832  30.776  1.00  0.00     0.041 A 
ATOM     92  F   UNL A   1      45.858  32.683  31.458  1.00  0.00    -0.206 F 
ATOM     93  C   UNL A   1      46.524  35.832  29.810  1.00  0.00     0.022 A 
BRANCH  90  94
ATOM     94  S   UNL A   1      46.018  36.854  27.266  1.00  0.00     0.124 S 
ATOM     95  O   UNL A   1      44.764  37.588  27.402  1.00  0.00    -0.237 OA
ATOM     96  O   UNL A   1      47.226  37.582  27.641  1.00  0.00    -0.237 OA
ATOM     97  O   UNL A   1      46.135  36.046  26.052  1.00  0.00    -0.744 OA
ENDBRANCH  90  94
ENDBRANCH  64  87
ENDBRANCH  38  39
ENDBRANCH  31  33
ENDBRANCH  30  31
ENDBRANCH  29  30
ENDBRANCH   1  29
TORSDOF 21
ENDMDL
MODEL 2
REMARK VINA RESULT:     -10.7      1.673      7.726
REMARK SMILES CC[NH2+][C@@]1(C(=O)OCCOCCOC(=O)c2ccc(-c3c4nc(c(-c5cc(S(=O)(=O)[O-])ccc5F)c5ccc([nH]5)c(-c5cc(S(=O)(=O)[O-])ccc5F)c5nc(c(-c6cc(S(=O)(=O)[O-])ccc6F)c6ccc3[nH]6)C=C5)C=C4)cc2)CC[C@H]([NH+]2CCC(C(C)(C)C)CC2)C1
REMARK SMILES IDX 11 1 10 2 9 3 8 4 7 5 5 6 6 7 4 8 79 9 92 10 80 11 81 12
REMARK SMILES IDX 3 13 2 16 1 17 82 18 83 19 91 20 84 22 90 23 85 24 86 25
REMARK SMILES IDX 87 26 88 27 89 28 12 29 13 30 14 31 15 32 16 33 17 34 78 35
REMARK SMILES IDX 18 36 77 37 19 38 20 39 21 40 71 41 22 42 76 43 70 44 72 45
REMARK SMILES IDX 23 46 75 47 69 48 68 49 24 51 56 52 36 53 55 54 37 55 40 56
REMARK SMILES IDX 54 57 73 58 38 59 39 60 53 62 74 63 41 64 25 65 26 66 34 67
REMARK SMILES IDX 27 68 33 69 35 70 32 71 28 72 29 73 30 74 31 75 57 76 58 77
REMARK SMILES IDX 66 78 59 79 65 80 67 81 64 82 60 83 61 84 62 85 63 86 42 87
REMARK SMILES IDX 43 88 51 89 44 90 50 91 52 92 49 93 45 94 46 95 47 96 48 97
REMARK H PARENT 3 14 3 15 82 21 72 50 40 61
REMARK Flexibility Score: inf
ROOT
ATOM      1  C   UNL A   1      37.192  18.903  24.934  1.00  0.00     0.202 C 
ENDROOT
BRANCH   1   2
ATOM      2  O   UNL A   1      35.830  19.321  24.823  1.00  0.00    -0.374 OA
BRANCH   2   3
ATOM      3  C   UNL A   1      34.870  18.328  24.449  1.00  0.00     0.202 C 
BRANCH   3   4
ATOM      4  C   UNL A   1      33.412  18.791  24.469  1.00  0.00     0.261 C 
BRANCH   4   5
ATOM      5  O   UNL A   1      33.395  20.204  24.213  1.00  0.00    -0.459 OA
BRANCH   5   6
ATOM      6  C   UNL A   1      32.661  20.989  25.035  1.00  0.00     0.368 C 
ATOM      7  O   UNL A   1      31.533  20.695  25.419  1.00  0.00    -0.245 OA
BRANCH   6   8
ATOM      8  C   UNL A   1      33.466  22.256  25.496  1.00  0.00     0.200 C 
ATOM      9  C   UNL A   1      33.208  22.563  26.977  1.00  0.00     0.087 C 
ATOM     10  C   UNL A   1      33.047  23.589  24.814  1.00  0.00     0.146 C 
ATOM     11  C   UNL A   1      32.016  23.508  27.015  1.00  0.00     0.072 C 
ATOM     12  C   UNL A   1      31.952  24.254  25.685  1.00  0.00     0.191 C 
BRANCH   8  13
ATOM     13  N   UNL A   1      34.920  22.010  25.222  1.00  0.00    -0.332 N 
ATOM     14  H   UNL A   1      35.359  21.691  26.086  1.00  0.00     0.347 HD
ATOM     15  H   UNL A   1      34.963  21.314  24.477  1.00  0.00     0.347 HD
BRANCH  13  16
ATOM     16  C   UNL A   1      35.649  23.190  24.742  1.00  0.00     0.257 C 
ATOM     17  C   UNL A   1      36.318  22.884  23.409  1.00  0.00     0.071 C 
ENDBRANCH  13  16
ENDBRANCH   8  13
BRANCH  12  18
ATOM     18  N   UNL A   1      30.632  24.505  25.081  1.00  0.00    -0.332 N 
ATOM     19  C   UNL A   1      30.557  24.510  23.615  1.00  0.00     0.262 C 
ATOM     20  C   UNL A   1      29.821  25.605  25.577  1.00  0.00     0.262 C 
ATOM     21  H   UNL A   1      30.214  23.647  25.442  1.00  0.00     0.348 HD
ATOM     22  C   UNL A   1      30.951  25.832  22.923  1.00  0.00     0.066 C 
ATOM     23  C   UNL A   1      30.347  26.963  25.158  1.00  0.00     0.066 C 
ATOM     24  C   UNL A   1      30.528  27.143  23.645  1.00  0.00     0.005 C 
BRANCH  24  25
ATOM     25  C   UNL A   1      31.436  28.405  23.318  1.00  0.00    -0.035 C 
ATOM     26  C   UNL A   1      32.785  27.933  22.750  1.00  0.00     0.011 C 
ATOM     27  C   UNL A   1      30.758  29.312  22.262  1.00  0.00     0.011 C 
ATOM     28  C   UNL A   1      31.734  29.315  24.531  1.00  0.00     0.011 C 
ENDBRANCH  24  25
ENDBRANCH  12  18
ENDBRANCH   6   8
ENDBRANCH   5   6
ENDBRANCH   4   5
ENDBRANCH   3   4
ENDBRANCH   2   3
ENDBRANCH   1   2
BRANCH   1  29
ATOM     29  C   UNL A   1      38.267  19.969  24.677  1.00  0.00     0.261 C 
BRANCH  29  30
ATOM     30  O   UNL A   1      38.421  20.929  25.739  1.00  0.00    -0.460 OA
BRANCH  30  31
ATOM     31  C   UNL A   1      39.622  20.904  26.367  1.00  0.00     0.338 C 
ATOM     32  O   UNL A   1      40.394  19.956  26.431  1.00  0.00    -0.246 OA
BRANCH  31  33
ATOM     33  C   UNL A   1      39.986  22.257  26.838  1.00  0.00     0.060 A 
ATOM     34  C   UNL A   1      39.336  23.353  26.256  1.00  0.00     0.016 A 
ATOM     35  C   UNL A   1      40.997  22.461  27.778  1.00  0.00     0.016 A 
ATOM     36  C   UNL A   1      39.717  24.656  26.585  1.00  0.00     0.010 A 
ATOM     37  C   UNL A   1      41.378  23.770  28.107  1.00  0.00     0.010 A 
ATOM     38  C   UNL A   1      40.764  24.877  27.490  1.00  0.00    -0.014 A 
BRANCH  38  39
ATOM     39  C   UNL A   1      41.313  26.249  27.682  1.00  0.00     0.031 A 
ATOM     40  C   UNL A   1      42.656  26.585  27.084  1.00  0.00     0.074 A 
ATOM     41  C   UNL A   1      40.631  27.190  28.364  1.00  0.00     0.049 A 
ATOM     42  N   UNL A   1      43.366  27.679  27.196  1.00  0.00    -0.248 NA
ATOM     43  C   UNL A   1      43.282  25.545  26.253  1.00  0.00     0.031 C 
ATOM     44  C   UNL A   1      39.299  27.015  28.939  1.00  0.00     0.029 A 
ATOM     45  N   UNL A   1      40.973  28.479  28.698  1.00  0.00    -0.354 N 
ATOM     46  C   UNL A   1      44.531  27.451  26.470  1.00  0.00     0.074 A 
ATOM     47  C   UNL A   1      44.441  26.106  25.942  1.00  0.00     0.031 C 
ATOM     48  C   UNL A   1      38.942  28.148  29.570  1.00  0.00     0.029 A 
ATOM     49  C   UNL A   1      40.039  29.113  29.489  1.00  0.00     0.049 A 
ATOM     50  H   UNL A   1      41.807  28.910  28.402  1.00  0.00     0.167 HD
ATOM     51  C   UNL A   1      45.579  28.287  26.262  1.00  0.00     0.034 A 
ATOM     52  C   UNL A   1      40.080  30.313  30.107  1.00  0.00     0.034 A 
ATOM     53  C   UNL A   1      45.652  29.630  26.782  1.00  0.00     0.049 A 
ATOM     54  C   UNL A   1      41.305  31.189  29.940  1.00  0.00     0.074 A 
ATOM     55  C   UNL A   1      46.645  30.574  26.581  1.00  0.00     0.029 A 
ATOM     56  N   UNL A   1      44.714  30.214  27.622  1.00  0.00    -0.354 N 
ATOM     57  N   UNL A   1      42.386  30.972  29.224  1.00  0.00    -0.248 NA
ATOM     58  C   UNL A   1      41.318  32.469  30.663  1.00  0.00     0.031 C 
ATOM     59  C   UNL A   1      46.356  31.689  27.372  1.00  0.00     0.029 A 
ATOM     60  C   UNL A   1      45.135  31.483  27.993  1.00  0.00     0.049 A 
ATOM     61  H   UNL A   1      43.873  29.791  27.911  1.00  0.00     0.167 HD
ATOM     62  C   UNL A   1      43.183  32.104  29.387  1.00  0.00     0.074 A 
ATOM     63  C   UNL A   1      42.457  33.005  30.254  1.00  0.00     0.031 C 
ATOM     64  C   UNL A   1      44.407  32.375  28.863  1.00  0.00     0.034 A 
BRANCH  51  65
ATOM     65  C   UNL A   1      46.763  27.758  25.491  1.00  0.00     0.023 A 
ATOM     66  C   UNL A   1      46.995  28.093  24.147  1.00  0.00     0.031 A 
ATOM     67  C   UNL A   1      47.687  26.907  26.126  1.00  0.00     0.131 A 
ATOM     68  C   UNL A   1      48.094  27.541  23.469  1.00  0.00     0.055 A 
ATOM     69  C   UNL A   1      48.819  26.423  25.470  1.00  0.00     0.041 A 
ATOM     70  F   UNL A   1      47.503  26.533  27.404  1.00  0.00    -0.206 F 
ATOM     71  C   UNL A   1      49.020  26.731  24.129  1.00  0.00     0.022 A 
BRANCH  68  72
ATOM     72  S   UNL A   1      48.228  27.796  21.679  1.00  0.00     0.124 S 
ATOM     73  O   UNL A   1      48.520  26.444  21.207  1.00  0.00    -0.237 OA
ATOM     74  O   UNL A   1      46.910  28.320  21.335  1.00  0.00    -0.237 OA
ATOM     75  O   UNL A   1      49.330  28.745  21.547  1.00  0.00    -0.744 OA
ENDBRANCH  68  72
ENDBRANCH  51  65
BRANCH  52  76
ATOM     76  C   UNL A   1      38.965  30.752  31.002  1.00  0.00     0.023 A 
ATOM     77  C   UNL A   1      37.929  31.571  30.526  1.00  0.00     0.031 A 
ATOM     78  C   UNL A   1      38.973  30.436  32.374  1.00  0.00     0.131 A 
ATOM     79  C   UNL A   1      36.985  32.100  31.421  1.00  0.00     0.055 A 
ATOM     80  C   UNL A   1      37.992  30.909  33.248  1.00  0.00     0.041 A 
ATOM     81  F   UNL A   1      39.944  29.666  32.891  1.00  0.00    -0.206 F 
ATOM     82  C   UNL A   1      36.999  31.761  32.776  1.00  0.00     0.022 A 
BRANCH  79  83
ATOM     83  S   UNL A   1      35.814  33.346  30.812  1.00  0.00     0.124 S 
ATOM     84  O   UNL A   1      34.629  32.536  30.555  1.00  0.00    -0.237 OA
ATOM     85  O   UNL A   1      35.734  34.264  31.942  1.00  0.00    -0.237 OA
ATOM     86  O   UNL A   1      36.476  33.880  29.623  1.00  0.00    -0.744 OA
ENDBRANCH  79  83
ENDBRANCH  52  76
BRANCH  64  87
ATOM     87  C   UNL A   1      45.019  33.722  29.174  1.00  0.00     0.023 A 
ATOM     88  C   UNL A   1      44.753  34.858  28.390  1.00  0.00     0.031 A 
ATOM     89  C   UNL A   1      45.865  33.872  30.289  1.00  0.00     0.131 A 
ATOM     90  C   UNL A   1      45.359  36.084  28.708  1.00  0.00     0.055 A 
ATOM     91  C   UNL A   1      46.414  35.106  30.636  1.00  0.00     0.041 A 
ATOM     92  F   UNL A   1      46.157  32.821  31.070  1.00  0.00    -0.206 F 
ATOM     93  C   UNL A   1      46.171  36.220  29.837  1.00  0.00     0.022 A 
BRANCH  90  94
ATOM     94  S   UNL A   1      45.133  37.488  27.582  1.00  0.00     0.124 S 
ATOM     95  O   UNL A   1      46.339  37.418  26.764  1.00  0.00    -0.237 OA
ATOM     96  O   UNL A   1      43.884  37.152  26.906  1.00  0.00    -0.237 OA
ATOM     97  O   UNL A   1      45.059  38.641  28.480  1.00  0.00    -0.744 OA
ENDBRANCH  90  94
ENDBRANCH  64  87
ENDBRANCH  38  39
ENDBRANCH  31  33
ENDBRANCH  30  31
ENDBRANCH  29  30
ENDBRANCH   1  29
TORSDOF 21
ENDMDL
MODEL 3
REMARK VINA RESULT:     -10.5      4.794      8.133
REMARK SMILES CC[NH2+][C@@]1(C(=O)OCCOCCOC(=O)c2ccc(-c3c4nc(c(-c5cc(S(=O)(=O)[O-])ccc5F)c5ccc([nH]5)c(-c5cc(S(=O)(=O)[O-])ccc5F)c5nc(c(-c6cc(S(=O)(=O)[O-])ccc6F)c6ccc3[nH]6)C=C5)C=C4)cc2)CC[C@H]([NH+]2CCC(C(C)(C)C)CC2)C1
REMARK SMILES IDX 11 1 10 2 9 3 8 4 7 5 5 6 6 7 4 8 79 9 92 10 80 11 81 12
REMARK SMILES IDX 3 13 2 16 1 17 82 18 83 19 91 20 84 22 90 23 85 24 86 25
REMARK SMILES IDX 87 26 88 27 89 28 12 29 13 30 14 31 15 32 16 33 17 34 78 35
REMARK SMILES IDX 18 36 77 37 19 38 20 39 21 40 71 41 22 42 76 43 70 44 72 45
REMARK SMILES IDX 23 46 75 47 69 48 68 49 24 51 56 52 36 53 55 54 37 55 40 56
REMARK SMILES IDX 54 57 73 58 38 59 39 60 53 62 74 63 41 64 25 65 26 66 34 67
REMARK SMILES IDX 27 68 33 69 35 70 32 71 28 72 29 73 30 74 31 75 57 76 58 77
REMARK SMILES IDX 66 78 59 79 65 80 67 81 64 82 60 83 61 84 62 85 63 86 42 87
REMARK SMILES IDX 43 88 51 89 44 90 50 91 52 92 49 93 45 94 46 95 47 96 48 97
REMARK H PARENT 3 14 3 15 82 21 72 50 40 61
REMARK Flexibility Score: inf
ROOT
ATOM      1  C   UNL A   1      31.025  31.928  26.573  1.00  0.00     0.202 C 
ENDROOT
BRANCH   1   2
ATOM      2  O   UNL A   1      31.046  31.195  25.347  1.00  0.00    -0.374 OA
BRANCH   2   3
ATOM      3  C   UNL A   1      29.903  31.316  24.494  1.00  0.00     0.202 C 
BRANCH   3   4
ATOM      4  C   UNL A   1      29.609  30.092  23.623  1.00  0.00     0.261 C 
BRANCH   4   5
ATOM      5  O   UNL A   1      30.855  29.433  23.352  1.00  0.00    -0.459 OA
BRANCH   5   6
ATOM      6  C   UNL A   1      31.108  28.268  23.991  1.00  0.00     0.368 C 
ATOM      7  O   UNL A   1      30.251  27.419  24.213  1.00  0.00    -0.245 OA
BRANCH   6   8
ATOM      8  C   UNL A   1      32.636  28.110  24.323  1.00  0.00     0.200 C 
ATOM      9  C   UNL A   1      33.498  28.378  23.083  1.00  0.00     0.087 C 
ATOM     10  C   UNL A   1      33.080  26.674  24.719  1.00  0.00     0.146 C 
ATOM     11  C   UNL A   1      33.677  27.035  22.390  1.00  0.00     0.072 C 
ATOM     12  C   UNL A   1      33.520  25.931  23.433  1.00  0.00     0.191 C 
BRANCH   8  13
ATOM     13  N   UNL A   1      32.968  29.045  25.447  1.00  0.00    -0.332 N 
ATOM     14  H   UNL A   1      33.841  29.522  25.220  1.00  0.00     0.347 HD
ATOM     15  H   UNL A   1      32.179  29.687  25.537  1.00  0.00     0.347 HD
BRANCH  13  16
ATOM     16  C   UNL A   1      33.127  28.387  26.750  1.00  0.00     0.257 C 
ATOM     17  C   UNL A   1      31.840  28.501  27.554  1.00  0.00     0.071 C 
ENDBRANCH  13  16
ENDBRANCH   8  13
BRANCH  12  18
ATOM     18  N   UNL A   1      32.805  24.701  23.053  1.00  0.00    -0.332 N 
ATOM     19  C   UNL A   1      31.962  24.074  24.078  1.00  0.00     0.262 C 
ATOM     20  C   UNL A   1      33.524  23.647  22.356  1.00  0.00     0.262 C 
ATOM     21  H   UNL A   1      32.215  25.161  22.360  1.00  0.00     0.348 HD
ATOM     22  C   UNL A   1      32.689  23.155  25.083  1.00  0.00     0.066 C 
ATOM     23  C   UNL A   1      34.485  22.893  23.254  1.00  0.00     0.066 C 
ATOM     24  C   UNL A   1      33.848  22.290  24.513  1.00  0.00     0.005 C 
BRANCH  24  25
ATOM     25  C   UNL A   1      34.954  21.876  25.577  1.00  0.00    -0.035 C 
ATOM     26  C   UNL A   1      34.271  21.476  26.897  1.00  0.00     0.011 C 
ATOM     27  C   UNL A   1      35.776  20.665  25.073  1.00  0.00     0.011 C 
ATOM     28  C   UNL A   1      35.981  22.984  25.902  1.00  0.00     0.011 C 
ENDBRANCH  24  25
ENDBRANCH  12  18
ENDBRANCH   6   8
ENDBRANCH   5   6
ENDBRANCH   4   5
ENDBRANCH   3   4
ENDBRANCH   2   3
ENDBRANCH   1   2
BRANCH   1  29
ATOM     29  C   UNL A   1      31.959  33.145  26.669  1.00  0.00     0.261 C 
BRANCH  29  30
ATOM     30  O   UNL A   1      32.480  33.392  27.988  1.00  0.00    -0.460 OA
BRANCH  30  31
ATOM     31  C   UNL A   1      33.612  34.136  28.028  1.00  0.00     0.338 C 
ATOM     32  O   UNL A   1      33.690  35.354  27.936  1.00  0.00    -0.246 OA
BRANCH  31  33
ATOM     33  C   UNL A   1      34.772  33.291  28.382  1.00  0.00     0.060 A 
ATOM     34  C   UNL A   1      34.523  31.992  28.844  1.00  0.00     0.016 A 
ATOM     35  C   UNL A   1      36.079  33.780  28.336  1.00  0.00     0.016 A 
ATOM     36  C   UNL A   1      35.574  31.189  29.293  1.00  0.00     0.010 A 
ATOM     37  C   UNL A   1      37.132  32.972  28.788  1.00  0.00     0.010 A 
ATOM     38  C   UNL A   1      36.885  31.683  29.300  1.00  0.00    -0.014 A 
BRANCH  38  39
ATOM     39  C   UNL A   1      37.973  30.917  29.972  1.00  0.00     0.031 A 
ATOM     40  C   UNL A   1      38.268  31.193  31.425  1.00  0.00     0.074 A 
ATOM     41  C   UNL A   1      38.682  29.980  29.313  1.00  0.00     0.049 A 
ATOM     42  N   UNL A   1      39.217  30.714  32.186  1.00  0.00    -0.248 NA
ATOM     43  C   UNL A   1      37.371  32.140  32.106  1.00  0.00     0.031 C 
ATOM     44  C   UNL A   1      38.460  29.573  27.927  1.00  0.00     0.029 A 
ATOM     45  N   UNL A   1      39.746  29.209  29.720  1.00  0.00    -0.354 N 
ATOM     46  C   UNL A   1      39.049  31.318  33.428  1.00  0.00     0.074 A 
ATOM     47  C   UNL A   1      37.918  32.215  33.310  1.00  0.00     0.031 C 
ATOM     48  C   UNL A   1      39.369  28.639  27.593  1.00  0.00     0.029 A 
ATOM     49  C   UNL A   1      40.271  28.417  28.723  1.00  0.00     0.049 A 
ATOM     50  H   UNL A   1      40.100  29.222  30.639  1.00  0.00     0.167 HD
ATOM     51  C   UNL A   1      39.769  31.140  34.564  1.00  0.00     0.034 A 
ATOM     52  C   UNL A   1      41.373  27.636  28.709  1.00  0.00     0.034 A 
ATOM     53  C   UNL A   1      40.886  30.234  34.674  1.00  0.00     0.049 A 
ATOM     54  C   UNL A   1      42.219  27.529  29.962  1.00  0.00     0.074 A 
ATOM     55  C   UNL A   1      41.645  29.941  35.795  1.00  0.00     0.029 A 
ATOM     56  N   UNL A   1      41.420  29.492  33.630  1.00  0.00    -0.354 N 
ATOM     57  N   UNL A   1      42.028  28.082  31.139  1.00  0.00    -0.248 NA
ATOM     58  C   UNL A   1      43.428  26.696  29.885  1.00  0.00     0.031 C 
ATOM     59  C   UNL A   1      42.692  29.101  35.408  1.00  0.00     0.029 A 
ATOM     60  C   UNL A   1      42.533  28.790  34.068  1.00  0.00     0.049 A 
ATOM     61  H   UNL A   1      41.062  29.468  32.713  1.00  0.00     0.167 HD
ATOM     62  C   UNL A   1      43.072  27.633  31.944  1.00  0.00     0.074 A 
ATOM     63  C   UNL A   1      43.881  26.755  31.128  1.00  0.00     0.031 C 
ATOM     64  C   UNL A   1      43.338  27.919  33.245  1.00  0.00     0.034 A 
BRANCH  51  65
ATOM     65  C   UNL A   1      39.419  31.985  35.764  1.00  0.00     0.023 A 
ATOM     66  C   UNL A   1      38.574  31.523  36.787  1.00  0.00     0.031 A 
ATOM     67  C   UNL A   1      39.956  33.280  35.888  1.00  0.00     0.131 A 
ATOM     68  C   UNL A   1      38.252  32.367  37.861  1.00  0.00     0.055 A 
ATOM     69  C   UNL A   1      39.694  34.085  36.997  1.00  0.00     0.041 A 
ATOM     70  F   UNL A   1      40.751  33.783  34.929  1.00  0.00    -0.206 F 
ATOM     71  C   UNL A   1      38.828  33.634  37.986  1.00  0.00     0.022 A 
BRANCH  68  72
ATOM     72  S   UNL A   1      36.973  31.836  39.031  1.00  0.00     0.124 S 
ATOM     73  O   UNL A   1      35.840  32.667  38.630  1.00  0.00    -0.237 OA
ATOM     74  O   UNL A   1      36.852  30.411  38.741  1.00  0.00    -0.237 OA
ATOM     75  O   UNL A   1      37.543  32.161  40.336  1.00  0.00    -0.744 OA
ENDBRANCH  68  72
ENDBRANCH  51  65
BRANCH  52  76
ATOM     76  C   UNL A   1      41.798  26.933  27.460  1.00  0.00     0.023 A 
ATOM     77  C   UNL A   1      41.642  25.545  27.316  1.00  0.00     0.031 A 
ATOM     78  C   UNL A   1      42.456  27.629  26.428  1.00  0.00     0.131 A 
ATOM     79  C   UNL A   1      42.195  24.889  26.204  1.00  0.00     0.055 A 
ATOM     80  C   UNL A   1      42.943  26.981  25.291  1.00  0.00     0.041 A 
ATOM     81  F   UNL A   1      42.644  28.956  26.513  1.00  0.00    -0.206 F 
ATOM     82  C   UNL A   1      42.829  25.599  25.183  1.00  0.00     0.022 A 
BRANCH  79  83
ATOM     83  S   UNL A   1      42.190  23.074  26.176  1.00  0.00     0.124 S 
ATOM     84  O   UNL A   1      43.031  22.759  27.325  1.00  0.00    -0.237 OA
ATOM     85  O   UNL A   1      40.770  22.774  26.317  1.00  0.00    -0.237 OA
ATOM     86  O   UNL A   1      42.767  22.753  24.872  1.00  0.00    -0.744 OA
ENDBRANCH  79  83
ENDBRANCH  52  76
BRANCH  64  87
ATOM     87  C   UNL A   1      44.527  27.238  33.884  1.00  0.00     0.023 A 
ATOM     88  C   UNL A   1      45.797  27.840  33.921  1.00  0.00     0.031 A 
ATOM     89  C   UNL A   1      44.378  25.974  34.486  1.00  0.00     0.131 A 
ATOM     90  C   UNL A   1      46.875  27.162  34.511  1.00  0.00     0.055 A 
ATOM     91  C   UNL A   1      45.439  25.333  35.125  1.00  0.00     0.041 A 
ATOM     92  F   UNL A   1      43.189  25.350  34.478  1.00  0.00    -0.206 F 
ATOM     93  C   UNL A   1      46.699  25.921  35.131  1.00  0.00     0.022 A 
BRANCH  90  94
ATOM     94  S   UNL A   1      48.534  27.886  34.392  1.00  0.00     0.124 S 
ATOM     95  O   UNL A   1      49.380  26.779  34.824  1.00  0.00    -0.237 OA
ATOM     96  O   UNL A   1      48.621  28.242  32.980  1.00  0.00    -0.237 OA
ATOM     97  O   UNL A   1      48.480  29.021  35.314  1.00  0.00    -0.744 OA
ENDBRANCH  90  94
ENDBRANCH  64  87
ENDBRANCH  38  39
ENDBRANCH  31  33
ENDBRANCH  30  31
ENDBRANCH  29  30
ENDBRANCH   1  29
TORSDOF 21
ENDMDL
