MODEL 1
REMARK VINA RESULT:     -11.6      0.000      0.000
REMARK SMILES Cc1ccc(Nc2c(F)cccc2Cl)c(CC(=O)OCCOCCOC(=O)c2ccc(-c3c4nc(c(-c5cc(S(=O)(=O)[O-])ccc5F)c5ccc([nH]5)c(-c5cc(S(=O)(=O)[O-])ccc5F)c5nc(c(-c6cc(S(=O)(=O)[O-])ccc6F)c6ccc3[nH]6)C=C5)C=C4)cc2)c1
REMARK SMILES IDX 22 1 21 2 20 3 19 4 17 5 18 6 16 7 15 8 1 9 2 10 3 11 91 12
REMARK SMILES IDX 4 13 5 14 6 15 7 17 8 18 13 19 9 20 10 21 12 22 14 23 11 24
REMARK SMILES IDX 23 25 24 26 25 27 26 28 27 29 28 30 29 31 90 32 30 33 89 34
REMARK SMILES IDX 31 35 32 36 33 37 83 38 34 39 88 40 82 41 84 42 35 43 87 44
REMARK SMILES IDX 81 45 80 46 36 48 68 49 48 50 67 51 49 52 52 53 66 54 85 55
REMARK SMILES IDX 50 56 51 57 65 59 86 60 53 61 37 62 38 63 46 64 39 65 45 66
REMARK SMILES IDX 47 67 44 68 40 69 41 70 42 71 43 72 69 73 70 74 78 75 71 76
REMARK SMILES IDX 77 77 79 78 76 79 72 80 73 81 74 82 75 83 54 84 55 85 63 86
REMARK SMILES IDX 56 87 62 88 64 89 61 90 57 91 58 92 59 93 60 94
REMARK H PARENT 6 16 84 47 52 58
REMARK Flexibility Score: inf
ROOT
ATOM      1  O   UNL A   1      37.166  23.076  25.104  1.00  0.00    -0.374 OA
ENDROOT
BRANCH   1   2
ATOM      2  C   UNL A   1      36.101  23.689  25.812  1.00  0.00     0.202 C 
BRANCH   2   3
ATOM      3  C   UNL A   1      35.178  24.351  24.808  1.00  0.00     0.261 C 
BRANCH   3   4
ATOM      4  O   UNL A   1      33.805  24.170  25.113  1.00  0.00    -0.463 OA
BRANCH   4   5
ATOM      5  C   UNL A   1      32.996  25.264  25.213  1.00  0.00     0.310 C 
ATOM      6  O   UNL A   1      32.034  25.416  25.949  1.00  0.00    -0.252 OA
BRANCH   5   7
ATOM      7  C   UNL A   1      33.462  26.321  24.226  1.00  0.00     0.160 C 
BRANCH   7   8
ATOM      8  C   UNL A   1      33.107  27.703  24.753  1.00  0.00    -0.013 A 
ATOM      9  C   UNL A   1      34.482  29.558  27.804  1.00  0.00     0.044 C 
ATOM     10  C   UNL A   1      33.620  29.204  26.628  1.00  0.00    -0.051 A 
ATOM     11  C   UNL A   1      32.357  29.764  26.485  1.00  0.00     0.005 A 
ATOM     12  C   UNL A   1      34.016  28.232  25.711  1.00  0.00     0.009 A 
ATOM     13  C   UNL A   1      31.483  29.302  25.493  1.00  0.00     0.026 A 
ATOM     14  C   UNL A   1      31.808  28.237  24.631  1.00  0.00     0.042 A 
BRANCH  14  15
ATOM     15  N   UNL A   1      30.843  27.688  23.735  1.00  0.00    -0.352 N 
ATOM     16  H   UNL A   1      30.893  26.716  23.587  1.00  0.00     0.167 HD
BRANCH  15  17
ATOM     17  C   UNL A   1      29.814  28.372  23.028  1.00  0.00     0.094 A 
ATOM     18  C   UNL A   1      30.105  29.471  22.208  1.00  0.00     0.148 A 
ATOM     19  C   UNL A   1      28.450  28.110  23.257  1.00  0.00     0.067 A 
ATOM     20  F   UNL A   1      31.365  29.696  21.802  1.00  0.00    -0.205 F 
ATOM     21  C   UNL A   1      29.127  30.378  21.802  1.00  0.00     0.041 A 
ATOM     22  C   UNL A   1      27.465  29.047  22.908  1.00  0.00     0.023 A 
ATOM     23  Cl  UNL A   1      27.909  26.599  23.898  1.00  0.00    -0.082 Cl
ATOM     24  C   UNL A   1      27.811  30.200  22.208  1.00  0.00     0.005 A 
ENDBRANCH  15  17
ENDBRANCH  14  15
ENDBRANCH   7   8
ENDBRANCH   5   7
ENDBRANCH   4   5
ENDBRANCH   3   4
ENDBRANCH   2   3
ENDBRANCH   1   2
BRANCH   1  25
ATOM     25  C   UNL A   1      37.338  21.704  25.383  1.00  0.00     0.202 C 
BRANCH  25  26
ATOM     26  C   UNL A   1      38.810  21.407  25.652  1.00  0.00     0.261 C 
BRANCH  26  27
ATOM     27  O   UNL A   1      39.308  22.137  26.800  1.00  0.00    -0.460 OA
BRANCH  27  28
ATOM     28  C   UNL A   1      40.353  22.968  26.533  1.00  0.00     0.338 C 
ATOM     29  O   UNL A   1      41.454  22.592  26.144  1.00  0.00    -0.246 OA
BRANCH  28  30
ATOM     30  C   UNL A   1      39.989  24.386  26.779  1.00  0.00     0.060 A 
ATOM     31  C   UNL A   1      40.680  25.403  26.097  1.00  0.00     0.016 A 
ATOM     32  C   UNL A   1      39.191  24.686  27.882  1.00  0.00     0.016 A 
ATOM     33  C   UNL A   1      40.730  26.689  26.641  1.00  0.00     0.010 A 
ATOM     34  C   UNL A   1      39.353  25.916  28.480  1.00  0.00     0.010 A 
ATOM     35  C   UNL A   1      40.153  26.909  27.888  1.00  0.00    -0.014 A 
BRANCH  35  36
ATOM     36  C   UNL A   1      40.408  28.067  28.744  1.00  0.00     0.031 A 
ATOM     37  C   UNL A   1      39.490  29.216  28.688  1.00  0.00     0.074 A 
ATOM     38  C   UNL A   1      41.278  27.966  29.775  1.00  0.00     0.049 A 
ATOM     39  N   UNL A   1      39.660  30.288  29.372  1.00  0.00    -0.248 NA
ATOM     40  C   UNL A   1      38.327  29.294  27.806  1.00  0.00     0.031 C 
ATOM     41  C   UNL A   1      41.274  28.685  31.053  1.00  0.00     0.029 A 
ATOM     42  N   UNL A   1      42.401  27.168  29.876  1.00  0.00    -0.354 N 
ATOM     43  C   UNL A   1      38.488  30.994  29.331  1.00  0.00     0.074 A 
ATOM     44  C   UNL A   1      37.754  30.424  28.231  1.00  0.00     0.031 C 
ATOM     45  C   UNL A   1      42.434  28.463  31.696  1.00  0.00     0.029 A 
ATOM     46  C   UNL A   1      43.295  27.729  30.787  1.00  0.00     0.049 A 
ATOM     47  H   UNL A   1      42.549  26.331  29.379  1.00  0.00     0.167 HD
ATOM     48  C   UNL A   1      38.255  31.888  30.329  1.00  0.00     0.034 A 
ATOM     49  C   UNL A   1      44.560  28.065  30.407  1.00  0.00     0.034 A 
ATOM     50  C   UNL A   1      39.472  32.102  31.134  1.00  0.00     0.049 A 
ATOM     51  C   UNL A   1      44.643  29.588  30.309  1.00  0.00     0.074 A 
ATOM     52  C   UNL A   1      39.873  31.811  32.425  1.00  0.00     0.029 A 
ATOM     53  N   UNL A   1      40.630  32.475  30.464  1.00  0.00    -0.354 N 
ATOM     54  N   UNL A   1      43.641  30.378  30.609  1.00  0.00    -0.248 NA
ATOM     55  C   UNL A   1      45.800  30.352  29.858  1.00  0.00     0.031 C 
ATOM     56  C   UNL A   1      41.304  31.937  32.479  1.00  0.00     0.029 A 
ATOM     57  C   UNL A   1      41.762  32.360  31.241  1.00  0.00     0.049 A 
ATOM     58  H   UNL A   1      40.641  32.789  29.531  1.00  0.00     0.167 HD
ATOM     59  C   UNL A   1      43.950  31.683  30.392  1.00  0.00     0.074 A 
ATOM     60  C   UNL A   1      45.315  31.611  29.876  1.00  0.00     0.031 C 
ATOM     61  C   UNL A   1      43.059  32.696  30.649  1.00  0.00     0.034 A 
BRANCH  48  62
ATOM     62  C   UNL A   1      36.912  32.492  30.666  1.00  0.00     0.023 A 
ATOM     63  C   UNL A   1      36.174  33.089  29.625  1.00  0.00     0.031 A 
ATOM     64  C   UNL A   1      36.342  32.613  31.954  1.00  0.00     0.131 A 
ATOM     65  C   UNL A   1      34.958  33.752  29.873  1.00  0.00     0.055 A 
ATOM     66  C   UNL A   1      35.103  33.225  32.191  1.00  0.00     0.041 A 
ATOM     67  F   UNL A   1      36.967  32.205  33.065  1.00  0.00    -0.206 F 
ATOM     68  C   UNL A   1      34.406  33.807  31.148  1.00  0.00     0.022 A 
BRANCH  65  69
ATOM     69  S   UNL A   1      34.131  34.598  28.502  1.00  0.00     0.124 S 
ATOM     70  O   UNL A   1      32.866  33.877  28.415  1.00  0.00    -0.237 OA
ATOM     71  O   UNL A   1      34.063  35.974  28.982  1.00  0.00    -0.237 OA
ATOM     72  O   UNL A   1      35.040  34.383  27.375  1.00  0.00    -0.744 OA
ENDBRANCH  65  69
ENDBRANCH  48  62
BRANCH  49  73
ATOM     73  C   UNL A   1      45.126  26.996  29.510  1.00  0.00     0.023 A 
ATOM     74  C   UNL A   1      44.715  27.062  28.147  1.00  0.00     0.031 A 
ATOM     75  C   UNL A   1      46.380  26.421  29.776  1.00  0.00     0.131 A 
ATOM     76  C   UNL A   1      45.616  26.760  27.108  1.00  0.00     0.055 A 
ATOM     77  C   UNL A   1      47.267  26.103  28.732  1.00  0.00     0.041 A 
ATOM     78  F   UNL A   1      46.858  26.384  31.028  1.00  0.00    -0.206 F 
ATOM     79  C   UNL A   1      46.909  26.323  27.399  1.00  0.00     0.022 A 
BRANCH  76  80
ATOM     80  S   UNL A   1      45.194  27.219  25.387  1.00  0.00     0.124 S 
ATOM     81  O   UNL A   1      45.096  28.671  25.474  1.00  0.00    -0.237 OA
ATOM     82  O   UNL A   1      46.327  26.704  24.625  1.00  0.00    -0.237 OA
ATOM     83  O   UNL A   1      43.937  26.514  25.149  1.00  0.00    -0.744 OA
ENDBRANCH  76  80
ENDBRANCH  49  73
BRANCH  61  84
ATOM     84  C   UNL A   1      43.360  34.133  30.317  1.00  0.00     0.023 A 
ATOM     85  C   UNL A   1      43.568  34.530  28.996  1.00  0.00     0.031 A 
ATOM     86  C   UNL A   1      43.437  35.154  31.293  1.00  0.00     0.131 A 
ATOM     87  C   UNL A   1      43.627  35.888  28.663  1.00  0.00     0.055 A 
ATOM     88  C   UNL A   1      43.642  36.496  30.969  1.00  0.00     0.041 A 
ATOM     89  F   UNL A   1      43.252  34.918  32.598  1.00  0.00    -0.206 F 
ATOM     90  C   UNL A   1      43.693  36.878  29.639  1.00  0.00     0.022 A 
BRANCH  87  91
ATOM     91  S   UNL A   1      43.423  36.324  26.923  1.00  0.00     0.124 S 
ATOM     92  O   UNL A   1      44.738  36.030  26.361  1.00  0.00    -0.237 OA
ATOM     93  O   UNL A   1      42.350  35.416  26.521  1.00  0.00    -0.237 OA
ATOM     94  O   UNL A   1      43.059  37.738  26.963  1.00  0.00    -0.744 OA
ENDBRANCH  87  91
ENDBRANCH  61  84
ENDBRANCH  35  36
ENDBRANCH  28  30
ENDBRANCH  27  28
ENDBRANCH  26  27
ENDBRANCH  25  26
ENDBRANCH   1  25
TORSDOF 20
ENDMDL
MODEL 2
REMARK VINA RESULT:     -11.5      3.062      4.819
REMARK SMILES Cc1ccc(Nc2c(F)cccc2Cl)c(CC(=O)OCCOCCOC(=O)c2ccc(-c3c4nc(c(-c5cc(S(=O)(=O)[O-])ccc5F)c5ccc([nH]5)c(-c5cc(S(=O)(=O)[O-])ccc5F)c5nc(c(-c6cc(S(=O)(=O)[O-])ccc6F)c6ccc3[nH]6)C=C5)C=C4)cc2)c1
REMARK SMILES IDX 22 1 21 2 20 3 19 4 17 5 18 6 16 7 15 8 1 9 2 10 3 11 91 12
REMARK SMILES IDX 4 13 5 14 6 15 7 17 8 18 13 19 9 20 10 21 12 22 14 23 11 24
REMARK SMILES IDX 23 25 24 26 25 27 26 28 27 29 28 30 29 31 90 32 30 33 89 34
REMARK SMILES IDX 31 35 32 36 33 37 83 38 34 39 88 40 82 41 84 42 35 43 87 44
REMARK SMILES IDX 81 45 80 46 36 48 68 49 48 50 67 51 49 52 52 53 66 54 85 55
REMARK SMILES IDX 50 56 51 57 65 59 86 60 53 61 37 62 38 63 46 64 39 65 45 66
REMARK SMILES IDX 47 67 44 68 40 69 41 70 42 71 43 72 69 73 70 74 78 75 71 76
REMARK SMILES IDX 77 77 79 78 76 79 72 80 73 81 74 82 75 83 54 84 55 85 63 86
REMARK SMILES IDX 56 87 62 88 64 89 61 90 57 91 58 92 59 93 60 94
REMARK H PARENT 6 16 84 47 52 58
REMARK Flexibility Score: inf
ROOT
ATOM      1  O   UNL A   1      40.719  19.405  25.754  1.00  0.00    -0.374 OA
ENDROOT
BRANCH   1   2
ATOM      2  C   UNL A   1      39.876  20.478  26.140  1.00  0.00     0.202 C 
BRANCH   2   3
ATOM      3  C   UNL A   1      38.625  20.436  25.283  1.00  0.00     0.261 C 
BRANCH   3   4
ATOM      4  O   UNL A   1      37.644  21.375  25.686  1.00  0.00    -0.463 OA
BRANCH   4   5
ATOM      5  C   UNL A   1      36.892  22.001  24.736  1.00  0.00     0.310 C 
ATOM      6  O   UNL A   1      37.089  22.034  23.531  1.00  0.00    -0.252 OA
BRANCH   5   7
ATOM      7  C   UNL A   1      35.722  22.702  25.405  1.00  0.00     0.160 C 
BRANCH   7   8
ATOM      8  C   UNL A   1      34.429  21.981  25.058  1.00  0.00    -0.013 A 
ATOM      9  C   UNL A   1      33.795  18.236  24.589  1.00  0.00     0.044 C 
ATOM     10  C   UNL A   1      33.589  19.723  24.579  1.00  0.00    -0.051 A 
ATOM     11  C   UNL A   1      32.595  20.293  23.794  1.00  0.00     0.005 A 
ATOM     12  C   UNL A   1      34.450  20.574  25.269  1.00  0.00     0.009 A 
ATOM     13  C   UNL A   1      32.518  21.683  23.643  1.00  0.00     0.026 A 
ATOM     14  C   UNL A   1      33.449  22.563  24.228  1.00  0.00     0.042 A 
BRANCH  14  15
ATOM     15  N   UNL A   1      33.436  23.959  23.933  1.00  0.00    -0.352 N 
ATOM     16  H   UNL A   1      34.016  24.250  23.192  1.00  0.00     0.167 HD
BRANCH  15  17
ATOM     17  C   UNL A   1      32.687  24.984  24.576  1.00  0.00     0.094 A 
ATOM     18  C   UNL A   1      33.283  25.839  25.514  1.00  0.00     0.148 A 
ATOM     19  C   UNL A   1      31.288  25.075  24.453  1.00  0.00     0.067 A 
ATOM     20  F   UNL A   1      34.621  25.938  25.581  1.00  0.00    -0.205 F 
ATOM     21  C   UNL A   1      32.536  26.590  26.418  1.00  0.00     0.041 A 
ATOM     22  C   UNL A   1      30.523  25.778  25.397  1.00  0.00     0.023 A 
ATOM     23  Cl  UNL A   1      30.448  24.403  23.101  1.00  0.00    -0.082 Cl
ATOM     24  C   UNL A   1      31.150  26.510  26.402  1.00  0.00     0.005 A 
ENDBRANCH  15  17
ENDBRANCH  14  15
ENDBRANCH   7   8
ENDBRANCH   5   7
ENDBRANCH   4   5
ENDBRANCH   3   4
ENDBRANCH   2   3
ENDBRANCH   1   2
BRANCH   1  25
ATOM     25  C   UNL A   1      41.822  19.196  26.607  1.00  0.00     0.202 C 
BRANCH  25  26
ATOM     26  C   UNL A   1      43.099  19.052  25.784  1.00  0.00     0.261 C 
BRANCH  26  27
ATOM     27  O   UNL A   1      43.284  20.163  24.873  1.00  0.00    -0.460 OA
BRANCH  27  28
ATOM     28  C   UNL A   1      44.188  21.092  25.290  1.00  0.00     0.338 C 
ATOM     29  O   UNL A   1      45.374  20.858  25.499  1.00  0.00    -0.246 OA
BRANCH  28  30
ATOM     30  C   UNL A   1      43.553  22.422  25.467  1.00  0.00     0.060 A 
ATOM     31  C   UNL A   1      43.947  23.489  24.641  1.00  0.00     0.016 A 
ATOM     32  C   UNL A   1      42.808  22.655  26.622  1.00  0.00     0.016 A 
ATOM     33  C   UNL A   1      43.769  24.804  25.080  1.00  0.00     0.010 A 
ATOM     34  C   UNL A   1      42.755  23.943  27.106  1.00  0.00     0.010 A 
ATOM     35  C   UNL A   1      43.269  25.018  26.361  1.00  0.00    -0.014 A 
BRANCH  35  36
ATOM     36  C   UNL A   1      43.344  26.280  27.097  1.00  0.00     0.031 A 
ATOM     37  C   UNL A   1      42.136  27.113  27.217  1.00  0.00     0.074 A 
ATOM     38  C   UNL A   1      44.402  26.530  27.902  1.00  0.00     0.049 A 
ATOM     39  N   UNL A   1      42.121  28.251  27.807  1.00  0.00    -0.248 NA
ATOM     40  C   UNL A   1      40.844  26.772  26.625  1.00  0.00     0.031 C 
ATOM     41  C   UNL A   1      44.455  27.342  29.122  1.00  0.00     0.029 A 
ATOM     42  N   UNL A   1      45.705  26.095  27.766  1.00  0.00    -0.354 N 
ATOM     43  C   UNL A   1      40.812  28.591  28.015  1.00  0.00     0.074 A 
ATOM     44  C   UNL A   1      40.064  27.732  27.134  1.00  0.00     0.031 C 
ATOM     45  C   UNL A   1      45.737  27.521  29.486  1.00  0.00     0.029 A 
ATOM     46  C   UNL A   1      46.565  26.972  28.428  1.00  0.00     0.049 A 
ATOM     47  H   UNL A   1      45.987  25.288  27.277  1.00  0.00     0.167 HD
ATOM     48  C   UNL A   1      40.540  29.478  29.010  1.00  0.00     0.034 A 
ATOM     49  C   UNL A   1      47.563  27.612  27.755  1.00  0.00     0.034 A 
ATOM     50  C   UNL A   1      41.780  30.104  29.505  1.00  0.00     0.049 A 
ATOM     51  C   UNL A   1      47.168  29.079  27.591  1.00  0.00     0.074 A 
ATOM     52  C   UNL A   1      42.513  30.067  30.677  1.00  0.00     0.029 A 
ATOM     53  N   UNL A   1      42.606  30.719  28.574  1.00  0.00    -0.354 N 
ATOM     54  N   UNL A   1      46.064  29.580  28.088  1.00  0.00    -0.248 NA
ATOM     55  C   UNL A   1      47.923  30.089  26.860  1.00  0.00     0.031 C 
ATOM     56  C   UNL A   1      43.819  30.596  30.395  1.00  0.00     0.029 A 
ATOM     57  C   UNL A   1      43.859  31.005  29.072  1.00  0.00     0.049 A 
ATOM     58  H   UNL A   1      42.327  30.930  27.653  1.00  0.00     0.167 HD
ATOM     59  C   UNL A   1      45.919  30.892  27.763  1.00  0.00     0.074 A 
ATOM     60  C   UNL A   1      47.102  31.156  26.948  1.00  0.00     0.031 C 
ATOM     61  C   UNL A   1      44.843  31.633  28.186  1.00  0.00     0.034 A 
BRANCH  48  62
ATOM     62  C   UNL A   1      39.181  29.710  29.628  1.00  0.00     0.023 A 
ATOM     63  C   UNL A   1      38.656  31.017  29.602  1.00  0.00     0.031 A 
ATOM     64  C   UNL A   1      38.402  28.761  30.328  1.00  0.00     0.131 A 
ATOM     65  C   UNL A   1      37.440  31.332  30.236  1.00  0.00     0.055 A 
ATOM     66  C   UNL A   1      37.163  29.065  30.910  1.00  0.00     0.041 A 
ATOM     67  F   UNL A   1      38.810  27.506  30.545  1.00  0.00    -0.206 F 
ATOM     68  C   UNL A   1      36.678  30.359  30.873  1.00  0.00     0.022 A 
BRANCH  65  69
ATOM     69  S   UNL A   1      36.894  33.059  30.263  1.00  0.00     0.124 S 
ATOM     70  O   UNL A   1      37.348  33.544  28.964  1.00  0.00    -0.237 OA
ATOM     71  O   UNL A   1      35.452  32.925  30.439  1.00  0.00    -0.237 OA
ATOM     72  O   UNL A   1      37.605  33.620  31.412  1.00  0.00    -0.744 OA
ENDBRANCH  65  69
ENDBRANCH  48  62
BRANCH  49  73
ATOM     73  C   UNL A   1      48.217  26.662  26.787  1.00  0.00     0.023 A 
ATOM     74  C   UNL A   1      47.920  26.889  25.411  1.00  0.00     0.031 A 
ATOM     75  C   UNL A   1      49.453  26.065  27.087  1.00  0.00     0.131 A 
ATOM     76  C   UNL A   1      48.909  26.720  24.424  1.00  0.00     0.055 A 
ATOM     77  C   UNL A   1      50.428  25.879  26.091  1.00  0.00     0.041 A 
ATOM     78  F   UNL A   1      49.826  25.879  28.361  1.00  0.00    -0.206 F 
ATOM     79  C   UNL A   1      50.180  26.257  24.769  1.00  0.00     0.022 A 
BRANCH  76  80
ATOM     80  S   UNL A   1      48.625  27.382  22.741  1.00  0.00     0.124 S 
ATOM     81  O   UNL A   1      49.792  28.233  22.547  1.00  0.00    -0.237 OA
ATOM     82  O   UNL A   1      48.575  26.176  21.921  1.00  0.00    -0.237 OA
ATOM     83  O   UNL A   1      47.348  28.080  22.866  1.00  0.00    -0.744 OA
ENDBRANCH  76  80
ENDBRANCH  49  73
BRANCH  61  84
ATOM     84  C   UNL A   1      44.626  33.056  27.746  1.00  0.00     0.023 A 
ATOM     85  C   UNL A   1      44.909  34.118  28.606  1.00  0.00     0.031 A 
ATOM     86  C   UNL A   1      44.147  33.406  26.462  1.00  0.00     0.131 A 
ATOM     87  C   UNL A   1      44.920  35.434  28.129  1.00  0.00     0.055 A 
ATOM     88  C   UNL A   1      44.019  34.729  26.037  1.00  0.00     0.041 A 
ATOM     89  F   UNL A   1      43.841  32.490  25.534  1.00  0.00    -0.206 F 
ATOM     90  C   UNL A   1      44.452  35.755  26.858  1.00  0.00     0.022 A 
BRANCH  87  91
ATOM     91  S   UNL A   1      45.740  36.677  29.150  1.00  0.00     0.124 S 
ATOM     92  O   UNL A   1      46.278  35.886  30.252  1.00  0.00    -0.237 OA
ATOM     93  O   UNL A   1      46.730  37.211  28.216  1.00  0.00    -0.237 OA
ATOM     94  O   UNL A   1      44.662  37.596  29.505  1.00  0.00    -0.744 OA
ENDBRANCH  87  91
ENDBRANCH  61  84
ENDBRANCH  35  36
ENDBRANCH  28  30
ENDBRANCH  27  28
ENDBRANCH  26  27
ENDBRANCH  25  26
ENDBRANCH   1  25
TORSDOF 20
ENDMDL
MODEL 3
REMARK VINA RESULT:     -11.3      3.943      9.480
REMARK SMILES Cc1ccc(Nc2c(F)cccc2Cl)c(CC(=O)OCCOCCOC(=O)c2ccc(-c3c4nc(c(-c5cc(S(=O)(=O)[O-])ccc5F)c5ccc([nH]5)c(-c5cc(S(=O)(=O)[O-])ccc5F)c5nc(c(-c6cc(S(=O)(=O)[O-])ccc6F)c6ccc3[nH]6)C=C5)C=C4)cc2)c1
REMARK SMILES IDX 22 1 21 2 20 3 19 4 17 5 18 6 16 7 15 8 1 9 2 10 3 11 91 12
REMARK SMILES IDX 4 13 5 14 6 15 7 17 8 18 13 19 9 20 10 21 12 22 14 23 11 24
REMARK SMILES IDX 23 25 24 26 25 27 26 28 27 29 28 30 29 31 90 32 30 33 89 34
REMARK SMILES IDX 31 35 32 36 33 37 83 38 34 39 88 40 82 41 84 42 35 43 87 44
REMARK SMILES IDX 81 45 80 46 36 48 68 49 48 50 67 51 49 52 52 53 66 54 85 55
REMARK SMILES IDX 50 56 51 57 65 59 86 60 53 61 37 62 38 63 46 64 39 65 45 66
REMARK SMILES IDX 47 67 44 68 40 69 41 70 42 71 43 72 69 73 70 74 78 75 71 76
REMARK SMILES IDX 77 77 79 78 76 79 72 80 73 81 74 82 75 83 54 84 55 85 63 86
REMARK SMILES IDX 56 87 62 88 64 89 61 90 57 91 58 92 59 93 60 94
REMARK H PARENT 6 16 84 47 52 58
REMARK Flexibility Score: inf
ROOT
ATOM      1  O   UNL A   1      34.088  29.694  26.021  1.00  0.00    -0.374 OA
ENDROOT
BRANCH   1   2
ATOM      2  C   UNL A   1      34.012  28.373  25.509  1.00  0.00     0.202 C 
BRANCH   2   3
ATOM      3  C   UNL A   1      32.975  28.347  24.403  1.00  0.00     0.261 C 
BRANCH   3   4
ATOM      4  O   UNL A   1      32.996  27.146  23.650  1.00  0.00    -0.463 OA
BRANCH   4   5
ATOM      5  C   UNL A   1      33.481  27.169  22.376  1.00  0.00     0.310 C 
ATOM      6  O   UNL A   1      34.058  28.086  21.812  1.00  0.00    -0.252 OA
BRANCH   5   7
ATOM      7  C   UNL A   1      33.183  25.838  21.704  1.00  0.00     0.160 C 
BRANCH   7   8
ATOM      8  C   UNL A   1      32.132  25.087  22.505  1.00  0.00    -0.013 A 
ATOM      9  C   UNL A   1      28.900  26.393  24.084  1.00  0.00     0.044 C 
ATOM     10  C   UNL A   1      30.048  25.489  23.741  1.00  0.00    -0.051 A 
ATOM     11  C   UNL A   1      30.348  24.395  24.542  1.00  0.00     0.005 A 
ATOM     12  C   UNL A   1      30.901  25.779  22.678  1.00  0.00     0.009 A 
ATOM     13  C   UNL A   1      31.520  23.659  24.329  1.00  0.00     0.026 A 
ATOM     14  C   UNL A   1      32.465  24.003  23.342  1.00  0.00     0.042 A 
BRANCH  14  15
ATOM     15  N   UNL A   1      33.718  23.328  23.249  1.00  0.00    -0.352 N 
ATOM     16  H   UNL A   1      34.003  23.069  22.343  1.00  0.00     0.167 HD
BRANCH  15  17
ATOM     17  C   UNL A   1      34.610  22.985  24.303  1.00  0.00     0.094 A 
ATOM     18  C   UNL A   1      35.442  23.947  24.893  1.00  0.00     0.148 A 
ATOM     19  C   UNL A   1      34.843  21.649  24.679  1.00  0.00     0.067 A 
ATOM     20  F   UNL A   1      35.187  25.255  24.722  1.00  0.00    -0.205 F 
ATOM     21  C   UNL A   1      36.563  23.603  25.646  1.00  0.00     0.041 A 
ATOM     22  C   UNL A   1      36.001  21.286  25.383  1.00  0.00     0.023 A 
ATOM     23  Cl  UNL A   1      33.686  20.402  24.370  1.00  0.00    -0.082 Cl
ATOM     24  C   UNL A   1      36.880  22.265  25.838  1.00  0.00     0.005 A 
ENDBRANCH  15  17
ENDBRANCH  14  15
ENDBRANCH   7   8
ENDBRANCH   5   7
ENDBRANCH   4   5
ENDBRANCH   3   4
ENDBRANCH   2   3
ENDBRANCH   1   2
BRANCH   1  25
ATOM     25  C   UNL A   1      32.981  30.078  26.805  1.00  0.00     0.202 C 
BRANCH  25  26
ATOM     26  C   UNL A   1      33.238  31.442  27.440  1.00  0.00     0.261 C 
BRANCH  26  27
ATOM     27  O   UNL A   1      34.654  31.712  27.585  1.00  0.00    -0.460 OA
BRANCH  27  28
ATOM     28  C   UNL A   1      35.147  31.489  28.834  1.00  0.00     0.338 C 
ATOM     29  O   UNL A   1      34.865  32.162  29.820  1.00  0.00    -0.246 OA
BRANCH  28  30
ATOM     30  C   UNL A   1      36.075  30.330  28.848  1.00  0.00     0.060 A 
ATOM     31  C   UNL A   1      36.345  29.678  30.064  1.00  0.00     0.016 A 
ATOM     32  C   UNL A   1      36.875  30.106  27.729  1.00  0.00     0.016 A 
ATOM     33  C   UNL A   1      37.533  28.958  30.213  1.00  0.00     0.010 A 
ATOM     34  C   UNL A   1      38.101  29.509  27.921  1.00  0.00     0.010 A 
ATOM     35  C   UNL A   1      38.455  28.968  29.170  1.00  0.00    -0.014 A 
BRANCH  35  36
ATOM     36  C   UNL A   1      39.860  28.576  29.280  1.00  0.00     0.031 A 
ATOM     37  C   UNL A   1      40.248  27.198  28.937  1.00  0.00     0.074 A 
ATOM     38  C   UNL A   1      40.818  29.523  29.396  1.00  0.00     0.049 A 
ATOM     39  N   UNL A   1      41.447  26.756  29.043  1.00  0.00    -0.248 NA
ATOM     40  C   UNL A   1      39.308  26.166  28.502  1.00  0.00     0.031 C 
ATOM     41  C   UNL A   1      42.212  29.478  28.944  1.00  0.00     0.029 A 
ATOM     42  N   UNL A   1      40.727  30.768  29.987  1.00  0.00    -0.354 N 
ATOM     43  C   UNL A   1      41.515  25.576  28.354  1.00  0.00     0.074 A 
ATOM     44  C   UNL A   1      40.145  25.176  28.174  1.00  0.00     0.031 C 
ATOM     45  C   UNL A   1      42.885  30.524  29.457  1.00  0.00     0.029 A 
ATOM     46  C   UNL A   1      41.994  31.190  30.390  1.00  0.00     0.049 A 
ATOM     47  H   UNL A   1      39.895  31.280  30.106  1.00  0.00     0.167 HD
ATOM     48  C   UNL A   1      42.739  25.168  27.922  1.00  0.00     0.034 A 
ATOM     49  C   UNL A   1      42.249  31.483  31.697  1.00  0.00     0.034 A 
ATOM     50  C   UNL A   1      43.807  25.983  28.529  1.00  0.00     0.049 A 
ATOM     51  C   UNL A   1      43.099  30.357  32.285  1.00  0.00     0.074 A 
ATOM     52  C   UNL A   1      44.723  26.916  28.079  1.00  0.00     0.029 A 
ATOM     53  N   UNL A   1      43.834  26.079  29.914  1.00  0.00    -0.354 N 
ATOM     54  N   UNL A   1      43.522  29.339  31.577  1.00  0.00    -0.248 NA
ATOM     55  C   UNL A   1      43.524  30.246  33.675  1.00  0.00     0.031 C 
ATOM     56  C   UNL A   1      45.228  27.623  29.223  1.00  0.00     0.029 A 
ATOM     57  C   UNL A   1      44.664  27.082  30.368  1.00  0.00     0.049 A 
ATOM     58  H   UNL A   1      43.316  25.492  30.511  1.00  0.00     0.167 HD
ATOM     59  C   UNL A   1      44.214  28.453  32.339  1.00  0.00     0.074 A 
ATOM     60  C   UNL A   1      44.152  29.052  33.670  1.00  0.00     0.031 C 
ATOM     61  C   UNL A   1      44.767  27.312  31.811  1.00  0.00     0.034 A 
BRANCH  48  62
ATOM     62  C   UNL A   1      42.987  24.115  26.867  1.00  0.00     0.023 A 
ATOM     63  C   UNL A   1      42.311  22.885  26.987  1.00  0.00     0.031 A 
ATOM     64  C   UNL A   1      43.913  24.192  25.802  1.00  0.00     0.131 A 
ATOM     65  C   UNL A   1      42.557  21.822  26.097  1.00  0.00     0.055 A 
ATOM     66  C   UNL A   1      44.115  23.153  24.883  1.00  0.00     0.041 A 
ATOM     67  F   UNL A   1      44.719  25.244  25.616  1.00  0.00    -0.206 F 
ATOM     68  C   UNL A   1      43.440  21.955  25.032  1.00  0.00     0.022 A 
BRANCH  65  69
ATOM     69  S   UNL A   1      41.739  20.234  26.391  1.00  0.00     0.124 S 
ATOM     70  O   UNL A   1      42.221  19.883  27.723  1.00  0.00    -0.237 OA
ATOM     71  O   UNL A   1      40.328  20.587  26.283  1.00  0.00    -0.237 OA
ATOM     72  O   UNL A   1      42.247  19.387  25.311  1.00  0.00    -0.744 OA
ENDBRANCH  65  69
ENDBRANCH  48  62
BRANCH  49  73
ATOM     73  C   UNL A   1      41.089  32.242  32.286  1.00  0.00     0.023 A 
ATOM     74  C   UNL A   1      40.157  31.457  33.025  1.00  0.00     0.031 A 
ATOM     75  C   UNL A   1      41.222  33.592  32.650  1.00  0.00     0.131 A 
ATOM     76  C   UNL A   1      39.560  31.960  34.196  1.00  0.00     0.055 A 
ATOM     77  C   UNL A   1      40.606  34.093  33.810  1.00  0.00     0.041 A 
ATOM     78  F   UNL A   1      42.125  34.374  32.042  1.00  0.00    -0.206 F 
ATOM     79  C   UNL A   1      39.819  33.266  34.616  1.00  0.00     0.022 A 
BRANCH  76  80
ATOM     80  S   UNL A   1      38.683  30.816  35.324  1.00  0.00     0.124 S 
ATOM     81  O   UNL A   1      39.740  30.431  36.251  1.00  0.00    -0.237 OA
ATOM     82  O   UNL A   1      37.624  31.653  35.878  1.00  0.00    -0.237 OA
ATOM     83  O   UNL A   1      38.212  29.759  34.431  1.00  0.00    -0.744 OA
ENDBRANCH  76  80
ENDBRANCH  49  73
BRANCH  61  84
ATOM     84  C   UNL A   1      45.447  26.278  32.668  1.00  0.00     0.023 A 
ATOM     85  C   UNL A   1      44.715  25.509  33.574  1.00  0.00     0.031 A 
ATOM     86  C   UNL A   1      46.836  26.013  32.607  1.00  0.00     0.131 A 
ATOM     87  C   UNL A   1      45.301  24.406  34.205  1.00  0.00     0.055 A 
ATOM     88  C   UNL A   1      47.446  25.003  33.352  1.00  0.00     0.041 A 
ATOM     89  F   UNL A   1      47.658  26.670  31.780  1.00  0.00    -0.206 F 
ATOM     90  C   UNL A   1      46.668  24.159  34.125  1.00  0.00     0.022 A 
BRANCH  87  91
ATOM     91  S   UNL A   1      44.192  23.206  34.973  1.00  0.00     0.124 S 
ATOM     92  O   UNL A   1      42.871  23.757  34.683  1.00  0.00    -0.237 OA
ATOM     93  O   UNL A   1      44.538  21.986  34.247  1.00  0.00    -0.237 OA
ATOM     94  O   UNL A   1      44.584  23.226  36.380  1.00  0.00    -0.744 OA
ENDBRANCH  87  91
ENDBRANCH  61  84
ENDBRANCH  35  36
ENDBRANCH  28  30
ENDBRANCH  27  28
ENDBRANCH  26  27
ENDBRANCH  25  26
ENDBRANCH   1  25
TORSDOF 20
ENDMDL
