MODEL 1
REMARK VINA RESULT:     -10.0      0.000      0.000
REMARK SMILES O=C(Cc1ccccc1)Nc1ccc(C(=O)NCc2ccc(C(=O)OCCOCCOC(=O)c3ccc(-c4c5nc(c(-c6cc(S(=O)(=O)[O-])ccc6F)c6ccc([nH]6)c(-c6cc(S(=O)(=O)[O-])ccc6F)c6nc(c(-c7cc(S(=O)(=O)[O-])ccc7F)c7ccc4[nH]7)C=C6)C=C5)cc3)cc2)cc1
REMARK SMILES IDX 26 1 25 2 23 3 24 4 22 5 19 6 20 7 98 8 21 9 97 10 18 11
REMARK SMILES IDX 17 12 15 13 16 14 14 16 11 17 12 18 100 19 13 20 99 21 10 22
REMARK SMILES IDX 1 23 2 24 3 26 4 27 5 28 9 29 6 30 8 31 7 32 27 33 28 34
REMARK SMILES IDX 29 35 30 36 31 37 32 38 33 39 34 40 35 41 96 42 36 43 95 44
REMARK SMILES IDX 37 45 38 46 39 47 89 48 40 49 94 50 88 51 90 52 41 53 93 54
REMARK SMILES IDX 87 55 86 56 42 58 74 59 54 60 73 61 55 62 58 63 72 64 91 65
REMARK SMILES IDX 56 66 57 67 71 69 92 70 59 71 43 72 44 73 52 74 45 75 51 76
REMARK SMILES IDX 53 77 50 78 46 79 47 80 48 81 49 82 75 83 76 84 84 85 77 86
REMARK SMILES IDX 83 87 85 88 82 89 78 90 79 91 80 92 81 93 60 94 61 95 69 96
REMARK SMILES IDX 62 97 68 98 70 99 67 100 63 101 64 102 65 103 66 104
REMARK H PARENT 17 15 10 25 90 57 58 68
REMARK Flexibility Score: inf
ROOT
ATOM      1  C   UNL A   1      37.567  22.819  25.444  1.00  0.00     0.261 C 
ENDROOT
BRANCH   1   2
ATOM      2  O   UNL A   1      36.230  22.407  25.118  1.00  0.00    -0.460 OA
BRANCH   2   3
ATOM      3  C   UNL A   1      35.640  23.125  24.134  1.00  0.00     0.338 C 
ATOM      4  O   UNL A   1      36.032  23.253  22.981  1.00  0.00    -0.246 OA
BRANCH   3   5
ATOM      5  C   UNL A   1      34.320  23.629  24.576  1.00  0.00     0.060 A 
ATOM      6  C   UNL A   1      31.754  24.587  25.247  1.00  0.00    -0.029 A 
ATOM      7  C   UNL A   1      32.017  24.077  23.967  1.00  0.00     0.006 A 
ATOM      8  C   UNL A   1      32.794  24.584  26.194  1.00  0.00     0.006 A 
ATOM      9  C   UNL A   1      33.284  23.601  23.636  1.00  0.00     0.016 A 
ATOM     10  C   UNL A   1      34.071  24.105  25.865  1.00  0.00     0.016 A 
BRANCH   6  11
ATOM     11  C   UNL A   1      30.392  25.185  25.518  1.00  0.00     0.152 C 
BRANCH  11  12
ATOM     12  N   UNL A   1      30.126  26.381  24.756  1.00  0.00    -0.348 N 
ATOM     13  C   UNL A   1      30.765  27.579  24.614  1.00  0.00     0.251 C 
ATOM     14  O   UNL A   1      30.330  28.322  23.730  1.00  0.00    -0.269 OA
ATOM     15  H   UNL A   1      29.302  26.319  24.220  1.00  0.00     0.164 HD
BRANCH  13  16
ATOM     16  C   UNL A   1      31.923  28.046  25.437  1.00  0.00     0.039 A 
ATOM     17  C   UNL A   1      33.950  28.914  27.202  1.00  0.00     0.041 A 
ATOM     18  C   UNL A   1      32.634  28.814  27.646  1.00  0.00     0.027 A 
ATOM     19  C   UNL A   1      34.262  28.557  25.896  1.00  0.00     0.027 A 
ATOM     20  C   UNL A   1      31.628  28.420  26.761  1.00  0.00     0.016 A 
ATOM     21  C   UNL A   1      33.261  28.088  25.034  1.00  0.00     0.016 A 
BRANCH  17  22
ATOM     22  N   UNL A   1      34.922  29.329  28.121  1.00  0.00    -0.326 N 
ATOM     23  O   UNL A   1      35.122  31.560  27.517  1.00  0.00    -0.274 OA
ATOM     24  C   UNL A   1      35.447  30.605  28.219  1.00  0.00     0.228 C 
ATOM     25  H   UNL A   1      35.261  28.653  28.752  1.00  0.00     0.169 HD
BRANCH  24  26
ATOM     26  C   UNL A   1      36.498  30.741  29.311  1.00  0.00     0.135 C 
BRANCH  26  27
ATOM     27  C   UNL A   1      37.480  29.591  29.447  1.00  0.00    -0.039 A 
ATOM     28  C   UNL A   1      37.719  28.935  30.665  1.00  0.00     0.004 A 
ATOM     29  C   UNL A   1      38.104  29.080  28.297  1.00  0.00     0.004 A 
ATOM     30  C   UNL A   1      38.556  27.819  30.736  1.00  0.00     0.000 A 
ATOM     31  C   UNL A   1      38.935  27.958  28.366  1.00  0.00     0.000 A 
ATOM     32  C   UNL A   1      39.160  27.327  29.586  1.00  0.00     0.000 A 
ENDBRANCH  26  27
ENDBRANCH  24  26
ENDBRANCH  17  22
ENDBRANCH  13  16
ENDBRANCH  11  12
ENDBRANCH   6  11
ENDBRANCH   3   5
ENDBRANCH   2   3
ENDBRANCH   1   2
BRANCH   1  33
ATOM     33  C   UNL A   1      38.512  21.619  25.579  1.00  0.00     0.202 C 
BRANCH  33  34
ATOM     34  O   UNL A   1      39.707  21.830  26.332  1.00  0.00    -0.374 OA
BRANCH  34  35
ATOM     35  C   UNL A   1      40.541  20.693  26.560  1.00  0.00     0.202 C 
BRANCH  35  36
ATOM     36  C   UNL A   1      41.895  20.662  25.839  1.00  0.00     0.261 C 
BRANCH  36  37
ATOM     37  O   UNL A   1      42.863  21.529  26.457  1.00  0.00    -0.460 OA
BRANCH  37  38
ATOM     38  C   UNL A   1      43.048  22.714  25.826  1.00  0.00     0.338 C 
ATOM     39  O   UNL A   1      43.076  22.904  24.616  1.00  0.00    -0.246 OA
BRANCH  38  40
ATOM     40  C   UNL A   1      43.019  23.817  26.804  1.00  0.00     0.060 A 
ATOM     41  C   UNL A   1      44.204  24.539  27.002  1.00  0.00     0.016 A 
ATOM     42  C   UNL A   1      41.878  24.109  27.553  1.00  0.00     0.016 A 
ATOM     43  C   UNL A   1      44.267  25.523  27.987  1.00  0.00     0.010 A 
ATOM     44  C   UNL A   1      41.945  25.093  28.546  1.00  0.00     0.010 A 
ATOM     45  C   UNL A   1      43.149  25.781  28.791  1.00  0.00    -0.014 A 
BRANCH  45  46
ATOM     46  C   UNL A   1      43.287  26.660  29.979  1.00  0.00     0.031 A 
ATOM     47  C   UNL A   1      43.894  26.094  31.235  1.00  0.00     0.074 A 
ATOM     48  C   UNL A   1      42.906  27.949  29.932  1.00  0.00     0.049 A 
ATOM     49  N   UNL A   1      44.081  26.662  32.397  1.00  0.00    -0.248 NA
ATOM     50  C   UNL A   1      44.347  24.697  31.165  1.00  0.00     0.031 C 
ATOM     51  C   UNL A   1      42.354  28.621  28.757  1.00  0.00     0.029 A 
ATOM     52  N   UNL A   1      42.925  28.922  30.898  1.00  0.00    -0.354 N 
ATOM     53  C   UNL A   1      44.666  25.690  33.204  1.00  0.00     0.074 A 
ATOM     54  C   UNL A   1      44.764  24.487  32.404  1.00  0.00     0.031 C 
ATOM     55  C   UNL A   1      42.086  29.900  29.073  1.00  0.00     0.029 A 
ATOM     56  C   UNL A   1      42.407  30.125  30.481  1.00  0.00     0.049 A 
ATOM     57  H   UNL A   1      43.276  28.772  31.806  1.00  0.00     0.167 HD
ATOM     58  C   UNL A   1      45.091  25.796  34.488  1.00  0.00     0.034 A 
ATOM     59  C   UNL A   1      42.195  31.268  31.165  1.00  0.00     0.034 A 
ATOM     60  C   UNL A   1      44.975  27.001  35.274  1.00  0.00     0.049 A 
ATOM     61  C   UNL A   1      42.581  31.331  32.623  1.00  0.00     0.074 A 
ATOM     62  C   UNL A   1      45.391  27.226  36.574  1.00  0.00     0.029 A 
ATOM     63  N   UNL A   1      44.385  28.182  34.837  1.00  0.00    -0.354 N 
ATOM     64  N   UNL A   1      43.145  30.411  33.372  1.00  0.00    -0.248 NA
ATOM     65  C   UNL A   1      42.306  32.591  33.327  1.00  0.00     0.031 C 
ATOM     66  C   UNL A   1      44.981  28.511  36.951  1.00  0.00     0.029 A 
ATOM     67  C   UNL A   1      44.387  29.123  35.858  1.00  0.00     0.049 A 
ATOM     68  H   UNL A   1      44.019  28.329  33.936  1.00  0.00     0.167 HD
ATOM     69  C   UNL A   1      43.325  30.996  34.624  1.00  0.00     0.074 A 
ATOM     70  C   UNL A   1      42.818  32.349  34.524  1.00  0.00     0.031 C 
ATOM     71  C   UNL A   1      43.867  30.466  35.750  1.00  0.00     0.034 A 
BRANCH  58  72
ATOM     72  C   UNL A   1      45.661  24.553  35.132  1.00  0.00     0.023 A 
ATOM     73  C   UNL A   1      47.042  24.289  35.143  1.00  0.00     0.031 A 
ATOM     74  C   UNL A   1      44.805  23.597  35.707  1.00  0.00     0.131 A 
ATOM     75  C   UNL A   1      47.517  23.065  35.641  1.00  0.00     0.055 A 
ATOM     76  C   UNL A   1      45.292  22.420  36.278  1.00  0.00     0.041 A 
ATOM     77  F   UNL A   1      43.475  23.782  35.706  1.00  0.00    -0.206 F 
ATOM     78  C   UNL A   1      46.653  22.140  36.231  1.00  0.00     0.022 A 
BRANCH  75  79
ATOM     79  S   UNL A   1      49.255  22.631  35.358  1.00  0.00     0.124 S 
ATOM     80  O   UNL A   1      49.599  21.956  36.608  1.00  0.00    -0.237 OA
ATOM     81  O   UNL A   1      49.180  21.784  34.174  1.00  0.00    -0.237 OA
ATOM     82  O   UNL A   1      49.903  23.926  35.160  1.00  0.00    -0.744 OA
ENDBRANCH  75  79
ENDBRANCH  58  72
BRANCH  59  83
ATOM     83  C   UNL A   1      41.561  32.442  30.499  1.00  0.00     0.023 A 
ATOM     84  C   UNL A   1      42.338  33.416  29.852  1.00  0.00     0.031 A 
ATOM     85  C   UNL A   1      40.168  32.638  30.550  1.00  0.00     0.131 A 
ATOM     86  C   UNL A   1      41.725  34.563  29.323  1.00  0.00     0.055 A 
ATOM     87  C   UNL A   1      39.558  33.753  29.973  1.00  0.00     0.041 A 
ATOM     88  F   UNL A   1      39.377  31.740  31.159  1.00  0.00    -0.206 F 
ATOM     89  C   UNL A   1      40.340  34.731  29.367  1.00  0.00     0.022 A 
BRANCH  86  90
ATOM     90  S   UNL A   1      42.779  35.877  28.650  1.00  0.00     0.124 S 
ATOM     91  O   UNL A   1      41.822  36.963  28.473  1.00  0.00    -0.237 OA
ATOM     92  O   UNL A   1      43.762  36.052  29.715  1.00  0.00    -0.237 OA
ATOM     93  O   UNL A   1      43.299  35.295  27.414  1.00  0.00    -0.744 OA
ENDBRANCH  86  90
ENDBRANCH  59  83
BRANCH  71  94
ATOM     94  C   UNL A   1      43.986  31.376  36.951  1.00  0.00     0.023 A 
ATOM     95  C   UNL A   1      42.952  31.500  37.896  1.00  0.00     0.031 A 
ATOM     96  C   UNL A   1      45.150  32.142  37.143  1.00  0.00     0.131 A 
ATOM     97  C   UNL A   1      43.080  32.409  38.958  1.00  0.00     0.055 A 
ATOM     98  C   UNL A   1      45.298  32.997  38.236  1.00  0.00     0.041 A 
ATOM     99  F   UNL A   1      46.169  32.068  36.272  1.00  0.00    -0.206 F 
ATOM    100  C   UNL A   1      44.253  33.145  39.144  1.00  0.00     0.022 A 
BRANCH  97 101
ATOM    101  S   UNL A   1      41.652  32.691  40.042  1.00  0.00     0.124 S 
ATOM    102  O   UNL A   1      41.934  34.020  40.575  1.00  0.00    -0.237 OA
ATOM    103  O   UNL A   1      40.531  32.602  39.111  1.00  0.00    -0.237 OA
ATOM    104  O   UNL A   1      41.737  31.602  41.014  1.00  0.00    -0.744 OA
ENDBRANCH  97 101
ENDBRANCH  71  94
ENDBRANCH  45  46
ENDBRANCH  38  40
ENDBRANCH  37  38
ENDBRANCH  36  37
ENDBRANCH  35  36
ENDBRANCH  34  35
ENDBRANCH  33  34
ENDBRANCH   1  33
TORSDOF 23
ENDMDL
MODEL 2
REMARK VINA RESULT:      -9.9      5.207      7.909
REMARK SMILES O=C(Cc1ccccc1)Nc1ccc(C(=O)NCc2ccc(C(=O)OCCOCCOC(=O)c3ccc(-c4c5nc(c(-c6cc(S(=O)(=O)[O-])ccc6F)c6ccc([nH]6)c(-c6cc(S(=O)(=O)[O-])ccc6F)c6nc(c(-c7cc(S(=O)(=O)[O-])ccc7F)c7ccc4[nH]7)C=C6)C=C5)cc3)cc2)cc1
REMARK SMILES IDX 26 1 25 2 23 3 24 4 22 5 19 6 20 7 98 8 21 9 97 10 18 11
REMARK SMILES IDX 17 12 15 13 16 14 14 16 11 17 12 18 100 19 13 20 99 21 10 22
REMARK SMILES IDX 1 23 2 24 3 26 4 27 5 28 9 29 6 30 8 31 7 32 27 33 28 34
REMARK SMILES IDX 29 35 30 36 31 37 32 38 33 39 34 40 35 41 96 42 36 43 95 44
REMARK SMILES IDX 37 45 38 46 39 47 89 48 40 49 94 50 88 51 90 52 41 53 93 54
REMARK SMILES IDX 87 55 86 56 42 58 74 59 54 60 73 61 55 62 58 63 72 64 91 65
REMARK SMILES IDX 56 66 57 67 71 69 92 70 59 71 43 72 44 73 52 74 45 75 51 76
REMARK SMILES IDX 53 77 50 78 46 79 47 80 48 81 49 82 75 83 76 84 84 85 77 86
REMARK SMILES IDX 83 87 85 88 82 89 78 90 79 91 80 92 81 93 60 94 61 95 69 96
REMARK SMILES IDX 62 97 68 98 70 99 67 100 63 101 64 102 65 103 66 104
REMARK H PARENT 17 15 10 25 90 57 58 68
REMARK Flexibility Score: inf
ROOT
ATOM      1  C   UNL A   1      37.961  22.519  25.382  1.00  0.00     0.261 C 
ENDROOT
BRANCH   1   2
ATOM      2  O   UNL A   1      37.102  21.873  24.428  1.00  0.00    -0.460 OA
BRANCH   2   3
ATOM      3  C   UNL A   1      36.358  22.717  23.674  1.00  0.00     0.338 C 
ATOM      4  O   UNL A   1      36.561  23.034  22.509  1.00  0.00    -0.246 OA
BRANCH   3   5
ATOM      5  C   UNL A   1      35.122  23.104  24.390  1.00  0.00     0.060 A 
ATOM      6  C   UNL A   1      32.680  23.718  25.659  1.00  0.00    -0.029 A 
ATOM      7  C   UNL A   1      32.807  22.567  24.869  1.00  0.00     0.006 A 
ATOM      8  C   UNL A   1      33.807  24.543  25.825  1.00  0.00     0.006 A 
ATOM      9  C   UNL A   1      34.015  22.262  24.243  1.00  0.00     0.016 A 
ATOM     10  C   UNL A   1      35.025  24.239  25.198  1.00  0.00     0.016 A 
BRANCH   6  11
ATOM     11  C   UNL A   1      31.319  24.054  26.228  1.00  0.00     0.152 C 
BRANCH  11  12
ATOM     12  N   UNL A   1      30.465  24.754  25.300  1.00  0.00    -0.348 N 
ATOM     13  C   UNL A   1      30.331  26.061  24.931  1.00  0.00     0.251 C 
ATOM     14  O   UNL A   1      29.594  26.278  23.966  1.00  0.00    -0.269 OA
ATOM     15  H   UNL A   1      29.840  24.156  24.829  1.00  0.00     0.164 HD
BRANCH  13  16
ATOM     16  C   UNL A   1      30.993  27.223  25.602  1.00  0.00     0.039 A 
ATOM     17  C   UNL A   1      32.192  29.556  26.649  1.00  0.00     0.041 A 
ATOM     18  C   UNL A   1      31.827  29.502  25.306  1.00  0.00     0.027 A 
ATOM     19  C   UNL A   1      31.936  28.467  27.473  1.00  0.00     0.027 A 
ATOM     20  C   UNL A   1      31.268  28.334  24.783  1.00  0.00     0.016 A 
ATOM     21  C   UNL A   1      31.304  27.326  26.961  1.00  0.00     0.016 A 
BRANCH  17  22
ATOM     22  N   UNL A   1      32.764  30.743  27.125  1.00  0.00    -0.326 N 
ATOM     23  O   UNL A   1      34.959  30.047  27.407  1.00  0.00    -0.274 OA
ATOM     24  C   UNL A   1      34.091  30.914  27.476  1.00  0.00     0.228 C 
ATOM     25  H   UNL A   1      32.169  31.522  27.218  1.00  0.00     0.169 HD
BRANCH  24  26
ATOM     26  C   UNL A   1      34.406  32.318  27.972  1.00  0.00     0.135 C 
BRANCH  26  27
ATOM     27  C   UNL A   1      35.574  32.447  28.932  1.00  0.00    -0.039 A 
ATOM     28  C   UNL A   1      35.507  32.037  30.273  1.00  0.00     0.004 A 
ATOM     29  C   UNL A   1      36.815  32.893  28.447  1.00  0.00     0.004 A 
ATOM     30  C   UNL A   1      36.630  32.080  31.103  1.00  0.00     0.000 A 
ATOM     31  C   UNL A   1      37.941  32.928  29.276  1.00  0.00     0.000 A 
ATOM     32  C   UNL A   1      37.848  32.521  30.603  1.00  0.00     0.000 A 
ENDBRANCH  26  27
ENDBRANCH  24  26
ENDBRANCH  17  22
ENDBRANCH  13  16
ENDBRANCH  11  12
ENDBRANCH   6  11
ENDBRANCH   3   5
ENDBRANCH   2   3
ENDBRANCH   1   2
BRANCH   1  33
ATOM     33  C   UNL A   1      38.888  21.515  26.078  1.00  0.00     0.202 C 
BRANCH  33  34
ATOM     34  O   UNL A   1      40.015  22.059  26.766  1.00  0.00    -0.374 OA
BRANCH  34  35
ATOM     35  C   UNL A   1      40.966  21.131  27.292  1.00  0.00     0.202 C 
BRANCH  35  36
ATOM     36  C   UNL A   1      41.596  20.140  26.305  1.00  0.00     0.261 C 
BRANCH  36  37
ATOM     37  O   UNL A   1      43.026  20.064  26.446  1.00  0.00    -0.460 OA
BRANCH  37  38
ATOM     38  C   UNL A   1      43.726  20.487  25.366  1.00  0.00     0.338 C 
ATOM     39  O   UNL A   1      43.833  19.911  24.289  1.00  0.00    -0.246 OA
BRANCH  38  40
ATOM     40  C   UNL A   1      44.203  21.865  25.580  1.00  0.00     0.060 A 
ATOM     41  C   UNL A   1      45.080  22.088  26.651  1.00  0.00     0.016 A 
ATOM     42  C   UNL A   1      43.765  22.930  24.791  1.00  0.00     0.016 A 
ATOM     43  C   UNL A   1      45.482  23.384  26.968  1.00  0.00     0.010 A 
ATOM     44  C   UNL A   1      44.164  24.231  25.114  1.00  0.00     0.010 A 
ATOM     45  C   UNL A   1      44.997  24.468  26.224  1.00  0.00    -0.014 A 
BRANCH  45  46
ATOM     46  C   UNL A   1      45.242  25.853  26.701  1.00  0.00     0.031 A 
ATOM     47  C   UNL A   1      44.090  26.644  27.258  1.00  0.00     0.074 A 
ATOM     48  C   UNL A   1      46.477  26.385  26.667  1.00  0.00     0.049 A 
ATOM     49  N   UNL A   1      44.060  27.875  27.697  1.00  0.00    -0.248 NA
ATOM     50  C   UNL A   1      42.795  25.950  27.321  1.00  0.00     0.031 C 
ATOM     51  C   UNL A   1      47.679  25.697  26.200  1.00  0.00     0.029 A 
ATOM     52  N   UNL A   1      46.922  27.630  27.033  1.00  0.00    -0.354 N 
ATOM     53  C   UNL A   1      42.744  28.109  28.084  1.00  0.00     0.074 A 
ATOM     54  C   UNL A   1      42.001  26.902  27.786  1.00  0.00     0.031 C 
ATOM     55  C   UNL A   1      48.727  26.531  26.307  1.00  0.00     0.029 A 
ATOM     56  C   UNL A   1      48.265  27.823  26.810  1.00  0.00     0.049 A 
ATOM     57  H   UNL A   1      46.336  28.320  27.419  1.00  0.00     0.167 HD
ATOM     58  C   UNL A   1      42.209  29.222  28.643  1.00  0.00     0.034 A 
ATOM     59  C   UNL A   1      49.026  28.924  26.971  1.00  0.00     0.034 A 
ATOM     60  C   UNL A   1      42.963  30.421  28.922  1.00  0.00     0.049 A 
ATOM     61  C   UNL A   1      48.387  30.186  27.499  1.00  0.00     0.074 A 
ATOM     62  C   UNL A   1      42.528  31.598  29.506  1.00  0.00     0.029 A 
ATOM     63  N   UNL A   1      44.308  30.602  28.622  1.00  0.00    -0.354 N 
ATOM     64  N   UNL A   1      47.144  30.393  27.872  1.00  0.00    -0.248 NA
ATOM     65  C   UNL A   1      49.256  31.363  27.632  1.00  0.00     0.031 C 
ATOM     66  C   UNL A   1      43.584  32.516  29.485  1.00  0.00     0.029 A 
ATOM     67  C   UNL A   1      44.706  31.886  28.968  1.00  0.00     0.049 A 
ATOM     68  H   UNL A   1      44.893  29.920  28.222  1.00  0.00     0.167 HD
ATOM     69  C   UNL A   1      47.094  31.712  28.318  1.00  0.00     0.074 A 
ATOM     70  C   UNL A   1      48.433  32.247  28.176  1.00  0.00     0.031 C 
ATOM     71  C   UNL A   1      46.041  32.414  28.809  1.00  0.00     0.034 A 
BRANCH  58  72
ATOM     72  C   UNL A   1      40.724  29.208  28.928  1.00  0.00     0.023 A 
ATOM     73  C   UNL A   1      40.220  29.096  30.236  1.00  0.00     0.031 A 
ATOM     74  C   UNL A   1      39.799  29.264  27.870  1.00  0.00     0.131 A 
ATOM     75  C   UNL A   1      38.838  28.961  30.445  1.00  0.00     0.055 A 
ATOM     76  C   UNL A   1      38.422  29.215  28.092  1.00  0.00     0.041 A 
ATOM     77  F   UNL A   1      40.220  29.347  26.598  1.00  0.00    -0.206 F 
ATOM     78  C   UNL A   1      37.935  29.045  29.384  1.00  0.00     0.022 A 
BRANCH  75  79
ATOM     79  S   UNL A   1      38.253  28.510  32.102  1.00  0.00     0.124 S 
ATOM     80  O   UNL A   1      38.461  27.064  32.106  1.00  0.00    -0.237 OA
ATOM     81  O   UNL A   1      39.132  29.286  32.968  1.00  0.00    -0.237 OA
ATOM     82  O   UNL A   1      36.852  28.930  32.095  1.00  0.00    -0.744 OA
ENDBRANCH  75  79
ENDBRANCH  58  72
BRANCH  59  83
ATOM     83  C   UNL A   1      50.472  28.906  26.604  1.00  0.00     0.023 A 
ATOM     84  C   UNL A   1      50.891  29.185  25.294  1.00  0.00     0.031 A 
ATOM     85  C   UNL A   1      51.454  28.550  27.547  1.00  0.00     0.131 A 
ATOM     86  C   UNL A   1      52.246  29.060  24.951  1.00  0.00     0.055 A 
ATOM     87  C   UNL A   1      52.807  28.481  27.214  1.00  0.00     0.041 A 
ATOM     88  F   UNL A   1      51.109  28.269  28.815  1.00  0.00    -0.206 F 
ATOM     89  C   UNL A   1      53.209  28.724  25.905  1.00  0.00     0.022 A 
BRANCH  86  90
ATOM     90  S   UNL A   1      52.723  29.262  23.212  1.00  0.00     0.124 S 
ATOM     91  O   UNL A   1      51.633  30.085  22.699  1.00  0.00    -0.237 OA
ATOM     92  O   UNL A   1      54.023  29.916  23.328  1.00  0.00    -0.237 OA
ATOM     93  O   UNL A   1      52.760  27.891  22.709  1.00  0.00    -0.744 OA
ENDBRANCH  86  90
ENDBRANCH  59  83
BRANCH  71  94
ATOM     94  C   UNL A   1      46.312  33.825  29.277  1.00  0.00     0.023 A 
ATOM     95  C   UNL A   1      46.243  34.925  28.403  1.00  0.00     0.031 A 
ATOM     96  C   UNL A   1      46.659  34.069  30.618  1.00  0.00     0.131 A 
ATOM     97  C   UNL A   1      46.569  36.208  28.867  1.00  0.00     0.055 A 
ATOM     98  C   UNL A   1      46.921  35.357  31.089  1.00  0.00     0.041 A 
ATOM     99  F   UNL A   1      46.744  33.059  31.497  1.00  0.00    -0.206 F 
ATOM    100  C   UNL A   1      46.891  36.434  30.208  1.00  0.00     0.022 A 
BRANCH  97 101
ATOM    101  S   UNL A   1      46.665  37.570  27.672  1.00  0.00     0.124 S 
ATOM    102  O   UNL A   1      46.562  38.741  28.536  1.00  0.00    -0.237 OA
ATOM    103  O   UNL A   1      47.968  37.349  27.051  1.00  0.00    -0.237 OA
ATOM    104  O   UNL A   1      45.517  37.341  26.797  1.00  0.00    -0.744 OA
ENDBRANCH  97 101
ENDBRANCH  71  94
ENDBRANCH  45  46
ENDBRANCH  38  40
ENDBRANCH  37  38
ENDBRANCH  36  37
ENDBRANCH  35  36
ENDBRANCH  34  35
ENDBRANCH  33  34
ENDBRANCH   1  33
TORSDOF 23
ENDMDL
MODEL 3
REMARK VINA RESULT:      -9.3      2.013      2.336
REMARK SMILES O=C(Cc1ccccc1)Nc1ccc(C(=O)NCc2ccc(C(=O)OCCOCCOC(=O)c3ccc(-c4c5nc(c(-c6cc(S(=O)(=O)[O-])ccc6F)c6ccc([nH]6)c(-c6cc(S(=O)(=O)[O-])ccc6F)c6nc(c(-c7cc(S(=O)(=O)[O-])ccc7F)c7ccc4[nH]7)C=C6)C=C5)cc3)cc2)cc1
REMARK SMILES IDX 26 1 25 2 23 3 24 4 22 5 19 6 20 7 98 8 21 9 97 10 18 11
REMARK SMILES IDX 17 12 15 13 16 14 14 16 11 17 12 18 100 19 13 20 99 21 10 22
REMARK SMILES IDX 1 23 2 24 3 26 4 27 5 28 9 29 6 30 8 31 7 32 27 33 28 34
REMARK SMILES IDX 29 35 30 36 31 37 32 38 33 39 34 40 35 41 96 42 36 43 95 44
REMARK SMILES IDX 37 45 38 46 39 47 89 48 40 49 94 50 88 51 90 52 41 53 93 54
REMARK SMILES IDX 87 55 86 56 42 58 74 59 54 60 73 61 55 62 58 63 72 64 91 65
REMARK SMILES IDX 56 66 57 67 71 69 92 70 59 71 43 72 44 73 52 74 45 75 51 76
REMARK SMILES IDX 53 77 50 78 46 79 47 80 48 81 49 82 75 83 76 84 84 85 77 86
REMARK SMILES IDX 83 87 85 88 82 89 78 90 79 91 80 92 81 93 60 94 61 95 69 96
REMARK SMILES IDX 62 97 68 98 70 99 67 100 63 101 64 102 65 103 66 104
REMARK H PARENT 17 15 10 25 90 57 58 68
REMARK Flexibility Score: inf
ROOT
ATOM      1  C   UNL A   1      38.187  22.527  26.050  1.00  0.00     0.261 C 
ENDROOT
BRANCH   1   2
ATOM      2  O   UNL A   1      36.987  21.814  25.713  1.00  0.00    -0.460 OA
BRANCH   2   3
ATOM      3  C   UNL A   1      36.277  22.350  24.692  1.00  0.00     0.338 C 
ATOM      4  O   UNL A   1      36.639  22.469  23.528  1.00  0.00    -0.246 OA
BRANCH   3   5
ATOM      5  C   UNL A   1      34.889  22.640  25.117  1.00  0.00     0.060 A 
ATOM      6  C   UNL A   1      32.196  23.178  25.755  1.00  0.00    -0.029 A 
ATOM      7  C   UNL A   1      32.548  22.689  24.489  1.00  0.00     0.006 A 
ATOM      8  C   UNL A   1      33.215  23.368  26.706  1.00  0.00     0.006 A 
ATOM      9  C   UNL A   1      33.879  22.421  24.174  1.00  0.00     0.016 A 
ATOM     10  C   UNL A   1      34.556  23.099  26.393  1.00  0.00     0.016 A 
BRANCH   6  11
ATOM     11  C   UNL A   1      30.751  23.550  26.007  1.00  0.00     0.152 C 
BRANCH  11  12
ATOM     12  N   UNL A   1      30.233  24.514  25.066  1.00  0.00    -0.348 N 
ATOM     13  C   UNL A   1      30.597  25.778  24.704  1.00  0.00     0.251 C 
ATOM     14  O   UNL A   1      30.012  26.249  23.725  1.00  0.00    -0.269 OA
ATOM     15  H   UNL A   1      29.443  24.186  24.579  1.00  0.00     0.164 HD
BRANCH  13  16
ATOM     16  C   UNL A   1      31.626  26.616  25.395  1.00  0.00     0.039 A 
ATOM     17  C   UNL A   1      33.412  28.190  26.914  1.00  0.00     0.041 A 
ATOM     18  C   UNL A   1      32.140  27.908  27.405  1.00  0.00     0.027 A 
ATOM     19  C   UNL A   1      33.804  27.668  25.688  1.00  0.00     0.027 A 
ATOM     20  C   UNL A   1      31.246  27.161  26.635  1.00  0.00     0.016 A 
ATOM     21  C   UNL A   1      32.931  26.854  24.954  1.00  0.00     0.016 A 
BRANCH  17  22
ATOM     22  N   UNL A   1      34.268  28.957  27.714  1.00  0.00    -0.326 N 
ATOM     23  O   UNL A   1      33.820  31.072  26.873  1.00  0.00    -0.274 OA
ATOM     24  C   UNL A   1      34.424  30.330  27.643  1.00  0.00     0.228 C 
ATOM     25  H   UNL A   1      34.806  28.477  28.385  1.00  0.00     0.169 HD
BRANCH  24  26
ATOM     26  C   UNL A   1      35.440  30.872  28.638  1.00  0.00     0.135 C 
BRANCH  26  27
ATOM     27  C   UNL A   1      36.655  30.000  28.902  1.00  0.00    -0.039 A 
ATOM     28  C   UNL A   1      37.734  29.907  28.009  1.00  0.00     0.004 A 
ATOM     29  C   UNL A   1      36.768  29.336  30.135  1.00  0.00     0.004 A 
ATOM     30  C   UNL A   1      38.879  29.172  28.329  1.00  0.00     0.000 A 
ATOM     31  C   UNL A   1      37.917  28.608  30.458  1.00  0.00     0.000 A 
ATOM     32  C   UNL A   1      38.972  28.527  29.554  1.00  0.00     0.000 A 
ENDBRANCH  26  27
ENDBRANCH  24  26
ENDBRANCH  17  22
ENDBRANCH  13  16
ENDBRANCH  11  12
ENDBRANCH   6  11
ENDBRANCH   3   5
ENDBRANCH   2   3
ENDBRANCH   1   2
BRANCH   1  33
ATOM     33  C   UNL A   1      39.439  21.677  25.799  1.00  0.00     0.202 C 
BRANCH  33  34
ATOM     34  O   UNL A   1      39.890  20.870  26.887  1.00  0.00    -0.374 OA
BRANCH  34  35
ATOM     35  C   UNL A   1      40.874  19.875  26.595  1.00  0.00     0.202 C 
BRANCH  35  36
ATOM     36  C   UNL A   1      42.068  20.304  25.733  1.00  0.00     0.261 C 
BRANCH  36  37
ATOM     37  O   UNL A   1      42.934  21.226  26.419  1.00  0.00    -0.460 OA
BRANCH  37  38
ATOM     38  C   UNL A   1      43.055  22.438  25.827  1.00  0.00     0.338 C 
ATOM     39  O   UNL A   1      42.995  22.677  24.626  1.00  0.00    -0.246 OA
BRANCH  38  40
ATOM     40  C   UNL A   1      43.076  23.500  26.849  1.00  0.00     0.060 A 
ATOM     41  C   UNL A   1      44.230  24.289  26.941  1.00  0.00     0.016 A 
ATOM     42  C   UNL A   1      42.015  23.691  27.737  1.00  0.00     0.016 A 
ATOM     43  C   UNL A   1      44.350  25.238  27.954  1.00  0.00     0.010 A 
ATOM     44  C   UNL A   1      42.140  24.639  28.759  1.00  0.00     0.010 A 
ATOM     45  C   UNL A   1      43.322  25.394  28.893  1.00  0.00    -0.014 A 
BRANCH  45  46
ATOM     46  C   UNL A   1      43.546  26.235  30.095  1.00  0.00     0.031 A 
ATOM     47  C   UNL A   1      44.167  25.609  31.315  1.00  0.00     0.074 A 
ATOM     48  C   UNL A   1      43.231  27.542  30.091  1.00  0.00     0.049 A 
ATOM     49  N   UNL A   1      44.424  26.137  32.482  1.00  0.00    -0.248 NA
ATOM     50  C   UNL A   1      44.545  24.193  31.197  1.00  0.00     0.031 C 
ATOM     51  C   UNL A   1      42.673  28.271  28.952  1.00  0.00     0.029 A 
ATOM     52  N   UNL A   1      43.334  28.489  31.078  1.00  0.00    -0.354 N 
ATOM     53  C   UNL A   1      44.986  25.117  33.245  1.00  0.00     0.074 A 
ATOM     54  C   UNL A   1      44.994  23.931  32.415  1.00  0.00     0.031 C 
ATOM     55  C   UNL A   1      42.483  29.553  29.307  1.00  0.00     0.029 A 
ATOM     56  C   UNL A   1      42.864  29.727  30.707  1.00  0.00     0.049 A 
ATOM     57  H   UNL A   1      43.709  28.300  31.968  1.00  0.00     0.167 HD
ATOM     58  C   UNL A   1      45.460  25.171  34.515  1.00  0.00     0.034 A 
ATOM     59  C   UNL A   1      42.736  30.862  31.424  1.00  0.00     0.034 A 
ATOM     60  C   UNL A   1      45.434  26.360  35.332  1.00  0.00     0.049 A 
ATOM     61  C   UNL A   1      43.176  30.869  32.868  1.00  0.00     0.074 A 
ATOM     62  C   UNL A   1      45.907  26.532  36.621  1.00  0.00     0.029 A 
ATOM     63  N   UNL A   1      44.891  27.580  34.944  1.00  0.00    -0.354 N 
ATOM     64  N   UNL A   1      43.717  29.904  33.575  1.00  0.00    -0.248 NA
ATOM     65  C   UNL A   1      42.991  32.124  33.610  1.00  0.00     0.031 C 
ATOM     66  C   UNL A   1      45.577  27.826  37.041  1.00  0.00     0.029 A 
ATOM     67  C   UNL A   1      44.977  28.494  35.985  1.00  0.00     0.049 A 
ATOM     68  H   UNL A   1      44.502  27.768  34.060  1.00  0.00     0.167 HD
ATOM     69  C   UNL A   1      43.970  30.448  34.833  1.00  0.00     0.074 A 
ATOM     70  C   UNL A   1      43.531  31.827  34.782  1.00  0.00     0.031 C 
ATOM     71  C   UNL A   1      44.524  29.864  35.926  1.00  0.00     0.034 A 
BRANCH  58  72
ATOM     72  C   UNL A   1      45.988  23.885  35.109  1.00  0.00     0.023 A 
ATOM     73  C   UNL A   1      47.332  23.498  34.968  1.00  0.00     0.031 A 
ATOM     74  C   UNL A   1      45.121  23.012  35.792  1.00  0.00     0.131 A 
ATOM     75  C   UNL A   1      47.750  22.239  35.428  1.00  0.00     0.055 A 
ATOM     76  C   UNL A   1      45.564  21.799  36.323  1.00  0.00     0.041 A 
ATOM     77  F   UNL A   1      43.822  23.316  35.939  1.00  0.00    -0.206 F 
ATOM     78  C   UNL A   1      46.881  21.398  36.127  1.00  0.00     0.022 A 
BRANCH  75  79
ATOM     79  S   UNL A   1      49.400  21.649  34.957  1.00  0.00     0.124 S 
ATOM     80  O   UNL A   1      49.094  20.801  33.807  1.00  0.00    -0.237 OA
ATOM     81  O   UNL A   1      50.107  22.890  34.667  1.00  0.00    -0.237 OA
ATOM     82  O   UNL A   1      49.859  20.931  36.146  1.00  0.00    -0.744 OA
ENDBRANCH  75  79
ENDBRANCH  58  72
BRANCH  59  83
ATOM     83  C   UNL A   1      42.140  32.083  30.808  1.00  0.00     0.023 A 
ATOM     84  C   UNL A   1      40.761  32.332  30.882  1.00  0.00     0.031 A 
ATOM     85  C   UNL A   1      42.935  32.991  30.085  1.00  0.00     0.131 A 
ATOM     86  C   UNL A   1      40.211  33.433  30.207  1.00  0.00     0.055 A 
ATOM     87  C   UNL A   1      42.392  34.115  29.462  1.00  0.00     0.041 A 
ATOM     88  F   UNL A   1      44.261  32.799  29.979  1.00  0.00    -0.206 F 
ATOM     89  C   UNL A   1      41.019  34.334  29.509  1.00  0.00     0.022 A 
BRANCH  86  90
ATOM     90  S   UNL A   1      38.408  33.624  30.183  1.00  0.00     0.124 S 
ATOM     91  O   UNL A   1      38.242  34.951  30.766  1.00  0.00    -0.237 OA
ATOM     92  O   UNL A   1      38.109  33.506  28.759  1.00  0.00    -0.237 OA
ATOM     93  O   UNL A   1      37.938  32.515  31.010  1.00  0.00    -0.744 OA
ENDBRANCH  86  90
ENDBRANCH  59  83
BRANCH  71  94
ATOM     94  C   UNL A   1      44.732  30.737  37.143  1.00  0.00     0.023 A 
ATOM     95  C   UNL A   1      46.014  31.134  37.563  1.00  0.00     0.031 A 
ATOM     96  C   UNL A   1      43.627  31.167  37.899  1.00  0.00     0.131 A 
ATOM     97  C   UNL A   1      46.162  31.888  38.738  1.00  0.00     0.055 A 
ATOM     98  C   UNL A   1      43.776  31.971  39.031  1.00  0.00     0.041 A 
ATOM     99  F   UNL A   1      42.379  30.817  37.547  1.00  0.00    -0.206 F 
ATOM    100  C   UNL A   1      45.050  32.324  39.464  1.00  0.00     0.022 A 
BRANCH  97 101
ATOM    101  S   UNL A   1      47.834  32.212  39.362  1.00  0.00     0.124 S 
ATOM    102  O   UNL A   1      48.609  31.155  38.717  1.00  0.00    -0.237 OA
ATOM    103  O   UNL A   1      48.088  33.568  38.886  1.00  0.00    -0.237 OA
ATOM    104  O   UNL A   1      47.693  32.081  40.811  1.00  0.00    -0.744 OA
ENDBRANCH  97 101
ENDBRANCH  71  94
ENDBRANCH  45  46
ENDBRANCH  38  40
ENDBRANCH  37  38
ENDBRANCH  36  37
ENDBRANCH  35  36
ENDBRANCH  34  35
ENDBRANCH  33  34
ENDBRANCH   1  33
TORSDOF 23
ENDMDL
