MODEL 1
REMARK VINA RESULT:     -11.9      0.000      0.000
REMARK SMILES COC(=O)c1ccc(NC(=O)[C@@H]2CC=CC[C@@H]2C(=O)OCCOCCOC(=O)c2ccc(-c3c4nc(c(-c5cc(S(=O)(=O)[O-])ccc5F)c5ccc([nH]5)c(-c5cc(S(=O)(=O)[O-])ccc5F)c5nc(c(-c6cc(S(=O)(=O)[O-])ccc6F)c6ccc3[nH]6)C=C5)C=C4)cc2)c(C)c1
REMARK SMILES IDX 22 1 21 2 20 3 18 4 19 5 17 6 12 7 13 8 14 9 16 10 15 11
REMARK SMILES IDX 10 12 9 13 11 15 8 16 5 17 6 18 94 19 7 20 92 21 93 22 3 23
REMARK SMILES IDX 4 24 2 25 1 26 23 27 24 28 25 29 26 30 27 31 28 32 29 33
REMARK SMILES IDX 30 34 91 35 31 36 90 37 32 38 33 39 34 40 84 41 35 42 89 43
REMARK SMILES IDX 83 44 85 45 36 46 88 47 82 48 81 49 37 51 69 52 49 53 68 54
REMARK SMILES IDX 50 55 53 56 67 57 86 58 51 59 52 60 66 62 87 63 54 64 38 65
REMARK SMILES IDX 39 66 47 67 40 68 46 69 48 70 45 71 41 72 42 73 43 74 44 75
REMARK SMILES IDX 70 76 71 77 79 78 72 79 78 80 80 81 77 82 73 83 74 84 75 85
REMARK SMILES IDX 76 86 55 87 56 88 64 89 57 90 63 91 65 92 62 93 58 94 59 95
REMARK SMILES IDX 60 96 61 97
REMARK H PARENT 9 14 85 50 53 61
REMARK Flexibility Score: inf
ROOT
ATOM      1  C   UNL A   1      35.967  22.192  24.376  1.00  0.00     0.202 C 
ENDROOT
BRANCH   1   2
ATOM      2  C   UNL A   1      35.918  23.606  23.880  1.00  0.00     0.261 C 
BRANCH   2   3
ATOM      3  O   UNL A   1      34.564  24.019  23.607  1.00  0.00    -0.463 OA
BRANCH   3   4
ATOM      4  C   UNL A   1      33.738  24.322  24.648  1.00  0.00     0.310 C 
ATOM      5  O   UNL A   1      34.068  24.763  25.725  1.00  0.00    -0.252 OA
BRANCH   4   6
ATOM      6  C   UNL A   1      32.314  24.040  24.236  1.00  0.00     0.116 C 
ATOM      7  C   UNL A   1      31.544  23.210  25.266  1.00  0.00     0.097 C 
ATOM      8  C   UNL A   1      32.157  21.808  25.457  1.00  0.00     0.041 C 
ATOM      9  C   UNL A   1      32.329  21.131  24.134  1.00  0.00    -0.030 C 
ATOM     10  C   UNL A   1      32.251  23.312  22.878  1.00  0.00     0.043 C 
ATOM     11  C   UNL A   1      32.328  21.806  22.976  1.00  0.00    -0.030 C 
BRANCH   7  12
ATOM     12  C   UNL A   1      31.254  23.854  26.595  1.00  0.00     0.228 C 
ATOM     13  N   UNL A   1      30.553  25.027  26.671  1.00  0.00    -0.326 N 
ATOM     14  H   UNL A   1      30.186  25.201  27.567  1.00  0.00     0.169 HD
ATOM     15  O   UNL A   1      31.670  23.400  27.662  1.00  0.00    -0.274 OA
BRANCH  13  16
ATOM     16  C   UNL A   1      30.241  26.042  25.736  1.00  0.00     0.044 A 
ATOM     17  C   UNL A   1      29.950  27.971  23.687  1.00  0.00     0.060 A 
ATOM     18  C   UNL A   1      29.121  26.866  23.720  1.00  0.00     0.018 A 
ATOM     19  C   UNL A   1      30.870  28.164  24.725  1.00  0.00     0.021 A 
ATOM     20  C   UNL A   1      29.253  25.939  24.749  1.00  0.00     0.027 A 
ATOM     21  C   UNL A   1      31.044  27.201  25.739  1.00  0.00    -0.027 A 
ATOM     22  C   UNL A   1      32.127  27.433  26.761  1.00  0.00     0.046 C 
BRANCH  17  23
ATOM     23  C   UNL A   1      29.853  28.857  22.499  1.00  0.00     0.337 C 
ATOM     24  O   UNL A   1      30.758  29.047  21.703  1.00  0.00    -0.246 OA
BRANCH  23  25
ATOM     25  O   UNL A   1      28.647  29.470  22.430  1.00  0.00    -0.465 OA
ATOM     26  C   UNL A   1      28.764  30.887  22.301  1.00  0.00     0.282 C 
ENDBRANCH  23  25
ENDBRANCH  17  23
ENDBRANCH  13  16
ENDBRANCH   7  12
ENDBRANCH   4   6
ENDBRANCH   3   4
ENDBRANCH   2   3
ENDBRANCH   1   2
BRANCH   1  27
ATOM     27  O   UNL A   1      37.351  21.896  24.335  1.00  0.00    -0.374 OA
BRANCH  27  28
ATOM     28  C   UNL A   1      37.813  20.861  25.159  1.00  0.00     0.202 C 
BRANCH  28  29
ATOM     29  C   UNL A   1      39.088  21.304  25.861  1.00  0.00     0.261 C 
BRANCH  29  30
ATOM     30  O   UNL A   1      38.939  22.631  26.425  1.00  0.00    -0.460 OA
BRANCH  30  31
ATOM     31  C   UNL A   1      40.110  23.298  26.661  1.00  0.00     0.338 C 
ATOM     32  O   UNL A   1      41.205  22.763  26.724  1.00  0.00    -0.246 OA
BRANCH  31  33
ATOM     33  C   UNL A   1      39.854  24.743  26.946  1.00  0.00     0.060 A 
ATOM     34  C   UNL A   1      40.500  25.744  26.189  1.00  0.00     0.016 A 
ATOM     35  C   UNL A   1      39.254  25.069  28.156  1.00  0.00     0.016 A 
ATOM     36  C   UNL A   1      40.684  27.032  26.723  1.00  0.00     0.010 A 
ATOM     37  C   UNL A   1      39.571  26.280  28.729  1.00  0.00     0.010 A 
ATOM     38  C   UNL A   1      40.283  27.275  28.034  1.00  0.00    -0.014 A 
BRANCH  38  39
ATOM     39  C   UNL A   1      40.531  28.484  28.829  1.00  0.00     0.031 A 
ATOM     40  C   UNL A   1      39.464  29.522  28.829  1.00  0.00     0.074 A 
ATOM     41  C   UNL A   1      41.528  28.575  29.747  1.00  0.00     0.049 A 
ATOM     42  N   UNL A   1      39.611  30.711  29.296  1.00  0.00    -0.248 NA
ATOM     43  C   UNL A   1      38.128  29.324  28.267  1.00  0.00     0.031 C 
ATOM     44  C   UNL A   1      41.544  29.424  30.938  1.00  0.00     0.029 A 
ATOM     45  N   UNL A   1      42.762  27.919  29.824  1.00  0.00    -0.354 N 
ATOM     46  C   UNL A   1      38.360  31.265  29.448  1.00  0.00     0.074 A 
ATOM     47  C   UNL A   1      37.487  30.417  28.685  1.00  0.00     0.031 C 
ATOM     48  C   UNL A   1      42.779  29.452  31.462  1.00  0.00     0.029 A 
ATOM     49  C   UNL A   1      43.646  28.718  30.567  1.00  0.00     0.049 A 
ATOM     50  H   UNL A   1      42.974  27.044  29.424  1.00  0.00     0.167 HD
ATOM     51  C   UNL A   1      38.207  32.293  30.329  1.00  0.00     0.034 A 
ATOM     52  C   UNL A   1      44.843  29.127  30.071  1.00  0.00     0.034 A 
ATOM     53  C   UNL A   1      39.491  32.625  30.959  1.00  0.00     0.049 A 
ATOM     54  C   UNL A   1      44.824  30.631  29.971  1.00  0.00     0.074 A 
ATOM     55  C   UNL A   1      40.015  32.420  32.226  1.00  0.00     0.029 A 
ATOM     56  N   UNL A   1      40.560  33.005  30.154  1.00  0.00    -0.354 N 
ATOM     57  N   UNL A   1      43.707  31.310  29.962  1.00  0.00    -0.248 NA
ATOM     58  C   UNL A   1      45.995  31.498  29.992  1.00  0.00     0.031 C 
ATOM     59  C   UNL A   1      41.415  32.669  32.165  1.00  0.00     0.029 A 
ATOM     60  C   UNL A   1      41.736  33.048  30.871  1.00  0.00     0.049 A 
ATOM     61  H   UNL A   1      40.486  33.217  29.195  1.00  0.00     0.167 HD
ATOM     62  C   UNL A   1      43.966  32.639  30.092  1.00  0.00     0.074 A 
ATOM     63  C   UNL A   1      45.418  32.715  30.052  1.00  0.00     0.031 C 
ATOM     64  C   UNL A   1      42.958  33.548  30.252  1.00  0.00     0.034 A 
BRANCH  51  65
ATOM     65  C   UNL A   1      36.891  32.858  30.828  1.00  0.00     0.023 A 
ATOM     66  C   UNL A   1      35.991  33.388  29.880  1.00  0.00     0.031 A 
ATOM     67  C   UNL A   1      36.445  32.925  32.164  1.00  0.00     0.131 A 
ATOM     68  C   UNL A   1      34.785  34.005  30.258  1.00  0.00     0.055 A 
ATOM     69  C   UNL A   1      35.258  33.566  32.548  1.00  0.00     0.041 A 
ATOM     70  F   UNL A   1      37.091  32.329  33.169  1.00  0.00    -0.206 F 
ATOM     71  C   UNL A   1      34.422  34.117  31.594  1.00  0.00     0.022 A 
BRANCH  68  72
ATOM     72  S   UNL A   1      33.690  34.644  28.966  1.00  0.00     0.124 S 
ATOM     73  O   UNL A   1      33.483  33.465  28.132  1.00  0.00    -0.237 OA
ATOM     74  O   UNL A   1      32.539  35.106  29.733  1.00  0.00    -0.237 OA
ATOM     75  O   UNL A   1      34.483  35.707  28.346  1.00  0.00    -0.744 OA
ENDBRANCH  68  72
ENDBRANCH  51  65
BRANCH  52  76
ATOM     76  C   UNL A   1      45.470  28.102  29.186  1.00  0.00     0.023 A 
ATOM     77  C   UNL A   1      45.474  28.379  27.792  1.00  0.00     0.031 A 
ATOM     78  C   UNL A   1      46.457  27.233  29.676  1.00  0.00     0.131 A 
ATOM     79  C   UNL A   1      46.512  27.905  26.966  1.00  0.00     0.055 A 
ATOM     80  C   UNL A   1      47.487  26.759  28.849  1.00  0.00     0.041 A 
ATOM     81  F   UNL A   1      46.537  26.968  30.988  1.00  0.00    -0.206 F 
ATOM     82  C   UNL A   1      47.536  27.117  27.500  1.00  0.00     0.022 A 
BRANCH  79  83
ATOM     83  S   UNL A   1      46.742  28.644  25.295  1.00  0.00     0.124 S 
ATOM     84  O   UNL A   1      48.155  28.400  25.036  1.00  0.00    -0.237 OA
ATOM     85  O   UNL A   1      45.803  27.886  24.471  1.00  0.00    -0.237 OA
ATOM     86  O   UNL A   1      46.373  30.046  25.494  1.00  0.00    -0.744 OA
ENDBRANCH  79  83
ENDBRANCH  52  76
BRANCH  64  87
ATOM     87  C   UNL A   1      43.046  35.013  29.911  1.00  0.00     0.023 A 
ATOM     88  C   UNL A   1      43.597  35.950  30.787  1.00  0.00     0.031 A 
ATOM     89  C   UNL A   1      42.693  35.509  28.630  1.00  0.00     0.131 A 
ATOM     90  C   UNL A   1      43.702  37.302  30.435  1.00  0.00     0.055 A 
ATOM     91  C   UNL A   1      42.888  36.836  28.245  1.00  0.00     0.041 A 
ATOM     92  F   UNL A   1      42.168  34.728  27.675  1.00  0.00    -0.206 F 
ATOM     93  C   UNL A   1      43.379  37.751  29.159  1.00  0.00     0.022 A 
BRANCH  90  94
ATOM     94  S   UNL A   1      44.198  38.456  31.731  1.00  0.00     0.124 S 
ATOM     95  O   UNL A   1      43.710  37.782  32.932  1.00  0.00    -0.237 OA
ATOM     96  O   UNL A   1      45.648  38.498  31.577  1.00  0.00    -0.237 OA
ATOM     97  O   UNL A   1      43.497  39.689  31.380  1.00  0.00    -0.744 OA
ENDBRANCH  90  94
ENDBRANCH  64  87
ENDBRANCH  38  39
ENDBRANCH  31  33
ENDBRANCH  30  31
ENDBRANCH  29  30
ENDBRANCH  28  29
ENDBRANCH  27  28
ENDBRANCH   1  27
TORSDOF 21
ENDMDL
MODEL 2
REMARK VINA RESULT:     -11.5      4.084      9.673
REMARK SMILES COC(=O)c1ccc(NC(=O)[C@@H]2CC=CC[C@@H]2C(=O)OCCOCCOC(=O)c2ccc(-c3c4nc(c(-c5cc(S(=O)(=O)[O-])ccc5F)c5ccc([nH]5)c(-c5cc(S(=O)(=O)[O-])ccc5F)c5nc(c(-c6cc(S(=O)(=O)[O-])ccc6F)c6ccc3[nH]6)C=C5)C=C4)cc2)c(C)c1
REMARK SMILES IDX 22 1 21 2 20 3 18 4 19 5 17 6 12 7 13 8 14 9 16 10 15 11
REMARK SMILES IDX 10 12 9 13 11 15 8 16 5 17 6 18 94 19 7 20 92 21 93 22 3 23
REMARK SMILES IDX 4 24 2 25 1 26 23 27 24 28 25 29 26 30 27 31 28 32 29 33
REMARK SMILES IDX 30 34 91 35 31 36 90 37 32 38 33 39 34 40 84 41 35 42 89 43
REMARK SMILES IDX 83 44 85 45 36 46 88 47 82 48 81 49 37 51 69 52 49 53 68 54
REMARK SMILES IDX 50 55 53 56 67 57 86 58 51 59 52 60 66 62 87 63 54 64 38 65
REMARK SMILES IDX 39 66 47 67 40 68 46 69 48 70 45 71 41 72 42 73 43 74 44 75
REMARK SMILES IDX 70 76 71 77 79 78 72 79 78 80 80 81 77 82 73 83 74 84 75 85
REMARK SMILES IDX 76 86 55 87 56 88 64 89 57 90 63 91 65 92 62 93 58 94 59 95
REMARK SMILES IDX 60 96 61 97
REMARK H PARENT 9 14 85 50 53 61
REMARK Flexibility Score: inf
ROOT
ATOM      1  C   UNL A   1      34.014  29.031  27.461  1.00  0.00     0.202 C 
ENDROOT
BRANCH   1   2
ATOM      2  C   UNL A   1      34.323  28.461  26.109  1.00  0.00     0.261 C 
BRANCH   2   3
ATOM      3  O   UNL A   1      33.273  27.583  25.658  1.00  0.00    -0.463 OA
BRANCH   3   4
ATOM      4  C   UNL A   1      33.293  27.127  24.373  1.00  0.00     0.310 C 
ATOM      5  O   UNL A   1      33.926  27.592  23.454  1.00  0.00    -0.252 OA
BRANCH   4   6
ATOM      6  C   UNL A   1      32.404  25.911  24.275  1.00  0.00     0.116 C 
ATOM      7  C   UNL A   1      31.821  25.705  22.875  1.00  0.00     0.097 C 
ATOM      8  C   UNL A   1      30.903  26.869  22.451  1.00  0.00     0.041 C 
ATOM      9  C   UNL A   1      29.875  27.132  23.506  1.00  0.00    -0.030 C 
ATOM     10  C   UNL A   1      31.238  25.980  25.283  1.00  0.00     0.043 C 
ATOM     11  C   UNL A   1      30.011  26.694  24.766  1.00  0.00    -0.030 C 
BRANCH   7  12
ATOM     12  C   UNL A   1      32.782  25.351  21.772  1.00  0.00     0.228 C 
ATOM     13  N   UNL A   1      33.198  24.060  21.589  1.00  0.00    -0.326 N 
ATOM     14  H   UNL A   1      33.583  23.900  20.698  1.00  0.00     0.169 HD
ATOM     15  O   UNL A   1      33.280  26.194  21.025  1.00  0.00    -0.274 OA
BRANCH  13  16
ATOM     16  C   UNL A   1      33.191  22.905  22.405  1.00  0.00     0.044 A 
ATOM     17  C   UNL A   1      33.071  20.833  24.329  1.00  0.00     0.060 A 
ATOM     18  C   UNL A   1      32.112  20.913  23.338  1.00  0.00     0.018 A 
ATOM     19  C   UNL A   1      34.144  21.734  24.313  1.00  0.00     0.021 A 
ATOM     20  C   UNL A   1      32.196  21.918  22.379  1.00  0.00     0.027 A 
ATOM     21  C   UNL A   1      34.205  22.786  23.377  1.00  0.00    -0.027 A 
ATOM     22  C   UNL A   1      35.336  23.776  23.492  1.00  0.00     0.046 C 
BRANCH  17  23
ATOM     23  C   UNL A   1      32.861  19.824  25.398  1.00  0.00     0.337 C 
ATOM     24  O   UNL A   1      33.273  19.935  26.542  1.00  0.00    -0.246 OA
BRANCH  23  25
ATOM     25  O   UNL A   1      32.194  18.740  24.938  1.00  0.00    -0.465 OA
ATOM     26  C   UNL A   1      33.057  17.624  24.716  1.00  0.00     0.282 C 
ENDBRANCH  23  25
ENDBRANCH  17  23
ENDBRANCH  13  16
ENDBRANCH   7  12
ENDBRANCH   4   6
ENDBRANCH   3   4
ENDBRANCH   2   3
ENDBRANCH   1   2
BRANCH   1  27
ATOM     27  O   UNL A   1      32.768  29.669  27.252  1.00  0.00    -0.374 OA
BRANCH  27  28
ATOM     28  C   UNL A   1      32.768  31.067  27.152  1.00  0.00     0.202 C 
BRANCH  28  29
ATOM     29  C   UNL A   1      33.901  31.635  27.994  1.00  0.00     0.261 C 
BRANCH  29  30
ATOM     30  O   UNL A   1      33.904  33.084  27.957  1.00  0.00    -0.460 OA
BRANCH  30  31
ATOM     31  C   UNL A   1      34.040  33.697  29.172  1.00  0.00     0.338 C 
ATOM     32  O   UNL A   1      33.159  34.343  29.718  1.00  0.00    -0.246 OA
BRANCH  31  33
ATOM     33  C   UNL A   1      35.439  33.570  29.682  1.00  0.00     0.060 A 
ATOM     34  C   UNL A   1      36.533  33.898  28.852  1.00  0.00     0.016 A 
ATOM     35  C   UNL A   1      35.644  32.821  30.834  1.00  0.00     0.016 A 
ATOM     36  C   UNL A   1      37.800  33.336  29.090  1.00  0.00     0.010 A 
ATOM     37  C   UNL A   1      36.844  32.160  30.969  1.00  0.00     0.010 A 
ATOM     38  C   UNL A   1      37.934  32.400  30.112  1.00  0.00    -0.014 A 
BRANCH  38  39
ATOM     39  C   UNL A   1      39.113  31.581  30.417  1.00  0.00     0.031 A 
ATOM     40  C   UNL A   1      39.195  30.245  29.765  1.00  0.00     0.074 A 
ATOM     41  C   UNL A   1      40.222  32.077  31.027  1.00  0.00     0.049 A 
ATOM     42  N   UNL A   1      40.044  29.333  30.086  1.00  0.00    -0.248 NA
ATOM     43  C   UNL A   1      38.296  29.796  28.702  1.00  0.00     0.031 C 
ATOM     44  C   UNL A   1      41.591  31.581  30.886  1.00  0.00     0.029 A 
ATOM     45  N   UNL A   1      40.374  33.149  31.914  1.00  0.00    -0.354 N 
ATOM     46  C   UNL A   1      40.062  28.397  29.077  1.00  0.00     0.074 A 
ATOM     47  C   UNL A   1      38.881  28.664  28.306  1.00  0.00     0.031 C 
ATOM     48  C   UNL A   1      42.375  32.137  31.823  1.00  0.00     0.029 A 
ATOM     49  C   UNL A   1      41.525  32.926  32.687  1.00  0.00     0.049 A 
ATOM     50  H   UNL A   1      39.775  33.928  31.983  1.00  0.00     0.167 HD
ATOM     51  C   UNL A   1      41.165  27.610  28.942  1.00  0.00     0.034 A 
ATOM     52  C   UNL A   1      41.491  32.899  34.045  1.00  0.00     0.034 A 
ATOM     53  C   UNL A   1      42.158  27.934  29.976  1.00  0.00     0.049 A 
ATOM     54  C   UNL A   1      41.883  31.517  34.500  1.00  0.00     0.074 A 
ATOM     55  C   UNL A   1      43.376  28.594  29.957  1.00  0.00     0.029 A 
ATOM     56  N   UNL A   1      41.800  27.816  31.315  1.00  0.00    -0.354 N 
ATOM     57  N   UNL A   1      41.828  30.484  33.701  1.00  0.00    -0.248 NA
ATOM     58  C   UNL A   1      42.464  31.182  35.794  1.00  0.00     0.031 C 
ATOM     59  C   UNL A   1      43.736  28.884  31.303  1.00  0.00     0.029 A 
ATOM     60  C   UNL A   1      42.752  28.378  32.138  1.00  0.00     0.049 A 
ATOM     61  H   UNL A   1      40.974  27.386  31.634  1.00  0.00     0.167 HD
ATOM     62  C   UNL A   1      42.440  29.414  34.277  1.00  0.00     0.074 A 
ATOM     63  C   UNL A   1      42.776  29.883  35.613  1.00  0.00     0.031 C 
ATOM     64  C   UNL A   1      42.641  28.252  33.585  1.00  0.00     0.034 A 
BRANCH  51  65
ATOM     65  C   UNL A   1      41.491  26.716  27.760  1.00  0.00     0.023 A 
ATOM     66  C   UNL A   1      41.596  25.328  27.985  1.00  0.00     0.031 A 
ATOM     67  C   UNL A   1      41.712  27.116  26.427  1.00  0.00     0.131 A 
ATOM     68  C   UNL A   1      41.973  24.434  26.967  1.00  0.00     0.055 A 
ATOM     69  C   UNL A   1      42.118  26.231  25.416  1.00  0.00     0.041 A 
ATOM     70  F   UNL A   1      41.495  28.363  26.003  1.00  0.00    -0.206 F 
ATOM     71  C   UNL A   1      42.257  24.881  25.683  1.00  0.00     0.022 A 
BRANCH  68  72
ATOM     72  S   UNL A   1      42.068  22.667  27.350  1.00  0.00     0.124 S 
ATOM     73  O   UNL A   1      42.222  22.076  26.024  1.00  0.00    -0.237 OA
ATOM     74  O   UNL A   1      43.231  22.600  28.228  1.00  0.00    -0.237 OA
ATOM     75  O   UNL A   1      40.788  22.393  28.003  1.00  0.00    -0.744 OA
ENDBRANCH  68  72
ENDBRANCH  51  65
BRANCH  52  76
ATOM     76  C   UNL A   1      40.498  33.863  34.606  1.00  0.00     0.023 A 
ATOM     77  C   UNL A   1      39.426  33.309  35.356  1.00  0.00     0.031 A 
ATOM     78  C   UNL A   1      40.857  35.193  34.873  1.00  0.00     0.131 A 
ATOM     79  C   UNL A   1      38.841  34.028  36.417  1.00  0.00     0.055 A 
ATOM     80  C   UNL A   1      40.269  35.908  35.928  1.00  0.00     0.041 A 
ATOM     81  F   UNL A   1      41.890  35.759  34.234  1.00  0.00    -0.206 F 
ATOM     82  C   UNL A   1      39.283  35.319  36.723  1.00  0.00     0.022 A 
BRANCH  79  83
ATOM     83  S   UNL A   1      37.796  33.135  37.643  1.00  0.00     0.124 S 
ATOM     84  O   UNL A   1      38.285  31.767  37.533  1.00  0.00    -0.237 OA
ATOM     85  O   UNL A   1      38.104  33.823  38.895  1.00  0.00    -0.237 OA
ATOM     86  O   UNL A   1      36.437  33.358  37.151  1.00  0.00    -0.744 OA
ENDBRANCH  79  83
ENDBRANCH  52  76
BRANCH  64  87
ATOM     87  C   UNL A   1      42.826  26.891  34.207  1.00  0.00     0.023 A 
ATOM     88  C   UNL A   1      44.085  26.318  34.383  1.00  0.00     0.031 A 
ATOM     89  C   UNL A   1      41.742  26.169  34.768  1.00  0.00     0.131 A 
ATOM     90  C   UNL A   1      44.237  25.067  34.996  1.00  0.00     0.055 A 
ATOM     91  C   UNL A   1      41.903  24.970  35.465  1.00  0.00     0.041 A 
ATOM     92  F   UNL A   1      40.474  26.599  34.695  1.00  0.00    -0.206 F 
ATOM     93  C   UNL A   1      43.159  24.399  35.565  1.00  0.00     0.022 A 
BRANCH  90  94
ATOM     94  S   UNL A   1      45.878  24.317  34.946  1.00  0.00     0.124 S 
ATOM     95  O   UNL A   1      46.708  25.379  35.508  1.00  0.00    -0.237 OA
ATOM     96  O   UNL A   1      45.710  23.137  35.787  1.00  0.00    -0.237 OA
ATOM     97  O   UNL A   1      46.089  24.046  33.525  1.00  0.00    -0.744 OA
ENDBRANCH  90  94
ENDBRANCH  64  87
ENDBRANCH  38  39
ENDBRANCH  31  33
ENDBRANCH  30  31
ENDBRANCH  29  30
ENDBRANCH  28  29
ENDBRANCH  27  28
ENDBRANCH   1  27
TORSDOF 21
ENDMDL
MODEL 3
REMARK VINA RESULT:     -11.4      4.026      9.198
REMARK SMILES COC(=O)c1ccc(NC(=O)[C@@H]2CC=CC[C@@H]2C(=O)OCCOCCOC(=O)c2ccc(-c3c4nc(c(-c5cc(S(=O)(=O)[O-])ccc5F)c5ccc([nH]5)c(-c5cc(S(=O)(=O)[O-])ccc5F)c5nc(c(-c6cc(S(=O)(=O)[O-])ccc6F)c6ccc3[nH]6)C=C5)C=C4)cc2)c(C)c1
REMARK SMILES IDX 22 1 21 2 20 3 18 4 19 5 17 6 12 7 13 8 14 9 16 10 15 11
REMARK SMILES IDX 10 12 9 13 11 15 8 16 5 17 6 18 94 19 7 20 92 21 93 22 3 23
REMARK SMILES IDX 4 24 2 25 1 26 23 27 24 28 25 29 26 30 27 31 28 32 29 33
REMARK SMILES IDX 30 34 91 35 31 36 90 37 32 38 33 39 34 40 84 41 35 42 89 43
REMARK SMILES IDX 83 44 85 45 36 46 88 47 82 48 81 49 37 51 69 52 49 53 68 54
REMARK SMILES IDX 50 55 53 56 67 57 86 58 51 59 52 60 66 62 87 63 54 64 38 65
REMARK SMILES IDX 39 66 47 67 40 68 46 69 48 70 45 71 41 72 42 73 43 74 44 75
REMARK SMILES IDX 70 76 71 77 79 78 72 79 78 80 80 81 77 82 73 83 74 84 75 85
REMARK SMILES IDX 76 86 55 87 56 88 64 89 57 90 63 91 65 92 62 93 58 94 59 95
REMARK SMILES IDX 60 96 61 97
REMARK H PARENT 9 14 85 50 53 61
REMARK Flexibility Score: inf
ROOT
ATOM      1  C   UNL A   1      33.279  28.469  26.976  1.00  0.00     0.202 C 
ENDROOT
BRANCH   1   2
ATOM      2  C   UNL A   1      34.024  27.660  25.957  1.00  0.00     0.261 C 
BRANCH   2   3
ATOM      3  O   UNL A   1      33.627  26.275  25.995  1.00  0.00    -0.463 OA
BRANCH   3   4
ATOM      4  C   UNL A   1      34.015  25.443  24.987  1.00  0.00     0.310 C 
ATOM      5  O   UNL A   1      35.053  24.825  24.924  1.00  0.00    -0.252 OA
BRANCH   4   6
ATOM      6  C   UNL A   1      32.919  25.389  23.951  1.00  0.00     0.116 C 
ATOM      7  C   UNL A   1      31.724  24.538  24.386  1.00  0.00     0.097 C 
ATOM      8  C   UNL A   1      32.109  23.059  24.593  1.00  0.00     0.041 C 
ATOM      9  C   UNL A   1      32.824  22.535  23.388  1.00  0.00    -0.030 C 
ATOM     10  C   UNL A   1      33.439  24.847  22.604  1.00  0.00     0.043 C 
ATOM     11  C   UNL A   1      33.384  23.343  22.476  1.00  0.00    -0.030 C 
BRANCH   7  12
ATOM     12  C   UNL A   1      30.898  25.043  25.538  1.00  0.00     0.228 C 
ATOM     13  N   UNL A   1      30.012  26.073  25.370  1.00  0.00    -0.326 N 
ATOM     14  H   UNL A   1      29.343  26.129  26.090  1.00  0.00     0.169 HD
ATOM     15  O   UNL A   1      31.012  24.605  26.683  1.00  0.00    -0.274 OA
BRANCH  13  16
ATOM     16  C   UNL A   1      29.850  27.073  24.383  1.00  0.00     0.044 A 
ATOM     17  C   UNL A   1      29.307  29.261  22.673  1.00  0.00     0.060 A 
ATOM     18  C   UNL A   1      30.573  29.093  23.201  1.00  0.00     0.018 A 
ATOM     19  C   UNL A   1      28.329  28.290  22.925  1.00  0.00     0.021 A 
ATOM     20  C   UNL A   1      30.837  27.998  24.017  1.00  0.00     0.027 A 
ATOM     21  C   UNL A   1      28.577  27.208  23.793  1.00  0.00    -0.027 A 
ATOM     22  C   UNL A   1      27.440  26.264  24.096  1.00  0.00     0.046 C 
BRANCH  17  23
ATOM     23  C   UNL A   1      29.047  30.513  21.917  1.00  0.00     0.337 C 
ATOM     24  O   UNL A   1      28.849  30.564  20.714  1.00  0.00    -0.246 OA
BRANCH  23  25
ATOM     25  O   UNL A   1      29.102  31.602  22.720  1.00  0.00    -0.465 OA
ATOM     26  C   UNL A   1      28.011  31.654  23.640  1.00  0.00     0.282 C 
ENDBRANCH  23  25
ENDBRANCH  17  23
ENDBRANCH  13  16
ENDBRANCH   7  12
ENDBRANCH   4   6
ENDBRANCH   3   4
ENDBRANCH   2   3
ENDBRANCH   1   2
BRANCH   1  27
ATOM     27  O   UNL A   1      34.322  29.040  27.743  1.00  0.00    -0.374 OA
BRANCH  27  28
ATOM     28  C   UNL A   1      34.776  30.312  27.368  1.00  0.00     0.202 C 
BRANCH  28  29
ATOM     29  C   UNL A   1      33.716  31.349  27.706  1.00  0.00     0.261 C 
BRANCH  29  30
ATOM     30  O   UNL A   1      34.279  32.684  27.730  1.00  0.00    -0.460 OA
BRANCH  30  31
ATOM     31  C   UNL A   1      34.253  33.306  28.948  1.00  0.00     0.338 C 
ATOM     32  O   UNL A   1      33.320  33.982  29.354  1.00  0.00    -0.246 OA
BRANCH  31  33
ATOM     33  C   UNL A   1      35.557  33.146  29.660  1.00  0.00     0.060 A 
ATOM     34  C   UNL A   1      36.730  33.734  29.140  1.00  0.00     0.016 A 
ATOM     35  C   UNL A   1      35.650  32.151  30.625  1.00  0.00     0.016 A 
ATOM     36  C   UNL A   1      37.994  33.211  29.468  1.00  0.00     0.010 A 
ATOM     37  C   UNL A   1      36.875  31.553  30.819  1.00  0.00     0.010 A 
ATOM     38  C   UNL A   1      38.058  32.063  30.253  1.00  0.00    -0.014 A 
BRANCH  38  39
ATOM     39  C   UNL A   1      39.251  31.269  30.570  1.00  0.00     0.031 A 
ATOM     40  C   UNL A   1      39.447  30.009  29.802  1.00  0.00     0.074 A 
ATOM     41  C   UNL A   1      40.286  31.750  31.309  1.00  0.00     0.049 A 
ATOM     42  N   UNL A   1      40.315  29.108  30.100  1.00  0.00    -0.248 NA
ATOM     43  C   UNL A   1      38.653  29.629  28.634  1.00  0.00     0.031 C 
ATOM     44  C   UNL A   1      41.684  31.330  31.229  1.00  0.00     0.029 A 
ATOM     45  N   UNL A   1      40.319  32.734  32.303  1.00  0.00    -0.354 N 
ATOM     46  C   UNL A   1      40.455  28.277  29.011  1.00  0.00     0.074 A 
ATOM     47  C   UNL A   1      39.321  28.568  28.179  1.00  0.00     0.031 C 
ATOM     48  C   UNL A   1      42.369  31.823  32.272  1.00  0.00     0.029 A 
ATOM     49  C   UNL A   1      41.419  32.486  33.138  1.00  0.00     0.049 A 
ATOM     50  H   UNL A   1      39.678  33.476  32.399  1.00  0.00     0.167 HD
ATOM     51  C   UNL A   1      41.603  27.555  28.887  1.00  0.00     0.034 A 
ATOM     52  C   UNL A   1      41.287  32.323  34.481  1.00  0.00     0.034 A 
ATOM     53  C   UNL A   1      42.499  27.817  30.022  1.00  0.00     0.049 A 
ATOM     54  C   UNL A   1      41.714  30.921  34.832  1.00  0.00     0.074 A 
ATOM     55  C   UNL A   1      43.680  28.528  30.160  1.00  0.00     0.029 A 
ATOM     56  N   UNL A   1      42.051  27.553  31.312  1.00  0.00    -0.354 N 
ATOM     57  N   UNL A   1      41.769  29.971  33.936  1.00  0.00    -0.248 NA
ATOM     58  C   UNL A   1      42.214  30.486  36.129  1.00  0.00     0.031 C 
ATOM     59  C   UNL A   1      43.926  28.699  31.552  1.00  0.00     0.029 A 
ATOM     60  C   UNL A   1      42.910  28.071  32.256  1.00  0.00     0.049 A 
ATOM     61  H   UNL A   1      41.226  27.058  31.523  1.00  0.00     0.167 HD
ATOM     62  C   UNL A   1      42.391  28.876  34.454  1.00  0.00     0.074 A 
ATOM     63  C   UNL A   1      42.603  29.225  35.850  1.00  0.00     0.031 C 
ATOM     64  C   UNL A   1      42.699  27.798  33.672  1.00  0.00     0.034 A 
BRANCH  51  65
ATOM     65  C   UNL A   1      42.058  26.797  27.655  1.00  0.00     0.023 A 
ATOM     66  C   UNL A   1      42.067  25.388  27.705  1.00  0.00     0.031 A 
ATOM     67  C   UNL A   1      42.493  27.345  26.431  1.00  0.00     0.131 A 
ATOM     68  C   UNL A   1      42.549  24.606  26.640  1.00  0.00     0.055 A 
ATOM     69  C   UNL A   1      43.003  26.570  25.379  1.00  0.00     0.041 A 
ATOM     70  F   UNL A   1      42.398  28.648  26.151  1.00  0.00    -0.206 F 
ATOM     71  C   UNL A   1      43.039  25.192  25.480  1.00  0.00     0.022 A 
BRANCH  68  72
ATOM     72  S   UNL A   1      42.506  22.802  26.794  1.00  0.00     0.124 S 
ATOM     73  O   UNL A   1      41.292  22.592  27.576  1.00  0.00    -0.237 OA
ATOM     74  O   UNL A   1      42.463  22.371  25.402  1.00  0.00    -0.237 OA
ATOM     75  O   UNL A   1      43.753  22.494  27.496  1.00  0.00    -0.744 OA
ENDBRANCH  68  72
ENDBRANCH  51  65
BRANCH  52  76
ATOM     76  C   UNL A   1      40.209  33.184  35.052  1.00  0.00     0.023 A 
ATOM     77  C   UNL A   1      39.192  32.523  35.794  1.00  0.00     0.031 A 
ATOM     78  C   UNL A   1      40.442  34.537  35.336  1.00  0.00     0.131 A 
ATOM     79  C   UNL A   1      38.543  33.172  36.863  1.00  0.00     0.055 A 
ATOM     80  C   UNL A   1      39.790  35.182  36.398  1.00  0.00     0.041 A 
ATOM     81  F   UNL A   1      41.418  35.206  34.705  1.00  0.00    -0.206 F 
ATOM     82  C   UNL A   1      38.862  34.494  37.185  1.00  0.00     0.022 A 
BRANCH  79  83
ATOM     83  S   UNL A   1      37.585  32.170  38.076  1.00  0.00     0.124 S 
ATOM     84  O   UNL A   1      36.320  32.890  38.146  1.00  0.00    -0.237 OA
ATOM     85  O   UNL A   1      37.534  30.854  37.443  1.00  0.00    -0.237 OA
ATOM     86  O   UNL A   1      38.408  32.228  39.283  1.00  0.00    -0.744 OA
ENDBRANCH  79  83
ENDBRANCH  52  76
BRANCH  64  87
ATOM     87  C   UNL A   1      42.906  26.392  34.174  1.00  0.00     0.023 A 
ATOM     88  C   UNL A   1      44.151  25.763  34.135  1.00  0.00     0.031 A 
ATOM     89  C   UNL A   1      41.878  25.671  34.833  1.00  0.00     0.131 A 
ATOM     90  C   UNL A   1      44.329  24.468  34.640  1.00  0.00     0.055 A 
ATOM     91  C   UNL A   1      42.079  24.422  35.422  1.00  0.00     0.041 A 
ATOM     92  F   UNL A   1      40.633  26.151  34.965  1.00  0.00    -0.206 F 
ATOM     93  C   UNL A   1      43.310  23.801  35.310  1.00  0.00     0.022 A 
BRANCH  90  94
ATOM     94  S   UNL A   1      45.912  23.665  34.314  1.00  0.00     0.124 S 
ATOM     95  O   UNL A   1      46.512  23.638  35.646  1.00  0.00    -0.237 OA
ATOM     96  O   UNL A   1      45.504  22.370  33.781  1.00  0.00    -0.237 OA
ATOM     97  O   UNL A   1      46.560  24.558  33.356  1.00  0.00    -0.744 OA
ENDBRANCH  90  94
ENDBRANCH  64  87
ENDBRANCH  38  39
ENDBRANCH  31  33
ENDBRANCH  30  31
ENDBRANCH  29  30
ENDBRANCH  28  29
ENDBRANCH  27  28
ENDBRANCH   1  27
TORSDOF 21
ENDMDL
