MODEL 1
REMARK VINA RESULT:     -12.6      0.000      0.000
REMARK SMILES Cc1ccccc1N(CCC(=O)OCCOCCOC(=O)c1ccc(-c2c3nc(c(-c4cc(S(=O)(=O)[O-])ccc4F)c4ccc([nH]4)c(-c4cc(S(=O)(=O)[O-])ccc4F)c4nc(c(-c5cc(S(=O)(=O)[O-])ccc5F)c5ccc2[nH]5)C=C4)C=C3)cc1)C(=O)[C@@H]1C=C[C@H]([NH3+])C1
REMARK SMILES IDX 15 1 14 2 13 3 11 4 12 5 10 6 9 7 8 8 7 9 1 10 2 11 3 12
REMARK SMILES IDX 4 13 6 14 5 15 85 16 86 17 87 18 88 19 92 20 89 21 90 22
REMARK SMILES IDX 91 23 16 27 17 28 18 29 19 30 20 31 21 32 22 33 23 34 84 35
REMARK SMILES IDX 24 36 83 37 25 38 26 39 27 40 77 41 28 42 82 43 76 44 78 45
REMARK SMILES IDX 29 46 81 47 75 48 74 49 30 51 62 52 42 53 61 54 43 55 46 56
REMARK SMILES IDX 60 57 79 58 44 59 45 60 59 62 80 63 47 64 31 65 32 66 40 67
REMARK SMILES IDX 33 68 39 69 41 70 38 71 34 72 35 73 36 74 37 75 63 76 64 77
REMARK SMILES IDX 72 78 65 79 71 80 73 81 70 82 66 83 67 84 68 85 69 86 48 87
REMARK SMILES IDX 49 88 57 89 50 90 56 91 58 92 55 93 51 94 52 95 53 96 54 97
REMARK H PARENT 91 24 91 25 91 26 78 50 46 61
REMARK Flexibility Score: inf
ROOT
ATOM      1  C   UNL A   1      40.461  21.285  27.207  1.00  0.00     0.202 C 
ENDROOT
BRANCH   1   2
ATOM      2  C   UNL A   1      39.689  21.751  25.976  1.00  0.00     0.261 C 
BRANCH   2   3
ATOM      3  O   UNL A   1      38.640  22.658  26.251  1.00  0.00    -0.463 OA
BRANCH   3   4
ATOM      4  C   UNL A   1      37.438  22.408  25.701  1.00  0.00     0.307 C 
ATOM      5  O   UNL A   1      37.098  21.366  25.163  1.00  0.00    -0.252 OA
BRANCH   4   6
ATOM      6  C   UNL A   1      36.543  23.587  25.923  1.00  0.00     0.144 C 
BRANCH   6   7
ATOM      7  C   UNL A   1      35.188  23.137  26.477  1.00  0.00     0.137 C 
BRANCH   7   8
ATOM      8  N   UNL A   1      34.021  23.386  25.652  1.00  0.00    -0.311 N 
BRANCH   8   9
ATOM      9  C   UNL A   1      33.520  22.078  25.034  1.00  0.00     0.047 A 
ATOM     10  C   UNL A   1      33.085  22.922  22.666  1.00  0.00     0.046 C 
ATOM     11  C   UNL A   1      32.940  21.937  23.767  1.00  0.00    -0.027 A 
ATOM     12  C   UNL A   1      32.348  20.708  23.338  1.00  0.00     0.005 A 
ATOM     13  C   UNL A   1      32.400  19.558  24.104  1.00  0.00     0.000 A 
ATOM     14  C   UNL A   1      33.634  20.838  25.734  1.00  0.00     0.026 A 
ATOM     15  C   UNL A   1      33.086  19.616  25.294  1.00  0.00     0.002 A 
ENDBRANCH   8   9
BRANCH   8  16
ATOM     16  C   UNL A   1      33.094  24.414  26.122  1.00  0.00     0.234 C 
ATOM     17  O   UNL A   1      32.088  23.958  26.688  1.00  0.00    -0.274 OA
BRANCH  16  18
ATOM     18  C   UNL A   1      33.253  26.278  26.002  1.00  0.00     0.108 C 
ATOM     19  C   UNL A   1      31.884  27.862  26.008  1.00  0.00    -0.012 C 
ATOM     20  C   UNL A   1      33.690  26.160  23.999  1.00  0.00     0.087 C 
ATOM     21  C   UNL A   1      31.550  28.483  24.525  1.00  0.00     0.033 C 
ATOM     22  C   UNL A   1      32.580  27.620  23.094  1.00  0.00     0.205 C 
BRANCH  22  23
ATOM     23  N   UNL A   1      31.869  27.243  21.866  1.00  0.00    -0.352 N 
ATOM     24  H   UNL A   1      31.720  26.234  21.857  1.00  0.00     0.345 HD
ATOM     25  H   UNL A   1      32.426  27.511  21.056  1.00  0.00     0.345 HD
ATOM     26  H   UNL A   1      30.969  27.721  21.834  1.00  0.00     0.345 HD
ENDBRANCH  22  23
ENDBRANCH  16  18
ENDBRANCH   8  16
ENDBRANCH   7   8
ENDBRANCH   6   7
ENDBRANCH   4   6
ENDBRANCH   3   4
ENDBRANCH   2   3
ENDBRANCH   1   2
BRANCH   1  27
ATOM     27  O   UNL A   1      41.053  19.984  27.125  1.00  0.00    -0.374 OA
BRANCH  27  28
ATOM     28  C   UNL A   1      42.105  19.731  26.201  1.00  0.00     0.202 C 
BRANCH  28  29
ATOM     29  C   UNL A   1      43.329  20.811  26.054  1.00  0.00     0.261 C 
BRANCH  29  30
ATOM     30  O   UNL A   1      43.372  22.383  26.239  1.00  0.00    -0.460 OA
BRANCH  30  31
ATOM     31  C   UNL A   1      43.129  23.578  27.365  1.00  0.00     0.338 C 
ATOM     32  O   UNL A   1      44.052  23.293  28.165  1.00  0.00    -0.246 OA
BRANCH  31  33
ATOM     33  C   UNL A   1      41.545  25.047  27.209  1.00  0.00     0.060 A 
ATOM     34  C   UNL A   1      41.267  26.225  26.289  1.00  0.00     0.016 A 
ATOM     35  C   UNL A   1      40.246  25.152  27.966  1.00  0.00     0.016 A 
ATOM     36  C   UNL A   1      40.581  27.419  26.610  1.00  0.00     0.010 A 
ATOM     37  C   UNL A   1      39.529  26.292  28.291  1.00  0.00     0.010 A 
ATOM     38  C   UNL A   1      39.993  27.482  27.826  1.00  0.00    -0.014 A 
BRANCH  38  39
ATOM     39  C   UNL A   1      40.167  28.562  28.790  1.00  0.00     0.031 A 
ATOM     40  C   UNL A   1      39.154  29.640  28.793  1.00  0.00     0.074 A 
ATOM     41  C   UNL A   1      41.005  28.283  29.837  1.00  0.00     0.049 A 
ATOM     42  N   UNL A   1      39.207  30.642  29.581  1.00  0.00    -0.248 NA
ATOM     43  C   UNL A   1      37.966  29.696  27.930  1.00  0.00     0.031 C 
ATOM     44  C   UNL A   1      41.076  28.859  31.186  1.00  0.00     0.029 A 
ATOM     45  N   UNL A   1      42.029  27.316  29.877  1.00  0.00    -0.354 N 
ATOM     46  C   UNL A   1      38.002  31.308  29.543  1.00  0.00     0.074 A 
ATOM     47  C   UNL A   1      37.284  30.722  28.450  1.00  0.00     0.031 C 
ATOM     48  C   UNL A   1      42.217  28.457  31.792  1.00  0.00     0.029 A 
ATOM     49  C   UNL A   1      43.005  27.710  30.807  1.00  0.00     0.049 A 
ATOM     50  H   UNL A   1      42.056  26.492  29.338  1.00  0.00     0.167 HD
ATOM     51  C   UNL A   1      37.762  32.198  30.542  1.00  0.00     0.034 A 
ATOM     52  C   UNL A   1      44.235  28.082  30.330  1.00  0.00     0.034 A 
ATOM     53  C   UNL A   1      39.000  32.384  31.318  1.00  0.00     0.049 A 
ATOM     54  C   UNL A   1      44.264  29.634  30.350  1.00  0.00     0.074 A 
ATOM     55  C   UNL A   1      39.420  31.957  32.564  1.00  0.00     0.029 A 
ATOM     56  N   UNL A   1      40.153  32.766  30.632  1.00  0.00    -0.354 N 
ATOM     57  N   UNL A   1      43.190  30.394  30.375  1.00  0.00    -0.248 NA
ATOM     58  C   UNL A   1      45.481  30.430  30.489  1.00  0.00     0.031 C 
ATOM     59  C   UNL A   1      40.852  31.966  32.559  1.00  0.00     0.029 A 
ATOM     60  C   UNL A   1      41.299  32.415  31.322  1.00  0.00     0.049 A 
ATOM     61  H   UNL A   1      40.152  33.230  29.763  1.00  0.00     0.167 HD
ATOM     62  C   UNL A   1      43.522  31.700  30.596  1.00  0.00     0.074 A 
ATOM     63  C   UNL A   1      44.979  31.673  30.625  1.00  0.00     0.031 C 
ATOM     64  C   UNL A   1      42.611  32.717  30.751  1.00  0.00     0.034 A 
BRANCH  51  65
ATOM     65  C   UNL A   1      36.424  32.771  30.959  1.00  0.00     0.023 A 
ATOM     66  C   UNL A   1      35.738  33.562  30.014  1.00  0.00     0.031 A 
ATOM     67  C   UNL A   1      35.805  32.687  32.226  1.00  0.00     0.131 A 
ATOM     68  C   UNL A   1      34.542  34.231  30.333  1.00  0.00     0.055 A 
ATOM     69  C   UNL A   1      34.596  33.334  32.535  1.00  0.00     0.041 A 
ATOM     70  F   UNL A   1      36.336  32.009  33.247  1.00  0.00    -0.206 F 
ATOM     71  C   UNL A   1      33.960  34.119  31.590  1.00  0.00     0.022 A 
BRANCH  68  72
ATOM     72  S   UNL A   1      33.773  35.274  29.068  1.00  0.00     0.124 S 
ATOM     73  O   UNL A   1      33.403  36.460  29.834  1.00  0.00    -0.237 OA
ATOM     74  O   UNL A   1      34.856  35.436  28.104  1.00  0.00    -0.237 OA
ATOM     75  O   UNL A   1      32.648  34.466  28.601  1.00  0.00    -0.744 OA
ENDBRANCH  68  72
ENDBRANCH  51  65
BRANCH  52  76
ATOM     76  C   UNL A   1      44.739  27.155  29.216  1.00  0.00     0.023 A 
ATOM     77  C   UNL A   1      44.643  27.491  27.822  1.00  0.00     0.031 A 
ATOM     78  C   UNL A   1      45.650  26.138  29.529  1.00  0.00     0.131 A 
ATOM     79  C   UNL A   1      45.534  26.939  26.852  1.00  0.00     0.055 A 
ATOM     80  C   UNL A   1      46.516  25.586  28.569  1.00  0.00     0.041 A 
ATOM     81  F   UNL A   1      45.825  25.753  30.801  1.00  0.00    -0.206 F 
ATOM     82  C   UNL A   1      46.496  26.016  27.248  1.00  0.00     0.022 A 
BRANCH  79  83
ATOM     83  S   UNL A   1      45.571  27.427  25.064  1.00  0.00     0.124 S 
ATOM     84  O   UNL A   1      46.302  26.321  24.458  1.00  0.00    -0.237 OA
ATOM     85  O   UNL A   1      44.173  27.533  24.695  1.00  0.00    -0.237 OA
ATOM     86  O   UNL A   1      46.269  28.713  25.079  1.00  0.00    -0.744 OA
ENDBRANCH  79  83
ENDBRANCH  52  76
BRANCH  64  87
ATOM     87  C   UNL A   1      42.924  34.151  30.377  1.00  0.00     0.023 A 
ATOM     88  C   UNL A   1      42.820  34.596  29.057  1.00  0.00     0.031 A 
ATOM     89  C   UNL A   1      43.203  35.155  31.337  1.00  0.00     0.131 A 
ATOM     90  C   UNL A   1      43.129  35.915  28.709  1.00  0.00     0.055 A 
ATOM     91  C   UNL A   1      43.363  36.503  31.005  1.00  0.00     0.041 A 
ATOM     92  F   UNL A   1      43.321  34.885  32.646  1.00  0.00    -0.206 F 
ATOM     93  C   UNL A   1      43.362  36.887  29.675  1.00  0.00     0.022 A 
BRANCH  90  94
ATOM     94  S   UNL A   1      43.368  36.262  26.955  1.00  0.00     0.124 S 
ATOM     95  O   UNL A   1      43.143  37.706  26.910  1.00  0.00    -0.237 OA
ATOM     96  O   UNL A   1      44.742  35.828  26.732  1.00  0.00    -0.237 OA
ATOM     97  O   UNL A   1      42.340  35.452  26.304  1.00  0.00    -0.744 OA
ENDBRANCH  90  94
ENDBRANCH  64  87
ENDBRANCH  38  39
ENDBRANCH  31  33
ENDBRANCH  30  31
ENDBRANCH  29  30
ENDBRANCH  28  29
ENDBRANCH  27  28
ENDBRANCH   1  27
TORSDOF 23
ENDMDL
MODEL 2
REMARK VINA RESULT:     -11.9      1.847      2.350
REMARK SMILES Cc1ccccc1N(CCC(=O)OCCOCCOC(=O)c1ccc(-c2c3nc(c(-c4cc(S(=O)(=O)[O-])ccc4F)c4ccc([nH]4)c(-c4cc(S(=O)(=O)[O-])ccc4F)c4nc(c(-c5cc(S(=O)(=O)[O-])ccc5F)c5ccc2[nH]5)C=C4)C=C3)cc1)C(=O)[C@@H]1C=C[C@H]([NH3+])C1
REMARK SMILES IDX 15 1 14 2 13 3 11 4 12 5 10 6 9 7 8 8 7 9 1 10 2 11 3 12
REMARK SMILES IDX 4 13 6 14 5 15 85 16 86 17 87 18 88 19 92 20 89 21 90 22
REMARK SMILES IDX 91 23 16 27 17 28 18 29 19 30 20 31 21 32 22 33 23 34 84 35
REMARK SMILES IDX 24 36 83 37 25 38 26 39 27 40 77 41 28 42 82 43 76 44 78 45
REMARK SMILES IDX 29 46 81 47 75 48 74 49 30 51 62 52 42 53 61 54 43 55 46 56
REMARK SMILES IDX 60 57 79 58 44 59 45 60 59 62 80 63 47 64 31 65 32 66 40 67
REMARK SMILES IDX 33 68 39 69 41 70 38 71 34 72 35 73 36 74 37 75 63 76 64 77
REMARK SMILES IDX 72 78 65 79 71 80 73 81 70 82 66 83 67 84 68 85 69 86 48 87
REMARK SMILES IDX 49 88 57 89 50 90 56 91 58 92 55 93 51 94 52 95 53 96 54 97
REMARK H PARENT 91 24 91 25 91 26 78 50 46 61
REMARK Flexibility Score: inf
ROOT
ATOM      1  C   UNL A   1      38.869  22.154  26.104  1.00  0.00     0.202 C 
ENDROOT
BRANCH   1   2
ATOM      2  C   UNL A   1      37.637  22.969  25.725  1.00  0.00     0.261 C 
BRANCH   2   3
ATOM      3  O   UNL A   1      36.422  22.246  25.757  1.00  0.00    -0.463 OA
BRANCH   3   4
ATOM      4  C   UNL A   1      35.279  22.938  25.600  1.00  0.00     0.307 C 
ATOM      5  O   UNL A   1      35.010  23.674  24.664  1.00  0.00    -0.252 OA
BRANCH   4   6
ATOM      6  C   UNL A   1      34.344  22.599  26.718  1.00  0.00     0.144 C 
BRANCH   6   7
ATOM      7  C   UNL A   1      33.501  21.372  26.363  1.00  0.00     0.137 C 
BRANCH   7   8
ATOM      8  N   UNL A   1      32.697  21.449  25.158  1.00  0.00    -0.311 N 
BRANCH   8   9
ATOM      9  C   UNL A   1      32.813  20.149  24.358  1.00  0.00     0.047 A 
ATOM     10  C   UNL A   1      31.958  21.009  22.113  1.00  0.00     0.046 C 
ATOM     11  C   UNL A   1      32.312  19.930  23.068  1.00  0.00    -0.027 A 
ATOM     12  C   UNL A   1      32.319  18.634  22.464  1.00  0.00     0.005 A 
ATOM     13  C   UNL A   1      32.908  17.541  23.070  1.00  0.00     0.000 A 
ATOM     14  C   UNL A   1      33.497  19.013  24.888  1.00  0.00     0.026 A 
ATOM     15  C   UNL A   1      33.539  17.745  24.276  1.00  0.00     0.002 A 
ENDBRANCH   8   9
BRANCH   8  16
ATOM     16  C   UNL A   1      31.430  22.172  25.261  1.00  0.00     0.234 C 
ATOM     17  O   UNL A   1      30.603  21.626  26.007  1.00  0.00    -0.274 OA
BRANCH  16  18
ATOM     18  C   UNL A   1      30.935  23.789  24.451  1.00  0.00     0.108 C 
ATOM     19  C   UNL A   1      31.640  24.871  22.803  1.00  0.00    -0.012 C 
ATOM     20  C   UNL A   1      31.756  24.869  25.993  1.00  0.00     0.087 C 
ATOM     21  C   UNL A   1      32.599  26.148  23.182  1.00  0.00     0.033 C 
ATOM     22  C   UNL A   1      32.802  26.393  25.119  1.00  0.00     0.205 C 
BRANCH  22  23
ATOM     23  N   UNL A   1      34.149  26.653  25.642  1.00  0.00    -0.352 N 
ATOM     24  H   UNL A   1      34.237  27.642  25.876  1.00  0.00     0.345 HD
ATOM     25  H   UNL A   1      34.841  26.408  24.934  1.00  0.00     0.345 HD
ATOM     26  H   UNL A   1      34.303  26.090  26.478  1.00  0.00     0.345 HD
ENDBRANCH  22  23
ENDBRANCH  16  18
ENDBRANCH   8  16
ENDBRANCH   7   8
ENDBRANCH   6   7
ENDBRANCH   4   6
ENDBRANCH   3   4
ENDBRANCH   2   3
ENDBRANCH   1   2
BRANCH   1  27
ATOM     27  O   UNL A   1      38.914  20.810  25.612  1.00  0.00    -0.374 OA
BRANCH  27  28
ATOM     28  C   UNL A   1      39.966  19.937  26.003  1.00  0.00     0.202 C 
BRANCH  28  29
ATOM     29  C   UNL A   1      41.048  20.429  27.132  1.00  0.00     0.261 C 
BRANCH  29  30
ATOM     30  O   UNL A   1      42.376  21.283  27.014  1.00  0.00    -0.460 OA
BRANCH  30  31
ATOM     31  C   UNL A   1      42.940  22.844  27.050  1.00  0.00     0.338 C 
ATOM     32  O   UNL A   1      44.151  22.615  27.287  1.00  0.00    -0.246 OA
BRANCH  31  33
ATOM     33  C   UNL A   1      41.667  24.571  26.759  1.00  0.00     0.060 A 
ATOM     34  C   UNL A   1      41.745  25.823  25.900  1.00  0.00     0.016 A 
ATOM     35  C   UNL A   1      40.292  24.862  27.305  1.00  0.00     0.016 A 
ATOM     36  C   UNL A   1      41.217  27.101  26.199  1.00  0.00     0.010 A 
ATOM     37  C   UNL A   1      39.726  26.092  27.598  1.00  0.00     0.010 A 
ATOM     38  C   UNL A   1      40.450  27.204  27.307  1.00  0.00    -0.014 A 
BRANCH  38  39
ATOM     39  C   UNL A   1      40.630  28.189  28.366  1.00  0.00     0.031 A 
ATOM     40  C   UNL A   1      39.613  29.258  28.482  1.00  0.00     0.074 A 
ATOM     41  C   UNL A   1      41.481  27.817  29.374  1.00  0.00     0.049 A 
ATOM     42  N   UNL A   1      39.672  30.181  29.361  1.00  0.00    -0.248 NA
ATOM     43  C   UNL A   1      38.417  29.390  27.641  1.00  0.00     0.031 C 
ATOM     44  C   UNL A   1      41.564  28.263  30.771  1.00  0.00     0.029 A 
ATOM     45  N   UNL A   1      42.508  26.854  29.312  1.00  0.00    -0.354 N 
ATOM     46  C   UNL A   1      38.465  30.843  29.399  1.00  0.00     0.074 A 
ATOM     47  C   UNL A   1      37.736  30.359  28.263  1.00  0.00     0.031 C 
ATOM     48  C   UNL A   1      42.714  27.810  31.323  1.00  0.00     0.029 A 
ATOM     49  C   UNL A   1      43.493  27.162  30.265  1.00  0.00     0.049 A 
ATOM     50  H   UNL A   1      42.532  26.085  28.697  1.00  0.00     0.167 HD
ATOM     51  C   UNL A   1      38.232  31.633  30.481  1.00  0.00     0.034 A 
ATOM     52  C   UNL A   1      44.716  27.583  29.812  1.00  0.00     0.034 A 
ATOM     53  C   UNL A   1      39.478  31.750  31.257  1.00  0.00     0.049 A 
ATOM     54  C   UNL A   1      44.740  29.127  29.977  1.00  0.00     0.074 A 
ATOM     55  C   UNL A   1      39.914  31.209  32.452  1.00  0.00     0.029 A 
ATOM     56  N   UNL A   1      40.623  32.200  30.598  1.00  0.00    -0.354 N 
ATOM     57  N   UNL A   1      43.664  29.876  30.086  1.00  0.00    -0.248 NA
ATOM     58  C   UNL A   1      45.956  29.911  30.178  1.00  0.00     0.031 C 
ATOM     59  C   UNL A   1      41.346  31.225  32.433  1.00  0.00     0.029 A 
ATOM     60  C   UNL A   1      41.777  31.790  31.240  1.00  0.00     0.049 A 
ATOM     61  H   UNL A   1      40.611  32.744  29.777  1.00  0.00     0.167 HD
ATOM     62  C   UNL A   1      43.995  31.157  30.425  1.00  0.00     0.074 A 
ATOM     63  C   UNL A   1      45.451  31.134  30.437  1.00  0.00     0.031 C 
ATOM     64  C   UNL A   1      43.082  32.151  30.686  1.00  0.00     0.034 A 
BRANCH  51  65
ATOM     65  C   UNL A   1      36.898  32.158  30.963  1.00  0.00     0.023 A 
ATOM     66  C   UNL A   1      36.077  32.804  30.016  1.00  0.00     0.031 A 
ATOM     67  C   UNL A   1      36.398  32.164  32.285  1.00  0.00     0.131 A 
ATOM     68  C   UNL A   1      34.867  33.424  30.380  1.00  0.00     0.055 A 
ATOM     69  C   UNL A   1      35.177  32.759  32.643  1.00  0.00     0.041 A 
ATOM     70  F   UNL A   1      37.063  31.628  33.312  1.00  0.00    -0.206 F 
ATOM     71  C   UNL A   1      34.406  33.402  31.690  1.00  0.00     0.022 A 
BRANCH  68  72
ATOM     72  S   UNL A   1      33.918  34.283  29.098  1.00  0.00     0.124 S 
ATOM     73  O   UNL A   1      33.561  33.189  28.200  1.00  0.00    -0.237 OA
ATOM     74  O   UNL A   1      32.829  34.874  29.867  1.00  0.00    -0.237 OA
ATOM     75  O   UNL A   1      34.878  35.241  28.551  1.00  0.00    -0.744 OA
ENDBRANCH  68  72
ENDBRANCH  51  65
BRANCH  52  76
ATOM     76  C   UNL A   1      45.211  26.768  28.610  1.00  0.00     0.023 A 
ATOM     77  C   UNL A   1      45.522  27.365  27.340  1.00  0.00     0.031 A 
ATOM     78  C   UNL A   1      45.743  25.489  28.820  1.00  0.00     0.131 A 
ATOM     79  C   UNL A   1      46.442  26.761  26.429  1.00  0.00     0.055 A 
ATOM     80  C   UNL A   1      46.637  24.891  27.915  1.00  0.00     0.041 A 
ATOM     81  F   UNL A   1      45.522  24.845  29.974  1.00  0.00    -0.206 F 
ATOM     82  C   UNL A   1      47.026  25.541  26.750  1.00  0.00     0.022 A 
BRANCH  79  83
ATOM     83  S   UNL A   1      47.006  27.534  24.841  1.00  0.00     0.124 S 
ATOM     84  O   UNL A   1      45.816  28.259  24.413  1.00  0.00    -0.237 OA
ATOM     85  O   UNL A   1      48.137  28.354  25.226  1.00  0.00    -0.237 OA
ATOM     86  O   UNL A   1      47.374  26.382  24.017  1.00  0.00    -0.744 OA
ENDBRANCH  79  83
ENDBRANCH  52  76
BRANCH  64  87
ATOM     87  C   UNL A   1      43.386  33.616  30.446  1.00  0.00     0.023 A 
ATOM     88  C   UNL A   1      43.675  34.479  31.505  1.00  0.00     0.031 A 
ATOM     89  C   UNL A   1      43.533  34.170  29.150  1.00  0.00     0.131 A 
ATOM     90  C   UNL A   1      43.936  35.835  31.285  1.00  0.00     0.055 A 
ATOM     91  C   UNL A   1      43.941  35.488  28.929  1.00  0.00     0.041 A 
ATOM     92  F   UNL A   1      43.302  33.462  28.035  1.00  0.00    -0.206 F 
ATOM     93  C   UNL A   1      44.111  36.344  30.003  1.00  0.00     0.022 A 
BRANCH  90  94
ATOM     94  S   UNL A   1      43.877  36.922  32.724  1.00  0.00     0.124 S 
ATOM     95  O   UNL A   1      43.702  38.230  32.095  1.00  0.00    -0.237 OA
ATOM     96  O   UNL A   1      42.723  36.412  33.456  1.00  0.00    -0.237 OA
ATOM     97  O   UNL A   1      45.171  36.709  33.367  1.00  0.00    -0.744 OA
ENDBRANCH  90  94
ENDBRANCH  64  87
ENDBRANCH  38  39
ENDBRANCH  31  33
ENDBRANCH  30  31
ENDBRANCH  29  30
ENDBRANCH  28  29
ENDBRANCH  27  28
ENDBRANCH   1  27
TORSDOF 23
ENDMDL
MODEL 3
REMARK VINA RESULT:     -11.6      1.561      3.407
REMARK SMILES Cc1ccccc1N(CCC(=O)OCCOCCOC(=O)c1ccc(-c2c3nc(c(-c4cc(S(=O)(=O)[O-])ccc4F)c4ccc([nH]4)c(-c4cc(S(=O)(=O)[O-])ccc4F)c4nc(c(-c5cc(S(=O)(=O)[O-])ccc5F)c5ccc2[nH]5)C=C4)C=C3)cc1)C(=O)[C@@H]1C=C[C@H]([NH3+])C1
REMARK SMILES IDX 15 1 14 2 13 3 11 4 12 5 10 6 9 7 8 8 7 9 1 10 2 11 3 12
REMARK SMILES IDX 4 13 6 14 5 15 85 16 86 17 87 18 88 19 92 20 89 21 90 22
REMARK SMILES IDX 91 23 16 27 17 28 18 29 19 30 20 31 21 32 22 33 23 34 84 35
REMARK SMILES IDX 24 36 83 37 25 38 26 39 27 40 77 41 28 42 82 43 76 44 78 45
REMARK SMILES IDX 29 46 81 47 75 48 74 49 30 51 62 52 42 53 61 54 43 55 46 56
REMARK SMILES IDX 60 57 79 58 44 59 45 60 59 62 80 63 47 64 31 65 32 66 40 67
REMARK SMILES IDX 33 68 39 69 41 70 38 71 34 72 35 73 36 74 37 75 63 76 64 77
REMARK SMILES IDX 72 78 65 79 71 80 73 81 70 82 66 83 67 84 68 85 69 86 48 87
REMARK SMILES IDX 49 88 57 89 50 90 56 91 58 92 55 93 51 94 52 95 53 96 54 97
REMARK H PARENT 91 24 91 25 91 26 78 50 46 61
REMARK Flexibility Score: inf
ROOT
ATOM      1  C   UNL A   1      37.550  23.174  26.121  1.00  0.00     0.202 C 
ENDROOT
BRANCH   1   2
ATOM      2  C   UNL A   1      36.262  23.850  25.662  1.00  0.00     0.261 C 
BRANCH   2   3
ATOM      3  O   UNL A   1      35.786  23.413  24.405  1.00  0.00    -0.463 OA
BRANCH   3   4
ATOM      4  C   UNL A   1      34.678  24.000  23.917  1.00  0.00     0.307 C 
ATOM      5  O   UNL A   1      33.972  23.566  23.021  1.00  0.00    -0.252 OA
BRANCH   4   6
ATOM      6  C   UNL A   1      34.392  25.239  24.707  1.00  0.00     0.144 C 
BRANCH   6   7
ATOM      7  C   UNL A   1      32.893  25.549  24.700  1.00  0.00     0.137 C 
BRANCH   7   8
ATOM      8  N   UNL A   1      32.295  25.947  25.961  1.00  0.00    -0.311 N 
BRANCH   8   9
ATOM      9  C   UNL A   1      32.020  27.452  25.965  1.00  0.00     0.047 A 
ATOM     10  C   UNL A   1      30.525  27.570  23.901  1.00  0.00     0.046 C 
ATOM     11  C   UNL A   1      31.388  28.176  24.946  1.00  0.00    -0.027 A 
ATOM     12  C   UNL A   1      31.323  29.604  24.960  1.00  0.00     0.005 A 
ATOM     13  C   UNL A   1      31.789  30.353  26.024  1.00  0.00     0.000 A 
ATOM     14  C   UNL A   1      32.389  28.268  27.078  1.00  0.00     0.026 A 
ATOM     15  C   UNL A   1      32.289  29.673  27.110  1.00  0.00     0.002 A 
ENDBRANCH   8   9
BRANCH   8  16
ATOM     16  C   UNL A   1      31.367  24.998  26.573  1.00  0.00     0.234 C 
ATOM     17  O   UNL A   1      30.196  25.407  26.624  1.00  0.00    -0.274 OA
BRANCH  16  18
ATOM     18  C   UNL A   1      31.716  23.282  27.241  1.00  0.00     0.108 C 
ATOM     19  C   UNL A   1      33.458  22.158  27.536  1.00  0.00    -0.012 C 
ATOM     20  C   UNL A   1      30.989  22.414  25.528  1.00  0.00     0.087 C 
ATOM     21  C   UNL A   1      33.741  21.020  26.386  1.00  0.00     0.033 C 
ATOM     22  C   UNL A   1      32.323  20.946  25.031  1.00  0.00     0.205 C 
BRANCH  22  23
ATOM     23  N   UNL A   1      32.723  20.868  23.621  1.00  0.00    -0.352 N 
ATOM     24  H   UNL A   1      32.276  20.062  23.185  1.00  0.00     0.345 HD
ATOM     25  H   UNL A   1      33.736  20.770  23.560  1.00  0.00     0.345 HD
ATOM     26  H   UNL A   1      32.434  21.719  23.138  1.00  0.00     0.345 HD
ENDBRANCH  22  23
ENDBRANCH  16  18
ENDBRANCH   8  16
ENDBRANCH   7   8
ENDBRANCH   6   7
ENDBRANCH   4   6
ENDBRANCH   3   4
ENDBRANCH   2   3
ENDBRANCH   1   2
BRANCH   1  27
ATOM     27  O   UNL A   1      38.101  22.196  25.233  1.00  0.00    -0.374 OA
BRANCH  27  28
ATOM     28  C   UNL A   1      39.150  21.340  25.670  1.00  0.00     0.202 C 
BRANCH  28  29
ATOM     29  C   UNL A   1      40.069  21.777  26.954  1.00  0.00     0.261 C 
BRANCH  29  30
ATOM     30  O   UNL A   1      41.352  22.698  27.065  1.00  0.00    -0.460 OA
BRANCH  30  31
ATOM     31  C   UNL A   1      41.858  24.182  27.608  1.00  0.00     0.338 C 
ATOM     32  O   UNL A   1      42.976  23.855  28.076  1.00  0.00    -0.246 OA
BRANCH  31  33
ATOM     33  C   UNL A   1      40.665  25.980  27.429  1.00  0.00     0.060 A 
ATOM     34  C   UNL A   1      40.832  27.305  26.703  1.00  0.00     0.016 A 
ATOM     35  C   UNL A   1      39.275  26.273  27.936  1.00  0.00     0.016 A 
ATOM     36  C   UNL A   1      40.336  28.569  27.102  1.00  0.00     0.010 A 
ATOM     37  C   UNL A   1      38.740  27.491  28.322  1.00  0.00     0.010 A 
ATOM     38  C   UNL A   1      39.517  28.596  28.177  1.00  0.00    -0.014 A 
BRANCH  38  39
ATOM     39  C   UNL A   1      39.678  29.464  29.336  1.00  0.00     0.031 A 
ATOM     40  C   UNL A   1      38.820  30.667  29.410  1.00  0.00     0.074 A 
ATOM     41  C   UNL A   1      40.308  28.895  30.412  1.00  0.00     0.049 A 
ATOM     42  N   UNL A   1      38.880  31.507  30.368  1.00  0.00    -0.248 NA
ATOM     43  C   UNL A   1      37.792  31.042  28.430  1.00  0.00     0.031 C 
ATOM     44  C   UNL A   1      40.248  29.225  31.842  1.00  0.00     0.029 A 
ATOM     45  N   UNL A   1      41.184  27.792  30.402  1.00  0.00    -0.354 N 
ATOM     46  C   UNL A   1      37.788  32.343  30.303  1.00  0.00     0.074 A 
ATOM     47  C   UNL A   1      37.173  32.059  29.039  1.00  0.00     0.031 C 
ATOM     48  C   UNL A   1      41.226  28.562  32.502  1.00  0.00     0.029 A 
ATOM     49  C   UNL A   1      42.051  27.877  31.504  1.00  0.00     0.049 A 
ATOM     50  H   UNL A   1      41.188  27.073  29.729  1.00  0.00     0.167 HD
ATOM     51  C   UNL A   1      37.514  33.083  31.410  1.00  0.00     0.034 A 
ATOM     52  C   UNL A   1      43.376  28.134  31.262  1.00  0.00     0.034 A 
ATOM     53  C   UNL A   1      38.635  32.951  32.355  1.00  0.00     0.049 A 
ATOM     54  C   UNL A   1      43.597  29.639  31.569  1.00  0.00     0.074 A 
ATOM     55  C   UNL A   1      38.807  32.268  33.545  1.00  0.00     0.029 A 
ATOM     56  N   UNL A   1      39.917  33.263  31.902  1.00  0.00    -0.354 N 
ATOM     57  N   UNL A   1      42.635  30.537  31.598  1.00  0.00    -0.248 NA
ATOM     58  C   UNL A   1      44.869  30.210  32.003  1.00  0.00     0.031 C 
ATOM     59  C   UNL A   1      40.213  32.063  33.721  1.00  0.00     0.029 A 
ATOM     60  C   UNL A   1      40.893  32.636  32.654  1.00  0.00     0.049 A 
ATOM     61  H   UNL A   1      40.105  33.858  31.139  1.00  0.00     0.167 HD
ATOM     62  C   UNL A   1      43.092  31.725  32.094  1.00  0.00     0.074 A 
ATOM     63  C   UNL A   1      44.513  31.475  32.300  1.00  0.00     0.031 C 
ATOM     64  C   UNL A   1      42.304  32.827  32.317  1.00  0.00     0.034 A 
BRANCH  51  65
ATOM     65  C   UNL A   1      36.212  33.774  31.752  1.00  0.00     0.023 A 
ATOM     66  C   UNL A   1      35.405  34.202  30.679  1.00  0.00     0.031 A 
ATOM     67  C   UNL A   1      35.735  34.132  33.033  1.00  0.00     0.131 A 
ATOM     68  C   UNL A   1      34.230  34.950  30.882  1.00  0.00     0.055 A 
ATOM     69  C   UNL A   1      34.547  34.855  33.238  1.00  0.00     0.041 A 
ATOM     70  F   UNL A   1      36.392  33.838  34.158  1.00  0.00    -0.206 F 
ATOM     71  C   UNL A   1      33.790  35.276  32.159  1.00  0.00     0.022 A 
BRANCH  68  72
ATOM     72  S   UNL A   1      33.299  35.506  29.432  1.00  0.00     0.124 S 
ATOM     73  O   UNL A   1      34.366  35.856  28.500  1.00  0.00    -0.237 OA
ATOM     74  O   UNL A   1      32.511  34.324  29.101  1.00  0.00    -0.237 OA
ATOM     75  O   UNL A   1      32.527  36.639  29.939  1.00  0.00    -0.744 OA
ENDBRANCH  68  72
ENDBRANCH  51  65
BRANCH  52  76
ATOM     76  C   UNL A   1      43.921  27.337  30.069  1.00  0.00     0.023 A 
ATOM     77  C   UNL A   1      43.976  27.871  28.736  1.00  0.00     0.031 A 
ATOM     78  C   UNL A   1      44.734  26.220  30.303  1.00  0.00     0.131 A 
ATOM     79  C   UNL A   1      44.915  27.395  27.771  1.00  0.00     0.055 A 
ATOM     80  C   UNL A   1      45.648  25.744  29.347  1.00  0.00     0.041 A 
ATOM     81  F   UNL A   1      44.767  25.648  31.514  1.00  0.00    -0.206 F 
ATOM     82  C   UNL A   1      45.777  26.356  28.105  1.00  0.00     0.022 A 
BRANCH  79  83
ATOM     83  S   UNL A   1      45.147  28.125  26.083  1.00  0.00     0.124 S 
ATOM     84  O   UNL A   1      46.411  28.837  26.227  1.00  0.00    -0.237 OA
ATOM     85  O   UNL A   1      45.169  26.977  25.199  1.00  0.00    -0.237 OA
ATOM     86  O   UNL A   1      43.962  28.968  25.914  1.00  0.00    -0.744 OA
ENDBRANCH  79  83
ENDBRANCH  52  76
BRANCH  64  87
ATOM     87  C   UNL A   1      42.847  34.240  32.255  1.00  0.00     0.023 A 
ATOM     88  C   UNL A   1      43.032  34.892  31.034  1.00  0.00     0.031 A 
ATOM     89  C   UNL A   1      43.069  35.032  33.408  1.00  0.00     0.131 A 
ATOM     90  C   UNL A   1      43.553  36.190  30.976  1.00  0.00     0.055 A 
ATOM     91  C   UNL A   1      43.445  36.377  33.348  1.00  0.00     0.041 A 
ATOM     92  F   UNL A   1      42.920  34.550  34.651  1.00  0.00    -0.206 F 
ATOM     93  C   UNL A   1      43.726  36.956  32.122  1.00  0.00     0.022 A 
BRANCH  90  94
ATOM     94  S   UNL A   1      44.139  36.762  29.368  1.00  0.00     0.124 S 
ATOM     95  O   UNL A   1      44.129  35.521  28.596  1.00  0.00    -0.237 OA
ATOM     96  O   UNL A   1      43.128  37.746  28.997  1.00  0.00    -0.237 OA
ATOM     97  O   UNL A   1      45.464  37.302  29.659  1.00  0.00    -0.744 OA
ENDBRANCH  90  94
ENDBRANCH  64  87
ENDBRANCH  38  39
ENDBRANCH  31  33
ENDBRANCH  30  31
ENDBRANCH  29  30
ENDBRANCH  28  29
ENDBRANCH  27  28
ENDBRANCH   1  27
TORSDOF 23
ENDMDL
