MODEL 1
REMARK VINA RESULT:     -11.2      0.000      0.000
REMARK SMILES Cn1nc(N2CCC(CC(=O)OCCOCCOC(=O)c3ccc(-c4c5nc(c(-c6cc(S(=O)(=O)[O-])ccc6F)c6ccc([nH]6)c(-c6cc(S(=O)(=O)[O-])ccc6F)c6nc(c(-c7cc(S(=O)(=O)[O-])ccc7F)c7ccc4[nH]7)C=C6)C=C5)cc3)CC2)c(=O)n(C)c1=O
REMARK SMILES IDX 16 1 15 2 14 3 13 4 12 5 10 6 11 7 9 8 8 9 5 10 6 11 85 12
REMARK SMILES IDX 7 13 84 14 4 15 1 16 2 17 3 18 90 19 88 20 91 21 86 22 89 23
REMARK SMILES IDX 87 24 17 25 18 26 19 27 20 28 21 29 22 30 83 31 23 32 82 33
REMARK SMILES IDX 24 34 25 35 26 36 76 37 27 38 81 39 75 40 77 41 28 42 80 43
REMARK SMILES IDX 74 44 73 45 29 47 61 48 41 49 60 50 42 51 45 52 59 53 78 54
REMARK SMILES IDX 43 55 44 56 58 58 79 59 46 60 30 61 31 62 39 63 32 64 38 65
REMARK SMILES IDX 40 66 37 67 33 68 34 69 35 70 36 71 62 72 63 73 71 74 64 75
REMARK SMILES IDX 70 76 72 77 69 78 65 79 66 80 67 81 68 82 47 83 48 84 56 85
REMARK SMILES IDX 49 86 55 87 57 88 54 89 50 90 51 91 52 92 53 93
REMARK H PARENT 77 46 45 57
REMARK Flexibility Score: inf
ROOT
ATOM      1  C   UNL A   1      31.666  31.696  26.991  1.00  0.00     0.202 C 
ENDROOT
BRANCH   1   2
ATOM      2  O   UNL A   1      32.386  30.737  26.220  1.00  0.00    -0.374 OA
BRANCH   2   3
ATOM      3  C   UNL A   1      31.629  29.895  25.349  1.00  0.00     0.202 C 
BRANCH   3   4
ATOM      4  C   UNL A   1      32.291  28.585  24.917  1.00  0.00     0.261 C 
BRANCH   4   5
ATOM      5  O   UNL A   1      32.074  28.328  23.517  1.00  0.00    -0.463 OA
BRANCH   5   6
ATOM      6  C   UNL A   1      30.868  27.821  23.170  1.00  0.00     0.306 C 
ATOM      7  O   UNL A   1      30.376  27.881  22.048  1.00  0.00    -0.252 OA
BRANCH   6   8
ATOM      8  C   UNL A   1      30.139  27.183  24.337  1.00  0.00     0.126 C 
BRANCH   8   9
ATOM      9  C   UNL A   1      29.999  25.645  24.387  1.00  0.00     0.003 C 
ATOM     10  N   UNL A   1      31.340  23.106  24.755  1.00  0.00    -0.351 N 
ATOM     11  C   UNL A   1      30.811  23.428  23.439  1.00  0.00     0.118 C 
ATOM     12  C   UNL A   1      30.572  23.625  25.874  1.00  0.00     0.118 C 
ATOM     13  C   UNL A   1      30.762  24.939  23.249  1.00  0.00     0.026 C 
ATOM     14  C   UNL A   1      30.503  25.151  25.765  1.00  0.00     0.026 C 
BRANCH  10  15
ATOM     15  C   UNL A   1      32.636  22.633  24.909  1.00  0.00     0.215 A 
ATOM     16  C   UNL A   1      35.943  23.950  25.387  1.00  0.00     0.180 C 
ATOM     17  N   UNL A   1      34.903  22.960  25.157  1.00  0.00    -0.216 N 
ATOM     18  N   UNL A   1      33.636  23.457  25.029  1.00  0.00    -0.145 NA
ATOM     19  C   UNL A   1      35.246  21.613  25.105  1.00  0.00     0.346 A 
ATOM     20  N   UNL A   1      34.206  20.729  24.898  1.00  0.00    -0.259 N 
ATOM     21  O   UNL A   1      36.406  21.228  25.262  1.00  0.00    -0.246 OA
ATOM     22  C   UNL A   1      32.884  21.118  24.895  1.00  0.00     0.299 A 
ATOM     23  C   UNL A   1      34.484  19.317  24.747  1.00  0.00     0.159 C 
ATOM     24  O   UNL A   1      31.930  20.346  24.867  1.00  0.00    -0.265 OA
ENDBRANCH  10  15
ENDBRANCH   8   9
ENDBRANCH   6   8
ENDBRANCH   5   6
ENDBRANCH   4   5
ENDBRANCH   3   4
ENDBRANCH   2   3
ENDBRANCH   1   2
BRANCH   1  25
ATOM     25  C   UNL A   1      32.203  33.134  27.000  1.00  0.00     0.261 C 
BRANCH  25  26
ATOM     26  O   UNL A   1      32.280  33.689  28.327  1.00  0.00    -0.460 OA
BRANCH  26  27
ATOM     27  C   UNL A   1      33.357  34.488  28.540  1.00  0.00     0.338 C 
ATOM     28  O   UNL A   1      33.357  35.709  28.622  1.00  0.00    -0.246 OA
BRANCH  27  29
ATOM     29  C   UNL A   1      34.537  33.670  28.875  1.00  0.00     0.060 A 
ATOM     30  C   UNL A   1      34.366  32.648  29.815  1.00  0.00     0.016 A 
ATOM     31  C   UNL A   1      35.797  33.930  28.331  1.00  0.00     0.016 A 
ATOM     32  C   UNL A   1      35.461  31.904  30.244  1.00  0.00     0.010 A 
ATOM     33  C   UNL A   1      36.899  33.185  28.771  1.00  0.00     0.010 A 
ATOM     34  C   UNL A   1      36.742  32.187  29.751  1.00  0.00    -0.014 A 
BRANCH  34  35
ATOM     35  C   UNL A   1      37.916  31.522  30.373  1.00  0.00     0.031 A 
ATOM     36  C   UNL A   1      38.284  31.858  31.793  1.00  0.00     0.074 A 
ATOM     37  C   UNL A   1      38.593  30.567  29.708  1.00  0.00     0.049 A 
ATOM     38  N   UNL A   1      39.238  31.364  32.539  1.00  0.00    -0.248 NA
ATOM     39  C   UNL A   1      37.467  32.883  32.462  1.00  0.00     0.031 C 
ATOM     40  C   UNL A   1      38.295  30.116  28.349  1.00  0.00     0.029 A 
ATOM     41  N   UNL A   1      39.655  29.787  30.095  1.00  0.00    -0.354 N 
ATOM     42  C   UNL A   1      39.128  32.005  33.767  1.00  0.00     0.074 A 
ATOM     43  C   UNL A   1      38.047  32.960  33.651  1.00  0.00     0.031 C 
ATOM     44  C   UNL A   1      39.142  29.124  28.023  1.00  0.00     0.029 A 
ATOM     45  C   UNL A   1      40.064  28.892  29.134  1.00  0.00     0.049 A 
ATOM     46  H   UNL A   1      40.085  29.863  30.977  1.00  0.00     0.167 HD
ATOM     47  C   UNL A   1      39.850  31.802  34.896  1.00  0.00     0.034 A 
ATOM     48  C   UNL A   1      41.070  27.993  29.143  1.00  0.00     0.034 A 
ATOM     49  C   UNL A   1      40.924  30.849  35.004  1.00  0.00     0.049 A 
ATOM     50  C   UNL A   1      41.930  27.861  30.376  1.00  0.00     0.074 A 
ATOM     51  C   UNL A   1      41.710  30.565  36.108  1.00  0.00     0.029 A 
ATOM     52  N   UNL A   1      41.369  30.029  33.978  1.00  0.00    -0.354 N 
ATOM     53  N   UNL A   1      41.822  28.486  31.525  1.00  0.00    -0.248 NA
ATOM     54  C   UNL A   1      43.047  26.905  30.315  1.00  0.00     0.031 C 
ATOM     55  C   UNL A   1      42.675  29.628  35.729  1.00  0.00     0.029 A 
ATOM     56  C   UNL A   1      42.442  29.269  34.411  1.00  0.00     0.049 A 
ATOM     57  H   UNL A   1      40.980  29.994  33.074  1.00  0.00     0.167 HD
ATOM     58  C   UNL A   1      42.842  27.982  32.329  1.00  0.00     0.074 A 
ATOM     59  C   UNL A   1      43.553  27.001  31.538  1.00  0.00     0.031 C 
ATOM     60  C   UNL A   1      43.152  28.301  33.611  1.00  0.00     0.034 A 
BRANCH  47  61
ATOM     61  C   UNL A   1      39.521  32.643  36.101  1.00  0.00     0.023 A 
ATOM     62  C   UNL A   1      38.644  32.185  37.098  1.00  0.00     0.031 A 
ATOM     63  C   UNL A   1      40.120  33.904  36.272  1.00  0.00     0.131 A 
ATOM     64  C   UNL A   1      38.363  32.997  38.206  1.00  0.00     0.055 A 
ATOM     65  C   UNL A   1      39.885  34.681  37.406  1.00  0.00     0.041 A 
ATOM     66  F   UNL A   1      40.951  34.396  35.339  1.00  0.00    -0.206 F 
ATOM     67  C   UNL A   1      38.996  34.232  38.379  1.00  0.00     0.022 A 
BRANCH  64  68
ATOM     68  S   UNL A   1      37.096  32.454  39.383  1.00  0.00     0.124 S 
ATOM     69  O   UNL A   1      37.467  31.055  39.589  1.00  0.00    -0.237 OA
ATOM     70  O   UNL A   1      37.311  33.345  40.515  1.00  0.00    -0.237 OA
ATOM     71  O   UNL A   1      35.844  32.659  38.657  1.00  0.00    -0.744 OA
ENDBRANCH  64  68
ENDBRANCH  47  61
BRANCH  48  72
ATOM     72  C   UNL A   1      41.333  27.158  27.937  1.00  0.00     0.023 A 
ATOM     73  C   UNL A   1      40.990  25.798  27.909  1.00  0.00     0.031 A 
ATOM     74  C   UNL A   1      41.936  27.713  26.794  1.00  0.00     0.131 A 
ATOM     75  C   UNL A   1      41.268  25.032  26.765  1.00  0.00     0.055 A 
ATOM     76  C   UNL A   1      42.173  26.957  25.645  1.00  0.00     0.041 A 
ATOM     77  F   UNL A   1      42.280  29.010  26.771  1.00  0.00    -0.206 F 
ATOM     78  C   UNL A   1      41.843  25.606  25.629  1.00  0.00     0.022 A 
BRANCH  75  79
ATOM     79  S   UNL A   1      40.891  23.258  26.791  1.00  0.00     0.124 S 
ATOM     80  O   UNL A   1      41.768  22.755  25.740  1.00  0.00    -0.237 OA
ATOM     81  O   UNL A   1      41.247  22.891  28.157  1.00  0.00    -0.237 OA
ATOM     82  O   UNL A   1      39.462  23.210  26.489  1.00  0.00    -0.744 OA
ENDBRANCH  75  79
ENDBRANCH  48  72
BRANCH  60  83
ATOM     83  C   UNL A   1      44.299  27.572  34.262  1.00  0.00     0.023 A 
ATOM     84  C   UNL A   1      44.099  26.381  34.978  1.00  0.00     0.031 A 
ATOM     85  C   UNL A   1      45.618  28.028  34.081  1.00  0.00     0.131 A 
ATOM     86  C   UNL A   1      45.202  25.691  35.503  1.00  0.00     0.055 A 
ATOM     87  C   UNL A   1      46.714  27.314  34.567  1.00  0.00     0.041 A 
ATOM     88  F   UNL A   1      45.862  29.157  33.396  1.00  0.00    -0.206 F 
ATOM     89  C   UNL A   1      46.508  26.139  35.285  1.00  0.00     0.022 A 
BRANCH  86  90
ATOM     90  S   UNL A   1      44.910  24.198  36.490  1.00  0.00     0.124 S 
ATOM     91  O   UNL A   1      44.057  23.412  35.604  1.00  0.00    -0.237 OA
ATOM     92  O   UNL A   1      46.260  23.685  36.696  1.00  0.00    -0.237 OA
ATOM     93  O   UNL A   1      44.252  24.706  37.694  1.00  0.00    -0.744 OA
ENDBRANCH  86  90
ENDBRANCH  60  83
ENDBRANCH  34  35
ENDBRANCH  27  29
ENDBRANCH  26  27
ENDBRANCH  25  26
ENDBRANCH   1  25
TORSDOF 19
ENDMDL
MODEL 2
REMARK VINA RESULT:     -11.1      1.507      1.877
REMARK SMILES Cn1nc(N2CCC(CC(=O)OCCOCCOC(=O)c3ccc(-c4c5nc(c(-c6cc(S(=O)(=O)[O-])ccc6F)c6ccc([nH]6)c(-c6cc(S(=O)(=O)[O-])ccc6F)c6nc(c(-c7cc(S(=O)(=O)[O-])ccc7F)c7ccc4[nH]7)C=C6)C=C5)cc3)CC2)c(=O)n(C)c1=O
REMARK SMILES IDX 16 1 15 2 14 3 13 4 12 5 10 6 11 7 9 8 8 9 5 10 6 11 85 12
REMARK SMILES IDX 7 13 84 14 4 15 1 16 2 17 3 18 90 19 88 20 91 21 86 22 89 23
REMARK SMILES IDX 87 24 17 25 18 26 19 27 20 28 21 29 22 30 83 31 23 32 82 33
REMARK SMILES IDX 24 34 25 35 26 36 76 37 27 38 81 39 75 40 77 41 28 42 80 43
REMARK SMILES IDX 74 44 73 45 29 47 61 48 41 49 60 50 42 51 45 52 59 53 78 54
REMARK SMILES IDX 43 55 44 56 58 58 79 59 46 60 30 61 31 62 39 63 32 64 38 65
REMARK SMILES IDX 40 66 37 67 33 68 34 69 35 70 36 71 62 72 63 73 71 74 64 75
REMARK SMILES IDX 70 76 72 77 69 78 65 79 66 80 67 81 68 82 47 83 48 84 56 85
REMARK SMILES IDX 49 86 55 87 57 88 54 89 50 90 51 91 52 92 53 93
REMARK H PARENT 77 46 45 57
REMARK Flexibility Score: inf
ROOT
ATOM      1  C   UNL A   1      31.403  31.557  26.309  1.00  0.00     0.202 C 
ENDROOT
BRANCH   1   2
ATOM      2  O   UNL A   1      32.504  30.661  26.436  1.00  0.00    -0.374 OA
BRANCH   2   3
ATOM      3  C   UNL A   1      32.269  29.425  27.112  1.00  0.00     0.202 C 
BRANCH   3   4
ATOM      4  C   UNL A   1      32.343  28.154  26.263  1.00  0.00     0.261 C 
BRANCH   4   5
ATOM      5  O   UNL A   1      31.570  28.286  25.056  1.00  0.00    -0.463 OA
BRANCH   5   6
ATOM      6  C   UNL A   1      32.252  28.252  23.888  1.00  0.00     0.306 C 
ATOM      7  O   UNL A   1      33.433  28.554  23.754  1.00  0.00    -0.252 OA
BRANCH   6   8
ATOM      8  C   UNL A   1      31.389  27.832  22.714  1.00  0.00     0.126 C 
BRANCH   8   9
ATOM      9  C   UNL A   1      31.384  26.350  22.276  1.00  0.00     0.003 C 
ATOM     10  N   UNL A   1      32.379  23.678  22.773  1.00  0.00    -0.351 N 
ATOM     11  C   UNL A   1      32.805  24.364  21.564  1.00  0.00     0.118 C 
ATOM     12  C   UNL A   1      31.027  23.981  23.213  1.00  0.00     0.118 C 
ATOM     13  C   UNL A   1      32.760  25.872  21.773  1.00  0.00     0.026 C 
ATOM     14  C   UNL A   1      30.914  25.486  23.471  1.00  0.00     0.026 C 
BRANCH  10  15
ATOM     15  C   UNL A   1      33.300  23.055  23.604  1.00  0.00     0.215 A 
ATOM     16  C   UNL A   1      36.173  23.930  25.574  1.00  0.00     0.180 C 
ATOM     17  N   UNL A   1      35.179  23.082  24.937  1.00  0.00    -0.216 N 
ATOM     18  N   UNL A   1      34.276  23.729  24.141  1.00  0.00    -0.145 NA
ATOM     19  C   UNL A   1      35.194  21.712  25.186  1.00  0.00     0.346 A 
ATOM     20  N   UNL A   1      34.212  20.971  24.561  1.00  0.00    -0.259 N 
ATOM     21  O   UNL A   1      36.018  21.195  25.943  1.00  0.00    -0.246 OA
ATOM     22  C   UNL A   1      33.179  21.545  23.854  1.00  0.00     0.299 A 
ATOM     23  C   UNL A   1      34.205  19.530  24.697  1.00  0.00     0.159 C 
ATOM     24  O   UNL A   1      32.210  20.932  23.414  1.00  0.00    -0.265 OA
ENDBRANCH  10  15
ENDBRANCH   8   9
ENDBRANCH   6   8
ENDBRANCH   5   6
ENDBRANCH   4   5
ENDBRANCH   3   4
ENDBRANCH   2   3
ENDBRANCH   1   2
BRANCH   1  25
ATOM     25  C   UNL A   1      31.576  32.967  26.889  1.00  0.00     0.261 C 
BRANCH  25  26
ATOM     26  O   UNL A   1      32.946  33.412  26.866  1.00  0.00    -0.460 OA
BRANCH  26  27
ATOM     27  C   UNL A   1      33.400  33.896  28.050  1.00  0.00     0.338 C 
ATOM     28  O   UNL A   1      32.813  34.662  28.801  1.00  0.00    -0.246 OA
BRANCH  27  29
ATOM     29  C   UNL A   1      34.644  33.205  28.436  1.00  0.00     0.060 A 
ATOM     30  C   UNL A   1      34.523  31.946  29.034  1.00  0.00     0.016 A 
ATOM     31  C   UNL A   1      35.900  33.796  28.276  1.00  0.00     0.016 A 
ATOM     32  C   UNL A   1      35.653  31.285  29.507  1.00  0.00     0.010 A 
ATOM     33  C   UNL A   1      37.035  33.133  28.761  1.00  0.00     0.010 A 
ATOM     34  C   UNL A   1      36.914  31.887  29.405  1.00  0.00    -0.014 A 
BRANCH  34  35
ATOM     35  C   UNL A   1      38.069  31.259  30.098  1.00  0.00     0.031 A 
ATOM     36  C   UNL A   1      38.354  31.624  31.530  1.00  0.00     0.074 A 
ATOM     37  C   UNL A   1      38.802  30.312  29.484  1.00  0.00     0.049 A 
ATOM     38  N   UNL A   1      39.278  31.163  32.333  1.00  0.00    -0.248 NA
ATOM     39  C   UNL A   1      37.478  32.637  32.140  1.00  0.00     0.031 C 
ATOM     40  C   UNL A   1      38.588  29.836  28.118  1.00  0.00     0.029 A 
ATOM     41  N   UNL A   1      39.861  29.564  29.937  1.00  0.00    -0.354 N 
ATOM     42  C   UNL A   1      39.088  31.818  33.544  1.00  0.00     0.074 A 
ATOM     43  C   UNL A   1      37.993  32.744  33.357  1.00  0.00     0.031 C 
ATOM     44  C   UNL A   1      39.474  28.861  27.852  1.00  0.00     0.029 A 
ATOM     45  C   UNL A   1      40.342  28.666  29.012  1.00  0.00     0.049 A 
ATOM     46  H   UNL A   1      40.242  29.662  30.840  1.00  0.00     0.167 HD
ATOM     47  C   UNL A   1      39.754  31.648  34.711  1.00  0.00     0.034 A 
ATOM     48  C   UNL A   1      41.367  27.792  29.088  1.00  0.00     0.034 A 
ATOM     49  C   UNL A   1      40.843  30.723  34.891  1.00  0.00     0.049 A 
ATOM     50  C   UNL A   1      42.163  27.698  30.367  1.00  0.00     0.074 A 
ATOM     51  C   UNL A   1      41.576  30.473  36.039  1.00  0.00     0.029 A 
ATOM     52  N   UNL A   1      41.361  29.900  33.901  1.00  0.00    -0.354 N 
ATOM     53  N   UNL A   1      41.980  28.336  31.498  1.00  0.00    -0.248 NA
ATOM     54  C   UNL A   1      43.304  26.769  30.378  1.00  0.00     0.031 C 
ATOM     55  C   UNL A   1      42.581  29.555  35.724  1.00  0.00     0.029 A 
ATOM     56  C   UNL A   1      42.428  29.172  34.401  1.00  0.00     0.049 A 
ATOM     57  H   UNL A   1      41.021  29.843  32.978  1.00  0.00     0.167 HD
ATOM     58  C   UNL A   1      42.967  27.868  32.362  1.00  0.00     0.074 A 
ATOM     59  C   UNL A   1      43.742  26.893  31.624  1.00  0.00     0.031 C 
ATOM     60  C   UNL A   1      43.201  28.212  33.654  1.00  0.00     0.034 A 
BRANCH  47  61
ATOM     61  C   UNL A   1      39.342  32.497  35.885  1.00  0.00     0.023 A 
ATOM     62  C   UNL A   1      39.822  33.807  36.049  1.00  0.00     0.031 A 
ATOM     63  C   UNL A   1      38.430  32.001  36.834  1.00  0.00     0.131 A 
ATOM     64  C   UNL A   1      39.413  34.566  37.155  1.00  0.00     0.055 A 
ATOM     65  C   UNL A   1      37.979  32.782  37.898  1.00  0.00     0.041 A 
ATOM     66  F   UNL A   1      37.955  30.749  36.734  1.00  0.00    -0.206 F 
ATOM     67  C   UNL A   1      38.477  34.071  38.067  1.00  0.00     0.022 A 
BRANCH  64  68
ATOM     68  S   UNL A   1      40.184  36.183  37.431  1.00  0.00     0.124 S 
ATOM     69  O   UNL A   1      40.224  36.725  36.075  1.00  0.00    -0.237 OA
ATOM     70  O   UNL A   1      39.252  36.826  38.349  1.00  0.00    -0.237 OA
ATOM     71  O   UNL A   1      41.488  35.848  38.000  1.00  0.00    -0.744 OA
ENDBRANCH  64  68
ENDBRANCH  47  61
BRANCH  48  72
ATOM     72  C   UNL A   1      41.712  26.947  27.910  1.00  0.00     0.023 A 
ATOM     73  C   UNL A   1      41.353  25.593  27.859  1.00  0.00     0.031 A 
ATOM     74  C   UNL A   1      42.414  27.488  26.817  1.00  0.00     0.131 A 
ATOM     75  C   UNL A   1      41.709  24.817  26.744  1.00  0.00     0.055 A 
ATOM     76  C   UNL A   1      42.731  26.723  25.693  1.00  0.00     0.041 A 
ATOM     77  F   UNL A   1      42.779  28.780  26.817  1.00  0.00    -0.206 F 
ATOM     78  C   UNL A   1      42.383  25.377  25.656  1.00  0.00     0.022 A 
BRANCH  75  79
ATOM     79  S   UNL A   1      41.305  23.049  26.746  1.00  0.00     0.124 S 
ATOM     80  O   UNL A   1      41.965  22.596  27.965  1.00  0.00    -0.237 OA
ATOM     81  O   UNL A   1      39.846  23.070  26.773  1.00  0.00    -0.237 OA
ATOM     82  O   UNL A   1      41.894  22.565  25.499  1.00  0.00    -0.744 OA
ENDBRANCH  75  79
ENDBRANCH  48  72
BRANCH  60  83
ATOM     83  C   UNL A   1      44.330  27.520  34.375  1.00  0.00     0.023 A 
ATOM     84  C   UNL A   1      44.157  26.257  34.965  1.00  0.00     0.031 A 
ATOM     85  C   UNL A   1      45.614  28.093  34.389  1.00  0.00     0.131 A 
ATOM     86  C   UNL A   1      45.252  25.611  35.559  1.00  0.00     0.055 A 
ATOM     87  C   UNL A   1      46.709  27.427  34.942  1.00  0.00     0.041 A 
ATOM     88  F   UNL A   1      45.831  29.295  33.831  1.00  0.00    -0.206 F 
ATOM     89  C   UNL A   1      46.530  26.179  35.533  1.00  0.00     0.022 A 
BRANCH  86  90
ATOM     90  S   UNL A   1      44.986  24.017  36.381  1.00  0.00     0.124 S 
ATOM     91  O   UNL A   1      44.907  24.410  37.784  1.00  0.00    -0.237 OA
ATOM     92  O   UNL A   1      43.741  23.554  35.777  1.00  0.00    -0.237 OA
ATOM     93  O   UNL A   1      46.172  23.242  36.019  1.00  0.00    -0.744 OA
ENDBRANCH  86  90
ENDBRANCH  60  83
ENDBRANCH  34  35
ENDBRANCH  27  29
ENDBRANCH  26  27
ENDBRANCH  25  26
ENDBRANCH   1  25
TORSDOF 19
ENDMDL
MODEL 3
REMARK VINA RESULT:     -11.0      1.354      7.586
REMARK SMILES Cn1nc(N2CCC(CC(=O)OCCOCCOC(=O)c3ccc(-c4c5nc(c(-c6cc(S(=O)(=O)[O-])ccc6F)c6ccc([nH]6)c(-c6cc(S(=O)(=O)[O-])ccc6F)c6nc(c(-c7cc(S(=O)(=O)[O-])ccc7F)c7ccc4[nH]7)C=C6)C=C5)cc3)CC2)c(=O)n(C)c1=O
REMARK SMILES IDX 16 1 15 2 14 3 13 4 12 5 10 6 11 7 9 8 8 9 5 10 6 11 85 12
REMARK SMILES IDX 7 13 84 14 4 15 1 16 2 17 3 18 90 19 88 20 91 21 86 22 89 23
REMARK SMILES IDX 87 24 17 25 18 26 19 27 20 28 21 29 22 30 83 31 23 32 82 33
REMARK SMILES IDX 24 34 25 35 26 36 76 37 27 38 81 39 75 40 77 41 28 42 80 43
REMARK SMILES IDX 74 44 73 45 29 47 61 48 41 49 60 50 42 51 45 52 59 53 78 54
REMARK SMILES IDX 43 55 44 56 58 58 79 59 46 60 30 61 31 62 39 63 32 64 38 65
REMARK SMILES IDX 40 66 37 67 33 68 34 69 35 70 36 71 62 72 63 73 71 74 64 75
REMARK SMILES IDX 70 76 72 77 69 78 65 79 66 80 67 81 68 82 47 83 48 84 56 85
REMARK SMILES IDX 49 86 55 87 57 88 54 89 50 90 51 91 52 92 53 93
REMARK H PARENT 77 46 45 57
REMARK Flexibility Score: inf
ROOT
ATOM      1  C   UNL A   1      31.061  30.064  24.930  1.00  0.00     0.202 C 
ENDROOT
BRANCH   1   2
ATOM      2  O   UNL A   1      29.936  30.282  24.082  1.00  0.00    -0.374 OA
BRANCH   2   3
ATOM      3  C   UNL A   1      29.942  29.638  22.807  1.00  0.00     0.202 C 
BRANCH   3   4
ATOM      4  C   UNL A   1      31.171  28.791  22.472  1.00  0.00     0.261 C 
BRANCH   4   5
ATOM      5  O   UNL A   1      30.817  27.411  22.274  1.00  0.00    -0.463 OA
BRANCH   5   6
ATOM      6  C   UNL A   1      31.814  26.570  21.916  1.00  0.00     0.306 C 
ATOM      7  O   UNL A   1      31.863  25.945  20.861  1.00  0.00    -0.252 OA
BRANCH   6   8
ATOM      8  C   UNL A   1      32.883  26.433  22.983  1.00  0.00     0.126 C 
BRANCH   8   9
ATOM      9  C   UNL A   1      32.586  25.588  24.242  1.00  0.00     0.003 C 
ATOM     10  N   UNL A   1      33.005  23.079  25.623  1.00  0.00    -0.351 N 
ATOM     11  C   UNL A   1      31.673  23.384  25.127  1.00  0.00     0.118 C 
ATOM     12  C   UNL A   1      33.777  24.226  26.071  1.00  0.00     0.118 C 
ATOM     13  C   UNL A   1      31.762  24.323  23.930  1.00  0.00     0.026 C 
ATOM     14  C   UNL A   1      33.932  25.207  24.906  1.00  0.00     0.026 C 
BRANCH  10  15
ATOM     15  C   UNL A   1      33.597  21.847  25.376  1.00  0.00     0.215 A 
ATOM     16  C   UNL A   1      36.893  20.471  24.998  1.00  0.00     0.180 C 
ATOM     17  N   UNL A   1      35.439  20.516  25.000  1.00  0.00    -0.216 N 
ATOM     18  N   UNL A   1      34.889  21.739  25.267  1.00  0.00    -0.145 NA
ATOM     19  C   UNL A   1      34.722  19.348  24.762  1.00  0.00     0.346 A 
ATOM     20  N   UNL A   1      33.347  19.462  24.795  1.00  0.00    -0.259 N 
ATOM     21  O   UNL A   1      35.282  18.268  24.561  1.00  0.00    -0.246 OA
ATOM     22  C   UNL A   1      32.702  20.613  25.189  1.00  0.00     0.299 A 
ATOM     23  C   UNL A   1      32.524  18.315  24.476  1.00  0.00     0.159 C 
ATOM     24  O   UNL A   1      31.492  20.706  25.376  1.00  0.00    -0.265 OA
ENDBRANCH  10  15
ENDBRANCH   8   9
ENDBRANCH   6   8
ENDBRANCH   5   6
ENDBRANCH   4   5
ENDBRANCH   3   4
ENDBRANCH   2   3
ENDBRANCH   1   2
BRANCH   1  25
ATOM     25  C   UNL A   1      31.343  31.122  26.005  1.00  0.00     0.261 C 
BRANCH  25  26
ATOM     26  O   UNL A   1      32.514  30.820  26.787  1.00  0.00    -0.460 OA
BRANCH  26  27
ATOM     27  C   UNL A   1      33.193  31.910  27.228  1.00  0.00     0.338 C 
ATOM     28  O   UNL A   1      32.766  33.053  27.312  1.00  0.00    -0.246 OA
BRANCH  27  29
ATOM     29  C   UNL A   1      34.487  31.501  27.804  1.00  0.00     0.060 A 
ATOM     30  C   UNL A   1      34.700  30.133  28.003  1.00  0.00     0.016 A 
ATOM     31  C   UNL A   1      35.451  32.433  28.198  1.00  0.00     0.016 A 
ATOM     32  C   UNL A   1      35.861  29.690  28.631  1.00  0.00     0.010 A 
ATOM     33  C   UNL A   1      36.614  31.986  28.838  1.00  0.00     0.010 A 
ATOM     34  C   UNL A   1      36.812  30.614  29.083  1.00  0.00    -0.014 A 
BRANCH  34  35
ATOM     35  C   UNL A   1      37.937  30.134  29.927  1.00  0.00     0.031 A 
ATOM     36  C   UNL A   1      38.947  29.188  29.337  1.00  0.00     0.074 A 
ATOM     37  C   UNL A   1      38.102  30.603  31.178  1.00  0.00     0.049 A 
ATOM     38  N   UNL A   1      40.025  28.684  29.880  1.00  0.00    -0.248 NA
ATOM     39  C   UNL A   1      38.716  28.757  27.949  1.00  0.00     0.031 C 
ATOM     40  C   UNL A   1      37.220  31.565  31.839  1.00  0.00     0.029 A 
ATOM     41  N   UNL A   1      39.081  30.353  32.108  1.00  0.00    -0.354 N 
ATOM     42  C   UNL A   1      40.607  27.889  28.900  1.00  0.00     0.074 A 
ATOM     43  C   UNL A   1      39.737  27.938  27.745  1.00  0.00     0.031 C 
ATOM     44  C   UNL A   1      37.711  31.838  33.061  1.00  0.00     0.029 A 
ATOM     45  C   UNL A   1      38.920  31.048  33.284  1.00  0.00     0.049 A 
ATOM     46  H   UNL A   1      39.828  29.732  31.948  1.00  0.00     0.167 HD
ATOM     47  C   UNL A   1      41.771  27.197  28.952  1.00  0.00     0.034 A 
ATOM     48  C   UNL A   1      39.657  31.043  34.414  1.00  0.00     0.034 A 
ATOM     49  C   UNL A   1      42.632  27.155  30.106  1.00  0.00     0.049 A 
ATOM     50  C   UNL A   1      40.893  30.181  34.485  1.00  0.00     0.074 A 
ATOM     51  C   UNL A   1      43.837  26.488  30.252  1.00  0.00     0.029 A 
ATOM     52  N   UNL A   1      42.384  27.797  31.310  1.00  0.00    -0.354 N 
ATOM     53  N   UNL A   1      41.421  29.422  33.554  1.00  0.00    -0.248 NA
ATOM     54  C   UNL A   1      41.630  30.170  35.758  1.00  0.00     0.031 C 
ATOM     55  C   UNL A   1      44.279  26.668  31.565  1.00  0.00     0.029 A 
ATOM     56  C   UNL A   1      43.391  27.510  32.216  1.00  0.00     0.049 A 
ATOM     57  H   UNL A   1      41.605  28.371  31.494  1.00  0.00     0.167 HD
ATOM     58  C   UNL A   1      42.564  28.864  34.121  1.00  0.00     0.074 A 
ATOM     59  C   UNL A   1      42.652  29.373  35.474  1.00  0.00     0.031 C 
ATOM     60  C   UNL A   1      43.463  28.013  33.565  1.00  0.00     0.034 A 
BRANCH  47  61
ATOM     61  C   UNL A   1      42.174  26.408  27.735  1.00  0.00     0.023 A 
ATOM     62  C   UNL A   1      41.842  25.050  27.598  1.00  0.00     0.031 A 
ATOM     63  C   UNL A   1      42.868  27.031  26.683  1.00  0.00     0.131 A 
ATOM     64  C   UNL A   1      42.235  24.349  26.448  1.00  0.00     0.055 A 
ATOM     65  C   UNL A   1      43.201  26.345  25.515  1.00  0.00     0.041 A 
ATOM     66  F   UNL A   1      43.225  28.322  26.772  1.00  0.00    -0.206 F 
ATOM     67  C   UNL A   1      42.891  24.994  25.395  1.00  0.00     0.022 A 
BRANCH  64  68
ATOM     68  S   UNL A   1      41.946  22.561  26.380  1.00  0.00     0.124 S 
ATOM     69  O   UNL A   1      42.597  22.206  25.121  1.00  0.00    -0.237 OA
ATOM     70  O   UNL A   1      42.600  22.087  27.593  1.00  0.00    -0.237 OA
ATOM     71  O   UNL A   1      40.488  22.450  26.373  1.00  0.00    -0.744 OA
ENDBRANCH  64  68
ENDBRANCH  47  61
BRANCH  48  72
ATOM     72  C   UNL A   1      39.237  31.871  35.580  1.00  0.00     0.023 A 
ATOM     73  C   UNL A   1      38.450  31.331  36.607  1.00  0.00     0.031 A 
ATOM     74  C   UNL A   1      39.616  33.223  35.677  1.00  0.00     0.131 A 
ATOM     75  C   UNL A   1      38.053  32.141  37.683  1.00  0.00     0.055 A 
ATOM     76  C   UNL A   1      39.252  34.014  36.768  1.00  0.00     0.041 A 
ATOM     77  F   UNL A   1      40.370  33.786  34.720  1.00  0.00    -0.206 F 
ATOM     78  C   UNL A   1      38.461  33.474  37.777  1.00  0.00     0.022 A 
BRANCH  75  79
ATOM     79  S   UNL A   1      36.966  31.436  38.951  1.00  0.00     0.124 S 
ATOM     80  O   UNL A   1      37.786  31.568  40.150  1.00  0.00    -0.237 OA
ATOM     81  O   UNL A   1      35.798  32.307  38.871  1.00  0.00    -0.237 OA
ATOM     82  O   UNL A   1      36.750  30.066  38.490  1.00  0.00    -0.744 OA
ENDBRANCH  75  79
ENDBRANCH  48  72
BRANCH  60  83
ATOM     83  C   UNL A   1      44.641  27.585  34.402  1.00  0.00     0.023 A 
ATOM     84  C   UNL A   1      44.666  26.337  35.048  1.00  0.00     0.031 A 
ATOM     85  C   UNL A   1      45.787  28.397  34.476  1.00  0.00     0.131 A 
ATOM     86  C   UNL A   1      45.813  25.942  35.753  1.00  0.00     0.055 A 
ATOM     87  C   UNL A   1      46.940  27.980  35.142  1.00  0.00     0.041 A 
ATOM     88  F   UNL A   1      45.814  29.595  33.869  1.00  0.00    -0.206 F 
ATOM     89  C   UNL A   1      46.956  26.747  35.787  1.00  0.00     0.022 A 
BRANCH  86  90
ATOM     90  S   UNL A   1      45.791  24.361  36.641  1.00  0.00     0.124 S 
ATOM     91  O   UNL A   1      47.213  24.049  36.736  1.00  0.00    -0.237 OA
ATOM     92  O   UNL A   1      45.129  24.711  37.894  1.00  0.00    -0.237 OA
ATOM     93  O   UNL A   1      45.020  23.484  35.761  1.00  0.00    -0.744 OA
ENDBRANCH  86  90
ENDBRANCH  60  83
ENDBRANCH  34  35
ENDBRANCH  27  29
ENDBRANCH  26  27
ENDBRANCH  25  26
ENDBRANCH   1  25
TORSDOF 19
ENDMDL
