MODEL 1
REMARK VINA RESULT:     -12.2      0.000      0.000
REMARK SMILES Cc1n[nH]c2c1[C@@]1(C(=O)N([C@@H](C)C(=O)OCCOCCOC(=O)c3ccc(-c4c5nc(c(-c6cc(S(=O)(=O)[O-])ccc6F)c6ccc([nH]6)c(-c6cc(S(=O)(=O)[O-])ccc6F)c6nc(c(-c7cc(S(=O)(=O)[O-])ccc7F)c7ccc4[nH]7)C=C6)C=C5)cc3)c3ccccc31)C(C#N)=C(N)O2
REMARK SMILES IDX 19 1 18 2 17 3 16 4 15 5 13 6 14 7 11 8 12 9 10 10 1 11 2 12
REMARK SMILES IDX 3 13 6 14 4 15 5 16 7 17 98 19 8 20 92 21 93 22 96 23 9 24
REMARK SMILES IDX 87 25 91 26 88 27 90 28 89 29 94 30 95 31 97 32 20 35 21 36
REMARK SMILES IDX 22 37 23 38 24 39 25 40 86 41 26 42 85 43 27 44 28 45 29 46
REMARK SMILES IDX 79 47 30 48 84 49 78 50 80 51 31 52 83 53 77 54 76 55 32 57
REMARK SMILES IDX 64 58 44 59 63 60 45 61 48 62 62 63 81 64 46 65 47 66 61 68
REMARK SMILES IDX 82 69 49 70 33 71 34 72 42 73 35 74 41 75 43 76 40 77 36 78
REMARK SMILES IDX 37 79 38 80 39 81 65 82 66 83 74 84 67 85 73 86 75 87 72 88
REMARK SMILES IDX 68 89 69 90 70 91 71 92 50 93 51 94 59 95 52 96 58 97 60 98
REMARK SMILES IDX 57 99 53 100 54 101 55 102 56 103
REMARK H PARENT 4 18 97 33 97 34 80 56 48 67
REMARK Flexibility Score: inf
ROOT
ATOM      1  C   UNL A   1      33.014  29.963  25.719  1.00  0.00     0.202 C 
ENDROOT
BRANCH   1   2
ATOM      2  O   UNL A   1      31.897  29.085  25.644  1.00  0.00    -0.374 OA
BRANCH   2   3
ATOM      3  C   UNL A   1      31.258  28.913  24.381  1.00  0.00     0.202 C 
BRANCH   3   4
ATOM      4  C   UNL A   1      32.120  28.481  23.182  1.00  0.00     0.261 C 
BRANCH   4   5
ATOM      5  O   UNL A   1      31.538  27.455  22.347  1.00  0.00    -0.462 OA
BRANCH   5   6
ATOM      6  C   UNL A   1      32.394  26.454  22.036  1.00  0.00     0.329 C 
ATOM      7  O   UNL A   1      33.490  26.620  21.500  1.00  0.00    -0.250 OA
BRANCH   6   8
ATOM      8  C   UNL A   1      31.934  25.033  22.397  1.00  0.00     0.197 C 
ATOM      9  C   UNL A   1      30.574  25.169  23.095  1.00  0.00     0.044 C 
BRANCH   8  10
ATOM     10  N   UNL A   1      32.772  24.005  23.053  1.00  0.00    -0.297 N 
ATOM     11  C   UNL A   1      30.836  23.367  26.185  1.00  0.00     0.069 C 
ATOM     12  C   UNL A   1      32.104  22.875  26.767  1.00  0.00     0.068 A 
ATOM     13  N   UNL A   1      32.128  22.564  28.075  1.00  0.00    -0.177 NA
ATOM     14  C   UNL A   1      33.370  22.664  26.157  1.00  0.00     0.063 A 
ATOM     15  N   UNL A   1      33.403  22.219  28.313  1.00  0.00    -0.246 N 
ATOM     16  C   UNL A   1      34.167  22.237  27.194  1.00  0.00     0.222 A 
ATOM     17  C   UNL A   1      33.967  22.826  24.787  1.00  0.00     0.149 C 
ATOM     18  H   UNL A   1      33.747  21.981  29.204  1.00  0.00     0.193 HD
ATOM     19  O   UNL A   1      35.454  21.919  27.172  1.00  0.00    -0.422 OA
ATOM     20  C   UNL A   1      33.621  24.235  24.163  1.00  0.00     0.248 C 
ATOM     21  C   UNL A   1      33.217  21.887  23.871  1.00  0.00     0.002 A 
ATOM     22  C   UNL A   1      35.460  22.502  24.835  1.00  0.00     0.114 C 
ATOM     23  C   UNL A   1      36.118  22.094  25.951  1.00  0.00     0.208 C 
ATOM     24  O   UNL A   1      33.976  25.308  24.586  1.00  0.00    -0.273 OA
ATOM     25  C   UNL A   1      32.569  22.618  22.866  1.00  0.00     0.050 A 
ATOM     26  C   UNL A   1      33.147  20.498  23.916  1.00  0.00     0.008 A 
ATOM     27  C   UNL A   1      31.837  21.965  21.888  1.00  0.00     0.027 A 
ATOM     28  C   UNL A   1      32.412  19.840  22.933  1.00  0.00     0.001 A 
ATOM     29  C   UNL A   1      31.765  20.568  21.925  1.00  0.00     0.002 A 
BRANCH  22  30
ATOM     30  C   UNL A   1      36.266  22.764  23.572  1.00  0.00     0.102 C 
ATOM     31  N   UNL A   1      36.935  22.980  22.525  1.00  0.00    -0.193 NA
ENDBRANCH  22  30
BRANCH  23  32
ATOM     32  N   UNL A   1      37.454  21.831  26.032  1.00  0.00    -0.369 N 
ATOM     33  H   UNL A   1      38.079  22.537  26.318  1.00  0.00     0.159 HD
ATOM     34  H   UNL A   1      37.795  20.935  25.804  1.00  0.00     0.159 HD
ENDBRANCH  23  32
ENDBRANCH   8  10
ENDBRANCH   6   8
ENDBRANCH   5   6
ENDBRANCH   4   5
ENDBRANCH   3   4
ENDBRANCH   2   3
ENDBRANCH   1   2
BRANCH   1  35
ATOM     35  C   UNL A   1      33.488  30.423  27.099  1.00  0.00     0.261 C 
BRANCH  35  36
ATOM     36  O   UNL A   1      34.913  30.479  27.169  1.00  0.00    -0.460 OA
BRANCH  36  37
ATOM     37  C   UNL A   1      35.437  31.560  27.812  1.00  0.00     0.338 C 
ATOM     38  O   UNL A   1      34.969  32.686  27.899  1.00  0.00    -0.246 OA
BRANCH  37  39
ATOM     39  C   UNL A   1      36.490  31.034  28.689  1.00  0.00     0.060 A 
ATOM     40  C   UNL A   1      37.570  31.824  29.105  1.00  0.00     0.016 A 
ATOM     41  C   UNL A   1      36.529  29.639  28.742  1.00  0.00     0.016 A 
ATOM     42  C   UNL A   1      38.766  31.191  29.405  1.00  0.00     0.010 A 
ATOM     43  C   UNL A   1      37.729  29.017  29.003  1.00  0.00     0.010 A 
ATOM     44  C   UNL A   1      38.857  29.800  29.252  1.00  0.00    -0.014 A 
BRANCH  44  45
ATOM     45  C   UNL A   1      40.157  29.167  29.407  1.00  0.00     0.031 A 
ATOM     46  C   UNL A   1      40.481  28.785  30.800  1.00  0.00     0.074 A 
ATOM     47  C   UNL A   1      40.928  28.786  28.370  1.00  0.00     0.049 A 
ATOM     48  N   UNL A   1      41.461  29.183  31.539  1.00  0.00    -0.248 NA
ATOM     49  C   UNL A   1      39.498  27.938  31.492  1.00  0.00     0.031 C 
ATOM     50  C   UNL A   1      40.562  28.756  26.951  1.00  0.00     0.029 A 
ATOM     51  N   UNL A   1      42.162  28.205  28.383  1.00  0.00    -0.354 N 
ATOM     52  C   UNL A   1      41.318  28.498  32.742  1.00  0.00     0.074 A 
ATOM     53  C   UNL A   1      40.008  27.899  32.719  1.00  0.00     0.031 C 
ATOM     54  C   UNL A   1      41.443  27.983  26.282  1.00  0.00     0.029 A 
ATOM     55  C   UNL A   1      42.494  27.568  27.197  1.00  0.00     0.049 A 
ATOM     56  H   UNL A   1      42.762  28.236  29.164  1.00  0.00     0.167 HD
ATOM     57  C   UNL A   1      42.364  28.283  33.587  1.00  0.00     0.034 A 
ATOM     58  C   UNL A   1      43.489  26.665  27.015  1.00  0.00     0.034 A 
ATOM     59  C   UNL A   1      43.481  29.131  33.279  1.00  0.00     0.049 A 
ATOM     60  C   UNL A   1      44.436  26.767  28.150  1.00  0.00     0.074 A 
ATOM     61  C   UNL A   1      43.688  30.495  33.265  1.00  0.00     0.029 A 
ATOM     62  N   UNL A   1      44.522  28.578  32.576  1.00  0.00    -0.354 N 
ATOM     63  N   UNL A   1      45.244  27.768  28.359  1.00  0.00    -0.248 NA
ATOM     64  C   UNL A   1      44.217  25.895  29.295  1.00  0.00     0.031 C 
ATOM     65  C   UNL A   1      44.596  30.724  32.195  1.00  0.00     0.029 A 
ATOM     66  C   UNL A   1      44.925  29.488  31.633  1.00  0.00     0.049 A 
ATOM     67  H   UNL A   1      44.910  27.685  32.722  1.00  0.00     0.167 HD
ATOM     68  C   UNL A   1      45.263  27.915  29.738  1.00  0.00     0.074 A 
ATOM     69  C   UNL A   1      44.733  26.659  30.259  1.00  0.00     0.031 C 
ATOM     70  C   UNL A   1      45.432  29.139  30.320  1.00  0.00     0.034 A 
BRANCH  57  71
ATOM     71  C   UNL A   1      42.472  27.076  34.483  1.00  0.00     0.023 A 
ATOM     72  C   UNL A   1      43.275  25.965  34.161  1.00  0.00     0.031 A 
ATOM     73  C   UNL A   1      41.940  27.091  35.786  1.00  0.00     0.131 A 
ATOM     74  C   UNL A   1      43.482  24.916  35.061  1.00  0.00     0.055 A 
ATOM     75  C   UNL A   1      42.214  26.082  36.718  1.00  0.00     0.041 A 
ATOM     76  F   UNL A   1      41.185  28.116  36.211  1.00  0.00    -0.206 F 
ATOM     77  C   UNL A   1      42.982  24.981  36.355  1.00  0.00     0.022 A 
BRANCH  74  78
ATOM     78  S   UNL A   1      44.408  23.445  34.545  1.00  0.00     0.124 S 
ATOM     79  O   UNL A   1      45.550  24.036  33.858  1.00  0.00    -0.237 OA
ATOM     80  O   UNL A   1      44.698  22.811  35.828  1.00  0.00    -0.237 OA
ATOM     81  O   UNL A   1      43.459  22.723  33.702  1.00  0.00    -0.744 OA
ENDBRANCH  74  78
ENDBRANCH  57  71
BRANCH  58  82
ATOM     82  C   UNL A   1      43.418  25.444  26.177  1.00  0.00     0.023 A 
ATOM     83  C   UNL A   1      42.532  24.406  26.523  1.00  0.00     0.031 A 
ATOM     84  C   UNL A   1      44.415  25.153  25.230  1.00  0.00     0.131 A 
ATOM     85  C   UNL A   1      42.683  23.126  25.975  1.00  0.00     0.055 A 
ATOM     86  C   UNL A   1      44.558  23.876  24.675  1.00  0.00     0.041 A 
ATOM     87  F   UNL A   1      45.312  26.087  24.878  1.00  0.00    -0.206 F 
ATOM     88  C   UNL A   1      43.697  22.851  25.058  1.00  0.00     0.022 A 
BRANCH  85  89
ATOM     89  S   UNL A   1      41.598  21.774  26.508  1.00  0.00     0.124 S 
ATOM     90  O   UNL A   1      40.279  22.257  26.105  1.00  0.00    -0.237 OA
ATOM     91  O   UNL A   1      42.121  20.653  25.736  1.00  0.00    -0.237 OA
ATOM     92  O   UNL A   1      41.816  21.710  27.950  1.00  0.00    -0.744 OA
ENDBRANCH  85  89
ENDBRANCH  58  82
BRANCH  70  93
ATOM     93  C   UNL A   1      45.926  30.293  29.474  1.00  0.00     0.023 A 
ATOM     94  C   UNL A   1      44.997  30.883  28.595  1.00  0.00     0.031 A 
ATOM     95  C   UNL A   1      47.275  30.669  29.339  1.00  0.00     0.131 A 
ATOM     96  C   UNL A   1      45.425  31.774  27.603  1.00  0.00     0.055 A 
ATOM     97  C   UNL A   1      47.687  31.618  28.397  1.00  0.00     0.041 A 
ATOM     98  F   UNL A   1      48.246  30.072  30.046  1.00  0.00    -0.206 F 
ATOM     99  C   UNL A   1      46.764  32.161  27.510  1.00  0.00     0.022 A 
BRANCH  96 100
ATOM    100  S   UNL A   1      44.281  32.316  26.307  1.00  0.00     0.124 S 
ATOM    101  O   UNL A   1      45.185  32.596  25.194  1.00  0.00    -0.237 OA
ATOM    102  O   UNL A   1      43.424  31.145  26.137  1.00  0.00    -0.237 OA
ATOM    103  O   UNL A   1      43.620  33.484  26.883  1.00  0.00    -0.744 OA
ENDBRANCH  96 100
ENDBRANCH  70  93
ENDBRANCH  44  45
ENDBRANCH  37  39
ENDBRANCH  36  37
ENDBRANCH  35  36
ENDBRANCH   1  35
TORSDOF 20
ENDMDL
MODEL 2
REMARK VINA RESULT:     -11.7      3.273      8.782
REMARK SMILES Cc1n[nH]c2c1[C@@]1(C(=O)N([C@@H](C)C(=O)OCCOCCOC(=O)c3ccc(-c4c5nc(c(-c6cc(S(=O)(=O)[O-])ccc6F)c6ccc([nH]6)c(-c6cc(S(=O)(=O)[O-])ccc6F)c6nc(c(-c7cc(S(=O)(=O)[O-])ccc7F)c7ccc4[nH]7)C=C6)C=C5)cc3)c3ccccc31)C(C#N)=C(N)O2
REMARK SMILES IDX 19 1 18 2 17 3 16 4 15 5 13 6 14 7 11 8 12 9 10 10 1 11 2 12
REMARK SMILES IDX 3 13 6 14 4 15 5 16 7 17 98 19 8 20 92 21 93 22 96 23 9 24
REMARK SMILES IDX 87 25 91 26 88 27 90 28 89 29 94 30 95 31 97 32 20 35 21 36
REMARK SMILES IDX 22 37 23 38 24 39 25 40 86 41 26 42 85 43 27 44 28 45 29 46
REMARK SMILES IDX 79 47 30 48 84 49 78 50 80 51 31 52 83 53 77 54 76 55 32 57
REMARK SMILES IDX 64 58 44 59 63 60 45 61 48 62 62 63 81 64 46 65 47 66 61 68
REMARK SMILES IDX 82 69 49 70 33 71 34 72 42 73 35 74 41 75 43 76 40 77 36 78
REMARK SMILES IDX 37 79 38 80 39 81 65 82 66 83 74 84 67 85 73 86 75 87 72 88
REMARK SMILES IDX 68 89 69 90 70 91 71 92 50 93 51 94 59 95 52 96 58 97 60 98
REMARK SMILES IDX 57 99 53 100 54 101 55 102 56 103
REMARK H PARENT 4 18 97 33 97 34 80 56 48 67
REMARK Flexibility Score: inf
ROOT
ATOM      1  C   UNL A   1      36.589  22.339  24.805  1.00  0.00     0.202 C 
ENDROOT
BRANCH   1   2
ATOM      2  O   UNL A   1      35.526  21.406  24.640  1.00  0.00    -0.374 OA
BRANCH   2   3
ATOM      3  C   UNL A   1      34.187  21.897  24.665  1.00  0.00     0.202 C 
BRANCH   3   4
ATOM      4  C   UNL A   1      33.235  21.361  25.747  1.00  0.00     0.261 C 
BRANCH   4   5
ATOM      5  O   UNL A   1      31.830  21.567  25.483  1.00  0.00    -0.462 OA
BRANCH   5   6
ATOM      6  C   UNL A   1      31.344  22.726  25.986  1.00  0.00     0.329 C 
ATOM      7  O   UNL A   1      31.346  23.019  27.182  1.00  0.00    -0.250 OA
BRANCH   6   8
ATOM      8  C   UNL A   1      30.767  23.718  24.964  1.00  0.00     0.197 C 
ATOM      9  C   UNL A   1      31.023  23.124  23.572  1.00  0.00     0.044 C 
BRANCH   8  10
ATOM     10  N   UNL A   1      30.993  25.180  24.972  1.00  0.00    -0.297 N 
ATOM     11  C   UNL A   1      32.582  25.697  21.630  1.00  0.00     0.069 C 
ATOM     12  C   UNL A   1      33.158  26.939  22.191  1.00  0.00     0.068 A 
ATOM     13  N   UNL A   1      34.044  27.625  21.447  1.00  0.00    -0.177 NA
ATOM     14  C   UNL A   1      32.933  27.567  23.445  1.00  0.00     0.063 A 
ATOM     15  N   UNL A   1      34.425  28.642  22.235  1.00  0.00    -0.246 N 
ATOM     16  C   UNL A   1      33.767  28.660  23.419  1.00  0.00     0.222 A 
ATOM     17  C   UNL A   1      32.102  27.302  24.669  1.00  0.00     0.149 C 
ATOM     18  H   UNL A   1      35.111  29.302  21.982  1.00  0.00     0.193 HD
ATOM     19  O   UNL A   1      33.960  29.577  24.358  1.00  0.00    -0.422 OA
ATOM     20  C   UNL A   1      32.248  25.809  25.162  1.00  0.00     0.248 C 
ATOM     21  C   UNL A   1      30.657  27.347  24.234  1.00  0.00     0.002 A 
ATOM     22  C   UNL A   1      32.408  28.354  25.736  1.00  0.00     0.114 C 
ATOM     23  C   UNL A   1      33.275  29.386  25.565  1.00  0.00     0.208 C 
ATOM     24  O   UNL A   1      33.256  25.289  25.575  1.00  0.00    -0.273 OA
ATOM     25  C   UNL A   1      30.052  26.104  24.459  1.00  0.00     0.050 A 
ATOM     26  C   UNL A   1      29.938  28.417  23.710  1.00  0.00     0.008 A 
ATOM     27  C   UNL A   1      28.712  25.912  24.161  1.00  0.00     0.027 A 
ATOM     28  C   UNL A   1      28.591  28.227  23.409  1.00  0.00     0.001 A 
ATOM     29  C   UNL A   1      27.983  26.985  23.637  1.00  0.00     0.002 A 
BRANCH  22  30
ATOM     30  C   UNL A   1      31.777  28.156  27.105  1.00  0.00     0.102 C 
ATOM     31  N   UNL A   1      31.255  27.991  28.241  1.00  0.00    -0.193 NA
ENDBRANCH  22  30
BRANCH  23  32
ATOM     32  N   UNL A   1      33.593  30.319  26.508  1.00  0.00    -0.369 N 
ATOM     33  H   UNL A   1      33.793  31.245  26.238  1.00  0.00     0.159 HD
ATOM     34  H   UNL A   1      33.624  30.066  27.459  1.00  0.00     0.159 HD
ENDBRANCH  23  32
ENDBRANCH   8  10
ENDBRANCH   6   8
ENDBRANCH   5   6
ENDBRANCH   4   5
ENDBRANCH   3   4
ENDBRANCH   2   3
ENDBRANCH   1   2
BRANCH   1  35
ATOM     35  C   UNL A   1      37.418  22.277  26.089  1.00  0.00     0.261 C 
BRANCH  35  36
ATOM     36  O   UNL A   1      38.635  23.012  25.958  1.00  0.00    -0.460 OA
BRANCH  36  37
ATOM     37  C   UNL A   1      39.589  22.760  26.898  1.00  0.00     0.338 C 
ATOM     38  O   UNL A   1      40.005  21.677  27.279  1.00  0.00    -0.246 OA
BRANCH  37  39
ATOM     39  C   UNL A   1      40.286  24.034  27.115  1.00  0.00     0.060 A 
ATOM     40  C   UNL A   1      41.294  24.172  28.079  1.00  0.00     0.016 A 
ATOM     41  C   UNL A   1      39.614  25.137  26.583  1.00  0.00     0.016 A 
ATOM     42  C   UNL A   1      41.496  25.423  28.640  1.00  0.00     0.010 A 
ATOM     43  C   UNL A   1      39.790  26.370  27.170  1.00  0.00     0.010 A 
ATOM     44  C   UNL A   1      40.669  26.486  28.248  1.00  0.00    -0.014 A 
BRANCH  44  45
ATOM     45  C   UNL A   1      40.776  27.750  28.961  1.00  0.00     0.031 A 
ATOM     46  C   UNL A   1      41.831  28.648  28.441  1.00  0.00     0.074 A 
ATOM     47  C   UNL A   1      39.887  28.160  29.886  1.00  0.00     0.049 A 
ATOM     48  N   UNL A   1      42.867  29.115  29.054  1.00  0.00    -0.248 NA
ATOM     49  C   UNL A   1      41.778  28.960  27.005  1.00  0.00     0.031 C 
ATOM     50  C   UNL A   1      38.598  27.547  30.216  1.00  0.00     0.029 A 
ATOM     51  N   UNL A   1      39.886  29.303  30.630  1.00  0.00    -0.354 N 
ATOM     52  C   UNL A   1      43.510  29.928  28.125  1.00  0.00     0.074 A 
ATOM     53  C   UNL A   1      42.904  29.648  26.847  1.00  0.00     0.031 C 
ATOM     54  C   UNL A   1      37.849  28.434  30.906  1.00  0.00     0.029 A 
ATOM     55  C   UNL A   1      38.648  29.621  31.168  1.00  0.00     0.049 A 
ATOM     56  H   UNL A   1      40.691  29.853  30.772  1.00  0.00     0.167 HD
ATOM     57  C   UNL A   1      44.347  30.937  28.495  1.00  0.00     0.034 A 
ATOM     58  C   UNL A   1      38.270  30.818  31.679  1.00  0.00     0.034 A 
ATOM     59  C   UNL A   1      44.754  30.815  29.866  1.00  0.00     0.049 A 
ATOM     60  C   UNL A   1      39.486  31.615  31.968  1.00  0.00     0.074 A 
ATOM     61  C   UNL A   1      45.460  29.876  30.589  1.00  0.00     0.029 A 
ATOM     62  N   UNL A   1      44.121  31.612  30.788  1.00  0.00    -0.354 N 
ATOM     63  N   UNL A   1      40.335  31.359  32.923  1.00  0.00    -0.248 NA
ATOM     64  C   UNL A   1      39.971  32.512  30.929  1.00  0.00     0.031 C 
ATOM     65  C   UNL A   1      44.875  29.883  31.884  1.00  0.00     0.029 A 
ATOM     66  C   UNL A   1      43.865  30.849  31.898  1.00  0.00     0.049 A 
ATOM     67  H   UNL A   1      43.890  32.561  30.671  1.00  0.00     0.167 HD
ATOM     68  C   UNL A   1      41.572  31.676  32.380  1.00  0.00     0.074 A 
ATOM     69  C   UNL A   1      41.273  32.506  31.218  1.00  0.00     0.031 C 
ATOM     70  C   UNL A   1      42.702  31.004  32.750  1.00  0.00     0.034 A 
BRANCH  57  71
ATOM     71  C   UNL A   1      44.529  32.199  27.692  1.00  0.00     0.023 A 
ATOM     72  C   UNL A   1      43.856  33.396  28.003  1.00  0.00     0.031 A 
ATOM     73  C   UNL A   1      45.543  32.300  26.721  1.00  0.00     0.131 A 
ATOM     74  C   UNL A   1      44.139  34.597  27.345  1.00  0.00     0.055 A 
ATOM     75  C   UNL A   1      45.885  33.519  26.120  1.00  0.00     0.041 A 
ATOM     76  F   UNL A   1      46.270  31.228  26.369  1.00  0.00    -0.206 F 
ATOM     77  C   UNL A   1      45.176  34.675  26.424  1.00  0.00     0.022 A 
BRANCH  74  78
ATOM     78  S   UNL A   1      43.146  36.075  27.685  1.00  0.00     0.124 S 
ATOM     79  O   UNL A   1      42.455  35.696  28.912  1.00  0.00    -0.237 OA
ATOM     80  O   UNL A   1      44.177  37.099  27.827  1.00  0.00    -0.237 OA
ATOM     81  O   UNL A   1      42.310  36.205  26.495  1.00  0.00    -0.744 OA
ENDBRANCH  74  78
ENDBRANCH  57  71
BRANCH  58  82
ATOM     82  C   UNL A   1      36.948  31.465  31.504  1.00  0.00     0.023 A 
ATOM     83  C   UNL A   1      36.527  31.867  30.222  1.00  0.00     0.031 A 
ATOM     84  C   UNL A   1      36.233  31.967  32.604  1.00  0.00     0.131 A 
ATOM     85  C   UNL A   1      35.469  32.771  30.068  1.00  0.00     0.055 A 
ATOM     86  C   UNL A   1      35.168  32.863  32.449  1.00  0.00     0.041 A 
ATOM     87  F   UNL A   1      36.600  31.650  33.856  1.00  0.00    -0.206 F 
ATOM     88  C   UNL A   1      34.791  33.280  31.176  1.00  0.00     0.022 A 
BRANCH  85  89
ATOM     89  S   UNL A   1      35.006  33.358  28.416  1.00  0.00     0.124 S 
ATOM     90  O   UNL A   1      33.745  32.657  28.179  1.00  0.00    -0.237 OA
ATOM     91  O   UNL A   1      34.896  34.796  28.632  1.00  0.00    -0.237 OA
ATOM     92  O   UNL A   1      36.118  32.924  27.575  1.00  0.00    -0.744 OA
ENDBRANCH  85  89
ENDBRANCH  58  82
BRANCH  70  93
ATOM     93  C   UNL A   1      42.669  30.134  33.988  1.00  0.00     0.023 A 
ATOM     94  C   UNL A   1      43.297  30.642  35.142  1.00  0.00     0.031 A 
ATOM     95  C   UNL A   1      42.262  28.787  34.011  1.00  0.00     0.131 A 
ATOM     96  C   UNL A   1      43.538  29.811  36.243  1.00  0.00     0.055 A 
ATOM     97  C   UNL A   1      42.436  27.982  35.143  1.00  0.00     0.041 A 
ATOM     98  F   UNL A   1      41.768  28.182  32.922  1.00  0.00    -0.206 F 
ATOM     99  C   UNL A   1      43.093  28.487  36.259  1.00  0.00     0.022 A 
BRANCH  96 100
ATOM    100  S   UNL A   1      44.584  30.384  37.608  1.00  0.00     0.124 S 
ATOM    101  O   UNL A   1      45.414  31.395  36.959  1.00  0.00    -0.237 OA
ATOM    102  O   UNL A   1      43.601  30.898  38.560  1.00  0.00    -0.237 OA
ATOM    103  O   UNL A   1      45.290  29.181  38.043  1.00  0.00    -0.744 OA
ENDBRANCH  96 100
ENDBRANCH  70  93
ENDBRANCH  44  45
ENDBRANCH  37  39
ENDBRANCH  36  37
ENDBRANCH  35  36
ENDBRANCH   1  35
TORSDOF 20
ENDMDL
MODEL 3
REMARK VINA RESULT:     -11.6      1.690      2.363
REMARK SMILES Cc1n[nH]c2c1[C@@]1(C(=O)N([C@@H](C)C(=O)OCCOCCOC(=O)c3ccc(-c4c5nc(c(-c6cc(S(=O)(=O)[O-])ccc6F)c6ccc([nH]6)c(-c6cc(S(=O)(=O)[O-])ccc6F)c6nc(c(-c7cc(S(=O)(=O)[O-])ccc7F)c7ccc4[nH]7)C=C6)C=C5)cc3)c3ccccc31)C(C#N)=C(N)O2
REMARK SMILES IDX 19 1 18 2 17 3 16 4 15 5 13 6 14 7 11 8 12 9 10 10 1 11 2 12
REMARK SMILES IDX 3 13 6 14 4 15 5 16 7 17 98 19 8 20 92 21 93 22 96 23 9 24
REMARK SMILES IDX 87 25 91 26 88 27 90 28 89 29 94 30 95 31 97 32 20 35 21 36
REMARK SMILES IDX 22 37 23 38 24 39 25 40 86 41 26 42 85 43 27 44 28 45 29 46
REMARK SMILES IDX 79 47 30 48 84 49 78 50 80 51 31 52 83 53 77 54 76 55 32 57
REMARK SMILES IDX 64 58 44 59 63 60 45 61 48 62 62 63 81 64 46 65 47 66 61 68
REMARK SMILES IDX 82 69 49 70 33 71 34 72 42 73 35 74 41 75 43 76 40 77 36 78
REMARK SMILES IDX 37 79 38 80 39 81 65 82 66 83 74 84 67 85 73 86 75 87 72 88
REMARK SMILES IDX 68 89 69 90 70 91 71 92 50 93 51 94 59 95 52 96 58 97 60 98
REMARK SMILES IDX 57 99 53 100 54 101 55 102 56 103
REMARK H PARENT 4 18 97 33 97 34 80 56 48 67
REMARK Flexibility Score: inf
ROOT
ATOM      1  C   UNL A   1      32.176  29.880  27.048  1.00  0.00     0.202 C 
ENDROOT
BRANCH   1   2
ATOM      2  O   UNL A   1      32.479  28.963  26.002  1.00  0.00    -0.374 OA
BRANCH   2   3
ATOM      3  C   UNL A   1      32.776  29.488  24.709  1.00  0.00     0.202 C 
BRANCH   3   4
ATOM      4  C   UNL A   1      32.548  28.585  23.486  1.00  0.00     0.261 C 
BRANCH   4   5
ATOM      5  O   UNL A   1      32.823  27.183  23.699  1.00  0.00    -0.462 OA
BRANCH   5   6
ATOM      6  C   UNL A   1      32.883  26.458  22.558  1.00  0.00     0.329 C 
ATOM      7  O   UNL A   1      33.464  26.821  21.536  1.00  0.00    -0.250 OA
BRANCH   6   8
ATOM      8  C   UNL A   1      32.173  25.096  22.583  1.00  0.00     0.197 C 
ATOM      9  C   UNL A   1      30.669  25.379  22.696  1.00  0.00     0.044 C 
BRANCH   8  10
ATOM     10  N   UNL A   1      32.565  23.944  23.425  1.00  0.00    -0.297 N 
ATOM     11  C   UNL A   1      35.310  25.434  25.477  1.00  0.00     0.069 C 
ATOM     12  C   UNL A   1      35.797  24.051  25.675  1.00  0.00     0.068 A 
ATOM     13  N   UNL A   1      36.971  23.871  26.305  1.00  0.00    -0.177 NA
ATOM     14  C   UNL A   1      35.214  22.812  25.295  1.00  0.00     0.063 A 
ATOM     15  N   UNL A   1      37.167  22.544  26.274  1.00  0.00    -0.246 N 
ATOM     16  C   UNL A   1      36.133  21.876  25.709  1.00  0.00     0.222 A 
ATOM     17  C   UNL A   1      33.969  22.359  24.584  1.00  0.00     0.149 C 
ATOM     18  H   UNL A   1      37.976  22.103  26.623  1.00  0.00     0.193 HD
ATOM     19  O   UNL A   1      36.088  20.557  25.579  1.00  0.00    -0.422 OA
ATOM     20  C   UNL A   1      33.735  23.166  23.247  1.00  0.00     0.248 C 
ATOM     21  C   UNL A   1      32.799  22.807  25.427  1.00  0.00     0.002 A 
ATOM     22  C   UNL A   1      33.999  20.841  24.412  1.00  0.00     0.114 C 
ATOM     23  C   UNL A   1      34.993  20.038  24.875  1.00  0.00     0.208 C 
ATOM     24  O   UNL A   1      34.450  23.156  22.274  1.00  0.00    -0.273 OA
ATOM     25  C   UNL A   1      32.000  23.699  24.699  1.00  0.00     0.050 A 
ATOM     26  C   UNL A   1      32.461  22.425  26.722  1.00  0.00     0.008 A 
ATOM     27  C   UNL A   1      30.847  24.224  25.259  1.00  0.00     0.027 A 
ATOM     28  C   UNL A   1      31.303  22.952  27.288  1.00  0.00     0.001 A 
ATOM     29  C   UNL A   1      30.500  23.842  26.560  1.00  0.00     0.002 A 
BRANCH  22  30
ATOM     30  C   UNL A   1      32.895  20.217  23.573  1.00  0.00     0.102 C 
ATOM     31  N   UNL A   1      31.978  19.699  22.878  1.00  0.00    -0.193 NA
ENDBRANCH  22  30
BRANCH  23  32
ATOM     32  N   UNL A   1      35.063  18.686  24.707  1.00  0.00    -0.369 N 
ATOM     33  H   UNL A   1      35.932  18.227  24.769  1.00  0.00     0.159 HD
ATOM     34  H   UNL A   1      34.245  18.169  24.524  1.00  0.00     0.159 HD
ENDBRANCH  23  32
ENDBRANCH   8  10
ENDBRANCH   6   8
ENDBRANCH   5   6
ENDBRANCH   4   5
ENDBRANCH   3   4
ENDBRANCH   2   3
ENDBRANCH   1   2
BRANCH   1  35
ATOM     35  C   UNL A   1      33.051  31.125  27.200  1.00  0.00     0.261 C 
BRANCH  35  36
ATOM     36  O   UNL A   1      34.431  30.779  27.325  1.00  0.00    -0.460 OA
BRANCH  36  37
ATOM     37  C   UNL A   1      35.260  31.775  27.744  1.00  0.00     0.338 C 
ATOM     38  O   UNL A   1      35.077  32.982  27.691  1.00  0.00    -0.246 OA
BRANCH  37  39
ATOM     39  C   UNL A   1      36.261  31.130  28.604  1.00  0.00     0.060 A 
ATOM     40  C   UNL A   1      37.280  31.861  29.231  1.00  0.00     0.016 A 
ATOM     41  C   UNL A   1      36.343  29.748  28.426  1.00  0.00     0.016 A 
ATOM     42  C   UNL A   1      38.470  31.211  29.517  1.00  0.00     0.010 A 
ATOM     43  C   UNL A   1      37.541  29.115  28.675  1.00  0.00     0.010 A 
ATOM     44  C   UNL A   1      38.619  29.868  29.141  1.00  0.00    -0.014 A 
BRANCH  44  45
ATOM     45  C   UNL A   1      39.925  29.245  29.293  1.00  0.00     0.031 A 
ATOM     46  C   UNL A   1      40.278  28.917  30.692  1.00  0.00     0.074 A 
ATOM     47  C   UNL A   1      40.675  28.827  28.255  1.00  0.00     0.049 A 
ATOM     48  N   UNL A   1      41.273  29.346  31.394  1.00  0.00    -0.248 NA
ATOM     49  C   UNL A   1      39.313  28.095  31.436  1.00  0.00     0.031 C 
ATOM     50  C   UNL A   1      40.278  28.742  26.846  1.00  0.00     0.029 A 
ATOM     51  N   UNL A   1      41.910  28.250  28.264  1.00  0.00    -0.354 N 
ATOM     52  C   UNL A   1      41.158  28.707  32.626  1.00  0.00     0.074 A 
ATOM     53  C   UNL A   1      39.849  28.104  32.653  1.00  0.00     0.031 C 
ATOM     54  C   UNL A   1      41.148  27.945  26.189  1.00  0.00     0.029 A 
ATOM     55  C   UNL A   1      42.220  27.568  27.096  1.00  0.00     0.049 A 
ATOM     56  H   UNL A   1      42.527  28.312  29.030  1.00  0.00     0.167 HD
ATOM     57  C   UNL A   1      42.222  28.527  33.456  1.00  0.00     0.034 A 
ATOM     58  C   UNL A   1      43.213  26.661  26.927  1.00  0.00     0.034 A 
ATOM     59  C   UNL A   1      43.329  29.365  33.092  1.00  0.00     0.049 A 
ATOM     60  C   UNL A   1      44.184  26.809  28.037  1.00  0.00     0.074 A 
ATOM     61  C   UNL A   1      43.532  30.728  33.021  1.00  0.00     0.029 A 
ATOM     62  N   UNL A   1      44.357  28.788  32.388  1.00  0.00    -0.354 N 
ATOM     63  N   UNL A   1      44.992  27.820  28.192  1.00  0.00    -0.248 NA
ATOM     64  C   UNL A   1      43.992  25.981  29.219  1.00  0.00     0.031 C 
ATOM     65  C   UNL A   1      44.416  30.918  31.925  1.00  0.00     0.029 A 
ATOM     66  C   UNL A   1      44.736  29.662  31.403  1.00  0.00     0.049 A 
ATOM     67  H   UNL A   1      44.751  27.902  32.560  1.00  0.00     0.167 HD
ATOM     68  C   UNL A   1      45.040  28.019  29.563  1.00  0.00     0.074 A 
ATOM     69  C   UNL A   1      44.526  26.782  30.143  1.00  0.00     0.031 C 
ATOM     70  C   UNL A   1      45.218  29.265  30.094  1.00  0.00     0.034 A 
BRANCH  57  71
ATOM     71  C   UNL A   1      42.352  27.354  34.394  1.00  0.00     0.023 A 
ATOM     72  C   UNL A   1      43.126  26.220  34.084  1.00  0.00     0.031 A 
ATOM     73  C   UNL A   1      41.878  27.430  35.717  1.00  0.00     0.131 A 
ATOM     74  C   UNL A   1      43.359  25.205  35.016  1.00  0.00     0.055 A 
ATOM     75  C   UNL A   1      42.178  26.454  36.677  1.00  0.00     0.041 A 
ATOM     76  F   UNL A   1      41.155  28.482  36.132  1.00  0.00    -0.206 F 
ATOM     77  C   UNL A   1      42.916  25.329  36.327  1.00  0.00     0.022 A 
BRANCH  74  78
ATOM     78  S   UNL A   1      44.243  23.701  34.521  1.00  0.00     0.124 S 
ATOM     79  O   UNL A   1      45.365  24.248  33.769  1.00  0.00    -0.237 OA
ATOM     80  O   UNL A   1      44.572  23.111  35.816  1.00  0.00    -0.237 OA
ATOM     81  O   UNL A   1      43.251  22.963  33.744  1.00  0.00    -0.744 OA
ENDBRANCH  74  78
ENDBRANCH  57  71
BRANCH  58  82
ATOM     82  C   UNL A   1      43.129  25.409  26.138  1.00  0.00     0.023 A 
ATOM     83  C   UNL A   1      42.241  24.390  26.532  1.00  0.00     0.031 A 
ATOM     84  C   UNL A   1      44.116  25.076  25.195  1.00  0.00     0.131 A 
ATOM     85  C   UNL A   1      42.380  23.089  26.033  1.00  0.00     0.055 A 
ATOM     86  C   UNL A   1      44.248  23.778  24.689  1.00  0.00     0.041 A 
ATOM     87  F   UNL A   1      45.015  25.991  24.800  1.00  0.00    -0.206 F 
ATOM     88  C   UNL A   1      43.385  22.773  25.119  1.00  0.00     0.022 A 
BRANCH  85  89
ATOM     89  S   UNL A   1      41.293  21.765  26.627  1.00  0.00     0.124 S 
ATOM     90  O   UNL A   1      41.879  20.579  26.006  1.00  0.00    -0.237 OA
ATOM     91  O   UNL A   1      41.463  21.868  28.072  1.00  0.00    -0.237 OA
ATOM     92  O   UNL A   1      39.980  22.144  26.113  1.00  0.00    -0.744 OA
ENDBRANCH  85  89
ENDBRANCH  58  82
BRANCH  70  93
ATOM     93  C   UNL A   1      45.689  30.387  29.194  1.00  0.00     0.023 A 
ATOM     94  C   UNL A   1      47.042  30.764  29.300  1.00  0.00     0.031 A 
ATOM     95  C   UNL A   1      44.842  31.217  28.436  1.00  0.00     0.131 A 
ATOM     96  C   UNL A   1      47.499  31.946  28.703  1.00  0.00     0.055 A 
ATOM     97  C   UNL A   1      45.320  32.355  27.778  1.00  0.00     0.041 A 
ATOM     98  F   UNL A   1      43.519  31.008  28.379  1.00  0.00    -0.206 F 
ATOM     99  C   UNL A   1      46.649  32.736  27.925  1.00  0.00     0.022 A 
BRANCH  96 100
ATOM    100  S   UNL A   1      49.160  32.570  29.066  1.00  0.00     0.124 S 
ATOM    101  O   UNL A   1      48.926  34.003  29.222  1.00  0.00    -0.237 OA
ATOM    102  O   UNL A   1      49.501  31.855  30.295  1.00  0.00    -0.237 OA
ATOM    103  O   UNL A   1      49.946  32.188  27.896  1.00  0.00    -0.744 OA
ENDBRANCH  96 100
ENDBRANCH  70  93
ENDBRANCH  44  45
ENDBRANCH  37  39
ENDBRANCH  36  37
ENDBRANCH  35  36
ENDBRANCH   1  35
TORSDOF 20
ENDMDL
