MODEL 1
REMARK VINA RESULT:     -12.5      0.000      0.000
REMARK SMILES C[C@@H](NC(=O)[C@H]1CC=CC[C@@H]1C(=O)OCCOCCOC(=O)c1ccc(-c2c3nc(c(-c4cc(S(=O)(=O)[O-])ccc4F)c4ccc([nH]4)c(-c4cc(S(=O)(=O)[O-])ccc4F)c4nc(c(-c5cc(S(=O)(=O)[O-])ccc5F)c5ccc2[nH]5)C=C4)C=C3)cc1)c1ccc(-n2ccnc2)cc1
REMARK SMILES IDX 16 1 15 2 14 3 12 4 13 5 11 6 6 7 7 8 8 9 10 10 9 11 4 12
REMARK SMILES IDX 3 13 5 15 2 16 1 17 86 18 87 19 96 20 88 21 95 22 89 23
REMARK SMILES IDX 90 24 91 25 94 26 92 27 93 28 17 29 18 30 19 31 20 32 21 33
REMARK SMILES IDX 22 34 23 35 24 36 85 37 25 38 84 39 26 40 27 41 28 42 78 43
REMARK SMILES IDX 29 44 83 45 77 46 79 47 30 48 82 49 76 50 75 51 31 53 63 54
REMARK SMILES IDX 43 55 62 56 44 57 47 58 61 59 80 60 45 61 46 62 60 64 81 65
REMARK SMILES IDX 48 66 32 67 33 68 41 69 34 70 40 71 42 72 39 73 35 74 36 75
REMARK SMILES IDX 37 76 38 77 64 78 65 79 73 80 66 81 72 82 74 83 71 84 67 85
REMARK SMILES IDX 68 86 69 87 70 88 49 89 50 90 58 91 51 92 57 93 59 94 56 95
REMARK SMILES IDX 52 96 53 97 54 98 55 99
REMARK H PARENT 3 14 79 52 47 63
REMARK Flexibility Score: inf
ROOT
ATOM      1  C   UNL A   1      35.433  20.714  25.430  1.00  0.00     0.202 C 
ENDROOT
BRANCH   1   2
ATOM      2  C   UNL A   1      34.213  19.864  24.866  1.00  0.00     0.261 C 
BRANCH   2   3
ATOM      3  O   UNL A   1      33.412  20.659  23.930  1.00  0.00    -0.463 OA
BRANCH   3   4
ATOM      4  C   UNL A   1      32.270  21.223  24.438  1.00  0.00     0.310 C 
ATOM      5  O   UNL A   1      31.407  20.617  25.058  1.00  0.00    -0.252 OA
BRANCH   4   6
ATOM      6  C   UNL A   1      32.320  22.769  24.377  1.00  0.00     0.115 C 
ATOM      7  C   UNL A   1      33.521  23.454  22.998  1.00  0.00     0.097 C 
ATOM      8  C   UNL A   1      35.271  23.815  23.476  1.00  0.00     0.041 C 
ATOM      9  C   UNL A   1      35.714  24.403  25.129  1.00  0.00    -0.030 C 
ATOM     10  C   UNL A   1      32.735  23.519  26.216  1.00  0.00     0.043 C 
ATOM     11  C   UNL A   1      34.777  24.290  26.326  1.00  0.00    -0.030 C 
BRANCH   7  12
ATOM     12  C   UNL A   1      33.142  25.050  22.413  1.00  0.00     0.224 C 
ATOM     13  N   UNL A   1      32.702  26.162  23.213  1.00  0.00    -0.349 N 
ATOM     14  H   UNL A   1      32.832  26.997  22.708  1.00  0.00     0.164 HD
ATOM     15  O   UNL A   1      33.363  25.296  21.220  1.00  0.00    -0.275 OA
BRANCH  13  16
ATOM     16  C   UNL A   1      32.043  26.519  24.711  1.00  0.00     0.109 C 
ATOM     17  C   UNL A   1      30.602  26.963  24.487  1.00  0.00     0.036 C 
BRANCH  16  18
ATOM     18  C   UNL A   1      32.788  27.593  25.484  1.00  0.00    -0.026 A 
ATOM     19  C   UNL A   1      34.173  27.909  26.465  1.00  0.00     0.008 A 
ATOM     20  C   UNL A   1      31.756  28.857  25.304  1.00  0.00     0.008 A 
ATOM     21  C   UNL A   1      34.458  29.471  27.298  1.00  0.00     0.027 A 
ATOM     22  C   UNL A   1      31.881  30.569  26.245  1.00  0.00     0.027 A 
ATOM     23  C   UNL A   1      33.312  30.815  27.291  1.00  0.00     0.046 A 
BRANCH  23  24
ATOM     24  N   UNL A   1      33.787  32.118  27.705  1.00  0.00    -0.306 N 
ATOM     25  C   UNL A   1      33.143  33.291  28.020  1.00  0.00     0.113 A 
ATOM     26  C   UNL A   1      35.118  32.422  27.921  1.00  0.00     0.204 A 
ATOM     27  C   UNL A   1      34.099  34.263  28.189  1.00  0.00     0.131 A 
ATOM     28  N   UNL A   1      35.334  33.700  28.163  1.00  0.00    -0.245 NA
ENDBRANCH  23  24
ENDBRANCH  16  18
ENDBRANCH  13  16
ENDBRANCH   7  12
ENDBRANCH   4   6
ENDBRANCH   3   4
ENDBRANCH   2   3
ENDBRANCH   1   2
BRANCH   1  29
ATOM     29  O   UNL A   1      36.703  20.781  24.721  1.00  0.00    -0.374 OA
BRANCH  29  30
ATOM     30  C   UNL A   1      37.720  19.754  24.745  1.00  0.00     0.202 C 
BRANCH  30  31
ATOM     31  C   UNL A   1      39.048  19.800  25.511  1.00  0.00     0.261 C 
BRANCH  31  32
ATOM     32  O   UNL A   1      39.282  21.050  26.076  1.00  0.00    -0.460 OA
BRANCH  32  33
ATOM     33  C   UNL A   1      40.561  21.101  26.504  1.00  0.00     0.338 C 
ATOM     34  O   UNL A   1      41.479  20.367  26.188  1.00  0.00    -0.246 OA
BRANCH  33  35
ATOM     35  C   UNL A   1      40.678  22.399  27.160  1.00  0.00     0.060 A 
ATOM     36  C   UNL A   1      39.858  23.424  26.685  1.00  0.00     0.016 A 
ATOM     37  C   UNL A   1      41.531  22.568  28.263  1.00  0.00     0.016 A 
ATOM     38  C   UNL A   1      40.018  24.686  27.204  1.00  0.00     0.010 A 
ATOM     39  C   UNL A   1      41.704  23.829  28.773  1.00  0.00     0.010 A 
ATOM     40  C   UNL A   1      41.026  24.883  28.153  1.00  0.00    -0.014 A 
BRANCH  40  41
ATOM     41  C   UNL A   1      41.623  26.208  28.240  1.00  0.00     0.031 A 
ATOM     42  C   UNL A   1      42.992  26.380  27.657  1.00  0.00     0.074 A 
ATOM     43  C   UNL A   1      40.923  27.193  28.804  1.00  0.00     0.049 A 
ATOM     44  N   UNL A   1      43.771  27.423  27.692  1.00  0.00    -0.248 NA
ATOM     45  C   UNL A   1      43.571  25.215  26.959  1.00  0.00     0.031 C 
ATOM     46  C   UNL A   1      39.565  27.063  29.332  1.00  0.00     0.029 A 
ATOM     47  N   UNL A   1      41.268  28.487  29.031  1.00  0.00    -0.354 N 
ATOM     48  C   UNL A   1      44.930  27.039  27.029  1.00  0.00     0.074 A 
ATOM     49  C   UNL A   1      44.779  25.654  26.652  1.00  0.00     0.031 C 
ATOM     50  C   UNL A   1      39.193  28.249  29.837  1.00  0.00     0.029 A 
ATOM     51  C   UNL A   1      40.309  29.181  29.717  1.00  0.00     0.049 A 
ATOM     52  H   UNL A   1      42.119  28.884  28.732  1.00  0.00     0.167 HD
ATOM     53  C   UNL A   1      46.014  27.799  26.759  1.00  0.00     0.034 A 
ATOM     54  C   UNL A   1      40.371  30.420  30.227  1.00  0.00     0.034 A 
ATOM     55  C   UNL A   1      46.117  29.170  27.180  1.00  0.00     0.049 A 
ATOM     56  C   UNL A   1      41.631  31.213  30.004  1.00  0.00     0.074 A 
ATOM     57  C   UNL A   1      47.153  30.059  26.974  1.00  0.00     0.029 A 
ATOM     58  N   UNL A   1      45.145  29.846  27.912  1.00  0.00    -0.354 N 
ATOM     59  N   UNL A   1      42.732  30.857  29.377  1.00  0.00    -0.248 NA
ATOM     60  C   UNL A   1      41.654  32.572  30.545  1.00  0.00     0.031 C 
ATOM     61  C   UNL A   1      46.853  31.235  27.666  1.00  0.00     0.029 A 
ATOM     62  C   UNL A   1      45.579  31.126  28.205  1.00  0.00     0.049 A 
ATOM     63  H   UNL A   1      44.277  29.468  28.183  1.00  0.00     0.167 HD
ATOM     64  C   UNL A   1      43.567  31.969  29.419  1.00  0.00     0.074 A 
ATOM     65  C   UNL A   1      42.832  33.004  30.121  1.00  0.00     0.031 C 
ATOM     66  C   UNL A   1      44.821  32.129  28.919  1.00  0.00     0.034 A 
BRANCH  53  67
ATOM     67  C   UNL A   1      47.166  27.144  26.042  1.00  0.00     0.023 A 
ATOM     68  C   UNL A   1      48.169  26.439  26.732  1.00  0.00     0.031 A 
ATOM     69  C   UNL A   1      47.287  27.261  24.646  1.00  0.00     0.131 A 
ATOM     70  C   UNL A   1      49.281  25.943  26.035  1.00  0.00     0.055 A 
ATOM     71  C   UNL A   1      48.347  26.681  23.948  1.00  0.00     0.041 A 
ATOM     72  F   UNL A   1      46.385  27.957  23.937  1.00  0.00    -0.206 F 
ATOM     73  C   UNL A   1      49.361  26.029  24.644  1.00  0.00     0.022 A 
BRANCH  70  74
ATOM     74  S   UNL A   1      50.700  25.341  26.991  1.00  0.00     0.124 S 
ATOM     75  O   UNL A   1      51.129  26.556  27.679  1.00  0.00    -0.237 OA
ATOM     76  O   UNL A   1      50.102  24.309  27.828  1.00  0.00    -0.237 OA
ATOM     77  O   UNL A   1      51.623  24.858  25.964  1.00  0.00    -0.744 OA
ENDBRANCH  70  74
ENDBRANCH  53  67
BRANCH  54  78
ATOM     78  C   UNL A   1      39.231  30.949  31.014  1.00  0.00     0.023 A 
ATOM     79  C   UNL A   1      39.334  31.116  32.400  1.00  0.00     0.031 A 
ATOM     80  C   UNL A   1      38.012  31.278  30.392  1.00  0.00     0.131 A 
ATOM     81  C   UNL A   1      38.217  31.540  33.130  1.00  0.00     0.055 A 
ATOM     82  C   UNL A   1      36.928  31.773  31.114  1.00  0.00     0.041 A 
ATOM     83  F   UNL A   1      37.866  31.139  29.065  1.00  0.00    -0.206 F 
ATOM     84  C   UNL A   1      37.022  31.889  32.496  1.00  0.00     0.022 A 
BRANCH  81  85
ATOM     85  S   UNL A   1      38.314  31.502  34.939  1.00  0.00     0.124 S 
ATOM     86  O   UNL A   1      37.151  32.301  35.311  1.00  0.00    -0.237 OA
ATOM     87  O   UNL A   1      38.226  30.073  35.218  1.00  0.00    -0.237 OA
ATOM     88  O   UNL A   1      39.610  32.115  35.220  1.00  0.00    -0.744 OA
ENDBRANCH  81  85
ENDBRANCH  54  78
BRANCH  66  89
ATOM     89  C   UNL A   1      45.445  33.493  29.068  1.00  0.00     0.023 A 
ATOM     90  C   UNL A   1      45.149  34.545  28.184  1.00  0.00     0.031 A 
ATOM     91  C   UNL A   1      46.354  33.740  30.112  1.00  0.00     0.131 A 
ATOM     92  C   UNL A   1      45.813  35.771  28.319  1.00  0.00     0.055 A 
ATOM     93  C   UNL A   1      46.942  34.991  30.295  1.00  0.00     0.041 A 
ATOM     94  F   UNL A   1      46.679  32.768  30.981  1.00  0.00    -0.206 F 
ATOM     95  C   UNL A   1      46.685  36.010  29.385  1.00  0.00     0.022 A 
BRANCH  92  96
ATOM     96  S   UNL A   1      45.629  37.001  27.001  1.00  0.00     0.124 S 
ATOM     97  O   UNL A   1      44.186  36.990  26.780  1.00  0.00    -0.237 OA
ATOM     98  O   UNL A   1      46.169  38.206  27.619  1.00  0.00    -0.237 OA
ATOM     99  O   UNL A   1      46.428  36.453  25.907  1.00  0.00    -0.744 OA
ENDBRANCH  92  96
ENDBRANCH  66  89
ENDBRANCH  40  41
ENDBRANCH  33  35
ENDBRANCH  32  33
ENDBRANCH  31  32
ENDBRANCH  30  31
ENDBRANCH  29  30
ENDBRANCH   1  29
TORSDOF 21
ENDMDL
MODEL 2
REMARK VINA RESULT:     -12.2      2.668      3.634
REMARK SMILES C[C@@H](NC(=O)[C@H]1CC=CC[C@@H]1C(=O)OCCOCCOC(=O)c1ccc(-c2c3nc(c(-c4cc(S(=O)(=O)[O-])ccc4F)c4ccc([nH]4)c(-c4cc(S(=O)(=O)[O-])ccc4F)c4nc(c(-c5cc(S(=O)(=O)[O-])ccc5F)c5ccc2[nH]5)C=C4)C=C3)cc1)c1ccc(-n2ccnc2)cc1
REMARK SMILES IDX 16 1 15 2 14 3 12 4 13 5 11 6 6 7 7 8 8 9 10 10 9 11 4 12
REMARK SMILES IDX 3 13 5 15 2 16 1 17 86 18 87 19 96 20 88 21 95 22 89 23
REMARK SMILES IDX 90 24 91 25 94 26 92 27 93 28 17 29 18 30 19 31 20 32 21 33
REMARK SMILES IDX 22 34 23 35 24 36 85 37 25 38 84 39 26 40 27 41 28 42 78 43
REMARK SMILES IDX 29 44 83 45 77 46 79 47 30 48 82 49 76 50 75 51 31 53 63 54
REMARK SMILES IDX 43 55 62 56 44 57 47 58 61 59 80 60 45 61 46 62 60 64 81 65
REMARK SMILES IDX 48 66 32 67 33 68 41 69 34 70 40 71 42 72 39 73 35 74 36 75
REMARK SMILES IDX 37 76 38 77 64 78 65 79 73 80 66 81 72 82 74 83 71 84 67 85
REMARK SMILES IDX 68 86 69 87 70 88 49 89 50 90 58 91 51 92 57 93 59 94 56 95
REMARK SMILES IDX 52 96 53 97 54 98 55 99
REMARK H PARENT 3 14 79 52 47 63
REMARK Flexibility Score: inf
ROOT
ATOM      1  C   UNL A   1      37.151  21.267  25.062  1.00  0.00     0.202 C 
ENDROOT
BRANCH   1   2
ATOM      2  C   UNL A   1      35.579  21.483  25.168  1.00  0.00     0.261 C 
BRANCH   2   3
ATOM      3  O   UNL A   1      35.190  22.772  24.588  1.00  0.00    -0.463 OA
BRANCH   3   4
ATOM      4  C   UNL A   1      35.392  23.876  25.374  1.00  0.00     0.310 C 
ATOM      5  O   UNL A   1      36.474  24.218  25.835  1.00  0.00    -0.252 OA
BRANCH   4   6
ATOM      6  C   UNL A   1      34.150  24.799  25.395  1.00  0.00     0.115 C 
ATOM      7  C   UNL A   1      32.490  23.858  25.810  1.00  0.00     0.097 C 
ATOM      8  C   UNL A   1      31.488  23.208  24.398  1.00  0.00     0.041 C 
ATOM      9  C   UNL A   1      31.420  24.052  22.799  1.00  0.00    -0.030 C 
ATOM     10  C   UNL A   1      34.041  25.848  23.661  1.00  0.00     0.043 C 
ATOM     11  C   UNL A   1      32.434  25.108  22.377  1.00  0.00    -0.030 C 
BRANCH   7  12
ATOM     12  C   UNL A   1      31.235  24.845  26.506  1.00  0.00     0.224 C 
ATOM     13  N   UNL A   1      31.177  26.282  26.482  1.00  0.00    -0.349 N 
ATOM     14  H   UNL A   1      30.257  26.573  26.679  1.00  0.00     0.164 HD
ATOM     15  O   UNL A   1      30.246  24.272  26.981  1.00  0.00    -0.275 OA
BRANCH  13  16
ATOM     16  C   UNL A   1      32.141  27.629  26.231  1.00  0.00     0.109 C 
ATOM     17  C   UNL A   1      32.621  28.112  27.596  1.00  0.00     0.036 C 
BRANCH  16  18
ATOM     18  C   UNL A   1      31.449  28.769  25.506  1.00  0.00    -0.026 A 
ATOM     19  C   UNL A   1      31.085  30.456  25.569  1.00  0.00     0.008 A 
ATOM     20  C   UNL A   1      30.776  27.956  24.249  1.00  0.00     0.008 A 
ATOM     21  C   UNL A   1      29.996  31.276  24.404  1.00  0.00     0.027 A 
ATOM     22  C   UNL A   1      29.482  28.694  22.980  1.00  0.00     0.027 A 
ATOM     23  C   UNL A   1      29.102  30.437  23.132  1.00  0.00     0.046 A 
BRANCH  23  24
ATOM     24  N   UNL A   1      28.533  31.229  22.063  1.00  0.00    -0.306 N 
ATOM     25  C   UNL A   1      28.309  30.978  20.731  1.00  0.00     0.113 A 
ATOM     26  C   UNL A   1      28.016  32.499  22.235  1.00  0.00     0.204 A 
ATOM     27  C   UNL A   1      27.889  32.148  20.147  1.00  0.00     0.131 A 
ATOM     28  N   UNL A   1      27.672  33.085  21.105  1.00  0.00    -0.245 NA
ENDBRANCH  23  24
ENDBRANCH  16  18
ENDBRANCH  13  16
ENDBRANCH   7  12
ENDBRANCH   4   6
ENDBRANCH   3   4
ENDBRANCH   2   3
ENDBRANCH   1   2
BRANCH   1  29
ATOM     29  O   UNL A   1      37.714  19.995  24.630  1.00  0.00    -0.374 OA
BRANCH  29  30
ATOM     30  C   UNL A   1      38.570  19.152  25.433  1.00  0.00     0.202 C 
BRANCH  30  31
ATOM     31  C   UNL A   1      40.066  19.361  25.702  1.00  0.00     0.261 C 
BRANCH  31  32
ATOM     32  O   UNL A   1      40.291  20.323  26.681  1.00  0.00    -0.460 OA
BRANCH  32  33
ATOM     33  C   UNL A   1      41.477  20.921  26.439  1.00  0.00     0.338 C 
ATOM     34  O   UNL A   1      42.350  20.554  25.674  1.00  0.00    -0.246 OA
BRANCH  33  35
ATOM     35  C   UNL A   1      41.349  22.247  27.033  1.00  0.00     0.060 A 
ATOM     36  C   UNL A   1      40.560  23.173  26.348  1.00  0.00     0.016 A 
ATOM     37  C   UNL A   1      41.943  22.535  28.272  1.00  0.00     0.016 A 
ATOM     38  C   UNL A   1      40.505  24.463  26.819  1.00  0.00     0.010 A 
ATOM     39  C   UNL A   1      41.903  23.825  28.737  1.00  0.00     0.010 A 
ATOM     40  C   UNL A   1      41.279  24.787  27.937  1.00  0.00    -0.014 A 
BRANCH  40  41
ATOM     41  C   UNL A   1      41.733  26.164  28.070  1.00  0.00     0.031 A 
ATOM     42  C   UNL A   1      43.069  26.502  27.483  1.00  0.00     0.074 A 
ATOM     43  C   UNL A   1      40.939  27.048  28.675  1.00  0.00     0.049 A 
ATOM     44  N   UNL A   1      43.733  27.620  27.550  1.00  0.00    -0.248 NA
ATOM     45  C   UNL A   1      43.760  25.432  26.737  1.00  0.00     0.031 C 
ATOM     46  C   UNL A   1      39.608  26.755  29.208  1.00  0.00     0.029 A 
ATOM     47  N   UNL A   1      41.147  28.363  28.947  1.00  0.00    -0.354 N 
ATOM     48  C   UNL A   1      44.919  27.386  26.865  1.00  0.00     0.074 A 
ATOM     49  C   UNL A   1      44.911  26.008  26.438  1.00  0.00     0.031 C 
ATOM     50  C   UNL A   1      39.118  27.875  29.759  1.00  0.00     0.029 A 
ATOM     51  C   UNL A   1      40.128  28.924  29.666  1.00  0.00     0.049 A 
ATOM     52  H   UNL A   1      41.947  28.858  28.657  1.00  0.00     0.167 HD
ATOM     53  C   UNL A   1      45.913  28.266  26.615  1.00  0.00     0.034 A 
ATOM     54  C   UNL A   1      40.063  30.144  30.221  1.00  0.00     0.034 A 
ATOM     55  C   UNL A   1      45.874  29.625  27.086  1.00  0.00     0.049 A 
ATOM     56  C   UNL A   1      41.229  31.074  30.018  1.00  0.00     0.074 A 
ATOM     57  C   UNL A   1      46.807  30.626  26.906  1.00  0.00     0.029 A 
ATOM     58  N   UNL A   1      44.845  30.166  27.850  1.00  0.00    -0.354 N 
ATOM     59  N   UNL A   1      42.354  30.861  29.370  1.00  0.00    -0.248 NA
ATOM     60  C   UNL A   1      41.114  32.408  30.609  1.00  0.00     0.031 C 
ATOM     61  C   UNL A   1      46.393  31.737  27.643  1.00  0.00     0.029 A 
ATOM     62  C   UNL A   1      45.144  31.474  28.188  1.00  0.00     0.049 A 
ATOM     63  H   UNL A   1      44.025  29.688  28.114  1.00  0.00     0.167 HD
ATOM     64  C   UNL A   1      43.067  32.053  29.447  1.00  0.00     0.074 A 
ATOM     65  C   UNL A   1      42.234  32.977  30.192  1.00  0.00     0.031 C 
ATOM     66  C   UNL A   1      44.291  32.363  28.944  1.00  0.00     0.034 A 
BRANCH  53  67
ATOM     67  C   UNL A   1      47.120  27.765  25.866  1.00  0.00     0.023 A 
ATOM     68  C   UNL A   1      47.308  28.027  24.497  1.00  0.00     0.031 A 
ATOM     69  C   UNL A   1      48.080  26.975  26.521  1.00  0.00     0.131 A 
ATOM     70  C   UNL A   1      48.388  27.445  23.816  1.00  0.00     0.055 A 
ATOM     71  C   UNL A   1      49.204  26.480  25.859  1.00  0.00     0.041 A 
ATOM     72  F   UNL A   1      47.933  26.654  27.817  1.00  0.00    -0.206 F 
ATOM     73  C   UNL A   1      49.356  26.702  24.493  1.00  0.00     0.022 A 
BRANCH  70  74
ATOM     74  S   UNL A   1      48.412  27.530  22.004  1.00  0.00     0.124 S 
ATOM     75  O   UNL A   1      47.146  28.203  21.724  1.00  0.00    -0.237 OA
ATOM     76  O   UNL A   1      49.619  28.303  21.739  1.00  0.00    -0.237 OA
ATOM     77  O   UNL A   1      48.465  26.127  21.596  1.00  0.00    -0.744 OA
ENDBRANCH  70  74
ENDBRANCH  53  67
BRANCH  54  78
ATOM     78  C   UNL A   1      38.883  30.519  31.036  1.00  0.00     0.023 A 
ATOM     79  C   UNL A   1      37.887  31.353  30.515  1.00  0.00     0.031 A 
ATOM     80  C   UNL A   1      38.743  30.061  32.360  1.00  0.00     0.131 A 
ATOM     81  C   UNL A   1      36.825  31.758  31.333  1.00  0.00     0.055 A 
ATOM     82  C   UNL A   1      37.643  30.405  33.145  1.00  0.00     0.041 A 
ATOM     83  F   UNL A   1      39.668  29.255  32.904  1.00  0.00    -0.206 F 
ATOM     84  C   UNL A   1      36.685  31.274  32.636  1.00  0.00     0.022 A 
BRANCH  81  85
ATOM     85  S   UNL A   1      35.700  33.031  30.704  1.00  0.00     0.124 S 
ATOM     86  O   UNL A   1      36.084  34.184  31.511  1.00  0.00    -0.237 OA
ATOM     87  O   UNL A   1      36.063  33.087  29.293  1.00  0.00    -0.237 OA
ATOM     88  O   UNL A   1      34.377  32.482  30.988  1.00  0.00    -0.744 OA
ENDBRANCH  81  85
ENDBRANCH  54  78
BRANCH  66  89
ATOM     89  C   UNL A   1      44.768  33.781  29.139  1.00  0.00     0.023 A 
ATOM     90  C   UNL A   1      44.279  34.842  28.359  1.00  0.00     0.031 A 
ATOM     91  C   UNL A   1      45.732  34.069  30.122  1.00  0.00     0.131 A 
ATOM     92  C   UNL A   1      44.811  36.128  28.526  1.00  0.00     0.055 A 
ATOM     93  C   UNL A   1      46.189  35.366  30.345  1.00  0.00     0.041 A 
ATOM     94  F   UNL A   1      46.240  33.091  30.890  1.00  0.00    -0.206 F 
ATOM     95  C   UNL A   1      45.740  36.402  29.533  1.00  0.00     0.022 A 
BRANCH  92  96
ATOM     96  S   UNL A   1      44.373  37.406  27.318  1.00  0.00     0.124 S 
ATOM     97  O   UNL A   1      45.649  37.632  26.645  1.00  0.00    -0.237 OA
ATOM     98  O   UNL A   1      43.342  36.747  26.525  1.00  0.00    -0.237 OA
ATOM     99  O   UNL A   1      43.905  38.514  28.148  1.00  0.00    -0.744 OA
ENDBRANCH  92  96
ENDBRANCH  66  89
ENDBRANCH  40  41
ENDBRANCH  33  35
ENDBRANCH  32  33
ENDBRANCH  31  32
ENDBRANCH  30  31
ENDBRANCH  29  30
ENDBRANCH   1  29
TORSDOF 21
ENDMDL
MODEL 3
REMARK VINA RESULT:     -12.2      2.647      3.581
REMARK SMILES C[C@@H](NC(=O)[C@H]1CC=CC[C@@H]1C(=O)OCCOCCOC(=O)c1ccc(-c2c3nc(c(-c4cc(S(=O)(=O)[O-])ccc4F)c4ccc([nH]4)c(-c4cc(S(=O)(=O)[O-])ccc4F)c4nc(c(-c5cc(S(=O)(=O)[O-])ccc5F)c5ccc2[nH]5)C=C4)C=C3)cc1)c1ccc(-n2ccnc2)cc1
REMARK SMILES IDX 16 1 15 2 14 3 12 4 13 5 11 6 6 7 7 8 8 9 10 10 9 11 4 12
REMARK SMILES IDX 3 13 5 15 2 16 1 17 86 18 87 19 96 20 88 21 95 22 89 23
REMARK SMILES IDX 90 24 91 25 94 26 92 27 93 28 17 29 18 30 19 31 20 32 21 33
REMARK SMILES IDX 22 34 23 35 24 36 85 37 25 38 84 39 26 40 27 41 28 42 78 43
REMARK SMILES IDX 29 44 83 45 77 46 79 47 30 48 82 49 76 50 75 51 31 53 63 54
REMARK SMILES IDX 43 55 62 56 44 57 47 58 61 59 80 60 45 61 46 62 60 64 81 65
REMARK SMILES IDX 48 66 32 67 33 68 41 69 34 70 40 71 42 72 39 73 35 74 36 75
REMARK SMILES IDX 37 76 38 77 64 78 65 79 73 80 66 81 72 82 74 83 71 84 67 85
REMARK SMILES IDX 68 86 69 87 70 88 49 89 50 90 58 91 51 92 57 93 59 94 56 95
REMARK SMILES IDX 52 96 53 97 54 98 55 99
REMARK H PARENT 3 14 79 52 47 63
REMARK Flexibility Score: inf
ROOT
ATOM      1  C   UNL A   1      37.073  21.157  24.916  1.00  0.00     0.202 C 
ENDROOT
BRANCH   1   2
ATOM      2  C   UNL A   1      35.512  21.433  25.045  1.00  0.00     0.261 C 
BRANCH   2   3
ATOM      3  O   UNL A   1      35.176  22.768  24.541  1.00  0.00    -0.463 OA
BRANCH   3   4
ATOM      4  C   UNL A   1      35.366  23.810  25.411  1.00  0.00     0.310 C 
ATOM      5  O   UNL A   1      36.432  24.090  25.945  1.00  0.00    -0.252 OA
BRANCH   4   6
ATOM      6  C   UNL A   1      34.148  24.763  25.437  1.00  0.00     0.115 C 
ATOM      7  C   UNL A   1      32.468  23.866  25.870  1.00  0.00     0.097 C 
ATOM      8  C   UNL A   1      31.439  23.235  24.469  1.00  0.00     0.041 C 
ATOM      9  C   UNL A   1      31.380  24.073  22.866  1.00  0.00    -0.030 C 
ATOM     10  C   UNL A   1      34.051  25.806  23.699  1.00  0.00     0.043 C 
ATOM     11  C   UNL A   1      32.416  25.101  22.431  1.00  0.00    -0.030 C 
BRANCH   7  12
ATOM     12  C   UNL A   1      31.243  24.886  26.571  1.00  0.00     0.224 C 
ATOM     13  N   UNL A   1      31.212  26.325  26.527  1.00  0.00    -0.349 N 
ATOM     14  H   UNL A   1      30.302  26.636  26.734  1.00  0.00     0.164 HD
ATOM     15  O   UNL A   1      30.250  24.340  27.068  1.00  0.00    -0.275 OA
BRANCH  13  16
ATOM     16  C   UNL A   1      32.199  27.648  26.243  1.00  0.00     0.109 C 
ATOM     17  C   UNL A   1      32.732  28.123  27.590  1.00  0.00     0.036 C 
BRANCH  16  18
ATOM     18  C   UNL A   1      31.511  28.803  25.537  1.00  0.00    -0.026 A 
ATOM     19  C   UNL A   1      31.181  30.496  25.611  1.00  0.00     0.008 A 
ATOM     20  C   UNL A   1      30.790  28.005  24.297  1.00  0.00     0.008 A 
ATOM     21  C   UNL A   1      30.079  31.339  24.475  1.00  0.00     0.027 A 
ATOM     22  C   UNL A   1      29.478  28.770  23.062  1.00  0.00     0.027 A 
ATOM     23  C   UNL A   1      29.136  30.520  23.226  1.00  0.00     0.046 A 
BRANCH  23  24
ATOM     24  N   UNL A   1      28.555  31.324  22.173  1.00  0.00    -0.306 N 
ATOM     25  C   UNL A   1      28.248  31.064  20.859  1.00  0.00     0.113 A 
ATOM     26  C   UNL A   1      28.118  32.624  22.347  1.00  0.00     0.204 A 
ATOM     27  C   UNL A   1      27.862  32.245  20.275  1.00  0.00     0.131 A 
ATOM     28  N   UNL A   1      27.746  33.209  21.225  1.00  0.00    -0.245 NA
ENDBRANCH  23  24
ENDBRANCH  16  18
ENDBRANCH  13  16
ENDBRANCH   7  12
ENDBRANCH   4   6
ENDBRANCH   3   4
ENDBRANCH   2   3
ENDBRANCH   1   2
BRANCH   1  29
ATOM     29  O   UNL A   1      37.582  19.845  24.542  1.00  0.00    -0.374 OA
BRANCH  29  30
ATOM     30  C   UNL A   1      38.419  19.012  25.375  1.00  0.00     0.202 C 
BRANCH  30  31
ATOM     31  C   UNL A   1      39.929  19.167  25.599  1.00  0.00     0.261 C 
BRANCH  31  32
ATOM     32  O   UNL A   1      40.215  20.044  26.641  1.00  0.00    -0.460 OA
BRANCH  32  33
ATOM     33  C   UNL A   1      41.410  20.625  26.404  1.00  0.00     0.338 C 
ATOM     34  O   UNL A   1      42.276  20.255  25.632  1.00  0.00    -0.246 OA
BRANCH  33  35
ATOM     35  C   UNL A   1      41.307  21.945  27.018  1.00  0.00     0.060 A 
ATOM     36  C   UNL A   1      40.465  22.868  26.394  1.00  0.00     0.016 A 
ATOM     37  C   UNL A   1      41.974  22.228  28.220  1.00  0.00     0.016 A 
ATOM     38  C   UNL A   1      40.427  24.152  26.880  1.00  0.00     0.010 A 
ATOM     39  C   UNL A   1      41.950  23.513  28.699  1.00  0.00     0.010 A 
ATOM     40  C   UNL A   1      41.267  24.475  27.950  1.00  0.00    -0.014 A 
BRANCH  40  41
ATOM     41  C   UNL A   1      41.714  25.856  28.067  1.00  0.00     0.031 A 
ATOM     42  C   UNL A   1      43.067  26.185  27.518  1.00  0.00     0.074 A 
ATOM     43  C   UNL A   1      40.898  26.751  28.626  1.00  0.00     0.049 A 
ATOM     44  N   UNL A   1      43.727  27.306  27.583  1.00  0.00    -0.248 NA
ATOM     45  C   UNL A   1      43.785  25.100  26.819  1.00  0.00     0.031 C 
ATOM     46  C   UNL A   1      39.551  26.467  29.121  1.00  0.00     0.029 A 
ATOM     47  N   UNL A   1      41.095  28.072  28.876  1.00  0.00    -0.354 N 
ATOM     48  C   UNL A   1      44.936  27.059  26.943  1.00  0.00     0.074 A 
ATOM     49  C   UNL A   1      44.945  25.672  26.546  1.00  0.00     0.031 C 
ATOM     50  C   UNL A   1      39.041  27.597  29.631  1.00  0.00     0.029 A 
ATOM     51  C   UNL A   1      40.051  28.647  29.548  1.00  0.00     0.049 A 
ATOM     52  H   UNL A   1      41.903  28.563  28.602  1.00  0.00     0.167 HD
ATOM     53  C   UNL A   1      45.936  27.937  26.706  1.00  0.00     0.034 A 
ATOM     54  C   UNL A   1      39.966  29.878  30.074  1.00  0.00     0.034 A 
ATOM     55  C   UNL A   1      45.879  29.306  27.145  1.00  0.00     0.049 A 
ATOM     56  C   UNL A   1      41.136  30.807  29.889  1.00  0.00     0.074 A 
ATOM     57  C   UNL A   1      46.816  30.304  26.975  1.00  0.00     0.029 A 
ATOM     58  N   UNL A   1      44.823  29.860  27.863  1.00  0.00    -0.354 N 
ATOM     59  N   UNL A   1      42.283  30.582  29.283  1.00  0.00    -0.248 NA
ATOM     60  C   UNL A   1      40.999  32.152  30.447  1.00  0.00     0.031 C 
ATOM     61  C   UNL A   1      46.374  31.431  27.672  1.00  0.00     0.029 A 
ATOM     62  C   UNL A   1      45.108  31.176  28.181  1.00  0.00     0.049 A 
ATOM     63  H   UNL A   1      43.996  29.386  28.110  1.00  0.00     0.167 HD
ATOM     64  C   UNL A   1      42.991  31.777  29.358  1.00  0.00     0.074 A 
ATOM     65  C   UNL A   1      42.131  32.716  30.055  1.00  0.00     0.031 C 
ATOM     66  C   UNL A   1      44.229  32.080  28.889  1.00  0.00     0.034 A 
BRANCH  53  67
ATOM     67  C   UNL A   1      47.167  27.422  26.008  1.00  0.00     0.023 A 
ATOM     68  C   UNL A   1      48.200  26.768  26.705  1.00  0.00     0.031 A 
ATOM     69  C   UNL A   1      47.333  27.624  24.627  1.00  0.00     0.131 A 
ATOM     70  C   UNL A   1      49.377  26.407  26.034  1.00  0.00     0.055 A 
ATOM     71  C   UNL A   1      48.466  27.175  23.947  1.00  0.00     0.041 A 
ATOM     72  F   UNL A   1      46.403  28.279  23.915  1.00  0.00    -0.206 F 
ATOM     73  C   UNL A   1      49.504  26.574  24.653  1.00  0.00     0.022 A 
BRANCH  70  74
ATOM     74  S   UNL A   1      50.804  25.876  27.019  1.00  0.00     0.124 S 
ATOM     75  O   UNL A   1      51.883  25.944  26.036  1.00  0.00    -0.237 OA
ATOM     76  O   UNL A   1      50.844  26.873  28.082  1.00  0.00    -0.237 OA
ATOM     77  O   UNL A   1      50.443  24.524  27.443  1.00  0.00    -0.744 OA
ENDBRANCH  70  74
ENDBRANCH  53  67
BRANCH  54  78
ATOM     78  C   UNL A   1      38.758  30.268  30.841  1.00  0.00     0.023 A 
ATOM     79  C   UNL A   1      37.690  30.919  30.214  1.00  0.00     0.031 A 
ATOM     80  C   UNL A   1      38.664  30.010  32.222  1.00  0.00     0.131 A 
ATOM     81  C   UNL A   1      36.597  31.349  30.977  1.00  0.00     0.055 A 
ATOM     82  C   UNL A   1      37.539  30.372  32.962  1.00  0.00     0.041 A 
ATOM     83  F   UNL A   1      39.660  29.384  32.867  1.00  0.00    -0.206 F 
ATOM     84  C   UNL A   1      36.505  31.062  32.341  1.00  0.00     0.022 A 
BRANCH  81  85
ATOM     85  S   UNL A   1      35.360  32.403  30.179  1.00  0.00     0.124 S 
ATOM     86  O   UNL A   1      34.402  32.602  31.261  1.00  0.00    -0.237 OA
ATOM     87  O   UNL A   1      36.152  33.569  29.802  1.00  0.00    -0.237 OA
ATOM     88  O   UNL A   1      34.885  31.585  29.066  1.00  0.00    -0.744 OA
ENDBRANCH  81  85
ENDBRANCH  54  78
BRANCH  66  89
ATOM     89  C   UNL A   1      44.697  33.502  29.068  1.00  0.00     0.023 A 
ATOM     90  C   UNL A   1      45.488  33.890  30.163  1.00  0.00     0.031 A 
ATOM     91  C   UNL A   1      44.341  34.484  28.126  1.00  0.00     0.131 A 
ATOM     92  C   UNL A   1      45.832  35.239  30.326  1.00  0.00     0.055 A 
ATOM     93  C   UNL A   1      44.765  35.806  28.246  1.00  0.00     0.041 A 
ATOM     94  F   UNL A   1      43.580  34.170  27.065  1.00  0.00    -0.206 F 
ATOM     95  C   UNL A   1      45.501  36.193  29.360  1.00  0.00     0.022 A 
BRANCH  92  96
ATOM     96  S   UNL A   1      46.598  35.751  31.887  1.00  0.00     0.124 S 
ATOM     97  O   UNL A   1      45.459  35.735  32.799  1.00  0.00    -0.237 OA
ATOM     98  O   UNL A   1      47.600  34.712  32.100  1.00  0.00    -0.237 OA
ATOM     99  O   UNL A   1      47.134  37.077  31.586  1.00  0.00    -0.744 OA
ENDBRANCH  92  96
ENDBRANCH  66  89
ENDBRANCH  40  41
ENDBRANCH  33  35
ENDBRANCH  32  33
ENDBRANCH  31  32
ENDBRANCH  30  31
ENDBRANCH  29  30
ENDBRANCH   1  29
TORSDOF 21
ENDMDL
