MODEL 1
REMARK VINA RESULT:     -13.3      0.000      0.000
REMARK SMILES CC1(C)O[C@@H]2C[C@H]3[C@H]4CCC5=CC(=O)C=C[C@@]5(C)[C@]4(F)[C@H](O)C[C@]3(C)[C@]2(C(=O)OCCOCCOC(=O)c2ccc(-c3c4nc(c(-c5cc(S(=O)(=O)[O-])ccc5F)c5ccc([nH]5)c(-c5cc(S(=O)(=O)[O-])ccc5F)c5nc(c(-c6cc(S(=O)(=O)[O-])ccc6F)c6ccc3[nH]6)C=C5)C=C4)cc2)O1
REMARK SMILES IDX 33 1 32 2 31 3 30 4 29 5 27 6 28 7 26 8 1 9 2 10 4 11 101 12
REMARK SMILES IDX 3 13 5 14 6 15 24 16 7 17 23 18 25 19 8 20 21 21 9 22 19 23
REMARK SMILES IDX 10 24 17 25 20 26 11 27 16 28 18 29 12 30 15 31 13 32 14 33
REMARK SMILES IDX 22 34 34 36 35 37 36 38 37 39 38 40 39 41 100 42 40 43 99 44
REMARK SMILES IDX 41 45 42 46 43 47 93 48 44 49 98 50 92 51 94 52 45 53 97 54
REMARK SMILES IDX 91 55 90 56 46 58 78 59 58 60 77 61 59 62 62 63 76 64 95 65
REMARK SMILES IDX 60 66 61 67 75 69 96 70 63 71 47 72 48 73 56 74 49 75 55 76
REMARK SMILES IDX 57 77 54 78 50 79 51 80 52 81 53 82 79 83 80 84 88 85 81 86
REMARK SMILES IDX 87 87 89 88 86 89 82 90 83 91 84 92 85 93 64 94 65 95 73 96
REMARK SMILES IDX 66 97 72 98 74 99 71 100 67 101 68 102 69 103 70 104
REMARK H PARENT 22 35 94 57 62 68
REMARK Flexibility Score: inf
ROOT
ATOM      1  C   UNL A   1      31.254  31.567  26.314  1.00  0.00     0.202 C 
ENDROOT
BRANCH   1   2
ATOM      2  O   UNL A   1      32.087  30.418  26.280  1.00  0.00    -0.374 OA
BRANCH   2   3
ATOM      3  C   UNL A   1      31.704  29.353  25.409  1.00  0.00     0.202 C 
BRANCH   3   4
ATOM      4  C   UNL A   1      31.994  27.900  25.821  1.00  0.00     0.261 C 
BRANCH   4   5
ATOM      5  O   UNL A   1      32.249  27.022  24.709  1.00  0.00    -0.461 OA
BRANCH   5   6
ATOM      6  C   UNL A   1      31.571  25.834  24.687  1.00  0.00     0.341 C 
ATOM      7  O   UNL A   1      30.364  25.719  24.855  1.00  0.00    -0.249 OA
BRANCH   6   8
ATOM      8  C   UNL A   1      32.519  24.645  24.414  1.00  0.00     0.200 C 
ATOM      9  C   UNL A   1      32.455  25.582  21.301  1.00  0.00     0.075 C 
ATOM     10  C   UNL A   1      33.098  24.503  22.166  1.00  0.00     0.165 C 
ATOM     11  O   UNL A   1      34.245  25.083  22.791  1.00  0.00    -0.344 OA
ATOM     12  O   UNL A   1      32.169  24.020  23.158  1.00  0.00    -0.329 OA
ATOM     13  C   UNL A   1      33.544  23.318  21.302  1.00  0.00     0.075 C 
ATOM     14  C   UNL A   1      33.994  25.146  24.200  1.00  0.00     0.166 C 
ATOM     15  C   UNL A   1      34.955  24.110  24.888  1.00  0.00     0.040 C 
ATOM     16  C   UNL A   1      32.717  23.549  25.571  1.00  0.00     0.016 C 
ATOM     17  C   UNL A   1      34.021  22.921  24.995  1.00  0.00     0.008 C 
ATOM     18  C   UNL A   1      31.711  22.433  25.886  1.00  0.00     0.046 C 
ATOM     19  C   UNL A   1      32.846  24.324  26.917  1.00  0.00     0.015 C 
ATOM     20  C   UNL A   1      34.309  21.415  24.832  1.00  0.00     0.035 C 
ATOM     21  C   UNL A   1      31.830  21.120  25.131  1.00  0.00     0.154 C 
ATOM     22  C   UNL A   1      35.716  20.922  25.117  1.00  0.00     0.012 C 
ATOM     23  C   UNL A   1      33.227  20.490  25.404  1.00  0.00     0.152 C 
ATOM     24  C   UNL A   1      35.895  19.576  24.398  1.00  0.00     0.032 C 
ATOM     25  C   UNL A   1      33.385  19.006  24.879  1.00  0.00     0.044 C 
ATOM     26  F   UNL A   1      33.417  20.475  26.767  1.00  0.00    -0.239 F 
ATOM     27  C   UNL A   1      34.852  18.555  24.781  1.00  0.00    -0.053 C 
ATOM     28  C   UNL A   1      32.635  18.029  25.786  1.00  0.00    -0.009 C 
ATOM     29  C   UNL A   1      32.759  18.824  23.463  1.00  0.00     0.024 C 
ATOM     30  C   UNL A   1      35.188  17.259  24.941  1.00  0.00     0.052 C 
ATOM     31  C   UNL A   1      32.850  16.707  25.727  1.00  0.00     0.048 C 
ATOM     32  C   UNL A   1      34.157  16.227  25.223  1.00  0.00     0.178 C 
ATOM     33  O   UNL A   1      34.422  15.033  25.169  1.00  0.00    -0.290 OA
BRANCH  21  34
ATOM     34  O   UNL A   1      31.541  21.334  23.752  1.00  0.00    -0.390 OA
ATOM     35  H   UNL A   1      31.345  20.485  23.327  1.00  0.00     0.211 HD
ENDBRANCH  21  34
ENDBRANCH   6   8
ENDBRANCH   5   6
ENDBRANCH   4   5
ENDBRANCH   3   4
ENDBRANCH   2   3
ENDBRANCH   1   2
BRANCH   1  36
ATOM     36  C   UNL A   1      31.784  32.885  26.911  1.00  0.00     0.261 C 
BRANCH  36  37
ATOM     37  O   UNL A   1      33.194  33.005  26.915  1.00  0.00    -0.460 OA
BRANCH  37  38
ATOM     38  C   UNL A   1      33.657  33.613  28.033  1.00  0.00     0.338 C 
ATOM     39  O   UNL A   1      33.130  34.477  28.692  1.00  0.00    -0.246 OA
BRANCH  38  40
ATOM     40  C   UNL A   1      34.878  32.900  28.406  1.00  0.00     0.060 A 
ATOM     41  C   UNL A   1      34.749  31.555  28.753  1.00  0.00     0.016 A 
ATOM     42  C   UNL A   1      36.112  33.555  28.399  1.00  0.00     0.016 A 
ATOM     43  C   UNL A   1      35.872  30.856  29.152  1.00  0.00     0.010 A 
ATOM     44  C   UNL A   1      37.238  32.853  28.804  1.00  0.00     0.010 A 
ATOM     45  C   UNL A   1      37.106  31.517  29.218  1.00  0.00    -0.014 A 
BRANCH  45  46
ATOM     46  C   UNL A   1      38.226  30.850  29.898  1.00  0.00     0.031 A 
ATOM     47  C   UNL A   1      38.487  31.202  31.331  1.00  0.00     0.074 A 
ATOM     48  C   UNL A   1      38.941  29.924  29.242  1.00  0.00     0.049 A 
ATOM     49  N   UNL A   1      39.422  30.769  32.130  1.00  0.00    -0.248 NA
ATOM     50  C   UNL A   1      37.572  32.181  31.943  1.00  0.00     0.031 C 
ATOM     51  C   UNL A   1      38.708  29.502  27.860  1.00  0.00     0.029 A 
ATOM     52  N   UNL A   1      40.006  29.171  29.652  1.00  0.00    -0.354 N 
ATOM     53  C   UNL A   1      39.214  31.426  33.338  1.00  0.00     0.074 A 
ATOM     54  C   UNL A   1      38.092  32.319  33.152  1.00  0.00     0.031 C 
ATOM     55  C   UNL A   1      39.608  28.559  27.536  1.00  0.00     0.029 A 
ATOM     56  C   UNL A   1      40.505  28.352  28.669  1.00  0.00     0.049 A 
ATOM     57  H   UNL A   1      40.378  29.211  30.561  1.00  0.00     0.167 HD
ATOM     58  C   UNL A   1      39.899  31.279  34.495  1.00  0.00     0.034 A 
ATOM     59  C   UNL A   1      41.586  27.550  28.687  1.00  0.00     0.034 A 
ATOM     60  C   UNL A   1      41.021  30.386  34.631  1.00  0.00     0.049 A 
ATOM     61  C   UNL A   1      42.385  27.470  29.964  1.00  0.00     0.074 A 
ATOM     62  C   UNL A   1      41.798  30.138  35.746  1.00  0.00     0.029 A 
ATOM     63  N   UNL A   1      41.536  29.602  33.603  1.00  0.00    -0.354 N 
ATOM     64  N   UNL A   1      42.179  28.085  31.108  1.00  0.00    -0.248 NA
ATOM     65  C   UNL A   1      43.552  26.583  29.958  1.00  0.00     0.031 C 
ATOM     66  C   UNL A   1      42.830  29.272  35.372  1.00  0.00     0.029 A 
ATOM     67  C   UNL A   1      42.644  28.901  34.049  1.00  0.00     0.049 A 
ATOM     68  H   UNL A   1      41.168  29.553  32.692  1.00  0.00     0.167 HD
ATOM     69  C   UNL A   1      43.176  27.633  31.968  1.00  0.00     0.074 A 
ATOM     70  C   UNL A   1      43.966  26.681  31.211  1.00  0.00     0.031 C 
ATOM     71  C   UNL A   1      43.419  27.967  33.262  1.00  0.00     0.034 A 
BRANCH  58  72
ATOM     72  C   UNL A   1      39.489  32.143  35.663  1.00  0.00     0.023 A 
ATOM     73  C   UNL A   1      38.696  31.649  36.715  1.00  0.00     0.031 A 
ATOM     74  C   UNL A   1      39.866  33.497  35.706  1.00  0.00     0.131 A 
ATOM     75  C   UNL A   1      38.252  32.517  37.725  1.00  0.00     0.055 A 
ATOM     76  C   UNL A   1      39.490  34.335  36.758  1.00  0.00     0.041 A 
ATOM     77  F   UNL A   1      40.594  34.036  34.715  1.00  0.00    -0.206 F 
ATOM     78  C   UNL A   1      38.667  33.849  37.769  1.00  0.00     0.022 A 
BRANCH  75  79
ATOM     79  S   UNL A   1      37.006  31.916  38.899  1.00  0.00     0.124 S 
ATOM     80  O   UNL A   1      36.961  30.491  38.578  1.00  0.00    -0.237 OA
ATOM     81  O   UNL A   1      37.592  32.263  40.188  1.00  0.00    -0.237 OA
ATOM     82  O   UNL A   1      35.804  32.665  38.538  1.00  0.00    -0.744 OA
ENDBRANCH  75  79
ENDBRANCH  58  72
BRANCH  59  83
ATOM     83  C   UNL A   1      41.990  26.799  27.465  1.00  0.00     0.023 A 
ATOM     84  C   UNL A   1      41.771  25.419  27.356  1.00  0.00     0.031 A 
ATOM     85  C   UNL A   1      42.642  27.449  26.400  1.00  0.00     0.131 A 
ATOM     86  C   UNL A   1      42.244  24.723  26.232  1.00  0.00     0.055 A 
ATOM     87  C   UNL A   1      43.054  26.764  25.257  1.00  0.00     0.041 A 
ATOM     88  F   UNL A   1      42.875  28.771  26.450  1.00  0.00    -0.206 F 
ATOM     89  C   UNL A   1      42.870  25.388  25.176  1.00  0.00     0.022 A 
BRANCH  86  90
ATOM     90  S   UNL A   1      42.119  22.914  26.220  1.00  0.00     0.124 S 
ATOM     91  O   UNL A   1      42.679  22.588  24.915  1.00  0.00    -0.237 OA
ATOM     92  O   UNL A   1      42.930  22.548  27.378  1.00  0.00    -0.237 OA
ATOM     93  O   UNL A   1      40.685  22.673  26.365  1.00  0.00    -0.744 OA
ENDBRANCH  86  90
ENDBRANCH  59  83
BRANCH  71  94
ATOM     94  C   UNL A   1      44.564  27.258  33.942  1.00  0.00     0.023 A 
ATOM     95  C   UNL A   1      44.424  25.965  34.471  1.00  0.00     0.031 A 
ATOM     96  C   UNL A   1      45.812  27.894  34.066  1.00  0.00     0.131 A 
ATOM     97  C   UNL A   1      45.491  25.376  35.161  1.00  0.00     0.055 A 
ATOM     98  C   UNL A   1      46.895  27.272  34.686  1.00  0.00     0.041 A 
ATOM     99  F   UNL A   1      46.001  29.133  33.581  1.00  0.00    -0.206 F 
ATOM    100  C   UNL A   1      46.733  26.010  35.252  1.00  0.00     0.022 A 
BRANCH  97 101
ATOM    101  S   UNL A   1      45.201  23.816  36.037  1.00  0.00     0.124 S 
ATOM    102  O   UNL A   1      43.782  23.588  35.784  1.00  0.00    -0.237 OA
ATOM    103  O   UNL A   1      46.123  22.905  35.369  1.00  0.00    -0.237 OA
ATOM    104  O   UNL A   1      45.539  24.134  37.424  1.00  0.00    -0.744 OA
ENDBRANCH  97 101
ENDBRANCH  71  94
ENDBRANCH  45  46
ENDBRANCH  38  40
ENDBRANCH  37  38
ENDBRANCH  36  37
ENDBRANCH   1  36
TORSDOF 18
ENDMDL
MODEL 2
REMARK VINA RESULT:     -13.2      0.646      7.104
REMARK SMILES CC1(C)O[C@@H]2C[C@H]3[C@H]4CCC5=CC(=O)C=C[C@@]5(C)[C@]4(F)[C@H](O)C[C@]3(C)[C@]2(C(=O)OCCOCCOC(=O)c2ccc(-c3c4nc(c(-c5cc(S(=O)(=O)[O-])ccc5F)c5ccc([nH]5)c(-c5cc(S(=O)(=O)[O-])ccc5F)c5nc(c(-c6cc(S(=O)(=O)[O-])ccc6F)c6ccc3[nH]6)C=C5)C=C4)cc2)O1
REMARK SMILES IDX 33 1 32 2 31 3 30 4 29 5 27 6 28 7 26 8 1 9 2 10 4 11 101 12
REMARK SMILES IDX 3 13 5 14 6 15 24 16 7 17 23 18 25 19 8 20 21 21 9 22 19 23
REMARK SMILES IDX 10 24 17 25 20 26 11 27 16 28 18 29 12 30 15 31 13 32 14 33
REMARK SMILES IDX 22 34 34 36 35 37 36 38 37 39 38 40 39 41 100 42 40 43 99 44
REMARK SMILES IDX 41 45 42 46 43 47 93 48 44 49 98 50 92 51 94 52 45 53 97 54
REMARK SMILES IDX 91 55 90 56 46 58 78 59 58 60 77 61 59 62 62 63 76 64 95 65
REMARK SMILES IDX 60 66 61 67 75 69 96 70 63 71 47 72 48 73 56 74 49 75 55 76
REMARK SMILES IDX 57 77 54 78 50 79 51 80 52 81 53 82 79 83 80 84 88 85 81 86
REMARK SMILES IDX 87 87 89 88 86 89 82 90 83 91 84 92 85 93 64 94 65 95 73 96
REMARK SMILES IDX 66 97 72 98 74 99 71 100 67 101 68 102 69 103 70 104
REMARK H PARENT 22 35 94 57 62 68
REMARK Flexibility Score: inf
ROOT
ATOM      1  C   UNL A   1      31.031  31.152  25.629  1.00  0.00     0.202 C 
ENDROOT
BRANCH   1   2
ATOM      2  O   UNL A   1      31.511  29.860  25.293  1.00  0.00    -0.374 OA
BRANCH   2   3
ATOM      3  C   UNL A   1      30.880  29.186  24.203  1.00  0.00     0.202 C 
BRANCH   3   4
ATOM      4  C   UNL A   1      31.592  27.996  23.538  1.00  0.00     0.261 C 
BRANCH   4   5
ATOM      5  O   UNL A   1      32.121  27.040  24.475  1.00  0.00    -0.461 OA
BRANCH   5   6
ATOM      6  C   UNL A   1      31.480  25.833  24.560  1.00  0.00     0.341 C 
ATOM      7  O   UNL A   1      30.283  25.696  24.780  1.00  0.00    -0.249 OA
BRANCH   6   8
ATOM      8  C   UNL A   1      32.455  24.657  24.336  1.00  0.00     0.200 C 
ATOM      9  C   UNL A   1      32.530  25.587  21.221  1.00  0.00     0.075 C 
ATOM     10  C   UNL A   1      33.144  24.518  22.119  1.00  0.00     0.165 C 
ATOM     11  O   UNL A   1      34.252  25.114  22.798  1.00  0.00    -0.344 OA
ATOM     12  O   UNL A   1      32.174  24.025  23.066  1.00  0.00    -0.329 OA
ATOM     13  C   UNL A   1      33.646  23.337  21.280  1.00  0.00     0.075 C 
ATOM     14  C   UNL A   1      33.932  25.175  24.192  1.00  0.00     0.166 C 
ATOM     15  C   UNL A   1      34.872  24.153  24.928  1.00  0.00     0.040 C 
ATOM     16  C   UNL A   1      32.611  23.565  25.504  1.00  0.00     0.016 C 
ATOM     17  C   UNL A   1      33.949  22.952  24.992  1.00  0.00     0.008 C 
ATOM     18  C   UNL A   1      31.605  22.437  25.771  1.00  0.00     0.046 C 
ATOM     19  C   UNL A   1      32.665  24.343  26.852  1.00  0.00     0.015 C 
ATOM     20  C   UNL A   1      34.263  21.450  24.847  1.00  0.00     0.035 C 
ATOM     21  C   UNL A   1      31.776  21.124  25.027  1.00  0.00     0.154 C 
ATOM     22  C   UNL A   1      35.661  20.975  25.201  1.00  0.00     0.012 C 
ATOM     23  C   UNL A   1      33.166  20.512  25.368  1.00  0.00     0.152 C 
ATOM     24  C   UNL A   1      35.892  19.631  24.494  1.00  0.00     0.032 C 
ATOM     25  C   UNL A   1      33.369  19.030  24.855  1.00  0.00     0.044 C 
ATOM     26  F   UNL A   1      33.291  20.502  26.739  1.00  0.00    -0.239 F 
ATOM     27  C   UNL A   1      34.844  18.597  24.829  1.00  0.00    -0.053 C 
ATOM     28  C   UNL A   1      32.588  18.044  25.726  1.00  0.00    -0.009 C 
ATOM     29  C   UNL A   1      32.815  18.837  23.411  1.00  0.00     0.024 C 
ATOM     30  C   UNL A   1      35.188  17.306  25.007  1.00  0.00     0.052 C 
ATOM     31  C   UNL A   1      32.822  16.725  25.680  1.00  0.00     0.048 C 
ATOM     32  C   UNL A   1      34.158  16.261  25.242  1.00  0.00     0.178 C 
ATOM     33  O   UNL A   1      34.440  15.071  25.203  1.00  0.00    -0.290 OA
BRANCH  21  34
ATOM     34  O   UNL A   1      31.552  21.332  23.635  1.00  0.00    -0.390 OA
ATOM     35  H   UNL A   1      32.400  21.479  23.189  1.00  0.00     0.211 HD
ENDBRANCH  21  34
ENDBRANCH   6   8
ENDBRANCH   5   6
ENDBRANCH   4   5
ENDBRANCH   3   4
ENDBRANCH   2   3
ENDBRANCH   1   2
BRANCH   1  36
ATOM     36  C   UNL A   1      31.595  31.888  26.861  1.00  0.00     0.261 C 
BRANCH  36  37
ATOM     37  O   UNL A   1      32.926  31.541  27.195  1.00  0.00    -0.460 OA
BRANCH  37  38
ATOM     38  C   UNL A   1      33.644  32.605  27.626  1.00  0.00     0.338 C 
ATOM     39  O   UNL A   1      33.299  33.760  27.712  1.00  0.00    -0.246 OA
BRANCH  38  40
ATOM     40  C   UNL A   1      34.901  32.064  28.142  1.00  0.00     0.060 A 
ATOM     41  C   UNL A   1      34.901  30.728  28.544  1.00  0.00     0.016 A 
ATOM     42  C   UNL A   1      36.043  32.866  28.210  1.00  0.00     0.016 A 
ATOM     43  C   UNL A   1      36.057  30.190  29.076  1.00  0.00     0.010 A 
ATOM     44  C   UNL A   1      37.201  32.325  28.747  1.00  0.00     0.010 A 
ATOM     45  C   UNL A   1      37.192  31.001  29.216  1.00  0.00    -0.014 A 
BRANCH  45  46
ATOM     46  C   UNL A   1      38.315  30.506  30.025  1.00  0.00     0.031 A 
ATOM     47  C   UNL A   1      39.220  29.478  29.417  1.00  0.00     0.074 A 
ATOM     48  C   UNL A   1      38.525  31.015  31.249  1.00  0.00     0.049 A 
ATOM     49  N   UNL A   1      40.254  28.877  29.936  1.00  0.00    -0.248 NA
ATOM     50  C   UNL A   1      38.909  29.068  28.036  1.00  0.00     0.031 C 
ATOM     51  C   UNL A   1      37.708  32.052  31.881  1.00  0.00     0.029 A 
ATOM     52  N   UNL A   1      39.489  30.731  32.175  1.00  0.00    -0.354 N 
ATOM     53  C   UNL A   1      40.716  28.013  28.949  1.00  0.00     0.074 A 
ATOM     54  C   UNL A   1      39.823  28.136  27.819  1.00  0.00     0.031 C 
ATOM     55  C   UNL A   1      38.210  32.318  33.098  1.00  0.00     0.029 A 
ATOM     56  C   UNL A   1      39.347  31.437  33.344  1.00  0.00     0.049 A 
ATOM     57  H   UNL A   1      40.213  30.084  32.020  1.00  0.00     0.167 HD
ATOM     58  C   UNL A   1      41.799  27.202  28.993  1.00  0.00     0.034 A 
ATOM     59  C   UNL A   1      40.049  31.351  34.490  1.00  0.00     0.034 A 
ATOM     60  C   UNL A   1      42.654  27.102  30.148  1.00  0.00     0.049 A 
ATOM     61  C   UNL A   1      41.198  30.375  34.542  1.00  0.00     0.074 A 
ATOM     62  C   UNL A   1      43.784  26.326  30.321  1.00  0.00     0.029 A 
ATOM     63  N   UNL A   1      42.459  27.795  31.339  1.00  0.00    -0.354 N 
ATOM     64  N   UNL A   1      41.640  29.566  33.603  1.00  0.00    -0.248 NA
ATOM     65  C   UNL A   1      41.950  30.308  35.799  1.00  0.00     0.031 C 
ATOM     66  C   UNL A   1      44.221  26.486  31.640  1.00  0.00     0.029 A 
ATOM     67  C   UNL A   1      43.425  27.434  32.263  1.00  0.00     0.049 A 
ATOM     68  H   UNL A   1      41.740  28.446  31.501  1.00  0.00     0.167 HD
ATOM     69  C   UNL A   1      42.742  28.916  34.149  1.00  0.00     0.074 A 
ATOM     70  C   UNL A   1      42.905  29.444  35.490  1.00  0.00     0.031 C 
ATOM     71  C   UNL A   1      43.550  27.972  33.599  1.00  0.00     0.034 A 
BRANCH  58  72
ATOM     72  C   UNL A   1      42.067  26.331  27.790  1.00  0.00     0.023 A 
ATOM     73  C   UNL A   1      41.655  24.986  27.736  1.00  0.00     0.031 A 
ATOM     74  C   UNL A   1      42.781  26.843  26.692  1.00  0.00     0.131 A 
ATOM     75  C   UNL A   1      42.019  24.186  26.642  1.00  0.00     0.055 A 
ATOM     76  C   UNL A   1      43.066  26.063  25.568  1.00  0.00     0.041 A 
ATOM     77  F   UNL A   1      43.230  28.108  26.698  1.00  0.00    -0.206 F 
ATOM     78  C   UNL A   1      42.696  24.722  25.545  1.00  0.00     0.022 A 
BRANCH  75  79
ATOM     79  S   UNL A   1      41.720  22.398  26.737  1.00  0.00     0.124 S 
ATOM     80  O   UNL A   1      42.039  21.973  25.376  1.00  0.00    -0.237 OA
ATOM     81  O   UNL A   1      42.654  21.977  27.774  1.00  0.00    -0.237 OA
ATOM     82  O   UNL A   1      40.306  22.306  27.095  1.00  0.00    -0.744 OA
ENDBRANCH  75  79
ENDBRANCH  58  72
BRANCH  59  83
ATOM     83  C   UNL A   1      39.668  32.171  35.673  1.00  0.00     0.023 A 
ATOM     84  C   UNL A   1      38.806  31.668  36.658  1.00  0.00     0.031 A 
ATOM     85  C   UNL A   1      40.131  33.493  35.817  1.00  0.00     0.131 A 
ATOM     86  C   UNL A   1      38.393  32.495  37.714  1.00  0.00     0.055 A 
ATOM     87  C   UNL A   1      39.767  34.290  36.902  1.00  0.00     0.041 A 
ATOM     88  F   UNL A   1      40.961  34.026  34.905  1.00  0.00    -0.206 F 
ATOM     89  C   UNL A   1      38.879  33.797  37.852  1.00  0.00     0.022 A 
BRANCH  86  90
ATOM     90  S   UNL A   1      37.126  31.874  38.853  1.00  0.00     0.124 S 
ATOM     91  O   UNL A   1      37.737  32.142  40.150  1.00  0.00    -0.237 OA
ATOM     92  O   UNL A   1      35.975  32.701  38.502  1.00  0.00    -0.237 OA
ATOM     93  O   UNL A   1      37.010  30.463  38.495  1.00  0.00    -0.744 OA
ENDBRANCH  86  90
ENDBRANCH  59  83
BRANCH  71  94
ATOM     94  C   UNL A   1      44.704  27.491  34.444  1.00  0.00     0.023 A 
ATOM     95  C   UNL A   1      44.606  26.339  35.242  1.00  0.00     0.031 A 
ATOM     96  C   UNL A   1      45.916  28.203  34.453  1.00  0.00     0.131 A 
ATOM     97  C   UNL A   1      45.676  25.972  36.068  1.00  0.00     0.055 A 
ATOM     98  C   UNL A   1      47.005  27.789  35.219  1.00  0.00     0.041 A 
ATOM     99  F   UNL A   1      46.064  29.314  33.711  1.00  0.00    -0.206 F 
ATOM    100  C   UNL A   1      46.883  26.676  36.045  1.00  0.00     0.022 A 
BRANCH  97 101
ATOM    101  S   UNL A   1      45.429  24.629  37.260  1.00  0.00     0.124 S 
ATOM    102  O   UNL A   1      46.795  24.163  37.476  1.00  0.00    -0.237 OA
ATOM    103  O   UNL A   1      44.804  25.319  38.383  1.00  0.00    -0.237 OA
ATOM    104  O   UNL A   1      44.561  23.693  36.547  1.00  0.00    -0.744 OA
ENDBRANCH  97 101
ENDBRANCH  71  94
ENDBRANCH  45  46
ENDBRANCH  38  40
ENDBRANCH  37  38
ENDBRANCH  36  37
ENDBRANCH   1  36
TORSDOF 18
ENDMDL
MODEL 3
REMARK VINA RESULT:     -13.1      2.449      8.800
REMARK SMILES CC1(C)O[C@@H]2C[C@H]3[C@H]4CCC5=CC(=O)C=C[C@@]5(C)[C@]4(F)[C@H](O)C[C@]3(C)[C@]2(C(=O)OCCOCCOC(=O)c2ccc(-c3c4nc(c(-c5cc(S(=O)(=O)[O-])ccc5F)c5ccc([nH]5)c(-c5cc(S(=O)(=O)[O-])ccc5F)c5nc(c(-c6cc(S(=O)(=O)[O-])ccc6F)c6ccc3[nH]6)C=C5)C=C4)cc2)O1
REMARK SMILES IDX 33 1 32 2 31 3 30 4 29 5 27 6 28 7 26 8 1 9 2 10 4 11 101 12
REMARK SMILES IDX 3 13 5 14 6 15 24 16 7 17 23 18 25 19 8 20 21 21 9 22 19 23
REMARK SMILES IDX 10 24 17 25 20 26 11 27 16 28 18 29 12 30 15 31 13 32 14 33
REMARK SMILES IDX 22 34 34 36 35 37 36 38 37 39 38 40 39 41 100 42 40 43 99 44
REMARK SMILES IDX 41 45 42 46 43 47 93 48 44 49 98 50 92 51 94 52 45 53 97 54
REMARK SMILES IDX 91 55 90 56 46 58 78 59 58 60 77 61 59 62 62 63 76 64 95 65
REMARK SMILES IDX 60 66 61 67 75 69 96 70 63 71 47 72 48 73 56 74 49 75 55 76
REMARK SMILES IDX 57 77 54 78 50 79 51 80 52 81 53 82 79 83 80 84 88 85 81 86
REMARK SMILES IDX 87 87 89 88 86 89 82 90 83 91 84 92 85 93 64 94 65 95 73 96
REMARK SMILES IDX 66 97 72 98 74 99 71 100 67 101 68 102 69 103 70 104
REMARK H PARENT 22 35 94 57 62 68
REMARK Flexibility Score: inf
ROOT
ATOM      1  C   UNL A   1      42.434  20.618  26.452  1.00  0.00     0.202 C 
ENDROOT
BRANCH   1   2
ATOM      2  O   UNL A   1      41.226  21.125  26.999  1.00  0.00    -0.374 OA
BRANCH   2   3
ATOM      3  C   UNL A   1      40.004  20.724  26.379  1.00  0.00     0.202 C 
BRANCH   3   4
ATOM      4  C   UNL A   1      38.955  21.789  26.019  1.00  0.00     0.261 C 
BRANCH   4   5
ATOM      5  O   UNL A   1      37.622  21.265  25.878  1.00  0.00    -0.461 OA
BRANCH   5   6
ATOM      6  C   UNL A   1      36.944  21.591  24.733  1.00  0.00     0.341 C 
ATOM      7  O   UNL A   1      37.403  21.493  23.602  1.00  0.00    -0.249 OA
BRANCH   6   8
ATOM      8  C   UNL A   1      35.518  22.094  25.043  1.00  0.00     0.200 C 
ATOM      9  C   UNL A   1      34.574  19.005  24.671  1.00  0.00     0.075 C 
ATOM     10  C   UNL A   1      33.965  20.362  25.005  1.00  0.00     0.165 C 
ATOM     11  O   UNL A   1      34.193  20.603  26.396  1.00  0.00    -0.344 OA
ATOM     12  O   UNL A   1      34.563  21.403  24.205  1.00  0.00    -0.329 OA
ATOM     13  C   UNL A   1      32.455  20.353  24.739  1.00  0.00     0.075 C 
ATOM     14  C   UNL A   1      35.096  21.709  26.509  1.00  0.00     0.166 C 
ATOM     15  C   UNL A   1      34.281  22.914  27.104  1.00  0.00     0.040 C 
ATOM     16  C   UNL A   1      35.252  23.678  25.039  1.00  0.00     0.016 C 
ATOM     17  C   UNL A   1      33.906  23.632  25.822  1.00  0.00     0.008 C 
ATOM     18  C   UNL A   1      35.072  24.520  23.769  1.00  0.00     0.046 C 
ATOM     19  C   UNL A   1      36.461  24.346  25.760  1.00  0.00     0.015 C 
ATOM     20  C   UNL A   1      32.608  24.372  25.443  1.00  0.00     0.035 C 
ATOM     21  C   UNL A   1      33.676  24.657  23.184  1.00  0.00     0.154 C 
ATOM     22  C   UNL A   1      31.767  24.959  26.562  1.00  0.00     0.012 C 
ATOM     23  C   UNL A   1      32.736  25.312  24.238  1.00  0.00     0.152 C 
ATOM     24  C   UNL A   1      30.340  25.147  26.027  1.00  0.00     0.032 C 
ATOM     25  C   UNL A   1      31.321  25.737  23.672  1.00  0.00     0.044 C 
ATOM     26  F   UNL A   1      33.359  26.448  24.702  1.00  0.00    -0.239 F 
ATOM     27  C   UNL A   1      30.281  25.990  24.776  1.00  0.00    -0.053 C 
ATOM     28  C   UNL A   1      31.437  26.999  22.815  1.00  0.00    -0.009 C 
ATOM     29  C   UNL A   1      30.725  24.648  22.729  1.00  0.00     0.024 C 
ATOM     30  C   UNL A   1      29.283  26.877  24.594  1.00  0.00     0.052 C 
ATOM     31  C   UNL A   1      30.360  27.716  22.466  1.00  0.00     0.048 C 
ATOM     32  C   UNL A   1      29.158  27.644  23.327  1.00  0.00     0.178 C 
ATOM     33  O   UNL A   1      28.151  28.295  23.076  1.00  0.00    -0.290 OA
BRANCH  21  34
ATOM     34  O   UNL A   1      33.232  23.390  22.707  1.00  0.00    -0.390 OA
ATOM     35  H   UNL A   1      32.299  23.266  22.940  1.00  0.00     0.211 HD
ENDBRANCH  21  34
ENDBRANCH   6   8
ENDBRANCH   5   6
ENDBRANCH   4   5
ENDBRANCH   3   4
ENDBRANCH   2   3
ENDBRANCH   1   2
BRANCH   1  36
ATOM     36  C   UNL A   1      43.247  21.470  25.457  1.00  0.00     0.261 C 
BRANCH  36  37
ATOM     37  O   UNL A   1      42.610  22.666  25.049  1.00  0.00    -0.460 OA
BRANCH  37  38
ATOM     38  C   UNL A   1      43.442  23.734  25.093  1.00  0.00     0.338 C 
ATOM     39  O   UNL A   1      44.431  23.944  24.433  1.00  0.00    -0.246 OA
BRANCH  38  40
ATOM     40  C   UNL A   1      42.818  24.697  26.000  1.00  0.00     0.060 A 
ATOM     41  C   UNL A   1      43.407  25.959  26.091  1.00  0.00     0.016 A 
ATOM     42  C   UNL A   1      41.677  24.351  26.727  1.00  0.00     0.016 A 
ATOM     43  C   UNL A   1      42.874  26.884  26.968  1.00  0.00     0.010 A 
ATOM     44  C   UNL A   1      41.145  25.280  27.608  1.00  0.00     0.010 A 
ATOM     45  C   UNL A   1      41.771  26.529  27.756  1.00  0.00    -0.014 A 
BRANCH  45  46
ATOM     46  C   UNL A   1      41.387  27.411  28.868  1.00  0.00     0.031 A 
ATOM     47  C   UNL A   1      42.211  27.363  30.118  1.00  0.00     0.074 A 
ATOM     48  C   UNL A   1      40.356  28.256  28.717  1.00  0.00     0.049 A 
ATOM     49  N   UNL A   1      42.059  28.022  31.233  1.00  0.00    -0.248 NA
ATOM     50  C   UNL A   1      43.360  26.440  30.111  1.00  0.00     0.031 C 
ATOM     51  C   UNL A   1      39.542  28.385  27.507  1.00  0.00     0.029 A 
ATOM     52  N   UNL A   1      39.820  29.165  29.585  1.00  0.00    -0.354 N 
ATOM     53  C   UNL A   1      43.087  27.591  32.064  1.00  0.00     0.074 A 
ATOM     54  C   UNL A   1      43.828  26.582  31.341  1.00  0.00     0.031 C 
ATOM     55  C   UNL A   1      38.606  29.325  27.712  1.00  0.00     0.029 A 
ATOM     56  C   UNL A   1      38.727  29.824  29.079  1.00  0.00     0.049 A 
ATOM     57  H   UNL A   1      40.182  29.332  30.484  1.00  0.00     0.167 HD
ATOM     58  C   UNL A   1      43.382  28.016  33.315  1.00  0.00     0.034 A 
ATOM     59  C   UNL A   1      37.905  30.708  29.674  1.00  0.00     0.034 A 
ATOM     60  C   UNL A   1      42.605  29.016  34.003  1.00  0.00     0.049 A 
ATOM     61  C   UNL A   1      38.205  31.101  31.100  1.00  0.00     0.074 A 
ATOM     62  C   UNL A   1      42.798  29.540  35.267  1.00  0.00     0.029 A 
ATOM     63  N   UNL A   1      41.471  29.633  33.483  1.00  0.00    -0.354 N 
ATOM     64  N   UNL A   1      39.185  30.699  31.880  1.00  0.00    -0.248 NA
ATOM     65  C   UNL A   1      37.299  32.072  31.721  1.00  0.00     0.031 C 
ATOM     66  C   UNL A   1      41.737  30.408  35.542  1.00  0.00     0.029 A 
ATOM     67  C   UNL A   1      40.933  30.502  34.416  1.00  0.00     0.049 A 
ATOM     68  H   UNL A   1      41.105  29.474  32.584  1.00  0.00     0.167 HD
ATOM     69  C   UNL A   1      39.028  31.393  33.076  1.00  0.00     0.074 A 
ATOM     70  C   UNL A   1      37.872  32.252  32.901  1.00  0.00     0.031 C 
ATOM     71  C   UNL A   1      39.769  31.335  34.213  1.00  0.00     0.034 A 
BRANCH  58  72
ATOM     72  C   UNL A   1      44.542  27.357  34.020  1.00  0.00     0.023 A 
ATOM     73  C   UNL A   1      44.424  26.093  34.629  1.00  0.00     0.031 A 
ATOM     74  C   UNL A   1      45.777  28.020  34.121  1.00  0.00     0.131 A 
ATOM     75  C   UNL A   1      45.497  25.567  35.365  1.00  0.00     0.055 A 
ATOM     76  C   UNL A   1      46.868  27.453  34.783  1.00  0.00     0.041 A 
ATOM     77  F   UNL A   1      45.942  29.242  33.591  1.00  0.00    -0.206 F 
ATOM     78  C   UNL A   1      46.727  26.225  35.421  1.00  0.00     0.022 A 
BRANCH  75  79
ATOM     79  S   UNL A   1      45.216  24.081  36.367  1.00  0.00     0.124 S 
ATOM     80  O   UNL A   1      46.348  23.243  35.975  1.00  0.00    -0.237 OA
ATOM     81  O   UNL A   1      45.250  24.605  37.726  1.00  0.00    -0.237 OA
ATOM     82  O   UNL A   1      43.912  23.603  35.913  1.00  0.00    -0.744 OA
ENDBRANCH  75  79
ENDBRANCH  58  72
BRANCH  59  83
ATOM     83  C   UNL A   1      36.720  31.246  28.950  1.00  0.00     0.023 A 
ATOM     84  C   UNL A   1      35.683  30.402  28.527  1.00  0.00     0.031 A 
ATOM     85  C   UNL A   1      36.625  32.614  28.633  1.00  0.00     0.131 A 
ATOM     86  C   UNL A   1      34.624  30.922  27.768  1.00  0.00     0.055 A 
ATOM     87  C   UNL A   1      35.538  33.138  27.932  1.00  0.00     0.041 A 
ATOM     88  F   UNL A   1      37.587  33.469  29.016  1.00  0.00    -0.206 F 
ATOM     89  C   UNL A   1      34.536  32.286  27.481  1.00  0.00     0.022 A 
BRANCH  86  90
ATOM     90  S   UNL A   1      33.411  29.768  27.071  1.00  0.00     0.124 S 
ATOM     91  O   UNL A   1      32.153  30.430  27.395  1.00  0.00    -0.237 OA
ATOM     92  O   UNL A   1      33.785  29.752  25.661  1.00  0.00    -0.237 OA
ATOM     93  O   UNL A   1      33.669  28.526  27.797  1.00  0.00    -0.744 OA
ENDBRANCH  86  90
ENDBRANCH  59  83
BRANCH  71  94
ATOM     94  C   UNL A   1      39.364  32.260  35.334  1.00  0.00     0.023 A 
ATOM     95  C   UNL A   1      39.875  33.564  35.439  1.00  0.00     0.031 A 
ATOM     96  C   UNL A   1      38.457  31.823  36.316  1.00  0.00     0.131 A 
ATOM     97  C   UNL A   1      39.530  34.361  36.538  1.00  0.00     0.055 A 
ATOM     98  C   UNL A   1      38.057  32.648  37.366  1.00  0.00     0.041 A 
ATOM     99  F   UNL A   1      37.939  30.584  36.267  1.00  0.00    -0.206 F 
ATOM    100  C   UNL A   1      38.607  33.921  37.491  1.00  0.00     0.022 A 
BRANCH  97 101
ATOM    101  S   UNL A   1      40.393  35.939  36.769  1.00  0.00     0.124 S 
ATOM    102  O   UNL A   1      39.720  36.795  35.798  1.00  0.00    -0.237 OA
ATOM    103  O   UNL A   1      40.131  36.235  38.173  1.00  0.00    -0.237 OA
ATOM    104  O   UNL A   1      41.784  35.618  36.452  1.00  0.00    -0.744 OA
ENDBRANCH  97 101
ENDBRANCH  71  94
ENDBRANCH  45  46
ENDBRANCH  38  40
ENDBRANCH  37  38
ENDBRANCH  36  37
ENDBRANCH   1  36
TORSDOF 18
ENDMDL
