MODEL 1
REMARK VINA RESULT:     -11.3      0.000      0.000
REMARK SMILES C[C@@H](C(=O)OCCOCCOC(=O)c1ccc(-c2c3nc(c(-c4cc(S(=O)(=O)[O-])ccc4F)c4ccc([nH]4)c(-c4cc(S(=O)(=O)[O-])ccc4F)c4nc(c(-c5cc(S(=O)(=O)[O-])ccc5F)c5ccc2[nH]5)C=C4)C=C3)cc1)c1cccc(C(=O)c2ccccc2)c1
REMARK SMILES IDX 8 1 7 2 6 3 5 4 3 5 4 6 2 7 1 8 77 9 78 10 90 11 79 12 81 13
REMARK SMILES IDX 80 14 82 15 83 16 84 17 85 18 89 19 86 20 88 21 87 22 9 23
REMARK SMILES IDX 10 24 11 25 12 26 13 27 14 28 15 29 76 30 16 31 75 32 17 33
REMARK SMILES IDX 18 34 19 35 69 36 20 37 74 38 68 39 70 40 21 41 73 42 67 43
REMARK SMILES IDX 66 44 22 46 54 47 34 48 53 49 35 50 38 51 52 52 71 53 36 54
REMARK SMILES IDX 37 55 51 57 72 58 39 59 23 60 24 61 32 62 25 63 31 64 33 65
REMARK SMILES IDX 30 66 26 67 27 68 28 69 29 70 55 71 56 72 64 73 57 74 63 75
REMARK SMILES IDX 65 76 62 77 58 78 59 79 60 80 61 81 40 82 41 83 49 84 42 85
REMARK SMILES IDX 48 86 50 87 47 88 43 89 44 90 45 91 46 92
REMARK H PARENT 70 45 38 56
REMARK Flexibility Score: inf
ROOT
ATOM      1  O   UNL A   1      31.078  30.056  24.752  1.00  0.00    -0.374 OA
ENDROOT
BRANCH   1   2
ATOM      2  C   UNL A   1      30.197  29.701  23.682  1.00  0.00     0.202 C 
BRANCH   2   3
ATOM      3  C   UNL A   1      30.031  28.201  23.406  1.00  0.00     0.261 C 
BRANCH   3   4
ATOM      4  O   UNL A   1      30.518  27.870  22.087  1.00  0.00    -0.463 OA
BRANCH   4   5
ATOM      5  C   UNL A   1      31.610  27.060  22.025  1.00  0.00     0.313 C 
ATOM      6  O   UNL A   1      31.647  25.996  21.418  1.00  0.00    -0.252 OA
BRANCH   5   7
ATOM      7  C   UNL A   1      32.807  27.631  22.802  1.00  0.00     0.126 C 
ATOM      8  C   UNL A   1      33.973  28.138  21.947  1.00  0.00     0.025 C 
BRANCH   7   9
ATOM      9  C   UNL A   1      33.309  26.645  23.861  1.00  0.00    -0.033 A 
ATOM     10  C   UNL A   1      33.045  26.896  25.214  1.00  0.00     0.004 A 
ATOM     11  C   UNL A   1      33.994  25.459  23.518  1.00  0.00     0.016 A 
ATOM     12  C   UNL A   1      33.437  25.982  26.193  1.00  0.00     0.001 A 
ATOM     13  C   UNL A   1      34.380  24.529  24.494  1.00  0.00     0.023 A 
ATOM     14  C   UNL A   1      34.095  24.805  25.835  1.00  0.00     0.012 A 
BRANCH  13  15
ATOM     15  C   UNL A   1      35.016  23.214  24.170  1.00  0.00     0.193 C 
ATOM     16  O   UNL A   1      36.212  23.159  23.890  1.00  0.00    -0.289 OA
BRANCH  15  17
ATOM     17  C   UNL A   1      34.274  21.938  24.211  1.00  0.00     0.022 A 
ATOM     18  C   UNL A   1      34.901  20.817  24.768  1.00  0.00     0.012 A 
ATOM     19  C   UNL A   1      33.006  21.820  23.632  1.00  0.00     0.012 A 
ATOM     20  C   UNL A   1      34.242  19.587  24.786  1.00  0.00     0.001 A 
ATOM     21  C   UNL A   1      32.360  20.581  23.638  1.00  0.00     0.001 A 
ATOM     22  C   UNL A   1      32.970  19.471  24.226  1.00  0.00     0.000 A 
ENDBRANCH  15  17
ENDBRANCH  13  15
ENDBRANCH   7   9
ENDBRANCH   5   7
ENDBRANCH   4   5
ENDBRANCH   3   4
ENDBRANCH   2   3
ENDBRANCH   1   2
BRANCH   1  23
ATOM     23  C   UNL A   1      30.793  31.268  25.436  1.00  0.00     0.202 C 
BRANCH  23  24
ATOM     24  C   UNL A   1      31.413  31.473  26.821  1.00  0.00     0.261 C 
BRANCH  24  25
ATOM     25  O   UNL A   1      32.825  31.261  26.820  1.00  0.00    -0.460 OA
BRANCH  25  26
ATOM     26  C   UNL A   1      33.506  32.237  27.466  1.00  0.00     0.338 C 
ATOM     27  O   UNL A   1      33.077  33.325  27.824  1.00  0.00    -0.246 OA
BRANCH  26  28
ATOM     28  C   UNL A   1      34.823  31.727  27.858  1.00  0.00     0.060 A 
ATOM     29  C   UNL A   1      34.923  30.352  28.095  1.00  0.00     0.016 A 
ATOM     30  C   UNL A   1      35.921  32.573  28.026  1.00  0.00     0.016 A 
ATOM     31  C   UNL A   1      36.117  29.820  28.562  1.00  0.00     0.010 A 
ATOM     32  C   UNL A   1      37.119  32.037  28.502  1.00  0.00     0.010 A 
ATOM     33  C   UNL A   1      37.205  30.667  28.808  1.00  0.00    -0.014 A 
BRANCH  33  34
ATOM     34  C   UNL A   1      38.371  30.135  29.546  1.00  0.00     0.031 A 
ATOM     35  C   UNL A   1      38.600  30.602  30.956  1.00  0.00     0.074 A 
ATOM     36  C   UNL A   1      39.169  29.214  28.982  1.00  0.00     0.049 A 
ATOM     37  N   UNL A   1      39.555  30.288  31.790  1.00  0.00    -0.248 NA
ATOM     38  C   UNL A   1      37.616  31.556  31.496  1.00  0.00     0.031 C 
ATOM     39  C   UNL A   1      38.995  28.658  27.640  1.00  0.00     0.029 A 
ATOM     40  N   UNL A   1      40.284  28.583  29.467  1.00  0.00    -0.354 N 
ATOM     41  C   UNL A   1      39.295  31.009  32.951  1.00  0.00     0.074 A 
ATOM     42  C   UNL A   1      38.114  31.806  32.698  1.00  0.00     0.031 C 
ATOM     43  C   UNL A   1      39.972  27.764  27.410  1.00  0.00     0.029 A 
ATOM     44  C   UNL A   1      40.862  27.718  28.568  1.00  0.00     0.049 A 
ATOM     45  H   UNL A   1      40.638  28.733  30.374  1.00  0.00     0.167 HD
ATOM     46  C   UNL A   1      39.979  30.997  34.121  1.00  0.00     0.034 A 
ATOM     47  C   UNL A   1      41.994  26.994  28.666  1.00  0.00     0.034 A 
ATOM     48  C   UNL A   1      41.159  30.198  34.341  1.00  0.00     0.049 A 
ATOM     49  C   UNL A   1      42.789  27.068  29.948  1.00  0.00     0.074 A 
ATOM     50  C   UNL A   1      41.926  30.092  35.487  1.00  0.00     0.029 A 
ATOM     51  N   UNL A   1      41.753  29.378  33.389  1.00  0.00    -0.354 N 
ATOM     52  N   UNL A   1      42.531  27.747  31.043  1.00  0.00    -0.248 NA
ATOM     53  C   UNL A   1      44.021  26.272  30.008  1.00  0.00     0.031 C 
ATOM     54  C   UNL A   1      43.025  29.275  35.203  1.00  0.00     0.029 A 
ATOM     55  C   UNL A   1      42.899  28.796  33.908  1.00  0.00     0.049 A 
ATOM     56  H   UNL A   1      41.409  29.232  32.478  1.00  0.00     0.167 HD
ATOM     57  C   UNL A   1      43.553  27.432  31.935  1.00  0.00     0.074 A 
ATOM     58  C   UNL A   1      44.420  26.492  31.252  1.00  0.00     0.031 C 
ATOM     59  C   UNL A   1      43.756  27.870  33.205  1.00  0.00     0.034 A 
BRANCH  46  60
ATOM     60  C   UNL A   1      39.499  31.920  35.215  1.00  0.00     0.023 A 
ATOM     61  C   UNL A   1      38.830  31.441  36.356  1.00  0.00     0.031 A 
ATOM     62  C   UNL A   1      39.685  33.309  35.098  1.00  0.00     0.131 A 
ATOM     63  C   UNL A   1      38.311  32.346  37.296  1.00  0.00     0.055 A 
ATOM     64  C   UNL A   1      39.237  34.199  36.077  1.00  0.00     0.041 A 
ATOM     65  F   UNL A   1      40.291  33.829  34.019  1.00  0.00    -0.206 F 
ATOM     66  C   UNL A   1      38.533  33.720  37.177  1.00  0.00     0.022 A 
BRANCH  63  67
ATOM     67  S   UNL A   1      37.213  31.716  38.594  1.00  0.00     0.124 S 
ATOM     68  O   UNL A   1      36.069  32.617  38.477  1.00  0.00    -0.237 OA
ATOM     69  O   UNL A   1      36.986  30.338  38.175  1.00  0.00    -0.237 OA
ATOM     70  O   UNL A   1      37.999  31.876  39.816  1.00  0.00    -0.744 OA
ENDBRANCH  63  67
ENDBRANCH  46  60
BRANCH  47  71
ATOM     71  C   UNL A   1      42.467  26.170  27.518  1.00  0.00     0.023 A 
ATOM     72  C   UNL A   1      42.052  24.838  27.360  1.00  0.00     0.031 A 
ATOM     73  C   UNL A   1      43.385  26.687  26.586  1.00  0.00     0.131 A 
ATOM     74  C   UNL A   1      42.589  24.055  26.327  1.00  0.00     0.055 A 
ATOM     75  C   UNL A   1      43.872  25.922  25.524  1.00  0.00     0.041 A 
ATOM     76  F   UNL A   1      43.816  27.954  26.688  1.00  0.00    -0.206 F 
ATOM     77  C   UNL A   1      43.484  24.593  25.398  1.00  0.00     0.022 A 
BRANCH  74  78
ATOM     78  S   UNL A   1      42.168  22.293  26.265  1.00  0.00     0.124 S 
ATOM     79  O   UNL A   1      40.711  22.336  26.227  1.00  0.00    -0.237 OA
ATOM     80  O   UNL A   1      42.830  21.867  25.036  1.00  0.00    -0.237 OA
ATOM     81  O   UNL A   1      42.747  21.762  27.498  1.00  0.00    -0.744 OA
ENDBRANCH  74  78
ENDBRANCH  47  71
BRANCH  59  82
ATOM     82  C   UNL A   1      44.939  27.295  33.948  1.00  0.00     0.023 A 
ATOM     83  C   UNL A   1      44.827  26.141  34.741  1.00  0.00     0.031 A 
ATOM     84  C   UNL A   1      46.197  27.919  33.863  1.00  0.00     0.131 A 
ATOM     85  C   UNL A   1      45.936  25.681  35.467  1.00  0.00     0.055 A 
ATOM     86  C   UNL A   1      47.314  27.419  34.532  1.00  0.00     0.041 A 
ATOM     87  F   UNL A   1      46.361  29.026  33.121  1.00  0.00    -0.206 F 
ATOM     88  C   UNL A   1      47.183  26.302  35.352  1.00  0.00     0.022 A 
BRANCH  85  89
ATOM     89  S   UNL A   1      45.704  24.322  36.644  1.00  0.00     0.124 S 
ATOM     90  O   UNL A   1      47.007  24.260  37.296  1.00  0.00    -0.237 OA
ATOM     91  O   UNL A   1      44.600  24.807  37.467  1.00  0.00    -0.237 OA
ATOM     92  O   UNL A   1      45.382  23.179  35.790  1.00  0.00    -0.744 OA
ENDBRANCH  85  89
ENDBRANCH  59  82
ENDBRANCH  33  34
ENDBRANCH  26  28
ENDBRANCH  25  26
ENDBRANCH  24  25
ENDBRANCH  23  24
ENDBRANCH   1  23
TORSDOF 20
ENDMDL
MODEL 2
REMARK VINA RESULT:     -11.0      1.662      2.242
REMARK SMILES C[C@@H](C(=O)OCCOCCOC(=O)c1ccc(-c2c3nc(c(-c4cc(S(=O)(=O)[O-])ccc4F)c4ccc([nH]4)c(-c4cc(S(=O)(=O)[O-])ccc4F)c4nc(c(-c5cc(S(=O)(=O)[O-])ccc5F)c5ccc2[nH]5)C=C4)C=C3)cc1)c1cccc(C(=O)c2ccccc2)c1
REMARK SMILES IDX 8 1 7 2 6 3 5 4 3 5 4 6 2 7 1 8 77 9 78 10 90 11 79 12 81 13
REMARK SMILES IDX 80 14 82 15 83 16 84 17 85 18 89 19 86 20 88 21 87 22 9 23
REMARK SMILES IDX 10 24 11 25 12 26 13 27 14 28 15 29 76 30 16 31 75 32 17 33
REMARK SMILES IDX 18 34 19 35 69 36 20 37 74 38 68 39 70 40 21 41 73 42 67 43
REMARK SMILES IDX 66 44 22 46 54 47 34 48 53 49 35 50 38 51 52 52 71 53 36 54
REMARK SMILES IDX 37 55 51 57 72 58 39 59 23 60 24 61 32 62 25 63 31 64 33 65
REMARK SMILES IDX 30 66 26 67 27 68 28 69 29 70 55 71 56 72 64 73 57 74 63 75
REMARK SMILES IDX 65 76 62 77 58 78 59 79 60 80 61 81 40 82 41 83 49 84 42 85
REMARK SMILES IDX 48 86 50 87 47 88 43 89 44 90 45 91 46 92
REMARK H PARENT 70 45 38 56
REMARK Flexibility Score: inf
ROOT
ATOM      1  O   UNL A   1      31.849  29.045  24.461  1.00  0.00    -0.374 OA
ENDROOT
BRANCH   1   2
ATOM      2  C   UNL A   1      31.058  28.162  23.660  1.00  0.00     0.202 C 
BRANCH   2   3
ATOM      3  C   UNL A   1      30.989  26.701  24.122  1.00  0.00     0.261 C 
BRANCH   3   4
ATOM      4  O   UNL A   1      31.643  25.834  23.169  1.00  0.00    -0.463 OA
BRANCH   4   5
ATOM      5  C   UNL A   1      32.992  25.697  23.294  1.00  0.00     0.313 C 
ATOM      6  O   UNL A   1      33.784  25.777  22.362  1.00  0.00    -0.252 OA
BRANCH   5   7
ATOM      7  C   UNL A   1      33.420  25.432  24.746  1.00  0.00     0.126 C 
ATOM      8  C   UNL A   1      34.164  26.579  25.439  1.00  0.00     0.025 C 
BRANCH   7   9
ATOM      9  C   UNL A   1      34.216  24.130  24.867  1.00  0.00    -0.033 A 
ATOM     10  C   UNL A   1      35.616  24.175  24.839  1.00  0.00     0.004 A 
ATOM     11  C   UNL A   1      33.588  22.879  25.054  1.00  0.00     0.016 A 
ATOM     12  C   UNL A   1      36.367  23.010  25.010  1.00  0.00     0.001 A 
ATOM     13  C   UNL A   1      34.333  21.706  25.240  1.00  0.00     0.023 A 
ATOM     14  C   UNL A   1      35.729  21.786  25.214  1.00  0.00     0.012 A 
BRANCH  13  15
ATOM     15  C   UNL A   1      33.714  20.378  25.542  1.00  0.00     0.193 C 
ATOM     16  O   UNL A   1      33.250  20.153  26.658  1.00  0.00    -0.289 OA
BRANCH  15  17
ATOM     17  C   UNL A   1      33.589  19.308  24.531  1.00  0.00     0.022 A 
ATOM     18  C   UNL A   1      32.509  19.351  23.642  1.00  0.00     0.012 A 
ATOM     19  C   UNL A   1      34.476  18.227  24.510  1.00  0.00     0.012 A 
ATOM     20  C   UNL A   1      32.340  18.334  22.701  1.00  0.00     0.001 A 
ATOM     21  C   UNL A   1      34.290  17.203  23.577  1.00  0.00     0.001 A 
ATOM     22  C   UNL A   1      33.233  17.264  22.666  1.00  0.00     0.000 A 
ENDBRANCH  15  17
ENDBRANCH  13  15
ENDBRANCH   7   9
ENDBRANCH   5   7
ENDBRANCH   4   5
ENDBRANCH   3   4
ENDBRANCH   2   3
ENDBRANCH   1   2
BRANCH   1  23
ATOM     23  C   UNL A   1      31.168  30.130  25.074  1.00  0.00     0.202 C 
BRANCH  23  24
ATOM     24  C   UNL A   1      31.686  30.631  26.425  1.00  0.00     0.261 C 
BRANCH  24  25
ATOM     25  O   UNL A   1      33.111  30.586  26.510  1.00  0.00    -0.460 OA
BRANCH  25  26
ATOM     26  C   UNL A   1      33.622  31.547  27.316  1.00  0.00     0.338 C 
ATOM     27  O   UNL A   1      33.040  32.527  27.760  1.00  0.00    -0.246 OA
BRANCH  26  28
ATOM     28  C   UNL A   1      34.963  31.147  27.752  1.00  0.00     0.060 A 
ATOM     29  C   UNL A   1      35.199  29.775  27.890  1.00  0.00     0.016 A 
ATOM     30  C   UNL A   1      35.952  32.086  28.053  1.00  0.00     0.016 A 
ATOM     31  C   UNL A   1      36.415  29.334  28.392  1.00  0.00     0.010 A 
ATOM     32  C   UNL A   1      37.172  31.640  28.563  1.00  0.00     0.010 A 
ATOM     33  C   UNL A   1      37.389  30.266  28.769  1.00  0.00    -0.014 A 
BRANCH  33  34
ATOM     34  C   UNL A   1      38.564  29.800  29.539  1.00  0.00     0.031 A 
ATOM     35  C   UNL A   1      38.777  30.346  30.923  1.00  0.00     0.074 A 
ATOM     36  C   UNL A   1      39.385  28.869  29.026  1.00  0.00     0.049 A 
ATOM     37  N   UNL A   1      39.735  30.097  31.775  1.00  0.00    -0.248 NA
ATOM     38  C   UNL A   1      37.770  31.305  31.408  1.00  0.00     0.031 C 
ATOM     39  C   UNL A   1      39.228  28.238  27.715  1.00  0.00     0.029 A 
ATOM     40  N   UNL A   1      40.511  28.289  29.548  1.00  0.00    -0.354 N 
ATOM     41  C   UNL A   1      39.453  30.873  32.895  1.00  0.00     0.074 A 
ATOM     42  C   UNL A   1      38.257  31.629  32.596  1.00  0.00     0.031 C 
ATOM     43  C   UNL A   1      40.226  27.356  27.536  1.00  0.00     0.029 A 
ATOM     44  C   UNL A   1      41.111  27.391  28.697  1.00  0.00     0.049 A 
ATOM     45  H   UNL A   1      40.857  28.494  30.446  1.00  0.00     0.167 HD
ATOM     46  C   UNL A   1      40.133  30.938  34.066  1.00  0.00     0.034 A 
ATOM     47  C   UNL A   1      42.259  26.698  28.837  1.00  0.00     0.034 A 
ATOM     48  C   UNL A   1      41.329  30.179  34.332  1.00  0.00     0.049 A 
ATOM     49  C   UNL A   1      43.046  26.857  30.116  1.00  0.00     0.074 A 
ATOM     50  C   UNL A   1      42.093  30.150  35.485  1.00  0.00     0.029 A 
ATOM     51  N   UNL A   1      41.945  29.323  33.427  1.00  0.00    -0.354 N 
ATOM     52  N   UNL A   1      42.769  27.588  31.173  1.00  0.00    -0.248 NA
ATOM     53  C   UNL A   1      44.295  26.093  30.222  1.00  0.00     0.031 C 
ATOM     54  C   UNL A   1      43.211  29.343  35.248  1.00  0.00     0.029 A 
ATOM     55  C   UNL A   1      43.101  28.794  33.979  1.00  0.00     0.049 A 
ATOM     56  H   UNL A   1      41.608  29.121  32.523  1.00  0.00     0.167 HD
ATOM     57  C   UNL A   1      43.794  27.342  32.084  1.00  0.00     0.074 A 
ATOM     58  C   UNL A   1      44.684  26.387  31.453  1.00  0.00     0.031 C 
ATOM     59  C   UNL A   1      43.981  27.852  33.329  1.00  0.00     0.034 A 
BRANCH  46  60
ATOM     60  C   UNL A   1      39.628  31.907  35.109  1.00  0.00     0.023 A 
ATOM     61  C   UNL A   1      40.134  33.215  35.221  1.00  0.00     0.031 A 
ATOM     62  C   UNL A   1      38.645  31.503  36.029  1.00  0.00     0.131 A 
ATOM     63  C   UNL A   1      39.709  34.043  36.271  1.00  0.00     0.055 A 
ATOM     64  C   UNL A   1      38.166  32.361  37.022  1.00  0.00     0.041 A 
ATOM     65  F   UNL A   1      38.142  30.259  35.990  1.00  0.00    -0.206 F 
ATOM     66  C   UNL A   1      38.709  33.635  37.156  1.00  0.00     0.022 A 
BRANCH  63  67
ATOM     67  S   UNL A   1      40.587  35.605  36.556  1.00  0.00     0.124 S 
ATOM     68  O   UNL A   1      40.571  35.690  38.015  1.00  0.00    -0.237 OA
ATOM     69  O   UNL A   1      41.887  35.352  35.946  1.00  0.00    -0.237 OA
ATOM     70  O   UNL A   1      39.757  36.595  35.872  1.00  0.00    -0.744 OA
ENDBRANCH  63  67
ENDBRANCH  46  60
BRANCH  47  71
ATOM     71  C   UNL A   1      42.754  25.825  27.736  1.00  0.00     0.023 A 
ATOM     72  C   UNL A   1      42.236  24.535  27.542  1.00  0.00     0.031 A 
ATOM     73  C   UNL A   1      43.795  26.250  26.889  1.00  0.00     0.131 A 
ATOM     74  C   UNL A   1      42.789  23.698  26.561  1.00  0.00     0.055 A 
ATOM     75  C   UNL A   1      44.302  25.435  25.875  1.00  0.00     0.041 A 
ATOM     76  F   UNL A   1      44.328  27.473  27.029  1.00  0.00    -0.206 F 
ATOM     77  C   UNL A   1      43.808  24.144  25.716  1.00  0.00     0.022 A 
BRANCH  74  78
ATOM     78  S   UNL A   1      42.217  21.980  26.463  1.00  0.00     0.124 S 
ATOM     79  O   UNL A   1      42.441  21.514  27.826  1.00  0.00    -0.237 OA
ATOM     80  O   UNL A   1      40.823  22.148  26.063  1.00  0.00    -0.237 OA
ATOM     81  O   UNL A   1      43.088  21.389  25.448  1.00  0.00    -0.744 OA
ENDBRANCH  74  78
ENDBRANCH  47  71
BRANCH  59  82
ATOM     82  C   UNL A   1      45.173  27.343  34.105  1.00  0.00     0.023 A 
ATOM     83  C   UNL A   1      45.091  26.212  34.934  1.00  0.00     0.031 A 
ATOM     84  C   UNL A   1      46.410  28.008  34.015  1.00  0.00     0.131 A 
ATOM     85  C   UNL A   1      46.206  25.815  35.689  1.00  0.00     0.055 A 
ATOM     86  C   UNL A   1      47.534  27.569  34.714  1.00  0.00     0.041 A 
ATOM     87  F   UNL A   1      46.546  29.095  33.239  1.00  0.00    -0.206 F 
ATOM     88  C   UNL A   1      47.431  26.475  35.569  1.00  0.00     0.022 A 
BRANCH  85  89
ATOM     89  S   UNL A   1      46.005  24.488  36.906  1.00  0.00     0.124 S 
ATOM     90  O   UNL A   1      47.349  23.924  36.965  1.00  0.00    -0.237 OA
ATOM     91  O   UNL A   1      45.565  25.216  38.093  1.00  0.00    -0.237 OA
ATOM     92  O   UNL A   1      44.994  23.619  36.304  1.00  0.00    -0.744 OA
ENDBRANCH  85  89
ENDBRANCH  59  82
ENDBRANCH  33  34
ENDBRANCH  26  28
ENDBRANCH  25  26
ENDBRANCH  24  25
ENDBRANCH  23  24
ENDBRANCH   1  23
TORSDOF 20
ENDMDL
MODEL 3
REMARK VINA RESULT:     -11.0      2.690      8.832
REMARK SMILES C[C@@H](C(=O)OCCOCCOC(=O)c1ccc(-c2c3nc(c(-c4cc(S(=O)(=O)[O-])ccc4F)c4ccc([nH]4)c(-c4cc(S(=O)(=O)[O-])ccc4F)c4nc(c(-c5cc(S(=O)(=O)[O-])ccc5F)c5ccc2[nH]5)C=C4)C=C3)cc1)c1cccc(C(=O)c2ccccc2)c1
REMARK SMILES IDX 8 1 7 2 6 3 5 4 3 5 4 6 2 7 1 8 77 9 78 10 90 11 79 12 81 13
REMARK SMILES IDX 80 14 82 15 83 16 84 17 85 18 89 19 86 20 88 21 87 22 9 23
REMARK SMILES IDX 10 24 11 25 12 26 13 27 14 28 15 29 76 30 16 31 75 32 17 33
REMARK SMILES IDX 18 34 19 35 69 36 20 37 74 38 68 39 70 40 21 41 73 42 67 43
REMARK SMILES IDX 66 44 22 46 54 47 34 48 53 49 35 50 38 51 52 52 71 53 36 54
REMARK SMILES IDX 37 55 51 57 72 58 39 59 23 60 24 61 32 62 25 63 31 64 33 65
REMARK SMILES IDX 30 66 26 67 27 68 28 69 29 70 55 71 56 72 64 73 57 74 63 75
REMARK SMILES IDX 65 76 62 77 58 78 59 79 60 80 61 81 40 82 41 83 49 84 42 85
REMARK SMILES IDX 48 86 50 87 47 88 43 89 44 90 45 91 46 92
REMARK H PARENT 70 45 38 56
REMARK Flexibility Score: inf
ROOT
ATOM      1  O   UNL A   1      42.411  19.946  27.165  1.00  0.00    -0.374 OA
ENDROOT
BRANCH   1   2
ATOM      2  C   UNL A   1      41.052  20.388  27.250  1.00  0.00     0.202 C 
BRANCH   2   3
ATOM      3  C   UNL A   1      40.232  20.322  25.955  1.00  0.00     0.261 C 
BRANCH   3   4
ATOM      4  O   UNL A   1      39.415  21.504  25.810  1.00  0.00    -0.463 OA
BRANCH   4   5
ATOM      5  C   UNL A   1      38.181  21.329  25.261  1.00  0.00     0.313 C 
ATOM      6  O   UNL A   1      37.776  20.269  24.796  1.00  0.00    -0.252 OA
BRANCH   5   7
ATOM      7  C   UNL A   1      37.339  22.614  25.293  1.00  0.00     0.126 C 
ATOM      8  C   UNL A   1      37.853  23.722  26.218  1.00  0.00     0.025 C 
BRANCH   7   9
ATOM      9  C   UNL A   1      35.867  22.313  25.587  1.00  0.00    -0.033 A 
ATOM     10  C   UNL A   1      35.139  23.181  26.411  1.00  0.00     0.004 A 
ATOM     11  C   UNL A   1      35.197  21.208  25.016  1.00  0.00     0.016 A 
ATOM     12  C   UNL A   1      33.781  22.964  26.645  1.00  0.00     0.001 A 
ATOM     13  C   UNL A   1      33.830  20.989  25.234  1.00  0.00     0.023 A 
ATOM     14  C   UNL A   1      33.130  21.879  26.056  1.00  0.00     0.012 A 
BRANCH  13  15
ATOM     15  C   UNL A   1      33.057  19.894  24.571  1.00  0.00     0.193 C 
ATOM     16  O   UNL A   1      32.186  20.165  23.746  1.00  0.00    -0.289 OA
BRANCH  15  17
ATOM     17  C   UNL A   1      33.319  18.463  24.829  1.00  0.00     0.022 A 
ATOM     18  C   UNL A   1      34.488  17.894  24.309  1.00  0.00     0.012 A 
ATOM     19  C   UNL A   1      32.387  17.668  25.503  1.00  0.00     0.012 A 
ATOM     20  C   UNL A   1      34.746  16.536  24.501  1.00  0.00     0.001 A 
ATOM     21  C   UNL A   1      32.644  16.305  25.676  1.00  0.00     0.001 A 
ATOM     22  C   UNL A   1      33.827  15.744  25.189  1.00  0.00     0.000 A 
ENDBRANCH  15  17
ENDBRANCH  13  15
ENDBRANCH   7   9
ENDBRANCH   5   7
ENDBRANCH   4   5
ENDBRANCH   3   4
ENDBRANCH   2   3
ENDBRANCH   1   2
BRANCH   1  23
ATOM     23  C   UNL A   1      42.956  19.813  25.860  1.00  0.00     0.202 C 
BRANCH  23  24
ATOM     24  C   UNL A   1      44.014  20.827  25.418  1.00  0.00     0.261 C 
BRANCH  24  25
ATOM     25  O   UNL A   1      43.893  22.072  26.107  1.00  0.00    -0.460 OA
BRANCH  25  26
ATOM     26  C   UNL A   1      43.423  23.068  25.320  1.00  0.00     0.338 C 
ATOM     27  O   UNL A   1      43.344  23.072  24.099  1.00  0.00    -0.246 OA
BRANCH  26  28
ATOM     28  C   UNL A   1      42.826  24.108  26.164  1.00  0.00     0.060 A 
ATOM     29  C   UNL A   1      43.507  25.327  26.242  1.00  0.00     0.016 A 
ATOM     30  C   UNL A   1      41.652  23.886  26.888  1.00  0.00     0.016 A 
ATOM     31  C   UNL A   1      43.048  26.318  27.098  1.00  0.00     0.010 A 
ATOM     32  C   UNL A   1      41.196  24.882  27.753  1.00  0.00     0.010 A 
ATOM     33  C   UNL A   1      41.916  26.082  27.888  1.00  0.00    -0.014 A 
BRANCH  33  34
ATOM     34  C   UNL A   1      41.594  27.032  28.975  1.00  0.00     0.031 A 
ATOM     35  C   UNL A   1      42.436  27.009  30.220  1.00  0.00     0.074 A 
ATOM     36  C   UNL A   1      40.605  27.929  28.823  1.00  0.00     0.049 A 
ATOM     37  N   UNL A   1      42.337  27.732  31.303  1.00  0.00    -0.248 NA
ATOM     38  C   UNL A   1      43.539  26.033  30.242  1.00  0.00     0.031 C 
ATOM     39  C   UNL A   1      39.769  28.066  27.630  1.00  0.00     0.029 A 
ATOM     40  N   UNL A   1      40.139  28.895  29.675  1.00  0.00    -0.354 N 
ATOM     41  C   UNL A   1      43.358  27.297  32.141  1.00  0.00     0.074 A 
ATOM     42  C   UNL A   1      44.039  26.220  31.455  1.00  0.00     0.031 C 
ATOM     43  C   UNL A   1      38.890  29.063  27.828  1.00  0.00     0.029 A 
ATOM     44  C   UNL A   1      39.073  29.603  29.173  1.00  0.00     0.049 A 
ATOM     45  H   UNL A   1      40.531  29.067  30.562  1.00  0.00     0.167 HD
ATOM     46  C   UNL A   1      43.696  27.762  33.368  1.00  0.00     0.034 A 
ATOM     47  C   UNL A   1      38.319  30.560  29.749  1.00  0.00     0.034 A 
ATOM     48  C   UNL A   1      42.993  28.832  34.032  1.00  0.00     0.049 A 
ATOM     49  C   UNL A   1      38.660  30.999  31.154  1.00  0.00     0.074 A 
ATOM     50  C   UNL A   1      43.253  29.399  35.267  1.00  0.00     0.029 A 
ATOM     51  N   UNL A   1      41.880  29.488  33.521  1.00  0.00    -0.354 N 
ATOM     52  N   UNL A   1      39.632  30.587  31.936  1.00  0.00    -0.248 NA
ATOM     53  C   UNL A   1      37.807  32.036  31.747  1.00  0.00     0.031 C 
ATOM     54  C   UNL A   1      42.251  30.337  35.536  1.00  0.00     0.029 A 
ATOM     55  C   UNL A   1      41.417  30.424  34.432  1.00  0.00     0.049 A 
ATOM     56  H   UNL A   1      41.478  29.314  32.639  1.00  0.00     0.167 HD
ATOM     57  C   UNL A   1      39.527  31.341  33.102  1.00  0.00     0.074 A 
ATOM     58  C   UNL A   1      38.405  32.240  32.911  1.00  0.00     0.031 C 
ATOM     59  C   UNL A   1      40.289  31.302  34.226  1.00  0.00     0.034 A 
BRANCH  46  60
ATOM     60  C   UNL A   1      44.832  27.071  34.085  1.00  0.00     0.023 A 
ATOM     61  C   UNL A   1      44.628  25.933  34.886  1.00  0.00     0.031 A 
ATOM     62  C   UNL A   1      46.139  27.581  33.991  1.00  0.00     0.131 A 
ATOM     63  C   UNL A   1      45.696  25.388  35.615  1.00  0.00     0.055 A 
ATOM     64  C   UNL A   1      47.214  26.985  34.654  1.00  0.00     0.041 A 
ATOM     65  F   UNL A   1      46.393  28.681  33.264  1.00  0.00    -0.206 F 
ATOM     66  C   UNL A   1      46.993  25.890  35.484  1.00  0.00     0.022 A 
BRANCH  63  67
ATOM     67  S   UNL A   1      45.342  24.110  36.852  1.00  0.00     0.124 S 
ATOM     68  O   UNL A   1      44.733  23.065  36.030  1.00  0.00    -0.237 OA
ATOM     69  O   UNL A   1      46.665  23.812  37.386  1.00  0.00    -0.237 OA
ATOM     70  O   UNL A   1      44.428  24.773  37.780  1.00  0.00    -0.744 OA
ENDBRANCH  63  67
ENDBRANCH  46  60
BRANCH  47  71
ATOM     71  C   UNL A   1      37.154  31.144  29.026  1.00  0.00     0.023 A 
ATOM     72  C   UNL A   1      36.085  30.340  28.603  1.00  0.00     0.031 A 
ATOM     73  C   UNL A   1      37.117  32.513  28.703  1.00  0.00     0.131 A 
ATOM     74  C   UNL A   1      35.048  30.899  27.839  1.00  0.00     0.055 A 
ATOM     75  C   UNL A   1      36.054  33.076  27.993  1.00  0.00     0.041 A 
ATOM     76  F   UNL A   1      38.113  33.328  29.082  1.00  0.00    -0.206 F 
ATOM     77  C   UNL A   1      35.018  32.264  27.544  1.00  0.00     0.022 A 
BRANCH  74  78
ATOM     78  S   UNL A   1      33.781  29.795  27.157  1.00  0.00     0.124 S 
ATOM     79  O   UNL A   1      34.015  28.571  27.913  1.00  0.00    -0.237 OA
ATOM     80  O   UNL A   1      32.552  30.518  27.470  1.00  0.00    -0.237 OA
ATOM     81  O   UNL A   1      34.118  29.729  25.736  1.00  0.00    -0.744 OA
ENDBRANCH  74  78
ENDBRANCH  47  71
BRANCH  59  82
ATOM     82  C   UNL A   1      39.957  32.298  35.313  1.00  0.00     0.023 A 
ATOM     83  C   UNL A   1      39.046  31.999  36.340  1.00  0.00     0.031 A 
ATOM     84  C   UNL A   1      40.561  33.568  35.314  1.00  0.00     0.131 A 
ATOM     85  C   UNL A   1      38.717  32.979  37.289  1.00  0.00     0.055 A 
ATOM     86  C   UNL A   1      40.283  34.515  36.300  1.00  0.00     0.041 A 
ATOM     87  F   UNL A   1      41.438  33.909  34.356  1.00  0.00    -0.206 F 
ATOM     88  C   UNL A   1      39.344  34.227  37.287  1.00  0.00     0.022 A 
BRANCH  85  89
ATOM     89  S   UNL A   1      37.383  32.635  38.468  1.00  0.00     0.124 S 
ATOM     90  O   UNL A   1      36.207  33.094  37.737  1.00  0.00    -0.237 OA
ATOM     91  O   UNL A   1      37.496  31.192  38.655  1.00  0.00    -0.237 OA
ATOM     92  O   UNL A   1      37.741  33.439  39.636  1.00  0.00    -0.744 OA
ENDBRANCH  85  89
ENDBRANCH  59  82
ENDBRANCH  33  34
ENDBRANCH  26  28
ENDBRANCH  25  26
ENDBRANCH  24  25
ENDBRANCH  23  24
ENDBRANCH   1  23
TORSDOF 20
ENDMDL
