MODEL 1
REMARK VINA RESULT:     -11.1      0.000      0.000
REMARK SMILES O=C(OCCOCCOC(=O)[C@H]1CC[C@@H](C[NH2+][C@H]2CCC[C@H](C3CC3)C2)CC1)c1ccc(-c2c3nc(c(-c4cc(S(=O)(=O)[O-])ccc4F)c4ccc([nH]4)c(-c4cc(S(=O)(=O)[O-])ccc4F)c4nc(c(-c5cc(S(=O)(=O)[O-])ccc5F)c5ccc2[nH]5)C=C4)C=C3)cc1
REMARK SMILES IDX 7 1 6 2 5 3 4 4 3 5 2 6 1 7 29 8 30 9 91 10 31 11 90 12
REMARK SMILES IDX 32 13 33 14 34 15 84 16 35 17 89 18 83 19 85 20 36 21 88 22
REMARK SMILES IDX 82 23 81 24 37 26 69 27 49 28 68 29 50 30 53 31 67 32 86 33
REMARK SMILES IDX 51 34 52 35 66 37 87 38 54 39 38 40 39 41 47 42 40 43 46 44
REMARK SMILES IDX 48 45 45 46 41 47 42 48 43 49 44 50 70 51 71 52 79 53 72 54
REMARK SMILES IDX 78 55 80 56 77 57 73 58 74 59 75 60 76 61 55 62 56 63 64 64
REMARK SMILES IDX 57 65 63 66 65 67 62 68 58 69 59 70 60 71 61 72 8 73 9 74
REMARK SMILES IDX 10 75 11 76 12 77 28 78 13 79 27 80 14 81 15 82 16 83 17 84
REMARK SMILES IDX 18 87 19 88 26 89 20 90 22 91 21 92 23 93 24 94 25 95
REMARK H PARENT 85 25 53 36 17 85 17 86
REMARK Flexibility Score: inf
ROOT
ATOM      1  C   UNL A   1      31.695  28.945  23.084  1.00  0.00     0.202 C 
ENDROOT
BRANCH   1   2
ATOM      2  O   UNL A   1      30.834  29.189  24.197  1.00  0.00    -0.374 OA
BRANCH   2   3
ATOM      3  C   UNL A   1      31.255  30.176  25.136  1.00  0.00     0.202 C 
BRANCH   3   4
ATOM      4  C   UNL A   1      32.667  30.047  25.710  1.00  0.00     0.261 C 
BRANCH   4   5
ATOM      5  O   UNL A   1      32.756  30.700  26.985  1.00  0.00    -0.460 OA
BRANCH   5   6
ATOM      6  C   UNL A   1      33.719  31.570  27.375  1.00  0.00     0.338 C 
ATOM      7  O   UNL A   1      33.549  32.773  27.196  1.00  0.00    -0.246 OA
BRANCH   6   8
ATOM      8  C   UNL A   1      34.977  31.114  28.029  1.00  0.00     0.060 A 
ATOM      9  C   UNL A   1      35.179  29.815  28.489  1.00  0.00     0.016 A 
ATOM     10  C   UNL A   1      36.037  32.022  28.126  1.00  0.00     0.016 A 
ATOM     11  C   UNL A   1      36.340  29.432  29.115  1.00  0.00     0.010 A 
ATOM     12  C   UNL A   1      37.252  31.627  28.694  1.00  0.00     0.010 A 
ATOM     13  C   UNL A   1      37.391  30.327  29.199  1.00  0.00    -0.014 A 
BRANCH  13  14
ATOM     14  C   UNL A   1      38.569  29.864  29.938  1.00  0.00     0.031 A 
ATOM     15  C   UNL A   1      39.522  28.961  29.230  1.00  0.00     0.074 A 
ATOM     16  C   UNL A   1      38.849  30.426  31.127  1.00  0.00     0.049 A 
ATOM     17  N   UNL A   1      40.601  28.385  29.675  1.00  0.00    -0.248 NA
ATOM     18  C   UNL A   1      39.219  28.678  27.817  1.00  0.00     0.031 C 
ATOM     19  C   UNL A   1      38.045  31.471  31.775  1.00  0.00     0.029 A 
ATOM     20  N   UNL A   1      39.903  30.248  31.975  1.00  0.00    -0.354 N 
ATOM     21  C   UNL A   1      41.084  27.632  28.613  1.00  0.00     0.074 A 
ATOM     22  C   UNL A   1      40.176  27.822  27.504  1.00  0.00     0.031 C 
ATOM     23  C   UNL A   1      38.659  31.862  32.901  1.00  0.00     0.029 A 
ATOM     24  C   UNL A   1      39.834  31.027  33.105  1.00  0.00     0.049 A 
ATOM     25  H   UNL A   1      40.643  29.622  31.794  1.00  0.00     0.167 HD
ATOM     26  C   UNL A   1      42.184  26.842  28.594  1.00  0.00     0.034 A 
ATOM     27  C   UNL A   1      40.614  31.016  34.201  1.00  0.00     0.034 A 
ATOM     28  C   UNL A   1      43.036  26.690  29.747  1.00  0.00     0.049 A 
ATOM     29  C   UNL A   1      41.748  30.025  34.214  1.00  0.00     0.074 A 
ATOM     30  C   UNL A   1      44.123  25.859  29.925  1.00  0.00     0.029 A 
ATOM     31  N   UNL A   1      42.878  27.401  30.937  1.00  0.00    -0.354 N 
ATOM     32  N   UNL A   1      42.136  29.205  33.260  1.00  0.00    -0.248 NA
ATOM     33  C   UNL A   1      42.534  29.939  35.446  1.00  0.00     0.031 C 
ATOM     34  C   UNL A   1      44.575  26.014  31.242  1.00  0.00     0.029 A 
ATOM     35  C   UNL A   1      43.828  27.007  31.863  1.00  0.00     0.049 A 
ATOM     36  H   UNL A   1      42.189  28.086  31.096  1.00  0.00     0.167 HD
ATOM     37  C   UNL A   1      43.232  28.519  33.770  1.00  0.00     0.074 A 
ATOM     38  C   UNL A   1      43.445  29.037  35.111  1.00  0.00     0.031 C 
ATOM     39  C   UNL A   1      43.993  27.552  33.194  1.00  0.00     0.034 A 
BRANCH  26  40
ATOM     40  C   UNL A   1      42.397  26.013  27.350  1.00  0.00     0.023 A 
ATOM     41  C   UNL A   1      41.925  24.692  27.240  1.00  0.00     0.031 A 
ATOM     42  C   UNL A   1      43.223  26.501  26.321  1.00  0.00     0.131 A 
ATOM     43  C   UNL A   1      42.378  23.872  26.193  1.00  0.00     0.055 A 
ATOM     44  C   UNL A   1      43.588  25.711  25.229  1.00  0.00     0.041 A 
ATOM     45  F   UNL A   1      43.736  27.739  26.384  1.00  0.00    -0.206 F 
ATOM     46  C   UNL A   1      43.185  24.380  25.173  1.00  0.00     0.022 A 
BRANCH  43  47
ATOM     47  S   UNL A   1      42.080  22.083  26.302  1.00  0.00     0.124 S 
ATOM     48  O   UNL A   1      40.651  22.004  26.011  1.00  0.00    -0.237 OA
ATOM     49  O   UNL A   1      42.971  21.552  25.275  1.00  0.00    -0.237 OA
ATOM     50  O   UNL A   1      42.448  21.757  27.678  1.00  0.00    -0.744 OA
ENDBRANCH  43  47
ENDBRANCH  26  40
BRANCH  27  51
ATOM     51  C   UNL A   1      40.300  31.884  35.372  1.00  0.00     0.023 A 
ATOM     52  C   UNL A   1      39.305  31.534  36.296  1.00  0.00     0.031 A 
ATOM     53  C   UNL A   1      40.980  33.101  35.573  1.00  0.00     0.131 A 
ATOM     54  C   UNL A   1      38.998  32.401  37.359  1.00  0.00     0.055 A 
ATOM     55  C   UNL A   1      40.711  33.934  36.662  1.00  0.00     0.041 A 
ATOM     56  F   UNL A   1      41.938  33.496  34.719  1.00  0.00    -0.206 F 
ATOM     57  C   UNL A   1      39.705  33.590  37.556  1.00  0.00     0.022 A 
BRANCH  54  58
ATOM     58  S   UNL A   1      37.602  31.992  38.443  1.00  0.00     0.124 S 
ATOM     59  O   UNL A   1      36.622  33.001  38.060  1.00  0.00    -0.237 OA
ATOM     60  O   UNL A   1      37.302  30.620  38.047  1.00  0.00    -0.237 OA
ATOM     61  O   UNL A   1      38.159  32.142  39.787  1.00  0.00    -0.744 OA
ENDBRANCH  54  58
ENDBRANCH  27  51
BRANCH  39  62
ATOM     62  C   UNL A   1      45.154  27.046  34.007  1.00  0.00     0.023 A 
ATOM     63  C   UNL A   1      45.034  25.935  34.856  1.00  0.00     0.031 A 
ATOM     64  C   UNL A   1      46.397  27.699  33.931  1.00  0.00     0.131 A 
ATOM     65  C   UNL A   1      46.125  25.543  35.643  1.00  0.00     0.055 A 
ATOM     66  C   UNL A   1      47.499  27.259  34.662  1.00  0.00     0.041 A 
ATOM     67  F   UNL A   1      46.561  28.769  33.137  1.00  0.00    -0.206 F 
ATOM     68  C   UNL A   1      47.362  26.185  35.535  1.00  0.00     0.022 A 
BRANCH  65  69
ATOM     69  S   UNL A   1      45.874  24.250  36.888  1.00  0.00     0.124 S 
ATOM     70  O   UNL A   1      45.179  23.222  36.119  1.00  0.00    -0.237 OA
ATOM     71  O   UNL A   1      47.241  23.932  37.288  1.00  0.00    -0.237 OA
ATOM     72  O   UNL A   1      45.067  24.912  37.910  1.00  0.00    -0.744 OA
ENDBRANCH  65  69
ENDBRANCH  39  62
ENDBRANCH  13  14
ENDBRANCH   6   8
ENDBRANCH   5   6
ENDBRANCH   4   5
ENDBRANCH   3   4
ENDBRANCH   2   3
ENDBRANCH   1   2
BRANCH   1  73
ATOM     73  C   UNL A   1      31.976  27.446  22.994  1.00  0.00     0.261 C 
BRANCH  73  74
ATOM     74  O   UNL A   1      32.811  27.086  24.108  1.00  0.00    -0.463 OA
BRANCH  74  75
ATOM     75  C   UNL A   1      32.351  26.071  24.890  1.00  0.00     0.309 C 
ATOM     76  O   UNL A   1      31.171  25.771  25.031  1.00  0.00    -0.252 OA
BRANCH  75  77
ATOM     77  C   UNL A   1      33.497  25.328  25.570  1.00  0.00     0.099 C 
ATOM     78  C   UNL A   1      32.941  24.119  26.339  1.00  0.00     0.016 C 
ATOM     79  C   UNL A   1      34.599  24.899  24.584  1.00  0.00     0.016 C 
ATOM     80  C   UNL A   1      34.027  23.254  26.963  1.00  0.00     0.010 C 
ATOM     81  C   UNL A   1      35.677  24.047  25.245  1.00  0.00     0.010 C 
ATOM     82  C   UNL A   1      35.107  22.814  25.960  1.00  0.00     0.044 C 
BRANCH  82  83
ATOM     83  C   UNL A   1      34.583  21.730  24.985  1.00  0.00     0.264 C 
BRANCH  83  84
ATOM     84  N   UNL A   1      34.428  20.446  25.663  1.00  0.00    -0.344 N 
ATOM     85  H   UNL A   1      34.799  20.552  26.608  1.00  0.00     0.346 HD
ATOM     86  H   UNL A   1      34.926  19.779  25.073  1.00  0.00     0.346 HD
BRANCH  84  87
ATOM     87  C   UNL A   1      33.065  19.901  25.781  1.00  0.00     0.182 C 
ATOM     88  C   UNL A   1      32.213  20.548  24.674  1.00  0.00     0.065 C 
ATOM     89  C   UNL A   1      32.893  18.375  25.705  1.00  0.00     0.069 C 
ATOM     90  C   UNL A   1      32.549  19.986  23.289  1.00  0.00     0.006 C 
ATOM     91  C   UNL A   1      33.222  17.774  24.327  1.00  0.00    -0.002 C 
ATOM     92  C   UNL A   1      32.388  18.464  23.241  1.00  0.00     0.004 C 
BRANCH  91  93
ATOM     93  C   UNL A   1      33.094  16.265  24.384  1.00  0.00    -0.008 C 
ATOM     94  C   UNL A   1      34.030  15.342  25.127  1.00  0.00     0.004 C 
ATOM     95  C   UNL A   1      32.665  15.628  25.682  1.00  0.00     0.004 C 
ENDBRANCH  91  93
ENDBRANCH  84  87
ENDBRANCH  83  84
ENDBRANCH  82  83
ENDBRANCH  75  77
ENDBRANCH  74  75
ENDBRANCH  73  74
ENDBRANCH   1  73
TORSDOF 21
ENDMDL
MODEL 2
REMARK VINA RESULT:     -10.9      2.076      8.000
REMARK SMILES O=C(OCCOCCOC(=O)[C@H]1CC[C@@H](C[NH2+][C@H]2CCC[C@H](C3CC3)C2)CC1)c1ccc(-c2c3nc(c(-c4cc(S(=O)(=O)[O-])ccc4F)c4ccc([nH]4)c(-c4cc(S(=O)(=O)[O-])ccc4F)c4nc(c(-c5cc(S(=O)(=O)[O-])ccc5F)c5ccc2[nH]5)C=C4)C=C3)cc1
REMARK SMILES IDX 7 1 6 2 5 3 4 4 3 5 2 6 1 7 29 8 30 9 91 10 31 11 90 12
REMARK SMILES IDX 32 13 33 14 34 15 84 16 35 17 89 18 83 19 85 20 36 21 88 22
REMARK SMILES IDX 82 23 81 24 37 26 69 27 49 28 68 29 50 30 53 31 67 32 86 33
REMARK SMILES IDX 51 34 52 35 66 37 87 38 54 39 38 40 39 41 47 42 40 43 46 44
REMARK SMILES IDX 48 45 45 46 41 47 42 48 43 49 44 50 70 51 71 52 79 53 72 54
REMARK SMILES IDX 78 55 80 56 77 57 73 58 74 59 75 60 76 61 55 62 56 63 64 64
REMARK SMILES IDX 57 65 63 66 65 67 62 68 58 69 59 70 60 71 61 72 8 73 9 74
REMARK SMILES IDX 10 75 11 76 12 77 28 78 13 79 27 80 14 81 15 82 16 83 17 84
REMARK SMILES IDX 18 87 19 88 26 89 20 90 22 91 21 92 23 93 24 94 25 95
REMARK H PARENT 85 25 53 36 17 85 17 86
REMARK Flexibility Score: inf
ROOT
ATOM      1  C   UNL A   1      33.238  29.362  25.091  1.00  0.00     0.202 C 
ENDROOT
BRANCH   1   2
ATOM      2  O   UNL A   1      32.089  30.185  25.290  1.00  0.00    -0.374 OA
BRANCH   2   3
ATOM      3  C   UNL A   1      31.769  30.534  26.635  1.00  0.00     0.202 C 
BRANCH   3   4
ATOM      4  C   UNL A   1      31.334  31.976  26.905  1.00  0.00     0.261 C 
BRANCH   4   5
ATOM      5  O   UNL A   1      32.429  32.880  26.705  1.00  0.00    -0.460 OA
BRANCH   5   6
ATOM      6  C   UNL A   1      33.147  33.498  27.675  1.00  0.00     0.338 C 
ATOM      7  O   UNL A   1      32.778  34.594  28.088  1.00  0.00    -0.246 OA
BRANCH   6   8
ATOM      8  C   UNL A   1      34.364  32.881  28.270  1.00  0.00     0.060 A 
ATOM      9  C   UNL A   1      34.407  31.578  28.761  1.00  0.00     0.016 A 
ATOM     10  C   UNL A   1      35.548  33.628  28.275  1.00  0.00     0.016 A 
ATOM     11  C   UNL A   1      35.537  31.046  29.332  1.00  0.00     0.010 A 
ATOM     12  C   UNL A   1      36.727  33.074  28.785  1.00  0.00     0.010 A 
ATOM     13  C   UNL A   1      36.709  31.782  29.324  1.00  0.00    -0.014 A 
BRANCH  13  14
ATOM     14  C   UNL A   1      37.853  31.171  30.008  1.00  0.00     0.031 A 
ATOM     15  C   UNL A   1      38.046  31.485  31.454  1.00  0.00     0.074 A 
ATOM     16  C   UNL A   1      38.544  30.206  29.376  1.00  0.00     0.049 A 
ATOM     17  N   UNL A   1      38.996  31.111  32.260  1.00  0.00    -0.248 NA
ATOM     18  C   UNL A   1      37.016  32.332  32.076  1.00  0.00     0.031 C 
ATOM     19  C   UNL A   1      38.262  29.718  28.020  1.00  0.00     0.029 A 
ATOM     20  N   UNL A   1      39.581  29.426  29.798  1.00  0.00    -0.354 N 
ATOM     21  C   UNL A   1      38.708  31.714  33.478  1.00  0.00     0.074 A 
ATOM     22  C   UNL A   1      37.496  32.481  33.299  1.00  0.00     0.031 C 
ATOM     23  C   UNL A   1      39.085  28.697  27.740  1.00  0.00     0.029 A 
ATOM     24  C   UNL A   1      40.015  28.533  28.847  1.00  0.00     0.049 A 
ATOM     25  H   UNL A   1      39.980  29.496  30.696  1.00  0.00     0.167 HD
ATOM     26  C   UNL A   1      39.418  31.633  34.628  1.00  0.00     0.034 A 
ATOM     27  C   UNL A   1      41.084  27.716  28.866  1.00  0.00     0.034 A 
ATOM     28  C   UNL A   1      40.629  30.857  34.726  1.00  0.00     0.049 A 
ATOM     29  C   UNL A   1      41.941  27.751  30.103  1.00  0.00     0.074 A 
ATOM     30  C   UNL A   1      41.514  30.750  35.779  1.00  0.00     0.029 A 
ATOM     31  N   UNL A   1      41.124  30.048  33.704  1.00  0.00    -0.354 N 
ATOM     32  N   UNL A   1      41.750  28.425  31.218  1.00  0.00    -0.248 NA
ATOM     33  C   UNL A   1      43.160  26.941  30.085  1.00  0.00     0.031 C 
ATOM     34  C   UNL A   1      42.579  29.939  35.369  1.00  0.00     0.029 A 
ATOM     35  C   UNL A   1      42.318  29.462  34.090  1.00  0.00     0.049 A 
ATOM     36  H   UNL A   1      40.689  29.911  32.832  1.00  0.00     0.167 HD
ATOM     37  C   UNL A   1      42.817  28.100  32.047  1.00  0.00     0.074 A 
ATOM     38  C   UNL A   1      43.636  27.158  31.302  1.00  0.00     0.031 C 
ATOM     39  C   UNL A   1      43.102  28.534  33.303  1.00  0.00     0.034 A 
BRANCH  26  40
ATOM     40  C   UNL A   1      38.959  32.513  35.766  1.00  0.00     0.023 A 
ATOM     41  C   UNL A   1      39.358  33.857  35.881  1.00  0.00     0.031 A 
ATOM     42  C   UNL A   1      38.239  31.949  36.835  1.00  0.00     0.131 A 
ATOM     43  C   UNL A   1      39.139  34.551  37.083  1.00  0.00     0.055 A 
ATOM     44  C   UNL A   1      37.936  32.678  37.988  1.00  0.00     0.041 A 
ATOM     45  F   UNL A   1      37.862  30.662  36.803  1.00  0.00    -0.206 F 
ATOM     46  C   UNL A   1      38.409  33.979  38.127  1.00  0.00     0.022 A 
BRANCH  43  47
ATOM     47  S   UNL A   1      40.011  36.123  37.348  1.00  0.00     0.124 S 
ATOM     48  O   UNL A   1      41.332  35.660  37.766  1.00  0.00    -0.237 OA
ATOM     49  O   UNL A   1      39.941  36.748  36.031  1.00  0.00    -0.237 OA
ATOM     50  O   UNL A   1      39.229  36.779  38.393  1.00  0.00    -0.744 OA
ENDBRANCH  43  47
ENDBRANCH  26  40
BRANCH  27  51
ATOM     51  C   UNL A   1      41.437  26.892  27.674  1.00  0.00     0.023 A 
ATOM     52  C   UNL A   1      41.222  25.506  27.653  1.00  0.00     0.031 A 
ATOM     53  C   UNL A   1      42.021  27.480  26.535  1.00  0.00     0.131 A 
ATOM     54  C   UNL A   1      41.614  24.752  26.534  1.00  0.00     0.055 A 
ATOM     55  C   UNL A   1      42.358  26.735  25.402  1.00  0.00     0.041 A 
ATOM     56  F   UNL A   1      42.258  28.801  26.496  1.00  0.00    -0.206 F 
ATOM     57  C   UNL A   1      42.166  25.359  25.403  1.00  0.00     0.022 A 
BRANCH  54  58
ATOM     58  S   UNL A   1      41.464  22.945  26.604  1.00  0.00     0.124 S 
ATOM     59  O   UNL A   1      42.075  22.646  27.895  1.00  0.00    -0.237 OA
ATOM     60  O   UNL A   1      40.020  22.756  26.517  1.00  0.00    -0.237 OA
ATOM     61  O   UNL A   1      42.222  22.495  25.437  1.00  0.00    -0.744 OA
ENDBRANCH  54  58
ENDBRANCH  27  51
BRANCH  39  62
ATOM     62  C   UNL A   1      44.323  27.939  33.952  1.00  0.00     0.023 A 
ATOM     63  C   UNL A   1      44.245  26.799  34.767  1.00  0.00     0.031 A 
ATOM     64  C   UNL A   1      45.581  28.533  33.751  1.00  0.00     0.131 A 
ATOM     65  C   UNL A   1      45.399  26.321  35.402  1.00  0.00     0.055 A 
ATOM     66  C   UNL A   1      46.737  28.010  34.327  1.00  0.00     0.041 A 
ATOM     67  F   UNL A   1      45.706  29.628  32.983  1.00  0.00    -0.206 F 
ATOM     68  C   UNL A   1      46.647  26.906  35.170  1.00  0.00     0.022 A 
BRANCH  65  69
ATOM     69  S   UNL A   1      45.229  24.989  36.619  1.00  0.00     0.124 S 
ATOM     70  O   UNL A   1      45.959  25.530  37.761  1.00  0.00    -0.237 OA
ATOM     71  O   UNL A   1      43.782  24.891  36.776  1.00  0.00    -0.237 OA
ATOM     72  O   UNL A   1      45.861  23.846  35.965  1.00  0.00    -0.744 OA
ENDBRANCH  65  69
ENDBRANCH  39  62
ENDBRANCH  13  14
ENDBRANCH   6   8
ENDBRANCH   5   6
ENDBRANCH   4   5
ENDBRANCH   3   4
ENDBRANCH   2   3
ENDBRANCH   1   2
BRANCH   1  73
ATOM     73  C   UNL A   1      33.190  28.775  23.680  1.00  0.00     0.261 C 
BRANCH  73  74
ATOM     74  O   UNL A   1      31.824  28.435  23.390  1.00  0.00    -0.463 OA
BRANCH  74  75
ATOM     75  C   UNL A   1      31.553  27.106  23.286  1.00  0.00     0.309 C 
ATOM     76  O   UNL A   1      31.430  26.492  22.231  1.00  0.00    -0.252 OA
BRANCH  75  77
ATOM     77  C   UNL A   1      31.434  26.451  24.660  1.00  0.00     0.099 C 
ATOM     78  C   UNL A   1      30.106  25.685  24.750  1.00  0.00     0.016 C 
ATOM     79  C   UNL A   1      32.627  25.536  24.991  1.00  0.00     0.016 C 
ATOM     80  C   UNL A   1      29.948  24.910  26.051  1.00  0.00     0.010 C 
ATOM     81  C   UNL A   1      32.443  24.787  26.306  1.00  0.00     0.010 C 
ATOM     82  C   UNL A   1      31.137  23.981  26.355  1.00  0.00     0.044 C 
BRANCH  82  83
ATOM     83  C   UNL A   1      31.151  22.738  25.431  1.00  0.00     0.264 C 
BRANCH  83  84
ATOM     84  N   UNL A   1      32.158  21.773  25.866  1.00  0.00    -0.344 N 
ATOM     85  H   UNL A   1      31.687  21.081  26.448  1.00  0.00     0.346 HD
ATOM     86  H   UNL A   1      32.866  22.333  26.343  1.00  0.00     0.346 HD
BRANCH  84  87
ATOM     87  C   UNL A   1      32.897  21.045  24.820  1.00  0.00     0.182 C 
ATOM     88  C   UNL A   1      32.140  21.250  23.495  1.00  0.00     0.065 C 
ATOM     89  C   UNL A   1      34.375  21.405  24.602  1.00  0.00     0.069 C 
ATOM     90  C   UNL A   1      32.326  22.666  22.941  1.00  0.00     0.006 C 
ATOM     91  C   UNL A   1      34.601  22.822  24.046  1.00  0.00    -0.002 C 
ATOM     92  C   UNL A   1      33.805  23.009  22.749  1.00  0.00     0.004 C 
BRANCH  91  93
ATOM     93  C   UNL A   1      36.087  23.099  23.942  1.00  0.00    -0.008 C 
ATOM     94  C   UNL A   1      37.006  23.354  25.113  1.00  0.00     0.004 C 
ATOM     95  C   UNL A   1      37.052  22.033  24.401  1.00  0.00     0.004 C 
ENDBRANCH  91  93
ENDBRANCH  84  87
ENDBRANCH  83  84
ENDBRANCH  82  83
ENDBRANCH  75  77
ENDBRANCH  74  75
ENDBRANCH  73  74
ENDBRANCH   1  73
TORSDOF 21
ENDMDL
MODEL 3
REMARK VINA RESULT:     -10.5      1.563      7.802
REMARK SMILES O=C(OCCOCCOC(=O)[C@H]1CC[C@@H](C[NH2+][C@H]2CCC[C@H](C3CC3)C2)CC1)c1ccc(-c2c3nc(c(-c4cc(S(=O)(=O)[O-])ccc4F)c4ccc([nH]4)c(-c4cc(S(=O)(=O)[O-])ccc4F)c4nc(c(-c5cc(S(=O)(=O)[O-])ccc5F)c5ccc2[nH]5)C=C4)C=C3)cc1
REMARK SMILES IDX 7 1 6 2 5 3 4 4 3 5 2 6 1 7 29 8 30 9 91 10 31 11 90 12
REMARK SMILES IDX 32 13 33 14 34 15 84 16 35 17 89 18 83 19 85 20 36 21 88 22
REMARK SMILES IDX 82 23 81 24 37 26 69 27 49 28 68 29 50 30 53 31 67 32 86 33
REMARK SMILES IDX 51 34 52 35 66 37 87 38 54 39 38 40 39 41 47 42 40 43 46 44
REMARK SMILES IDX 48 45 45 46 41 47 42 48 43 49 44 50 70 51 71 52 79 53 72 54
REMARK SMILES IDX 78 55 80 56 77 57 73 58 74 59 75 60 76 61 55 62 56 63 64 64
REMARK SMILES IDX 57 65 63 66 65 67 62 68 58 69 59 70 60 71 61 72 8 73 9 74
REMARK SMILES IDX 10 75 11 76 12 77 28 78 13 79 27 80 14 81 15 82 16 83 17 84
REMARK SMILES IDX 18 87 19 88 26 89 20 90 22 91 21 92 23 93 24 94 25 95
REMARK H PARENT 85 25 53 36 17 85 17 86
REMARK Flexibility Score: inf
ROOT
ATOM      1  C   UNL A   1      31.466  30.450  25.501  1.00  0.00     0.202 C 
ENDROOT
BRANCH   1   2
ATOM      2  O   UNL A   1      32.687  30.568  26.232  1.00  0.00    -0.374 OA
BRANCH   2   3
ATOM      3  C   UNL A   1      32.719  31.524  27.289  1.00  0.00     0.202 C 
BRANCH   3   4
ATOM      4  C   UNL A   1      32.263  32.948  26.966  1.00  0.00     0.261 C 
BRANCH   4   5
ATOM      5  O   UNL A   1      32.421  33.800  28.109  1.00  0.00    -0.460 OA
BRANCH   5   6
ATOM      6  C   UNL A   1      33.550  34.457  28.470  1.00  0.00     0.338 C 
ATOM      7  O   UNL A   1      33.635  35.665  28.262  1.00  0.00    -0.246 OA
BRANCH   6   8
ATOM      8  C   UNL A   1      34.692  33.762  29.127  1.00  0.00     0.060 A 
ATOM      9  C   UNL A   1      36.016  34.177  29.012  1.00  0.00     0.016 A 
ATOM     10  C   UNL A   1      34.410  32.672  29.959  1.00  0.00     0.016 A 
ATOM     11  C   UNL A   1      37.051  33.498  29.607  1.00  0.00     0.010 A 
ATOM     12  C   UNL A   1      35.445  32.015  30.631  1.00  0.00     0.010 A 
ATOM     13  C   UNL A   1      36.770  32.429  30.439  1.00  0.00    -0.014 A 
BRANCH  13  14
ATOM     14  C   UNL A   1      37.931  31.718  30.983  1.00  0.00     0.031 A 
ATOM     15  C   UNL A   1      38.278  31.948  32.415  1.00  0.00     0.074 A 
ATOM     16  C   UNL A   1      38.499  30.747  30.245  1.00  0.00     0.049 A 
ATOM     17  N   UNL A   1      39.273  31.480  33.110  1.00  0.00    -0.248 NA
ATOM     18  C   UNL A   1      37.366  32.823  33.170  1.00  0.00     0.031 C 
ATOM     19  C   UNL A   1      38.061  30.345  28.902  1.00  0.00     0.029 A 
ATOM     20  N   UNL A   1      39.519  29.888  30.530  1.00  0.00    -0.354 N 
ATOM     21  C   UNL A   1      39.138  32.037  34.374  1.00  0.00     0.074 A 
ATOM     22  C   UNL A   1      37.965  32.882  34.347  1.00  0.00     0.031 C 
ATOM     23  C   UNL A   1      38.788  29.293  28.500  1.00  0.00     0.029 A 
ATOM     24  C   UNL A   1      39.806  29.019  29.505  1.00  0.00     0.049 A 
ATOM     25  H   UNL A   1      40.003  29.890  31.389  1.00  0.00     0.167 HD
ATOM     26  C   UNL A   1      39.945  31.858  35.446  1.00  0.00     0.034 A 
ATOM     27  C   UNL A   1      40.818  28.141  29.384  1.00  0.00     0.034 A 
ATOM     28  C   UNL A   1      41.109  31.008  35.393  1.00  0.00     0.049 A 
ATOM     29  C   UNL A   1      41.786  28.064  30.534  1.00  0.00     0.074 A 
ATOM     30  C   UNL A   1      42.079  30.797  36.352  1.00  0.00     0.029 A 
ATOM     31  N   UNL A   1      41.455  30.223  34.294  1.00  0.00    -0.354 N 
ATOM     32  N   UNL A   1      41.743  28.692  31.691  1.00  0.00    -0.248 NA
ATOM     33  C   UNL A   1      42.945  27.186  30.363  1.00  0.00     0.031 C 
ATOM     34  C   UNL A   1      43.048  29.946  35.805  1.00  0.00     0.029 A 
ATOM     35  C   UNL A   1      42.640  29.550  34.538  1.00  0.00     0.049 A 
ATOM     36  H   UNL A   1      40.933  30.156  33.463  1.00  0.00     0.167 HD
ATOM     37  C   UNL A   1      42.860  28.264  32.398  1.00  0.00     0.074 A 
ATOM     38  C   UNL A   1      43.545  27.314  31.538  1.00  0.00     0.031 C 
ATOM     39  C   UNL A   1      43.287  28.618  33.639  1.00  0.00     0.034 A 
BRANCH  26  40
ATOM     40  C   UNL A   1      39.651  32.705  36.662  1.00  0.00     0.023 A 
ATOM     41  C   UNL A   1      38.885  32.226  37.740  1.00  0.00     0.031 A 
ATOM     42  C   UNL A   1      40.011  34.065  36.666  1.00  0.00     0.131 A 
ATOM     43  C   UNL A   1      38.407  33.122  38.711  1.00  0.00     0.055 A 
ATOM     44  C   UNL A   1      39.616  34.930  37.689  1.00  0.00     0.041 A 
ATOM     45  F   UNL A   1      40.709  34.592  35.648  1.00  0.00    -0.206 F 
ATOM     46  C   UNL A   1      38.788  34.466  38.707  1.00  0.00     0.022 A 
BRANCH  43  47
ATOM     47  S   UNL A   1      37.105  32.558  39.846  1.00  0.00     0.124 S 
ATOM     48  O   UNL A   1      37.675  31.310  40.350  1.00  0.00    -0.237 OA
ATOM     49  O   UNL A   1      37.024  33.655  40.804  1.00  0.00    -0.237 OA
ATOM     50  O   UNL A   1      35.940  32.396  38.979  1.00  0.00    -0.744 OA
ENDBRANCH  43  47
ENDBRANCH  26  40
BRANCH  27  51
ATOM     51  C   UNL A   1      41.005  27.358  28.129  1.00  0.00     0.023 A 
ATOM     52  C   UNL A   1      40.714  25.987  28.071  1.00  0.00     0.031 A 
ATOM     53  C   UNL A   1      41.505  27.970  26.963  1.00  0.00     0.131 A 
ATOM     54  C   UNL A   1      40.952  25.269  26.887  1.00  0.00     0.055 A 
ATOM     55  C   UNL A   1      41.688  27.264  25.771  1.00  0.00     0.041 A 
ATOM     56  F   UNL A   1      41.810  29.278  26.956  1.00  0.00    -0.206 F 
ATOM     57  C   UNL A   1      41.421  25.901  25.733  1.00  0.00     0.022 A 
BRANCH  54  58
ATOM     58  S   UNL A   1      40.710  23.471  26.895  1.00  0.00     0.124 S 
ATOM     59  O   UNL A   1      39.308  23.357  26.512  1.00  0.00    -0.237 OA
ATOM     60  O   UNL A   1      41.685  23.029  25.904  1.00  0.00    -0.237 OA
ATOM     61  O   UNL A   1      41.012  23.093  28.275  1.00  0.00    -0.744 OA
ENDBRANCH  54  58
ENDBRANCH  27  51
BRANCH  39  62
ATOM     62  C   UNL A   1      44.524  27.920  34.141  1.00  0.00     0.023 A 
ATOM     63  C   UNL A   1      44.454  26.703  34.837  1.00  0.00     0.031 A 
ATOM     64  C   UNL A   1      45.788  28.494  33.921  1.00  0.00     0.131 A 
ATOM     65  C   UNL A   1      45.626  26.126  35.342  1.00  0.00     0.055 A 
ATOM     66  C   UNL A   1      46.957  27.878  34.362  1.00  0.00     0.041 A 
ATOM     67  F   UNL A   1      45.905  29.659  33.264  1.00  0.00    -0.206 F 
ATOM     68  C   UNL A   1      46.879  26.694  35.090  1.00  0.00     0.022 A 
BRANCH  65  69
ATOM     69  S   UNL A   1      45.483  24.678  36.423  1.00  0.00     0.124 S 
ATOM     70  O   UNL A   1      45.617  25.278  37.748  1.00  0.00    -0.237 OA
ATOM     71  O   UNL A   1      44.160  24.166  36.086  1.00  0.00    -0.237 OA
ATOM     72  O   UNL A   1      46.601  23.832  36.010  1.00  0.00    -0.744 OA
ENDBRANCH  65  69
ENDBRANCH  39  62
ENDBRANCH  13  14
ENDBRANCH   6   8
ENDBRANCH   5   6
ENDBRANCH   4   5
ENDBRANCH   3   4
ENDBRANCH   2   3
ENDBRANCH   1   2
BRANCH   1  73
ATOM     73  C   UNL A   1      31.326  29.015  24.996  1.00  0.00     0.261 C 
BRANCH  73  74
ATOM     74  O   UNL A   1      31.801  28.135  26.028  1.00  0.00    -0.463 OA
BRANCH  74  75
ATOM     75  C   UNL A   1      32.382  26.981  25.602  1.00  0.00     0.309 C 
ATOM     76  O   UNL A   1      33.182  26.895  24.677  1.00  0.00    -0.252 OA
BRANCH  75  77
ATOM     77  C   UNL A   1      31.925  25.786  26.434  1.00  0.00     0.099 C 
ATOM     78  C   UNL A   1      30.512  25.367  26.000  1.00  0.00     0.016 C 
ATOM     79  C   UNL A   1      32.903  24.599  26.362  1.00  0.00     0.016 C 
ATOM     80  C   UNL A   1      30.016  24.112  26.704  1.00  0.00     0.010 C 
ATOM     81  C   UNL A   1      32.382  23.365  27.089  1.00  0.00     0.010 C 
ATOM     82  C   UNL A   1      30.993  22.928  26.601  1.00  0.00     0.044 C 
BRANCH  82  83
ATOM     83  C   UNL A   1      31.010  22.315  25.179  1.00  0.00     0.264 C 
BRANCH  83  84
ATOM     84  N   UNL A   1      31.798  21.084  25.149  1.00  0.00    -0.344 N 
ATOM     85  H   UNL A   1      31.151  20.305  25.266  1.00  0.00     0.346 HD
ATOM     86  H   UNL A   1      32.484  21.197  25.895  1.00  0.00     0.346 HD
BRANCH  84  87
ATOM     87  C   UNL A   1      32.597  20.820  23.940  1.00  0.00     0.182 C 
ATOM     88  C   UNL A   1      33.834  21.734  23.996  1.00  0.00     0.065 C 
ATOM     89  C   UNL A   1      33.064  19.377  23.689  1.00  0.00     0.069 C 
ATOM     90  C   UNL A   1      34.853  21.257  25.034  1.00  0.00     0.006 C 
ATOM     91  C   UNL A   1      34.090  18.862  24.714  1.00  0.00    -0.002 C 
ATOM     92  C   UNL A   1      35.291  19.813  24.775  1.00  0.00     0.004 C 
BRANCH  91  93
ATOM     93  C   UNL A   1      34.422  17.413  24.420  1.00  0.00    -0.008 C 
ATOM     94  C   UNL A   1      34.100  16.248  25.326  1.00  0.00     0.004 C 
ATOM     95  C   UNL A   1      33.294  16.471  24.079  1.00  0.00     0.004 C 
ENDBRANCH  91  93
ENDBRANCH  84  87
ENDBRANCH  83  84
ENDBRANCH  82  83
ENDBRANCH  75  77
ENDBRANCH  74  75
ENDBRANCH  73  74
ENDBRANCH   1  73
TORSDOF 21
ENDMDL
