MODEL 1
REMARK VINA RESULT:     -10.7      0.000      0.000
REMARK SMILES CCNC(=O)c1cccc(-c2ccc(Cl)c(C(=O)OCCOCCOC(=O)c3ccc(-c4c5nc(c(-c6cc(S(=O)(=O)[O-])ccc6F)c6ccc([nH]6)c(-c6cc(S(=O)(=O)[O-])ccc6F)c6nc(c(-c7cc(S(=O)(=O)[O-])ccc7F)c7ccc4[nH]7)C=C6)C=C5)cc3)c2)c1
REMARK SMILES IDX 22 1 21 2 20 3 19 4 17 5 18 6 16 7 11 8 12 9 91 10 13 11
REMARK SMILES IDX 14 12 15 13 10 14 6 15 7 16 92 17 8 18 9 19 4 20 3 21 5 23
REMARK SMILES IDX 2 24 1 25 23 26 24 27 25 28 26 29 27 30 28 31 29 32 90 33
REMARK SMILES IDX 30 34 89 35 31 36 32 37 33 38 83 39 34 40 88 41 82 42 84 43
REMARK SMILES IDX 35 44 87 45 81 46 80 47 36 49 68 50 48 51 67 52 49 53 52 54
REMARK SMILES IDX 66 55 85 56 50 57 51 58 65 60 86 61 53 62 37 63 38 64 46 65
REMARK SMILES IDX 39 66 45 67 47 68 44 69 40 70 41 71 42 72 43 73 69 74 70 75
REMARK SMILES IDX 78 76 71 77 77 78 79 79 76 80 72 81 73 82 74 83 75 84 54 85
REMARK SMILES IDX 55 86 63 87 56 88 62 89 64 90 61 91 57 92 58 93 59 94 60 95
REMARK H PARENT 3 22 84 48 52 59
REMARK Flexibility Score: inf
ROOT
ATOM      1  O   UNL A   1      38.176  21.496  25.209  1.00  0.00    -0.374 OA
ENDROOT
BRANCH   1   2
ATOM      2  C   UNL A   1      36.951  22.224  25.087  1.00  0.00     0.202 C 
BRANCH   2   3
ATOM      3  C   UNL A   1      35.769  21.661  25.882  1.00  0.00     0.261 C 
BRANCH   3   4
ATOM      4  O   UNL A   1      35.089  22.727  26.564  1.00  0.00    -0.460 OA
BRANCH   4   5
ATOM      5  C   UNL A   1      33.762  22.554  26.761  1.00  0.00     0.339 C 
ATOM      6  O   UNL A   1      33.209  22.196  27.786  1.00  0.00    -0.246 OA
BRANCH   5   7
ATOM      7  C   UNL A   1      33.056  22.964  25.526  1.00  0.00     0.079 A 
ATOM      8  C   UNL A   1      32.452  24.755  23.964  1.00  0.00    -0.017 A 
ATOM      9  C   UNL A   1      31.796  23.795  23.176  1.00  0.00     0.010 A 
ATOM     10  C   UNL A   1      33.062  24.319  25.154  1.00  0.00     0.026 A 
ATOM     11  C   UNL A   1      31.753  22.451  23.560  1.00  0.00     0.022 A 
ATOM     12  C   UNL A   1      32.385  22.031  24.732  1.00  0.00     0.055 A 
ATOM     13  Cl  UNL A   1      32.227  20.363  25.152  1.00  0.00    -0.083 Cl
BRANCH   8  14
ATOM     14  C   UNL A   1      32.583  26.152  23.505  1.00  0.00    -0.018 A 
ATOM     15  C   UNL A   1      31.921  28.493  23.735  1.00  0.00     0.040 A 
ATOM     16  C   UNL A   1      32.914  28.877  22.832  1.00  0.00     0.014 A 
ATOM     17  C   UNL A   1      31.726  27.138  24.018  1.00  0.00     0.022 A 
ATOM     18  C   UNL A   1      33.744  27.910  22.267  1.00  0.00     0.001 A 
ATOM     19  C   UNL A   1      33.589  26.563  22.613  1.00  0.00     0.009 A 
BRANCH  15  20
ATOM     20  C   UNL A   1      31.065  29.530  24.351  1.00  0.00     0.251 C 
ATOM     21  N   UNL A   1      29.966  30.020  23.691  1.00  0.00    -0.352 N 
ATOM     22  H   UNL A   1      29.568  30.826  24.091  1.00  0.00     0.163 HD
ATOM     23  O   UNL A   1      31.335  29.943  25.475  1.00  0.00    -0.269 OA
BRANCH  21  24
ATOM     24  C   UNL A   1      29.295  29.541  22.492  1.00  0.00     0.112 C 
ATOM     25  C   UNL A   1      27.891  29.062  22.808  1.00  0.00     0.027 C 
ENDBRANCH  21  24
ENDBRANCH  15  20
ENDBRANCH   8  14
ENDBRANCH   5   7
ENDBRANCH   4   5
ENDBRANCH   3   4
ENDBRANCH   2   3
ENDBRANCH   1   2
BRANCH   1  26
ATOM     26  C   UNL A   1      38.116  20.082  25.014  1.00  0.00     0.202 C 
BRANCH  26  27
ATOM     27  C   UNL A   1      39.324  19.267  25.488  1.00  0.00     0.261 C 
BRANCH  27  28
ATOM     28  O   UNL A   1      40.145  19.990  26.423  1.00  0.00    -0.460 OA
BRANCH  28  29
ATOM     29  C   UNL A   1      41.478  19.873  26.202  1.00  0.00     0.338 C 
ATOM     30  O   UNL A   1      42.065  18.893  25.776  1.00  0.00    -0.246 OA
BRANCH  29  31
ATOM     31  C   UNL A   1      42.140  21.180  26.384  1.00  0.00     0.060 A 
ATOM     32  C   UNL A   1      42.453  21.563  27.693  1.00  0.00     0.016 A 
ATOM     33  C   UNL A   1      42.391  22.042  25.313  1.00  0.00     0.016 A 
ATOM     34  C   UNL A   1      42.977  22.829  27.944  1.00  0.00     0.010 A 
ATOM     35  C   UNL A   1      42.912  23.317  25.569  1.00  0.00     0.010 A 
ATOM     36  C   UNL A   1      43.179  23.728  26.887  1.00  0.00    -0.014 A 
BRANCH  36  37
ATOM     37  C   UNL A   1      43.551  25.133  27.188  1.00  0.00     0.031 A 
ATOM     38  C   UNL A   1      44.954  25.598  26.910  1.00  0.00     0.074 A 
ATOM     39  C   UNL A   1      42.632  25.997  27.660  1.00  0.00     0.049 A 
ATOM     40  N   UNL A   1      45.493  26.775  27.097  1.00  0.00    -0.248 NA
ATOM     41  C   UNL A   1      45.873  24.597  26.346  1.00  0.00     0.031 C 
ATOM     42  C   UNL A   1      41.232  25.672  27.930  1.00  0.00     0.029 A 
ATOM     43  N   UNL A   1      42.741  27.323  27.996  1.00  0.00    -0.354 N 
ATOM     44  C   UNL A   1      46.813  26.660  26.673  1.00  0.00     0.074 A 
ATOM     45  C   UNL A   1      47.001  25.286  26.260  1.00  0.00     0.031 C 
ATOM     46  C   UNL A   1      40.612  26.770  28.394  1.00  0.00     0.029 A 
ATOM     47  C   UNL A   1      41.577  27.864  28.489  1.00  0.00     0.049 A 
ATOM     48  H   UNL A   1      43.574  27.838  27.894  1.00  0.00     0.167 HD
ATOM     49  C   UNL A   1      47.775  27.617  26.623  1.00  0.00     0.034 A 
ATOM     50  C   UNL A   1      41.325  29.095  28.981  1.00  0.00     0.034 A 
ATOM     51  C   UNL A   1      47.574  28.980  27.054  1.00  0.00     0.049 A 
ATOM     52  C   UNL A   1      42.436  30.116  28.999  1.00  0.00     0.074 A 
ATOM     53  C   UNL A   1      48.474  30.032  27.032  1.00  0.00     0.029 A 
ATOM     54  N   UNL A   1      46.398  29.478  27.601  1.00  0.00    -0.354 N 
ATOM     55  N   UNL A   1      43.675  30.001  28.580  1.00  0.00    -0.248 NA
ATOM     56  C   UNL A   1      42.109  31.439  29.549  1.00  0.00     0.031 C 
ATOM     57  C   UNL A   1      47.868  31.142  27.631  1.00  0.00     0.029 A 
ATOM     58  C   UNL A   1      46.563  30.810  27.954  1.00  0.00     0.049 A 
ATOM     59  H   UNL A   1      45.569  28.961  27.720  1.00  0.00     0.167 HD
ATOM     60  C   UNL A   1      44.266  31.244  28.792  1.00  0.00     0.074 A 
ATOM     61  C   UNL A   1      43.242  32.098  29.357  1.00  0.00     0.031 C 
ATOM     62  C   UNL A   1      45.538  31.647  28.536  1.00  0.00     0.034 A 
BRANCH  49  63
ATOM     63  C   UNL A   1      49.141  27.200  26.133  1.00  0.00     0.023 A 
ATOM     64  C   UNL A   1      50.179  26.869  27.022  1.00  0.00     0.031 A 
ATOM     65  C   UNL A   1      49.418  27.156  24.754  1.00  0.00     0.131 A 
ATOM     66  C   UNL A   1      51.460  26.578  26.527  1.00  0.00     0.055 A 
ATOM     67  C   UNL A   1      50.672  26.790  24.265  1.00  0.00     0.041 A 
ATOM     68  F   UNL A   1      48.473  27.482  23.858  1.00  0.00    -0.206 F 
ATOM     69  C   UNL A   1      51.708  26.512  25.153  1.00  0.00     0.022 A 
BRANCH  66  70
ATOM     70  S   UNL A   1      52.833  26.427  27.703  1.00  0.00     0.124 S 
ATOM     71  O   UNL A   1      53.548  27.682  27.486  1.00  0.00    -0.237 OA
ATOM     72  O   UNL A   1      52.141  26.297  28.980  1.00  0.00    -0.237 OA
ATOM     73  O   UNL A   1      53.539  25.229  27.253  1.00  0.00    -0.744 OA
ENDBRANCH  66  70
ENDBRANCH  49  63
BRANCH  50  74
ATOM     74  C   UNL A   1      39.981  29.425  29.537  1.00  0.00     0.023 A 
ATOM     75  C   UNL A   1      39.742  29.421  30.920  1.00  0.00     0.031 A 
ATOM     76  C   UNL A   1      38.898  29.698  28.682  1.00  0.00     0.131 A 
ATOM     77  C   UNL A   1      38.443  29.638  31.406  1.00  0.00     0.055 A 
ATOM     78  C   UNL A   1      37.619  29.965  29.172  1.00  0.00     0.041 A 
ATOM     79  F   UNL A   1      39.070  29.713  27.351  1.00  0.00    -0.206 F 
ATOM     80  C   UNL A   1      37.383  29.924  30.543  1.00  0.00     0.022 A 
BRANCH  77  81
ATOM     81  S   UNL A   1      38.139  29.457  33.186  1.00  0.00     0.124 S 
ATOM     82  O   UNL A   1      37.391  30.672  33.485  1.00  0.00    -0.237 OA
ATOM     83  O   UNL A   1      37.386  28.208  33.238  1.00  0.00    -0.237 OA
ATOM     84  O   UNL A   1      39.484  29.395  33.755  1.00  0.00    -0.744 OA
ENDBRANCH  77  81
ENDBRANCH  50  74
BRANCH  62  85
ATOM     85  C   UNL A   1      45.874  33.090  28.832  1.00  0.00     0.023 A 
ATOM     86  C   UNL A   1      45.480  34.134  27.977  1.00  0.00     0.031 A 
ATOM     87  C   UNL A   1      46.615  33.422  29.981  1.00  0.00     0.131 A 
ATOM     88  C   UNL A   1      45.881  35.452  28.250  1.00  0.00     0.055 A 
ATOM     89  C   UNL A   1      46.956  34.742  30.281  1.00  0.00     0.041 A 
ATOM     90  F   UNL A   1      47.020  32.467  30.833  1.00  0.00    -0.206 F 
ATOM     91  C   UNL A   1      46.601  35.764  29.406  1.00  0.00     0.022 A 
BRANCH  88  92
ATOM     92  S   UNL A   1      45.533  36.741  27.022  1.00  0.00     0.124 S 
ATOM     93  O   UNL A   1      45.841  37.958  27.766  1.00  0.00    -0.237 OA
ATOM     94  O   UNL A   1      46.455  36.402  25.943  1.00  0.00    -0.237 OA
ATOM     95  O   UNL A   1      44.117  36.546  26.711  1.00  0.00    -0.744 OA
ENDBRANCH  88  92
ENDBRANCH  62  85
ENDBRANCH  36  37
ENDBRANCH  29  31
ENDBRANCH  28  29
ENDBRANCH  27  28
ENDBRANCH  26  27
ENDBRANCH   1  26
TORSDOF 20
ENDMDL
MODEL 2
REMARK VINA RESULT:     -10.7      1.644      7.621
REMARK SMILES CCNC(=O)c1cccc(-c2ccc(Cl)c(C(=O)OCCOCCOC(=O)c3ccc(-c4c5nc(c(-c6cc(S(=O)(=O)[O-])ccc6F)c6ccc([nH]6)c(-c6cc(S(=O)(=O)[O-])ccc6F)c6nc(c(-c7cc(S(=O)(=O)[O-])ccc7F)c7ccc4[nH]7)C=C6)C=C5)cc3)c2)c1
REMARK SMILES IDX 22 1 21 2 20 3 19 4 17 5 18 6 16 7 11 8 12 9 91 10 13 11
REMARK SMILES IDX 14 12 15 13 10 14 6 15 7 16 92 17 8 18 9 19 4 20 3 21 5 23
REMARK SMILES IDX 2 24 1 25 23 26 24 27 25 28 26 29 27 30 28 31 29 32 90 33
REMARK SMILES IDX 30 34 89 35 31 36 32 37 33 38 83 39 34 40 88 41 82 42 84 43
REMARK SMILES IDX 35 44 87 45 81 46 80 47 36 49 68 50 48 51 67 52 49 53 52 54
REMARK SMILES IDX 66 55 85 56 50 57 51 58 65 60 86 61 53 62 37 63 38 64 46 65
REMARK SMILES IDX 39 66 45 67 47 68 44 69 40 70 41 71 42 72 43 73 69 74 70 75
REMARK SMILES IDX 78 76 71 77 77 78 79 79 76 80 72 81 73 82 74 83 75 84 54 85
REMARK SMILES IDX 55 86 63 87 56 88 62 89 64 90 61 91 57 92 58 93 59 94 60 95
REMARK H PARENT 3 22 84 48 52 59
REMARK Flexibility Score: inf
ROOT
ATOM      1  O   UNL A   1      38.192  21.434  25.193  1.00  0.00    -0.374 OA
ENDROOT
BRANCH   1   2
ATOM      2  C   UNL A   1      37.046  22.211  24.835  1.00  0.00     0.202 C 
BRANCH   2   3
ATOM      3  C   UNL A   1      35.699  21.655  25.307  1.00  0.00     0.261 C 
BRANCH   3   4
ATOM      4  O   UNL A   1      35.189  22.459  26.382  1.00  0.00    -0.460 OA
BRANCH   4   5
ATOM      5  C   UNL A   1      33.848  22.431  26.560  1.00  0.00     0.339 C 
ATOM      6  O   UNL A   1      33.246  22.138  27.578  1.00  0.00    -0.246 OA
BRANCH   5   7
ATOM      7  C   UNL A   1      33.207  22.910  25.315  1.00  0.00     0.079 A 
ATOM      8  C   UNL A   1      32.670  24.789  23.834  1.00  0.00    -0.017 A 
ATOM      9  C   UNL A   1      32.071  23.874  22.953  1.00  0.00     0.010 A 
ATOM     10  C   UNL A   1      33.217  24.286  25.028  1.00  0.00     0.026 A 
ATOM     11  C   UNL A   1      32.024  22.508  23.250  1.00  0.00     0.022 A 
ATOM     12  C   UNL A   1      32.594  22.022  24.428  1.00  0.00     0.055 A 
ATOM     13  Cl  UNL A   1      32.434  20.330  24.735  1.00  0.00    -0.083 Cl
BRANCH   8  14
ATOM     14  C   UNL A   1      32.809  26.212  23.470  1.00  0.00    -0.018 A 
ATOM     15  C   UNL A   1      32.365  28.555  24.006  1.00  0.00     0.040 A 
ATOM     16  C   UNL A   1      33.195  28.966  22.963  1.00  0.00     0.014 A 
ATOM     17  C   UNL A   1      32.133  27.192  24.215  1.00  0.00     0.022 A 
ATOM     18  C   UNL A   1      33.835  28.012  22.174  1.00  0.00     0.001 A 
ATOM     19  C   UNL A   1      33.656  26.649  22.436  1.00  0.00     0.009 A 
BRANCH  15  20
ATOM     20  C   UNL A   1      31.714  29.575  24.856  1.00  0.00     0.251 C 
ATOM     21  N   UNL A   1      32.334  30.051  25.986  1.00  0.00    -0.352 N 
ATOM     22  H   UNL A   1      31.758  30.582  26.581  1.00  0.00     0.163 HD
ATOM     23  O   UNL A   1      30.612  30.012  24.536  1.00  0.00    -0.269 OA
BRANCH  21  24
ATOM     24  C   UNL A   1      33.705  29.893  26.446  1.00  0.00     0.112 C 
ATOM     25  C   UNL A   1      33.839  28.690  27.359  1.00  0.00     0.027 C 
ENDBRANCH  21  24
ENDBRANCH  15  20
ENDBRANCH   8  14
ENDBRANCH   5   7
ENDBRANCH   4   5
ENDBRANCH   3   4
ENDBRANCH   2   3
ENDBRANCH   1   2
BRANCH   1  26
ATOM     26  C   UNL A   1      38.101  20.020  25.014  1.00  0.00     0.202 C 
BRANCH  26  27
ATOM     27  C   UNL A   1      39.221  19.172  25.627  1.00  0.00     0.261 C 
BRANCH  27  28
ATOM     28  O   UNL A   1      40.134  19.954  26.418  1.00  0.00    -0.460 OA
BRANCH  28  29
ATOM     29  C   UNL A   1      41.444  19.696  26.176  1.00  0.00     0.338 C 
ATOM     30  O   UNL A   1      41.919  18.654  25.759  1.00  0.00    -0.246 OA
BRANCH  29  31
ATOM     31  C   UNL A   1      42.240  20.931  26.321  1.00  0.00     0.060 A 
ATOM     32  C   UNL A   1      42.507  21.372  27.623  1.00  0.00     0.016 A 
ATOM     33  C   UNL A   1      42.660  21.679  25.219  1.00  0.00     0.016 A 
ATOM     34  C   UNL A   1      43.157  22.587  27.829  1.00  0.00     0.010 A 
ATOM     35  C   UNL A   1      43.308  22.903  25.429  1.00  0.00     0.010 A 
ATOM     36  C   UNL A   1      43.532  23.377  26.734  1.00  0.00    -0.014 A 
BRANCH  36  37
ATOM     37  C   UNL A   1      44.045  24.751  26.970  1.00  0.00     0.031 A 
ATOM     38  C   UNL A   1      43.101  25.812  27.466  1.00  0.00     0.074 A 
ATOM     39  C   UNL A   1      45.348  25.034  26.788  1.00  0.00     0.049 A 
ATOM     40  N   UNL A   1      43.333  27.070  27.737  1.00  0.00    -0.248 NA
ATOM     41  C   UNL A   1      41.708  25.395  27.685  1.00  0.00     0.031 C 
ATOM     42  C   UNL A   1      46.364  24.079  26.348  1.00  0.00     0.029 A 
ATOM     43  N   UNL A   1      46.038  26.209  26.949  1.00  0.00    -0.354 N 
ATOM     44  C   UNL A   1      42.117  27.598  28.160  1.00  0.00     0.074 A 
ATOM     45  C   UNL A   1      41.144  26.530  28.069  1.00  0.00     0.031 C 
ATOM     46  C   UNL A   1      47.549  24.707  26.272  1.00  0.00     0.029 A 
ATOM     47  C   UNL A   1      47.371  26.116  26.621  1.00  0.00     0.049 A 
ATOM     48  H   UNL A   1      45.620  27.040  27.270  1.00  0.00     0.167 HD
ATOM     49  C   UNL A   1      41.842  28.854  28.595  1.00  0.00     0.034 A 
ATOM     50  C   UNL A   1      48.330  27.063  26.584  1.00  0.00     0.034 A 
ATOM     51  C   UNL A   1      42.822  29.912  28.665  1.00  0.00     0.049 A 
ATOM     52  C   UNL A   1      47.980  28.475  26.986  1.00  0.00     0.074 A 
ATOM     53  C   UNL A   1      42.655  31.214  29.105  1.00  0.00     0.029 A 
ATOM     54  N   UNL A   1      44.149  29.795  28.271  1.00  0.00    -0.354 N 
ATOM     55  N   UNL A   1      46.830  28.958  27.401  1.00  0.00    -0.248 NA
ATOM     56  C   UNL A   1      49.060  29.468  26.925  1.00  0.00     0.031 C 
ATOM     57  C   UNL A   1      43.857  31.903  28.907  1.00  0.00     0.029 A 
ATOM     58  C   UNL A   1      44.800  31.012  28.421  1.00  0.00     0.049 A 
ATOM     59  H   UNL A   1      44.567  28.970  27.933  1.00  0.00     0.167 HD
ATOM     60  C   UNL A   1      47.060  30.304  27.674  1.00  0.00     0.074 A 
ATOM     61  C   UNL A   1      48.460  30.550  27.396  1.00  0.00     0.031 C 
ATOM     62  C   UNL A   1      46.194  31.251  28.121  1.00  0.00     0.034 A 
BRANCH  49  63
ATOM     63  C   UNL A   1      40.412  29.157  28.976  1.00  0.00     0.023 A 
ATOM     64  C   UNL A   1      39.999  29.218  30.319  1.00  0.00     0.031 A 
ATOM     65  C   UNL A   1      39.442  29.365  27.979  1.00  0.00     0.131 A 
ATOM     66  C   UNL A   1      38.643  29.409  30.627  1.00  0.00     0.055 A 
ATOM     67  C   UNL A   1      38.109  29.632  28.293  1.00  0.00     0.041 A 
ATOM     68  F   UNL A   1      39.772  29.297  26.680  1.00  0.00    -0.206 F 
ATOM     69  C   UNL A   1      37.699  29.642  29.623  1.00  0.00     0.022 A 
BRANCH  66  70
ATOM     70  S   UNL A   1      38.106  29.210  32.348  1.00  0.00     0.124 S 
ATOM     71  O   UNL A   1      38.716  30.374  32.985  1.00  0.00    -0.237 OA
ATOM     72  O   UNL A   1      36.653  29.232  32.229  1.00  0.00    -0.237 OA
ATOM     73  O   UNL A   1      38.679  27.923  32.738  1.00  0.00    -0.744 OA
ENDBRANCH  66  70
ENDBRANCH  49  63
BRANCH  50  74
ATOM     74  C   UNL A   1      49.705  26.728  26.113  1.00  0.00     0.023 A 
ATOM     75  C   UNL A   1      50.156  27.118  24.842  1.00  0.00     0.031 A 
ATOM     76  C   UNL A   1      50.571  25.959  26.912  1.00  0.00     0.131 A 
ATOM     77  C   UNL A   1      51.418  26.700  24.390  1.00  0.00     0.055 A 
ATOM     78  C   UNL A   1      51.845  25.592  26.479  1.00  0.00     0.041 A 
ATOM     79  F   UNL A   1      50.188  25.558  28.135  1.00  0.00    -0.206 F 
ATOM     80  C   UNL A   1      52.271  25.952  25.204  1.00  0.00     0.022 A 
BRANCH  77  81
ATOM     81  S   UNL A   1      51.898  27.079  22.682  1.00  0.00     0.124 S 
ATOM     82  O   UNL A   1      50.665  26.798  21.957  1.00  0.00    -0.237 OA
ATOM     83  O   UNL A   1      52.280  28.485  22.780  1.00  0.00    -0.237 OA
ATOM     84  O   UNL A   1      53.000  26.154  22.425  1.00  0.00    -0.744 OA
ENDBRANCH  77  81
ENDBRANCH  50  74
BRANCH  62  85
ATOM     85  C   UNL A   1      46.756  32.630  28.373  1.00  0.00     0.023 A 
ATOM     86  C   UNL A   1      46.814  33.604  27.361  1.00  0.00     0.031 A 
ATOM     87  C   UNL A   1      47.258  32.969  29.643  1.00  0.00     0.131 A 
ATOM     88  C   UNL A   1      47.417  34.846  27.617  1.00  0.00     0.055 A 
ATOM     89  C   UNL A   1      47.798  34.227  29.910  1.00  0.00     0.041 A 
ATOM     90  F   UNL A   1      47.231  32.079  30.649  1.00  0.00    -0.206 F 
ATOM     91  C   UNL A   1      47.893  35.170  28.890  1.00  0.00     0.022 A 
BRANCH  88  92
ATOM     92  S   UNL A   1      47.660  35.998  26.237  1.00  0.00     0.124 S 
ATOM     93  O   UNL A   1      48.516  35.225  25.343  1.00  0.00    -0.237 OA
ATOM     94  O   UNL A   1      46.295  36.226  25.775  1.00  0.00    -0.237 OA
ATOM     95  O   UNL A   1      48.302  37.153  26.864  1.00  0.00    -0.744 OA
ENDBRANCH  88  92
ENDBRANCH  62  85
ENDBRANCH  36  37
ENDBRANCH  29  31
ENDBRANCH  28  29
ENDBRANCH  27  28
ENDBRANCH  26  27
ENDBRANCH   1  26
TORSDOF 20
ENDMDL
MODEL 3
REMARK VINA RESULT:     -10.6      1.543      2.095
REMARK SMILES CCNC(=O)c1cccc(-c2ccc(Cl)c(C(=O)OCCOCCOC(=O)c3ccc(-c4c5nc(c(-c6cc(S(=O)(=O)[O-])ccc6F)c6ccc([nH]6)c(-c6cc(S(=O)(=O)[O-])ccc6F)c6nc(c(-c7cc(S(=O)(=O)[O-])ccc7F)c7ccc4[nH]7)C=C6)C=C5)cc3)c2)c1
REMARK SMILES IDX 22 1 21 2 20 3 19 4 17 5 18 6 16 7 11 8 12 9 91 10 13 11
REMARK SMILES IDX 14 12 15 13 10 14 6 15 7 16 92 17 8 18 9 19 4 20 3 21 5 23
REMARK SMILES IDX 2 24 1 25 23 26 24 27 25 28 26 29 27 30 28 31 29 32 90 33
REMARK SMILES IDX 30 34 89 35 31 36 32 37 33 38 83 39 34 40 88 41 82 42 84 43
REMARK SMILES IDX 35 44 87 45 81 46 80 47 36 49 68 50 48 51 67 52 49 53 52 54
REMARK SMILES IDX 66 55 85 56 50 57 51 58 65 60 86 61 53 62 37 63 38 64 46 65
REMARK SMILES IDX 39 66 45 67 47 68 44 69 40 70 41 71 42 72 43 73 69 74 70 75
REMARK SMILES IDX 78 76 71 77 77 78 79 79 76 80 72 81 73 82 74 83 75 84 54 85
REMARK SMILES IDX 55 86 63 87 56 88 62 89 64 90 61 91 57 92 58 93 59 94 60 95
REMARK H PARENT 3 22 84 48 52 59
REMARK Flexibility Score: inf
ROOT
ATOM      1  O   UNL A   1      38.913  22.375  25.938  1.00  0.00    -0.374 OA
ENDROOT
BRANCH   1   2
ATOM      2  C   UNL A   1      37.931  23.411  26.023  1.00  0.00     0.202 C 
BRANCH   2   3
ATOM      3  C   UNL A   1      36.555  23.063  25.448  1.00  0.00     0.261 C 
BRANCH   3   4
ATOM      4  O   UNL A   1      35.541  23.284  26.442  1.00  0.00    -0.460 OA
BRANCH   4   5
ATOM      5  C   UNL A   1      34.586  22.330  26.539  1.00  0.00     0.339 C 
ATOM      6  O   UNL A   1      34.503  21.453  27.380  1.00  0.00    -0.246 OA
BRANCH   5   7
ATOM      7  C   UNL A   1      33.580  22.576  25.482  1.00  0.00     0.079 A 
ATOM      8  C   UNL A   1      32.037  24.141  24.394  1.00  0.00    -0.017 A 
ATOM      9  C   UNL A   1      31.718  23.128  23.475  1.00  0.00     0.010 A 
ATOM     10  C   UNL A   1      32.960  23.836  25.410  1.00  0.00     0.026 A 
ATOM     11  C   UNL A   1      32.302  21.860  23.563  1.00  0.00     0.022 A 
ATOM     12  C   UNL A   1      33.236  21.582  24.563  1.00  0.00     0.055 A 
ATOM     13  Cl  UNL A   1      33.857  19.972  24.627  1.00  0.00    -0.083 Cl
BRANCH   8  14
ATOM     14  C   UNL A   1      31.497  25.506  24.237  1.00  0.00    -0.018 A 
ATOM     15  C   UNL A   1      31.920  27.892  23.927  1.00  0.00     0.040 A 
ATOM     16  C   UNL A   1      30.558  28.123  23.729  1.00  0.00     0.014 A 
ATOM     17  C   UNL A   1      32.370  26.605  24.235  1.00  0.00     0.022 A 
ATOM     18  C   UNL A   1      29.664  27.055  23.780  1.00  0.00     0.001 A 
ATOM     19  C   UNL A   1      30.132  25.757  24.016  1.00  0.00     0.009 A 
BRANCH  15  20
ATOM     20  C   UNL A   1      32.865  29.028  23.842  1.00  0.00     0.251 C 
ATOM     21  N   UNL A   1      33.097  29.834  24.930  1.00  0.00    -0.352 N 
ATOM     22  H   UNL A   1      33.591  30.662  24.733  1.00  0.00     0.163 HD
ATOM     23  O   UNL A   1      33.458  29.240  22.789  1.00  0.00    -0.269 OA
BRANCH  21  24
ATOM     24  C   UNL A   1      32.729  29.661  26.327  1.00  0.00     0.112 C 
ATOM     25  C   UNL A   1      33.756  28.820  27.060  1.00  0.00     0.027 C 
ENDBRANCH  21  24
ENDBRANCH  15  20
ENDBRANCH   8  14
ENDBRANCH   5   7
ENDBRANCH   4   5
ENDBRANCH   3   4
ENDBRANCH   2   3
ENDBRANCH   1   2
BRANCH   1  26
ATOM     26  C   UNL A   1      38.437  21.042  25.745  1.00  0.00     0.202 C 
BRANCH  26  27
ATOM     27  C   UNL A   1      39.493  19.962  25.485  1.00  0.00     0.261 C 
BRANCH  27  28
ATOM     28  O   UNL A   1      40.406  19.808  26.586  1.00  0.00    -0.460 OA
BRANCH  28  29
ATOM     29  C   UNL A   1      41.713  19.758  26.224  1.00  0.00     0.338 C 
ATOM     30  O   UNL A   1      42.288  18.826  25.688  1.00  0.00    -0.246 OA
BRANCH  29  31
ATOM     31  C   UNL A   1      42.343  21.080  26.409  1.00  0.00     0.060 A 
ATOM     32  C   UNL A   1      42.562  21.507  27.724  1.00  0.00     0.016 A 
ATOM     33  C   UNL A   1      42.652  21.914  25.332  1.00  0.00     0.016 A 
ATOM     34  C   UNL A   1      43.050  22.789  27.969  1.00  0.00     0.010 A 
ATOM     35  C   UNL A   1      43.136  23.204  25.582  1.00  0.00     0.010 A 
ATOM     36  C   UNL A   1      43.309  23.659  26.901  1.00  0.00    -0.014 A 
BRANCH  36  37
ATOM     37  C   UNL A   1      43.640  25.079  27.183  1.00  0.00     0.031 A 
ATOM     38  C   UNL A   1      45.043  25.567  26.947  1.00  0.00     0.074 A 
ATOM     39  C   UNL A   1      42.686  25.933  27.600  1.00  0.00     0.049 A 
ATOM     40  N   UNL A   1      45.549  26.760  27.126  1.00  0.00    -0.248 NA
ATOM     41  C   UNL A   1      46.003  24.574  26.441  1.00  0.00     0.031 C 
ATOM     42  C   UNL A   1      41.284  25.583  27.825  1.00  0.00     0.029 A 
ATOM     43  N   UNL A   1      42.754  27.268  27.908  1.00  0.00    -0.354 N 
ATOM     44  C   UNL A   1      46.887  26.664  26.754  1.00  0.00     0.074 A 
ATOM     45  C   UNL A   1      47.119  25.285  26.381  1.00  0.00     0.031 C 
ATOM     46  C   UNL A   1      40.624  26.678  28.239  1.00  0.00     0.029 A 
ATOM     47  C   UNL A   1      41.561  27.795  28.344  1.00  0.00     0.049 A 
ATOM     48  H   UNL A   1      43.579  27.798  27.825  1.00  0.00     0.167 HD
ATOM     49  C   UNL A   1      47.829  27.640  26.718  1.00  0.00     0.034 A 
ATOM     50  C   UNL A   1      41.265  29.030  28.798  1.00  0.00     0.034 A 
ATOM     51  C   UNL A   1      47.584  29.008  27.109  1.00  0.00     0.049 A 
ATOM     52  C   UNL A   1      42.353  30.076  28.834  1.00  0.00     0.074 A 
ATOM     53  C   UNL A   1      48.462  30.078  27.096  1.00  0.00     0.029 A 
ATOM     54  N   UNL A   1      46.378  29.492  27.599  1.00  0.00    -0.354 N 
ATOM     55  N   UNL A   1      43.610  29.978  28.464  1.00  0.00    -0.248 NA
ATOM     56  C   UNL A   1      41.978  31.403  29.340  1.00  0.00     0.031 C 
ATOM     57  C   UNL A   1      47.811  31.188  27.646  1.00  0.00     0.029 A 
ATOM     58  C   UNL A   1      46.502  30.835  27.928  1.00  0.00     0.049 A 
ATOM     59  H   UNL A   1      45.556  28.960  27.700  1.00  0.00     0.167 HD
ATOM     60  C   UNL A   1      44.166  31.238  28.668  1.00  0.00     0.074 A 
ATOM     61  C   UNL A   1      43.104  32.082  29.175  1.00  0.00     0.031 C 
ATOM     62  C   UNL A   1      45.439  31.663  28.451  1.00  0.00     0.034 A 
BRANCH  49  63
ATOM     63  C   UNL A   1      49.222  27.241  26.289  1.00  0.00     0.023 A 
ATOM     64  C   UNL A   1      50.238  26.975  27.224  1.00  0.00     0.031 A 
ATOM     65  C   UNL A   1      49.545  27.151  24.923  1.00  0.00     0.131 A 
ATOM     66  C   UNL A   1      51.542  26.701  26.782  1.00  0.00     0.055 A 
ATOM     67  C   UNL A   1      50.824  26.801  24.490  1.00  0.00     0.041 A 
ATOM     68  F   UNL A   1      48.623  27.416  23.984  1.00  0.00    -0.206 F 
ATOM     69  C   UNL A   1      51.836  26.587  25.421  1.00  0.00     0.022 A 
BRANCH  66  70
ATOM     70  S   UNL A   1      52.878  26.634  28.007  1.00  0.00     0.124 S 
ATOM     71  O   UNL A   1      52.141  26.336  29.233  1.00  0.00    -0.237 OA
ATOM     72  O   UNL A   1      53.724  25.563  27.492  1.00  0.00    -0.237 OA
ATOM     73  O   UNL A   1      53.463  27.972  27.950  1.00  0.00    -0.744 OA
ENDBRANCH  66  70
ENDBRANCH  49  63
BRANCH  50  74
ATOM     74  C   UNL A   1      39.895  29.344  29.295  1.00  0.00     0.023 A 
ATOM     75  C   UNL A   1      39.608  29.381  30.669  1.00  0.00     0.031 A 
ATOM     76  C   UNL A   1      38.836  29.558  28.395  1.00  0.00     0.131 A 
ATOM     77  C   UNL A   1      38.287  29.580  31.101  1.00  0.00     0.055 A 
ATOM     78  C   UNL A   1      37.534  29.809  28.830  1.00  0.00     0.041 A 
ATOM     79  F   UNL A   1      39.055  29.533  27.070  1.00  0.00    -0.206 F 
ATOM     80  C   UNL A   1      37.251  29.808  30.193  1.00  0.00     0.022 A 
BRANCH  77  81
ATOM     81  S   UNL A   1      37.925  29.452  32.875  1.00  0.00     0.124 S 
ATOM     82  O   UNL A   1      37.662  28.025  33.023  1.00  0.00    -0.237 OA
ATOM     83  O   UNL A   1      39.163  29.943  33.472  1.00  0.00    -0.237 OA
ATOM     84  O   UNL A   1      36.764  30.323  33.049  1.00  0.00    -0.744 OA
ENDBRANCH  77  81
ENDBRANCH  50  74
BRANCH  62  85
ATOM     85  C   UNL A   1      45.732  33.119  28.725  1.00  0.00     0.023 A 
ATOM     86  C   UNL A   1      46.188  33.560  29.980  1.00  0.00     0.031 A 
ATOM     87  C   UNL A   1      45.533  34.083  27.720  1.00  0.00     0.131 A 
ATOM     88  C   UNL A   1      46.373  34.932  30.215  1.00  0.00     0.055 A 
ATOM     89  C   UNL A   1      45.779  35.439  27.940  1.00  0.00     0.041 A 
ATOM     90  F   UNL A   1      45.096  33.721  26.503  1.00  0.00    -0.206 F 
ATOM     91  C   UNL A   1      46.188  35.872  29.198  1.00  0.00     0.022 A 
BRANCH  88  92
ATOM     92  S   UNL A   1      46.763  35.483  31.899  1.00  0.00     0.124 S 
ATOM     93  O   UNL A   1      45.687  36.432  32.164  1.00  0.00    -0.237 OA
ATOM     94  O   UNL A   1      46.715  34.236  32.655  1.00  0.00    -0.237 OA
ATOM     95  O   UNL A   1      48.093  36.076  31.766  1.00  0.00    -0.744 OA
ENDBRANCH  88  92
ENDBRANCH  62  85
ENDBRANCH  36  37
ENDBRANCH  29  31
ENDBRANCH  28  29
ENDBRANCH  27  28
ENDBRANCH  26  27
ENDBRANCH   1  26
TORSDOF 20
ENDMDL
