MODEL 1
REMARK VINA RESULT:     -10.5      0.000      0.000
REMARK SMILES O=C(C[N@@H+](Cc1cccc(Br)c1)C1CC1)OCCOCCOC(=O)c1ccc(-c2c3nc(c(-c4cc(S(=O)(=O)[O-])ccc4F)c4ccc([nH]4)c(-c4cc(S(=O)(=O)[O-])ccc4F)c4nc(c(-c5cc(S(=O)(=O)[O-])ccc5F)c5ccc2[nH]5)C=C4)C=C3)cc1
REMARK SMILES IDX 19 1 18 2 17 3 16 4 2 5 1 6 3 7 4 8 5 10 6 11 7 12 12 13
REMARK SMILES IDX 8 14 10 15 9 16 11 17 13 18 14 19 15 20 20 21 21 22 22 23
REMARK SMILES IDX 23 24 24 25 25 26 26 27 87 28 27 29 86 30 28 31 29 32 30 33
REMARK SMILES IDX 80 34 31 35 85 36 79 37 81 38 32 39 84 40 78 41 77 42 33 44
REMARK SMILES IDX 65 45 45 46 64 47 46 48 49 49 63 50 82 51 47 52 48 53 62 55
REMARK SMILES IDX 83 56 50 57 34 58 35 59 43 60 36 61 42 62 44 63 41 64 37 65
REMARK SMILES IDX 38 66 39 67 40 68 66 69 67 70 75 71 68 72 74 73 76 74 73 75
REMARK SMILES IDX 69 76 70 77 71 78 72 79 51 80 52 81 60 82 53 83 59 84 61 85
REMARK SMILES IDX 58 86 54 87 55 88 56 89 57 90
REMARK H PARENT 4 9 81 43 49 54
REMARK Flexibility Score: inf
ROOT
ATOM      1  O   UNL A   1      35.643  21.440  26.494  1.00  0.00    -0.374 OA
ENDROOT
BRANCH   1   2
ATOM      2  C   UNL A   1      35.010  22.721  26.536  1.00  0.00     0.202 C 
BRANCH   2   3
ATOM      3  C   UNL A   1      33.746  22.815  27.383  1.00  0.00     0.261 C 
BRANCH   3   4
ATOM      4  O   UNL A   1      32.572  22.412  26.652  1.00  0.00    -0.459 OA
BRANCH   4   5
ATOM      5  C   UNL A   1      31.524  23.227  26.391  1.00  0.00     0.361 C 
ATOM      6  O   UNL A   1      30.955  23.812  27.315  1.00  0.00    -0.245 OA
BRANCH   5   7
ATOM      7  C   UNL A   1      31.019  23.349  24.964  1.00  0.00     0.387 C 
BRANCH   7   8
ATOM      8  N   UNL A   1      32.003  23.986  24.075  1.00  0.00    -0.319 N 
ATOM      9  H   UNL A   1      31.517  24.396  23.277  1.00  0.00     0.349 HD
BRANCH   8  10
ATOM     10  C   UNL A   1      32.628  25.160  24.702  1.00  0.00     0.299 C 
BRANCH  10  11
ATOM     11  C   UNL A   1      32.007  26.487  24.332  1.00  0.00     0.007 A 
ATOM     12  C   UNL A   1      31.145  26.588  23.229  1.00  0.00     0.009 A 
ATOM     13  C   UNL A   1      32.233  27.618  25.127  1.00  0.00     0.025 A 
ATOM     14  C   UNL A   1      30.491  27.791  22.953  1.00  0.00     0.002 A 
ATOM     15  C   UNL A   1      31.557  28.805  24.863  1.00  0.00     0.018 A 
ATOM     16  C   UNL A   1      30.686  28.897  23.780  1.00  0.00     0.016 A 
ATOM     17  Br  UNL A   1      31.798  30.284  26.014  1.00  0.00    -0.051 Br
ENDBRANCH  10  11
ENDBRANCH   8  10
BRANCH   8  18
ATOM     18  C   UNL A   1      32.882  23.011  23.425  1.00  0.00     0.185 C 
ATOM     19  C   UNL A   1      33.110  23.191  21.945  1.00  0.00     0.071 C 
ATOM     20  C   UNL A   1      34.243  23.368  22.908  1.00  0.00     0.071 C 
ENDBRANCH   8  18
ENDBRANCH   7   8
ENDBRANCH   5   7
ENDBRANCH   4   5
ENDBRANCH   3   4
ENDBRANCH   2   3
ENDBRANCH   1   2
BRANCH   1  21
ATOM     21  C   UNL A   1      35.882  20.899  25.188  1.00  0.00     0.202 C 
BRANCH  21  22
ATOM     22  C   UNL A   1      37.282  20.338  24.928  1.00  0.00     0.261 C 
BRANCH  22  23
ATOM     23  O   UNL A   1      38.282  21.356  25.053  1.00  0.00    -0.460 OA
BRANCH  23  24
ATOM     24  C   UNL A   1      39.255  21.066  25.947  1.00  0.00     0.338 C 
ATOM     25  O   UNL A   1      39.837  19.998  26.073  1.00  0.00    -0.246 OA
BRANCH  24  26
ATOM     26  C   UNL A   1      39.693  22.305  26.614  1.00  0.00     0.060 A 
ATOM     27  C   UNL A   1      39.049  23.493  26.242  1.00  0.00     0.016 A 
ATOM     28  C   UNL A   1      40.724  22.318  27.559  1.00  0.00     0.016 A 
ATOM     29  C   UNL A   1      39.508  24.710  26.722  1.00  0.00     0.010 A 
ATOM     30  C   UNL A   1      41.186  23.543  28.042  1.00  0.00     0.010 A 
ATOM     31  C   UNL A   1      40.626  24.740  27.565  1.00  0.00    -0.014 A 
BRANCH  31  32
ATOM     32  C   UNL A   1      41.356  26.017  27.716  1.00  0.00     0.031 A 
ATOM     33  C   UNL A   1      40.709  27.104  28.534  1.00  0.00     0.074 A 
ATOM     34  C   UNL A   1      42.589  26.170  27.208  1.00  0.00     0.049 A 
ATOM     35  N   UNL A   1      41.147  28.299  28.828  1.00  0.00    -0.248 NA
ATOM     36  C   UNL A   1      39.381  26.798  29.093  1.00  0.00     0.031 C 
ATOM     37  C   UNL A   1      43.321  25.153  26.453  1.00  0.00     0.029 A 
ATOM     38  N   UNL A   1      43.447  27.234  27.263  1.00  0.00    -0.354 N 
ATOM     39  C   UNL A   1      40.145  28.891  29.590  1.00  0.00     0.074 A 
ATOM     40  C   UNL A   1      39.059  27.941  29.675  1.00  0.00     0.031 C 
ATOM     41  C   UNL A   1      44.526  25.645  26.121  1.00  0.00     0.029 A 
ATOM     42  C   UNL A   1      44.634  27.019  26.605  1.00  0.00     0.049 A 
ATOM     43  H   UNL A   1      43.234  28.075  27.729  1.00  0.00     0.167 HD
ATOM     44  C   UNL A   1      40.138  30.114  30.173  1.00  0.00     0.034 A 
ATOM     45  C   UNL A   1      45.676  27.849  26.408  1.00  0.00     0.034 A 
ATOM     46  C   UNL A   1      41.238  31.042  30.069  1.00  0.00     0.049 A 
ATOM     47  C   UNL A   1      45.615  29.236  27.004  1.00  0.00     0.074 A 
ATOM     48  C   UNL A   1      41.359  32.302  30.627  1.00  0.00     0.029 A 
ATOM     49  N   UNL A   1      42.403  30.813  29.346  1.00  0.00    -0.354 N 
ATOM     50  N   UNL A   1      44.668  29.786  27.730  1.00  0.00    -0.248 NA
ATOM     51  C   UNL A   1      46.773  30.105  26.767  1.00  0.00     0.031 C 
ATOM     52  C   UNL A   1      42.555  32.867  30.172  1.00  0.00     0.029 A 
ATOM     53  C   UNL A   1      43.231  31.923  29.413  1.00  0.00     0.049 A 
ATOM     54  H   UNL A   1      42.611  29.983  28.859  1.00  0.00     0.167 HD
ATOM     55  C   UNL A   1      45.137  31.052  28.071  1.00  0.00     0.074 A 
ATOM     56  C   UNL A   1      46.455  31.172  27.482  1.00  0.00     0.031 C 
ATOM     57  C   UNL A   1      44.541  32.025  28.810  1.00  0.00     0.034 A 
BRANCH  44  58
ATOM     58  C   UNL A   1      38.884  30.532  30.907  1.00  0.00     0.023 A 
ATOM     59  C   UNL A   1      37.906  31.351  30.315  1.00  0.00     0.031 A 
ATOM     60  C   UNL A   1      38.685  30.134  32.242  1.00  0.00     0.131 A 
ATOM     61  C   UNL A   1      36.819  31.808  31.078  1.00  0.00     0.055 A 
ATOM     62  C   UNL A   1      37.557  30.520  32.967  1.00  0.00     0.041 A 
ATOM     63  F   UNL A   1      39.597  29.377  32.873  1.00  0.00    -0.206 F 
ATOM     64  C   UNL A   1      36.623  31.375  32.391  1.00  0.00     0.022 A 
BRANCH  61  65
ATOM     65  S   UNL A   1      35.753  33.103  30.385  1.00  0.00     0.124 S 
ATOM     66  O   UNL A   1      34.435  32.479  30.471  1.00  0.00    -0.237 OA
ATOM     67  O   UNL A   1      35.991  34.223  31.288  1.00  0.00    -0.237 OA
ATOM     68  O   UNL A   1      36.264  33.278  29.027  1.00  0.00    -0.744 OA
ENDBRANCH  61  65
ENDBRANCH  44  58
BRANCH  45  69
ATOM     69  C   UNL A   1      46.854  27.409  25.607  1.00  0.00     0.023 A 
ATOM     70  C   UNL A   1      47.045  27.857  24.291  1.00  0.00     0.031 A 
ATOM     71  C   UNL A   1      47.782  26.489  26.130  1.00  0.00     0.131 A 
ATOM     72  C   UNL A   1      48.104  27.349  23.524  1.00  0.00     0.055 A 
ATOM     73  C   UNL A   1      48.869  26.033  25.384  1.00  0.00     0.041 A 
ATOM     74  F   UNL A   1      47.648  26.027  27.383  1.00  0.00    -0.206 F 
ATOM     75  C   UNL A   1      49.027  26.451  24.067  1.00  0.00     0.022 A 
BRANCH  72  76
ATOM     76  S   UNL A   1      48.203  27.804  21.772  1.00  0.00     0.124 S 
ATOM     77  O   UNL A   1      48.440  26.509  21.143  1.00  0.00    -0.237 OA
ATOM     78  O   UNL A   1      46.891  28.399  21.540  1.00  0.00    -0.237 OA
ATOM     79  O   UNL A   1      49.326  28.737  21.725  1.00  0.00    -0.744 OA
ENDBRANCH  72  76
ENDBRANCH  45  69
BRANCH  57  80
ATOM     80  C   UNL A   1      45.345  33.278  29.069  1.00  0.00     0.023 A 
ATOM     81  C   UNL A   1      45.305  34.382  28.200  1.00  0.00     0.031 A 
ATOM     82  C   UNL A   1      46.190  33.353  30.191  1.00  0.00     0.131 A 
ATOM     83  C   UNL A   1      46.153  35.477  28.423  1.00  0.00     0.055 A 
ATOM     84  C   UNL A   1      46.970  34.479  30.453  1.00  0.00     0.041 A 
ATOM     85  F   UNL A   1      46.272  32.328  31.056  1.00  0.00    -0.206 F 
ATOM     86  C   UNL A   1      46.969  35.542  29.555  1.00  0.00     0.022 A 
BRANCH  83  87
ATOM     87  S   UNL A   1      46.275  36.755  27.141  1.00  0.00     0.124 S 
ATOM     88  O   UNL A   1      45.007  37.460  27.296  1.00  0.00    -0.237 OA
ATOM     89  O   UNL A   1      47.467  37.492  27.547  1.00  0.00    -0.237 OA
ATOM     90  O   UNL A   1      46.411  35.987  25.905  1.00  0.00    -0.744 OA
ENDBRANCH  83  87
ENDBRANCH  57  80
ENDBRANCH  31  32
ENDBRANCH  24  26
ENDBRANCH  23  24
ENDBRANCH  22  23
ENDBRANCH  21  22
ENDBRANCH   1  21
TORSDOF 21
ENDMDL
MODEL 2
REMARK VINA RESULT:     -10.1      5.234     10.465
REMARK SMILES O=C(C[N@@H+](Cc1cccc(Br)c1)C1CC1)OCCOCCOC(=O)c1ccc(-c2c3nc(c(-c4cc(S(=O)(=O)[O-])ccc4F)c4ccc([nH]4)c(-c4cc(S(=O)(=O)[O-])ccc4F)c4nc(c(-c5cc(S(=O)(=O)[O-])ccc5F)c5ccc2[nH]5)C=C4)C=C3)cc1
REMARK SMILES IDX 19 1 18 2 17 3 16 4 2 5 1 6 3 7 4 8 5 10 6 11 7 12 12 13
REMARK SMILES IDX 8 14 10 15 9 16 11 17 13 18 14 19 15 20 20 21 21 22 22 23
REMARK SMILES IDX 23 24 24 25 25 26 26 27 87 28 27 29 86 30 28 31 29 32 30 33
REMARK SMILES IDX 80 34 31 35 85 36 79 37 81 38 32 39 84 40 78 41 77 42 33 44
REMARK SMILES IDX 65 45 45 46 64 47 46 48 49 49 63 50 82 51 47 52 48 53 62 55
REMARK SMILES IDX 83 56 50 57 34 58 35 59 43 60 36 61 42 62 44 63 41 64 37 65
REMARK SMILES IDX 38 66 39 67 40 68 66 69 67 70 75 71 68 72 74 73 76 74 73 75
REMARK SMILES IDX 69 76 70 77 71 78 72 79 51 80 52 81 60 82 53 83 59 84 61 85
REMARK SMILES IDX 58 86 54 87 55 88 56 89 57 90
REMARK H PARENT 4 9 81 43 49 54
REMARK Flexibility Score: inf
ROOT
ATOM      1  O   UNL A   1      30.966  29.058  24.889  1.00  0.00    -0.374 OA
ENDROOT
BRANCH   1   2
ATOM      2  C   UNL A   1      30.835  28.975  23.468  1.00  0.00     0.202 C 
BRANCH   2   3
ATOM      3  C   UNL A   1      32.058  28.469  22.711  1.00  0.00     0.261 C 
BRANCH   3   4
ATOM      4  O   UNL A   1      32.017  27.044  22.506  1.00  0.00    -0.459 OA
BRANCH   4   5
ATOM      5  C   UNL A   1      33.041  26.321  21.993  1.00  0.00     0.361 C 
ATOM      6  O   UNL A   1      34.023  26.896  21.521  1.00  0.00    -0.245 OA
BRANCH   5   7
ATOM      7  C   UNL A   1      32.926  24.808  21.943  1.00  0.00     0.387 C 
BRANCH   7   8
ATOM      8  N   UNL A   1      33.064  24.192  23.272  1.00  0.00    -0.319 N 
ATOM      9  H   UNL A   1      33.429  23.245  23.167  1.00  0.00     0.349 HD
BRANCH   8  10
ATOM     10  C   UNL A   1      34.108  24.847  24.073  1.00  0.00     0.299 C 
BRANCH  10  11
ATOM     11  C   UNL A   1      35.252  23.949  24.485  1.00  0.00     0.007 A 
ATOM     12  C   UNL A   1      35.417  22.686  23.894  1.00  0.00     0.009 A 
ATOM     13  C   UNL A   1      36.201  24.396  25.414  1.00  0.00     0.025 A 
ATOM     14  C   UNL A   1      36.532  21.904  24.200  1.00  0.00     0.002 A 
ATOM     15  C   UNL A   1      37.324  23.624  25.694  1.00  0.00     0.018 A 
ATOM     16  C   UNL A   1      37.495  22.381  25.090  1.00  0.00     0.016 A 
ATOM     17  Br  UNL A   1      38.641  24.297  26.869  1.00  0.00    -0.051 Br
ENDBRANCH  10  11
ENDBRANCH   8  10
BRANCH   8  18
ATOM     18  C   UNL A   1      31.768  23.946  23.910  1.00  0.00     0.185 C 
ATOM     19  C   UNL A   1      31.002  22.737  23.435  1.00  0.00     0.071 C 
ATOM     20  C   UNL A   1      31.528  22.791  24.836  1.00  0.00     0.071 C 
ENDBRANCH   8  18
ENDBRANCH   7   8
ENDBRANCH   5   7
ENDBRANCH   4   5
ENDBRANCH   3   4
ENDBRANCH   2   3
ENDBRANCH   1   2
BRANCH   1  21
ATOM     21  C   UNL A   1      32.138  29.726  25.373  1.00  0.00     0.202 C 
BRANCH  21  22
ATOM     22  C   UNL A   1      31.907  30.960  26.248  1.00  0.00     0.261 C 
BRANCH  22  23
ATOM     23  O   UNL A   1      32.701  30.909  27.440  1.00  0.00    -0.460 OA
BRANCH  23  24
ATOM     24  C   UNL A   1      33.514  31.978  27.606  1.00  0.00     0.338 C 
ATOM     25  O   UNL A   1      33.178  33.153  27.647  1.00  0.00    -0.246 OA
BRANCH  24  26
ATOM     26  C   UNL A   1      34.865  31.513  27.970  1.00  0.00     0.060 A 
ATOM     27  C   UNL A   1      35.015  30.152  28.265  1.00  0.00     0.016 A 
ATOM     28  C   UNL A   1      35.956  32.385  28.049  1.00  0.00     0.016 A 
ATOM     29  C   UNL A   1      36.223  29.677  28.753  1.00  0.00     0.010 A 
ATOM     30  C   UNL A   1      37.171  31.908  28.540  1.00  0.00     0.010 A 
ATOM     31  C   UNL A   1      37.280  30.571  28.961  1.00  0.00    -0.014 A 
BRANCH  31  32
ATOM     32  C   UNL A   1      38.379  30.160  29.861  1.00  0.00     0.031 A 
ATOM     33  C   UNL A   1      39.408  29.202  29.320  1.00  0.00     0.074 A 
ATOM     34  C   UNL A   1      38.498  30.688  31.090  1.00  0.00     0.049 A 
ATOM     35  N   UNL A   1      40.469  28.705  29.898  1.00  0.00    -0.248 NA
ATOM     36  C   UNL A   1      39.206  28.739  27.937  1.00  0.00     0.031 C 
ATOM     37  C   UNL A   1      37.585  31.667  31.678  1.00  0.00     0.029 A 
ATOM     38  N   UNL A   1      39.444  30.483  32.057  1.00  0.00    -0.354 N 
ATOM     39  C   UNL A   1      41.051  27.861  28.957  1.00  0.00     0.074 A 
ATOM     40  C   UNL A   1      40.201  27.879  27.789  1.00  0.00     0.031 C 
ATOM     41  C   UNL A   1      38.023  31.984  32.908  1.00  0.00     0.029 A 
ATOM     42  C   UNL A   1      39.220  31.203  33.206  1.00  0.00     0.049 A 
ATOM     43  H   UNL A   1      40.211  29.876  31.941  1.00  0.00     0.167 HD
ATOM     44  C   UNL A   1      42.196  27.144  29.059  1.00  0.00     0.034 A 
ATOM     45  C   UNL A   1      39.903  31.211  34.367  1.00  0.00     0.034 A 
ATOM     46  C   UNL A   1      43.023  27.145  30.240  1.00  0.00     0.049 A 
ATOM     47  C   UNL A   1      41.136  30.346  34.484  1.00  0.00     0.074 A 
ATOM     48  C   UNL A   1      44.214  26.476  30.460  1.00  0.00     0.029 A 
ATOM     49  N   UNL A   1      42.738  27.843  31.408  1.00  0.00    -0.354 N 
ATOM     50  N   UNL A   1      41.684  29.556  33.588  1.00  0.00    -0.248 NA
ATOM     51  C   UNL A   1      41.850  30.388  35.765  1.00  0.00     0.031 C 
ATOM     52  C   UNL A   1      44.601  26.699  31.786  1.00  0.00     0.029 A 
ATOM     53  C   UNL A   1      43.709  27.590  32.364  1.00  0.00     0.049 A 
ATOM     54  H   UNL A   1      41.959  28.432  31.537  1.00  0.00     0.167 HD
ATOM     55  C   UNL A   1      42.832  29.042  34.185  1.00  0.00     0.074 A 
ATOM     56  C   UNL A   1      42.900  29.624  35.510  1.00  0.00     0.031 C 
ATOM     57  C   UNL A   1      43.753  28.176  33.685  1.00  0.00     0.034 A 
BRANCH  44  58
ATOM     58  C   UNL A   1      42.571  26.258  27.893  1.00  0.00     0.023 A 
ATOM     59  C   UNL A   1      42.252  24.888  27.857  1.00  0.00     0.031 A 
ATOM     60  C   UNL A   1      43.301  26.788  26.813  1.00  0.00     0.131 A 
ATOM     61  C   UNL A   1      42.727  24.085  26.809  1.00  0.00     0.055 A 
ATOM     62  C   UNL A   1      43.694  26.000  25.730  1.00  0.00     0.041 A 
ATOM     63  F   UNL A   1      43.663  28.080  26.801  1.00  0.00    -0.206 F 
ATOM     64  C   UNL A   1      43.421  24.637  25.730  1.00  0.00     0.022 A 
BRANCH  61  65
ATOM     65  S   UNL A   1      42.565  22.283  26.953  1.00  0.00     0.124 S 
ATOM     66  O   UNL A   1      43.715  21.820  26.181  1.00  0.00    -0.237 OA
ATOM     67  O   UNL A   1      42.637  22.074  28.394  1.00  0.00    -0.237 OA
ATOM     68  O   UNL A   1      41.265  22.005  26.346  1.00  0.00    -0.744 OA
ENDBRANCH  61  65
ENDBRANCH  44  58
BRANCH  45  69
ATOM     69  C   UNL A   1      39.440  32.046  35.512  1.00  0.00     0.023 A 
ATOM     70  C   UNL A   1      38.713  31.484  36.572  1.00  0.00     0.031 A 
ATOM     71  C   UNL A   1      39.673  33.434  35.536  1.00  0.00     0.131 A 
ATOM     72  C   UNL A   1      38.201  32.309  37.585  1.00  0.00     0.055 A 
ATOM     73  C   UNL A   1      39.214  34.241  36.578  1.00  0.00     0.041 A 
ATOM     74  F   UNL A   1      40.362  34.024  34.547  1.00  0.00    -0.206 F 
ATOM     75  C   UNL A   1      38.459  33.682  37.603  1.00  0.00     0.022 A 
BRANCH  72  76
ATOM     76  S   UNL A   1      37.106  31.575  38.830  1.00  0.00     0.124 S 
ATOM     77  O   UNL A   1      37.928  31.656  40.032  1.00  0.00    -0.237 OA
ATOM     78  O   UNL A   1      35.952  32.466  38.781  1.00  0.00    -0.237 OA
ATOM     79  O   UNL A   1      36.870  30.225  38.323  1.00  0.00    -0.744 OA
ENDBRANCH  72  76
ENDBRANCH  45  69
BRANCH  57  80
ATOM     80  C   UNL A   1      44.942  27.859  34.562  1.00  0.00     0.023 A 
ATOM     81  C   UNL A   1      44.942  26.775  35.456  1.00  0.00     0.031 A 
ATOM     82  C   UNL A   1      46.085  28.679  34.521  1.00  0.00     0.131 A 
ATOM     83  C   UNL A   1      46.025  26.588  36.327  1.00  0.00     0.055 A 
ATOM     84  C   UNL A   1      47.193  28.439  35.333  1.00  0.00     0.041 A 
ATOM     85  F   UNL A   1      46.142  29.732  33.689  1.00  0.00    -0.206 F 
ATOM     86  C   UNL A   1      47.159  27.400  36.257  1.00  0.00     0.022 A 
BRANCH  83  87
ATOM     87  S   UNL A   1      45.873  25.353  37.647  1.00  0.00     0.124 S 
ATOM     88  O   UNL A   1      46.024  26.171  38.846  1.00  0.00    -0.237 OA
ATOM     89  O   UNL A   1      44.540  24.806  37.412  1.00  0.00    -0.237 OA
ATOM     90  O   UNL A   1      46.976  24.431  37.382  1.00  0.00    -0.744 OA
ENDBRANCH  83  87
ENDBRANCH  57  80
ENDBRANCH  31  32
ENDBRANCH  24  26
ENDBRANCH  23  24
ENDBRANCH  22  23
ENDBRANCH  21  22
ENDBRANCH   1  21
TORSDOF 21
ENDMDL
MODEL 3
REMARK VINA RESULT:     -10.0      5.422     10.453
REMARK SMILES O=C(C[N@@H+](Cc1cccc(Br)c1)C1CC1)OCCOCCOC(=O)c1ccc(-c2c3nc(c(-c4cc(S(=O)(=O)[O-])ccc4F)c4ccc([nH]4)c(-c4cc(S(=O)(=O)[O-])ccc4F)c4nc(c(-c5cc(S(=O)(=O)[O-])ccc5F)c5ccc2[nH]5)C=C4)C=C3)cc1
REMARK SMILES IDX 19 1 18 2 17 3 16 4 2 5 1 6 3 7 4 8 5 10 6 11 7 12 12 13
REMARK SMILES IDX 8 14 10 15 9 16 11 17 13 18 14 19 15 20 20 21 21 22 22 23
REMARK SMILES IDX 23 24 24 25 25 26 26 27 87 28 27 29 86 30 28 31 29 32 30 33
REMARK SMILES IDX 80 34 31 35 85 36 79 37 81 38 32 39 84 40 78 41 77 42 33 44
REMARK SMILES IDX 65 45 45 46 64 47 46 48 49 49 63 50 82 51 47 52 48 53 62 55
REMARK SMILES IDX 83 56 50 57 34 58 35 59 43 60 36 61 42 62 44 63 41 64 37 65
REMARK SMILES IDX 38 66 39 67 40 68 66 69 67 70 75 71 68 72 74 73 76 74 73 75
REMARK SMILES IDX 69 76 70 77 71 78 72 79 51 80 52 81 60 82 53 83 59 84 61 85
REMARK SMILES IDX 58 86 54 87 55 88 56 89 57 90
REMARK H PARENT 4 9 81 43 49 54
REMARK Flexibility Score: inf
ROOT
ATOM      1  O   UNL A   1      32.259  28.036  23.679  1.00  0.00    -0.374 OA
ENDROOT
BRANCH   1   2
ATOM      2  C   UNL A   1      33.067  27.313  22.748  1.00  0.00     0.202 C 
BRANCH   2   3
ATOM      3  C   UNL A   1      32.414  26.098  22.098  1.00  0.00     0.261 C 
BRANCH   3   4
ATOM      4  O   UNL A   1      32.558  24.911  22.902  1.00  0.00    -0.459 OA
BRANCH   4   5
ATOM      5  C   UNL A   1      33.728  24.500  23.446  1.00  0.00     0.361 C 
ATOM      6  O   UNL A   1      34.692  24.256  22.718  1.00  0.00    -0.245 OA
BRANCH   5   7
ATOM      7  C   UNL A   1      33.808  24.277  24.946  1.00  0.00     0.387 C 
BRANCH   7   8
ATOM      8  N   UNL A   1      32.867  23.243  25.408  1.00  0.00    -0.319 N 
ATOM      9  H   UNL A   1      32.239  22.995  24.643  1.00  0.00     0.349 HD
BRANCH   8  10
ATOM     10  C   UNL A   1      33.547  21.968  25.685  1.00  0.00     0.299 C 
BRANCH  10  11
ATOM     11  C   UNL A   1      33.075  20.800  24.850  1.00  0.00     0.007 A 
ATOM     12  C   UNL A   1      32.495  21.013  23.589  1.00  0.00     0.009 A 
ATOM     13  C   UNL A   1      33.274  19.488  25.297  1.00  0.00     0.025 A 
ATOM     14  C   UNL A   1      32.157  19.928  22.777  1.00  0.00     0.002 A 
ATOM     15  C   UNL A   1      32.961  18.413  24.471  1.00  0.00     0.018 A 
ATOM     16  C   UNL A   1      32.405  18.626  23.213  1.00  0.00     0.016 A 
ATOM     17  Br  UNL A   1      33.339  16.656  25.055  1.00  0.00    -0.051 Br
ENDBRANCH  10  11
ENDBRANCH   8  10
BRANCH   8  18
ATOM     18  C   UNL A   1      31.932  23.750  26.415  1.00  0.00     0.185 C 
ATOM     19  C   UNL A   1      30.559  24.136  25.924  1.00  0.00     0.071 C 
ATOM     20  C   UNL A   1      30.726  22.978  26.860  1.00  0.00     0.071 C 
ENDBRANCH   8  18
ENDBRANCH   7   8
ENDBRANCH   5   7
ENDBRANCH   4   5
ENDBRANCH   3   4
ENDBRANCH   2   3
ENDBRANCH   1   2
BRANCH   1  21
ATOM     21  C   UNL A   1      32.962  28.708  24.732  1.00  0.00     0.202 C 
BRANCH  21  22
ATOM     22  C   UNL A   1      32.236  29.879  25.398  1.00  0.00     0.261 C 
BRANCH  22  23
ATOM     23  O   UNL A   1      32.564  29.970  26.790  1.00  0.00    -0.460 OA
BRANCH  23  24
ATOM     24  C   UNL A   1      33.114  31.154  27.149  1.00  0.00     0.338 C 
ATOM     25  O   UNL A   1      32.529  32.219  27.289  1.00  0.00    -0.246 OA
BRANCH  24  26
ATOM     26  C   UNL A   1      34.505  30.936  27.584  1.00  0.00     0.060 A 
ATOM     27  C   UNL A   1      34.982  29.618  27.562  1.00  0.00     0.016 A 
ATOM     28  C   UNL A   1      35.319  31.983  28.027  1.00  0.00     0.016 A 
ATOM     29  C   UNL A   1      36.229  29.324  28.092  1.00  0.00     0.010 A 
ATOM     30  C   UNL A   1      36.574  31.687  28.561  1.00  0.00     0.010 A 
ATOM     31  C   UNL A   1      36.995  30.350  28.660  1.00  0.00    -0.014 A 
BRANCH  31  32
ATOM     32  C   UNL A   1      38.088  29.978  29.585  1.00  0.00     0.031 A 
ATOM     33  C   UNL A   1      39.150  29.039  29.077  1.00  0.00     0.074 A 
ATOM     34  C   UNL A   1      38.171  30.527  30.808  1.00  0.00     0.049 A 
ATOM     35  N   UNL A   1      40.213  28.578  29.680  1.00  0.00    -0.248 NA
ATOM     36  C   UNL A   1      38.984  28.552  27.697  1.00  0.00     0.031 C 
ATOM     37  C   UNL A   1      37.223  31.491  31.365  1.00  0.00     0.029 A 
ATOM     38  N   UNL A   1      39.105  30.359  31.795  1.00  0.00    -0.354 N 
ATOM     39  C   UNL A   1      40.832  27.735  28.762  1.00  0.00     0.074 A 
ATOM     40  C   UNL A   1      40.002  27.715  27.578  1.00  0.00     0.031 C 
ATOM     41  C   UNL A   1      37.631  31.836  32.598  1.00  0.00     0.029 A 
ATOM     42  C   UNL A   1      38.843  31.089  32.929  1.00  0.00     0.049 A 
ATOM     43  H   UNL A   1      39.888  29.771  31.701  1.00  0.00     0.167 HD
ATOM     44  C   UNL A   1      41.993  27.049  28.894  1.00  0.00     0.034 A 
ATOM     45  C   UNL A   1      39.504  31.131  34.101  1.00  0.00     0.034 A 
ATOM     46  C   UNL A   1      42.798  27.087  30.090  1.00  0.00     0.049 A 
ATOM     47  C   UNL A   1      40.755  30.299  34.253  1.00  0.00     0.074 A 
ATOM     48  C   UNL A   1      44.001  26.452  30.340  1.00  0.00     0.029 A 
ATOM     49  N   UNL A   1      42.474  27.794  31.242  1.00  0.00    -0.354 N 
ATOM     50  N   UNL A   1      41.339  29.511  33.378  1.00  0.00    -0.248 NA
ATOM     51  C   UNL A   1      41.445  30.377  35.545  1.00  0.00     0.031 C 
ATOM     52  C   UNL A   1      44.358  26.703  31.669  1.00  0.00     0.029 A 
ATOM     53  C   UNL A   1      43.434  27.579  32.219  1.00  0.00     0.049 A 
ATOM     54  H   UNL A   1      41.679  28.365  31.349  1.00  0.00     0.167 HD
ATOM     55  C   UNL A   1      42.489  29.034  34.002  1.00  0.00     0.074 A 
ATOM     56  C   UNL A   1      42.518  29.636  35.320  1.00  0.00     0.031 C 
ATOM     57  C   UNL A   1      43.439  28.184  33.531  1.00  0.00     0.034 A 
BRANCH  44  58
ATOM     58  C   UNL A   1      42.410  26.156  27.748  1.00  0.00     0.023 A 
ATOM     59  C   UNL A   1      41.888  24.861  27.576  1.00  0.00     0.031 A 
ATOM     60  C   UNL A   1      43.383  26.597  26.832  1.00  0.00     0.131 A 
ATOM     61  C   UNL A   1      42.397  24.029  26.566  1.00  0.00     0.055 A 
ATOM     62  C   UNL A   1      43.821  25.795  25.776  1.00  0.00     0.041 A 
ATOM     63  F   UNL A   1      43.942  27.810  26.959  1.00  0.00    -0.206 F 
ATOM     64  C   UNL A   1      43.339  24.497  25.648  1.00  0.00     0.022 A 
BRANCH  61  65
ATOM     65  S   UNL A   1      41.931  22.274  26.569  1.00  0.00     0.124 S 
ATOM     66  O   UNL A   1      42.628  21.781  25.384  1.00  0.00    -0.237 OA
ATOM     67  O   UNL A   1      42.448  21.813  27.852  1.00  0.00    -0.237 OA
ATOM     68  O   UNL A   1      40.474  22.306  26.457  1.00  0.00    -0.744 OA
ENDBRANCH  61  65
ENDBRANCH  44  58
BRANCH  45  69
ATOM     69  C   UNL A   1      39.000  31.971  35.226  1.00  0.00     0.023 A 
ATOM     70  C   UNL A   1      38.453  31.386  36.378  1.00  0.00     0.031 A 
ATOM     71  C   UNL A   1      39.009  33.375  35.141  1.00  0.00     0.131 A 
ATOM     72  C   UNL A   1      37.892  32.198  37.377  1.00  0.00     0.055 A 
ATOM     73  C   UNL A   1      38.505  34.179  36.164  1.00  0.00     0.041 A 
ATOM     74  F   UNL A   1      39.519  33.987  34.061  1.00  0.00    -0.206 F 
ATOM     75  C   UNL A   1      37.928  33.591  37.284  1.00  0.00     0.022 A 
BRANCH  72  76
ATOM     76  S   UNL A   1      37.025  31.401  38.755  1.00  0.00     0.124 S 
ATOM     77  O   UNL A   1      36.866  30.039  38.257  1.00  0.00    -0.237 OA
ATOM     78  O   UNL A   1      37.972  31.577  39.851  1.00  0.00    -0.237 OA
ATOM     79  O   UNL A   1      35.789  32.173  38.872  1.00  0.00    -0.744 OA
ENDBRANCH  72  76
ENDBRANCH  45  69
BRANCH  57  80
ATOM     80  C   UNL A   1      44.621  27.910  34.434  1.00  0.00     0.023 A 
ATOM     81  C   UNL A   1      44.606  26.879  35.388  1.00  0.00     0.031 A 
ATOM     82  C   UNL A   1      45.769  28.719  34.355  1.00  0.00     0.131 A 
ATOM     83  C   UNL A   1      45.682  26.734  36.277  1.00  0.00     0.055 A 
ATOM     84  C   UNL A   1      46.870  28.518  35.187  1.00  0.00     0.041 A 
ATOM     85  F   UNL A   1      45.840  29.722  33.464  1.00  0.00    -0.206 F 
ATOM     86  C   UNL A   1      46.822  27.533  36.169  1.00  0.00     0.022 A 
BRANCH  83  87
ATOM     87  S   UNL A   1      45.512  25.577  37.663  1.00  0.00     0.124 S 
ATOM     88  O   UNL A   1      46.637  25.956  38.512  1.00  0.00    -0.237 OA
ATOM     89  O   UNL A   1      44.186  25.902  38.180  1.00  0.00    -0.237 OA
ATOM     90  O   UNL A   1      45.626  24.265  37.030  1.00  0.00    -0.744 OA
ENDBRANCH  83  87
ENDBRANCH  57  80
ENDBRANCH  31  32
ENDBRANCH  24  26
ENDBRANCH  23  24
ENDBRANCH  22  23
ENDBRANCH  21  22
ENDBRANCH   1  21
TORSDOF 21
ENDMDL
