MODEL 1
REMARK VINA RESULT:     -12.6      0.000      0.000
REMARK SMILES O=C1C[C@H](c2cn[nH]c2C(=O)OCCOCCOC(=O)c2ccc(-c3c4nc(c(-c5cc(S(=O)(=O)[O-])ccc5F)c5ccc([nH]5)c(-c5cc(S(=O)(=O)[O-])ccc5F)c5nc(c(-c6cc(S(=O)(=O)[O-])ccc6F)c6ccc3[nH]6)C=C5)C=C4)cc2)c2c(-c3cccs3)n[nH]c2N1
REMARK SMILES IDX 16 1 15 2 14 3 13 4 12 5 10 6 11 7 9 8 5 9 6 10 7 11 8 12
REMARK SMILES IDX 4 14 1 15 2 16 3 17 94 18 93 19 84 21 92 22 85 23 91 24
REMARK SMILES IDX 86 26 87 27 90 28 88 29 89 30 17 31 18 32 19 33 20 34 21 35
REMARK SMILES IDX 22 36 83 37 23 38 82 39 24 40 25 41 26 42 76 43 27 44 81 45
REMARK SMILES IDX 75 46 77 47 28 48 80 49 74 50 73 51 29 53 61 54 41 55 60 56
REMARK SMILES IDX 42 57 45 58 59 59 78 60 43 61 44 62 58 64 79 65 46 66 30 67
REMARK SMILES IDX 31 68 39 69 32 70 38 71 40 72 37 73 33 74 34 75 35 76 36 77
REMARK SMILES IDX 62 78 63 79 71 80 64 81 70 82 72 83 69 84 65 85 66 86 67 87
REMARK SMILES IDX 68 88 47 89 48 90 56 91 49 92 55 93 57 94 54 95 50 96 51 97
REMARK SMILES IDX 52 98 53 99
REMARK H PARENT 8 13 94 20 92 25 77 52 45 63
REMARK Flexibility Score: inf
ROOT
ATOM      1  C   UNL A   1      35.894  32.398  28.067  1.00  0.00     0.202 C 
ENDROOT
BRANCH   1   2
ATOM      2  O   UNL A   1      34.869  31.779  27.295  1.00  0.00    -0.374 OA
BRANCH   2   3
ATOM      3  C   UNL A   1      34.099  30.727  27.885  1.00  0.00     0.202 C 
BRANCH   3   4
ATOM      4  C   UNL A   1      33.934  29.476  27.033  1.00  0.00     0.261 C 
BRANCH   4   5
ATOM      5  O   UNL A   1      32.640  28.874  27.236  1.00  0.00    -0.459 OA
BRANCH   5   6
ATOM      6  C   UNL A   1      31.802  28.925  26.173  1.00  0.00     0.356 C 
ATOM      7  O   UNL A   1      31.683  29.890  25.427  1.00  0.00    -0.244 OA
BRANCH   6   8
ATOM      8  C   UNL A   1      31.188  27.654  25.887  1.00  0.00     0.147 A 
ATOM      9  C   UNL A   1      30.716  26.932  24.787  1.00  0.00     0.013 A 
ATOM     10  C   UNL A   1      30.357  25.673  25.365  1.00  0.00     0.140 A 
ATOM     11  N   UNL A   1      30.526  25.619  26.681  1.00  0.00    -0.183 NA
ATOM     12  N   UNL A   1      31.018  26.823  26.969  1.00  0.00    -0.271 N 
ATOM     13  H   UNL A   1      31.241  27.097  27.888  1.00  0.00     0.190 HD
BRANCH   9  14
ATOM     14  C   UNL A   1      30.653  27.150  23.279  1.00  0.00     0.069 C 
ATOM     15  O   UNL A   1      29.243  30.531  22.685  1.00  0.00    -0.275 OA
ATOM     16  C   UNL A   1      30.024  29.586  22.587  1.00  0.00     0.226 C 
ATOM     17  C   UNL A   1      29.559  28.167  22.873  1.00  0.00     0.114 C 
ATOM     18  N   UNL A   1      31.294  29.772  22.099  1.00  0.00    -0.311 N 
ATOM     19  C   UNL A   1      32.178  28.737  22.113  1.00  0.00     0.132 A 
ATOM     20  H   UNL A   1      31.564  30.649  21.742  1.00  0.00     0.171 HD
ATOM     21  C   UNL A   1      31.928  27.488  22.606  1.00  0.00     0.031 A 
ATOM     22  N   UNL A   1      33.476  28.758  21.706  1.00  0.00    -0.262 N 
ATOM     23  C   UNL A   1      33.115  26.768  22.348  1.00  0.00     0.108 A 
ATOM     24  N   UNL A   1      34.088  27.563  21.871  1.00  0.00    -0.173 NA
ATOM     25  H   UNL A   1      33.919  29.553  21.332  1.00  0.00     0.192 HD
BRANCH  23  26
ATOM     26  C   UNL A   1      33.331  25.341  22.720  1.00  0.00     0.055 A 
ATOM     27  C   UNL A   1      32.965  24.279  21.924  1.00  0.00     0.022 A 
ATOM     28  S   UNL A   1      34.167  24.840  24.120  1.00  0.00    -0.142 S 
ATOM     29  C   UNL A   1      33.502  23.050  22.409  1.00  0.00     0.012 A 
ATOM     30  C   UNL A   1      34.127  23.206  23.625  1.00  0.00     0.065 A 
ENDBRANCH  23  26
ENDBRANCH   9  14
ENDBRANCH   6   8
ENDBRANCH   5   6
ENDBRANCH   4   5
ENDBRANCH   3   4
ENDBRANCH   2   3
ENDBRANCH   1   2
BRANCH   1  31
ATOM     31  C   UNL A   1      36.092  31.891  29.480  1.00  0.00     0.261 C 
BRANCH  31  32
ATOM     32  O   UNL A   1      37.137  30.944  29.532  1.00  0.00    -0.460 OA
BRANCH  32  33
ATOM     33  C   UNL A   1      36.823  29.785  30.166  1.00  0.00     0.338 C 
ATOM     34  O   UNL A   1      35.965  29.595  30.995  1.00  0.00    -0.246 OA
BRANCH  33  35
ATOM     35  C   UNL A   1      37.820  28.815  29.711  1.00  0.00     0.060 A 
ATOM     36  C   UNL A   1      38.367  27.910  30.618  1.00  0.00     0.016 A 
ATOM     37  C   UNL A   1      38.355  28.996  28.430  1.00  0.00     0.016 A 
ATOM     38  C   UNL A   1      39.605  27.379  30.312  1.00  0.00     0.010 A 
ATOM     39  C   UNL A   1      39.501  28.367  28.078  1.00  0.00     0.010 A 
ATOM     40  C   UNL A   1      40.190  27.735  29.091  1.00  0.00    -0.014 A 
BRANCH  40  41
ATOM     41  C   UNL A   1      41.578  27.494  28.800  1.00  0.00     0.031 A 
ATOM     42  C   UNL A   1      41.750  26.260  28.022  1.00  0.00     0.074 A 
ATOM     43  C   UNL A   1      42.511  28.445  29.017  1.00  0.00     0.049 A 
ATOM     44  N   UNL A   1      42.028  25.093  28.493  1.00  0.00    -0.248 NA
ATOM     45  C   UNL A   1      41.233  26.236  26.640  1.00  0.00     0.031 C 
ATOM     46  C   UNL A   1      42.351  29.830  29.483  1.00  0.00     0.029 A 
ATOM     47  N   UNL A   1      43.839  28.378  28.771  1.00  0.00    -0.354 N 
ATOM     48  C   UNL A   1      42.050  24.263  27.385  1.00  0.00     0.074 A 
ATOM     49  C   UNL A   1      41.243  24.923  26.399  1.00  0.00     0.031 C 
ATOM     50  C   UNL A   1      43.500  30.519  29.271  1.00  0.00     0.029 A 
ATOM     51  C   UNL A   1      44.519  29.595  28.806  1.00  0.00     0.049 A 
ATOM     52  H   UNL A   1      44.296  27.527  28.578  1.00  0.00     0.167 HD
ATOM     53  C   UNL A   1      43.007  23.304  27.265  1.00  0.00     0.034 A 
ATOM     54  C   UNL A   1      45.815  29.790  28.424  1.00  0.00     0.034 A 
ATOM     55  C   UNL A   1      43.704  23.134  28.528  1.00  0.00     0.049 A 
ATOM     56  C   UNL A   1      46.453  28.439  28.461  1.00  0.00     0.074 A 
ATOM     57  C   UNL A   1      43.306  22.784  29.805  1.00  0.00     0.029 A 
ATOM     58  N   UNL A   1      44.916  23.780  28.681  1.00  0.00    -0.354 N 
ATOM     59  N   UNL A   1      46.598  27.758  29.571  1.00  0.00    -0.248 NA
ATOM     60  C   UNL A   1      46.388  27.626  27.251  1.00  0.00     0.031 C 
ATOM     61  C   UNL A   1      44.025  23.663  30.667  1.00  0.00     0.029 A 
ATOM     62  C   UNL A   1      44.914  24.421  29.898  1.00  0.00     0.049 A 
ATOM     63  H   UNL A   1      45.655  23.782  28.029  1.00  0.00     0.167 HD
ATOM     64  C   UNL A   1      46.225  26.456  29.259  1.00  0.00     0.074 A 
ATOM     65  C   UNL A   1      46.169  26.422  27.795  1.00  0.00     0.031 C 
ATOM     66  C   UNL A   1      45.677  25.625  30.200  1.00  0.00     0.034 A 
BRANCH  53  67
ATOM     67  C   UNL A   1      43.594  22.827  25.956  1.00  0.00     0.023 A 
ATOM     68  C   UNL A   1      43.686  21.435  25.790  1.00  0.00     0.031 A 
ATOM     69  C   UNL A   1      44.287  23.604  24.998  1.00  0.00     0.131 A 
ATOM     70  C   UNL A   1      44.523  20.877  24.811  1.00  0.00     0.055 A 
ATOM     71  C   UNL A   1      45.072  23.043  23.988  1.00  0.00     0.041 A 
ATOM     72  F   UNL A   1      44.323  24.939  25.017  1.00  0.00    -0.206 F 
ATOM     73  C   UNL A   1      45.223  21.673  23.911  1.00  0.00     0.022 A 
BRANCH  70  74
ATOM     74  S   UNL A   1      44.813  19.095  24.862  1.00  0.00     0.124 S 
ATOM     75  O   UNL A   1      44.949  18.780  23.444  1.00  0.00    -0.237 OA
ATOM     76  O   UNL A   1      46.031  19.014  25.661  1.00  0.00    -0.237 OA
ATOM     77  O   UNL A   1      43.608  18.576  25.504  1.00  0.00    -0.744 OA
ENDBRANCH  70  74
ENDBRANCH  53  67
BRANCH  54  78
ATOM     78  C   UNL A   1      46.358  30.950  27.647  1.00  0.00     0.023 A 
ATOM     79  C   UNL A   1      45.577  31.785  26.811  1.00  0.00     0.031 A 
ATOM     80  C   UNL A   1      47.672  31.395  27.917  1.00  0.00     0.131 A 
ATOM     81  C   UNL A   1      46.120  32.988  26.285  1.00  0.00     0.055 A 
ATOM     82  C   UNL A   1      48.200  32.584  27.402  1.00  0.00     0.041 A 
ATOM     83  F   UNL A   1      48.468  30.724  28.764  1.00  0.00    -0.206 F 
ATOM     84  C   UNL A   1      47.424  33.390  26.588  1.00  0.00     0.022 A 
BRANCH  81  85
ATOM     85  S   UNL A   1      45.122  34.098  25.230  1.00  0.00     0.124 S 
ATOM     86  O   UNL A   1      46.141  34.907  24.573  1.00  0.00    -0.237 OA
ATOM     87  O   UNL A   1      44.395  33.157  24.384  1.00  0.00    -0.237 OA
ATOM     88  O   UNL A   1      44.286  34.826  26.187  1.00  0.00    -0.744 OA
ENDBRANCH  81  85
ENDBRANCH  54  78
BRANCH  66  89
ATOM     89  C   UNL A   1      45.709  26.054  31.660  1.00  0.00     0.023 A 
ATOM     90  C   UNL A   1      44.629  26.620  32.383  1.00  0.00     0.031 A 
ATOM     91  C   UNL A   1      46.865  25.714  32.385  1.00  0.00     0.131 A 
ATOM     92  C   UNL A   1      44.741  26.817  33.779  1.00  0.00     0.055 A 
ATOM     93  C   UNL A   1      46.960  25.888  33.764  1.00  0.00     0.041 A 
ATOM     94  F   UNL A   1      47.914  25.152  31.762  1.00  0.00    -0.206 F 
ATOM     95  C   UNL A   1      45.900  26.443  34.467  1.00  0.00     0.022 A 
BRANCH  92  96
ATOM     96  S   UNL A   1      43.385  27.577  34.739  1.00  0.00     0.124 S 
ATOM     97  O   UNL A   1      43.541  26.993  36.065  1.00  0.00    -0.237 OA
ATOM     98  O   UNL A   1      43.679  29.003  34.629  1.00  0.00    -0.237 OA
ATOM     99  O   UNL A   1      42.179  27.150  34.025  1.00  0.00    -0.744 OA
ENDBRANCH  92  96
ENDBRANCH  66  89
ENDBRANCH  40  41
ENDBRANCH  33  35
ENDBRANCH  32  33
ENDBRANCH  31  32
ENDBRANCH   1  31
TORSDOF 19
ENDMDL
MODEL 2
REMARK VINA RESULT:     -12.1      1.567      3.097
REMARK SMILES O=C1C[C@H](c2cn[nH]c2C(=O)OCCOCCOC(=O)c2ccc(-c3c4nc(c(-c5cc(S(=O)(=O)[O-])ccc5F)c5ccc([nH]5)c(-c5cc(S(=O)(=O)[O-])ccc5F)c5nc(c(-c6cc(S(=O)(=O)[O-])ccc6F)c6ccc3[nH]6)C=C5)C=C4)cc2)c2c(-c3cccs3)n[nH]c2N1
REMARK SMILES IDX 16 1 15 2 14 3 13 4 12 5 10 6 11 7 9 8 5 9 6 10 7 11 8 12
REMARK SMILES IDX 4 14 1 15 2 16 3 17 94 18 93 19 84 21 92 22 85 23 91 24
REMARK SMILES IDX 86 26 87 27 90 28 88 29 89 30 17 31 18 32 19 33 20 34 21 35
REMARK SMILES IDX 22 36 83 37 23 38 82 39 24 40 25 41 26 42 76 43 27 44 81 45
REMARK SMILES IDX 75 46 77 47 28 48 80 49 74 50 73 51 29 53 61 54 41 55 60 56
REMARK SMILES IDX 42 57 45 58 59 59 78 60 43 61 44 62 58 64 79 65 46 66 30 67
REMARK SMILES IDX 31 68 39 69 32 70 38 71 40 72 37 73 33 74 34 75 35 76 36 77
REMARK SMILES IDX 62 78 63 79 71 80 64 81 70 82 72 83 69 84 65 85 66 86 67 87
REMARK SMILES IDX 68 88 47 89 48 90 56 91 49 92 55 93 57 94 54 95 50 96 51 97
REMARK SMILES IDX 52 98 53 99
REMARK H PARENT 8 13 94 20 92 25 77 52 45 63
REMARK Flexibility Score: inf
ROOT
ATOM      1  C   UNL A   1      34.931  29.868  27.367  1.00  0.00     0.202 C 
ENDROOT
BRANCH   1   2
ATOM      2  O   UNL A   1      33.545  30.034  27.080  1.00  0.00    -0.374 OA
BRANCH   2   3
ATOM      3  C   UNL A   1      32.878  29.041  26.296  1.00  0.00     0.202 C 
BRANCH   3   4
ATOM      4  C   UNL A   1      33.785  28.126  25.485  1.00  0.00     0.261 C 
BRANCH   4   5
ATOM      5  O   UNL A   1      33.298  26.768  25.495  1.00  0.00    -0.459 OA
BRANCH   5   6
ATOM      6  C   UNL A   1      34.016  25.889  24.756  1.00  0.00     0.356 C 
ATOM      7  O   UNL A   1      34.943  25.212  25.187  1.00  0.00    -0.244 OA
BRANCH   6   8
ATOM      8  C   UNL A   1      33.464  25.684  23.442  1.00  0.00     0.147 A 
ATOM      9  C   UNL A   1      32.418  24.984  22.833  1.00  0.00     0.013 A 
ATOM     10  C   UNL A   1      32.494  25.425  21.473  1.00  0.00     0.140 A 
ATOM     11  N   UNL A   1      33.500  26.257  21.233  1.00  0.00    -0.183 NA
ATOM     12  N   UNL A   1      34.070  26.389  22.429  1.00  0.00    -0.271 N 
ATOM     13  H   UNL A   1      34.867  26.948  22.577  1.00  0.00     0.190 HD
BRANCH   9  14
ATOM     14  C   UNL A   1      31.284  24.081  23.303  1.00  0.00     0.069 C 
ATOM     15  O   UNL A   1      32.800  20.960  24.621  1.00  0.00    -0.275 OA
ATOM     16  C   UNL A   1      32.087  21.962  24.597  1.00  0.00     0.226 C 
ATOM     17  C   UNL A   1      31.670  22.582  23.273  1.00  0.00     0.114 C 
ATOM     18  N   UNL A   1      31.550  22.469  25.755  1.00  0.00    -0.311 N 
ATOM     19  C   UNL A   1      30.864  23.644  25.720  1.00  0.00     0.132 A 
ATOM     20  H   UNL A   1      31.659  21.985  26.605  1.00  0.00     0.171 HD
ATOM     21  C   UNL A   1      30.670  24.415  24.609  1.00  0.00     0.031 A 
ATOM     22  N   UNL A   1      30.303  24.301  26.770  1.00  0.00    -0.262 N 
ATOM     23  C   UNL A   1      29.868  25.485  25.064  1.00  0.00     0.108 A 
ATOM     24  N   UNL A   1      29.710  25.458  26.397  1.00  0.00    -0.173 NA
ATOM     25  H   UNL A   1      30.326  23.971  27.697  1.00  0.00     0.192 HD
BRANCH  23  26
ATOM     26  C   UNL A   1      29.397  26.607  24.203  1.00  0.00     0.055 A 
ATOM     27  C   UNL A   1      28.082  26.795  23.842  1.00  0.00     0.022 A 
ATOM     28  S   UNL A   1      30.403  27.872  23.658  1.00  0.00    -0.142 S 
ATOM     29  C   UNL A   1      27.882  28.065  23.225  1.00  0.00     0.012 A 
ATOM     30  C   UNL A   1      29.071  28.727  23.013  1.00  0.00     0.065 A 
ENDBRANCH  23  26
ENDBRANCH   9  14
ENDBRANCH   6   8
ENDBRANCH   5   6
ENDBRANCH   4   5
ENDBRANCH   3   4
ENDBRANCH   2   3
ENDBRANCH   1   2
BRANCH   1  31
ATOM     31  C   UNL A   1      35.653  31.049  27.983  1.00  0.00     0.261 C 
BRANCH  31  32
ATOM     32  O   UNL A   1      36.974  30.701  28.335  1.00  0.00    -0.460 OA
BRANCH  32  33
ATOM     33  C   UNL A   1      37.075  29.743  29.291  1.00  0.00     0.338 C 
ATOM     34  O   UNL A   1      36.485  29.672  30.343  1.00  0.00    -0.246 OA
BRANCH  33  35
ATOM     35  C   UNL A   1      38.137  28.848  28.830  1.00  0.00     0.060 A 
ATOM     36  C   UNL A   1      38.503  27.751  29.607  1.00  0.00     0.016 A 
ATOM     37  C   UNL A   1      38.903  29.270  27.736  1.00  0.00     0.016 A 
ATOM     38  C   UNL A   1      39.774  27.245  29.427  1.00  0.00     0.010 A 
ATOM     39  C   UNL A   1      40.093  28.680  27.473  1.00  0.00     0.010 A 
ATOM     40  C   UNL A   1      40.578  27.822  28.437  1.00  0.00    -0.014 A 
BRANCH  40  41
ATOM     41  C   UNL A   1      41.996  27.588  28.360  1.00  0.00     0.031 A 
ATOM     42  C   UNL A   1      42.290  26.350  27.626  1.00  0.00     0.074 A 
ATOM     43  C   UNL A   1      42.881  28.548  28.706  1.00  0.00     0.049 A 
ATOM     44  N   UNL A   1      42.501  25.188  28.144  1.00  0.00    -0.248 NA
ATOM     45  C   UNL A   1      41.986  26.312  26.183  1.00  0.00     0.031 C 
ATOM     46  C   UNL A   1      42.644  29.935  29.131  1.00  0.00     0.029 A 
ATOM     47  N   UNL A   1      44.231  28.489  28.662  1.00  0.00    -0.354 N 
ATOM     48  C   UNL A   1      42.693  24.351  27.059  1.00  0.00     0.074 A 
ATOM     49  C   UNL A   1      42.040  24.998  25.958  1.00  0.00     0.031 C 
ATOM     50  C   UNL A   1      43.808  30.630  29.088  1.00  0.00     0.029 A 
ATOM     51  C   UNL A   1      44.891  29.711  28.789  1.00  0.00     0.049 A 
ATOM     52  H   UNL A   1      44.716  27.639  28.548  1.00  0.00     0.167 HD
ATOM     53  C   UNL A   1      43.664  23.398  27.092  1.00  0.00     0.034 A 
ATOM     54  C   UNL A   1      46.228  29.911  28.604  1.00  0.00     0.034 A 
ATOM     55  C   UNL A   1      44.164  23.242  28.447  1.00  0.00     0.049 A 
ATOM     56  C   UNL A   1      46.861  28.565  28.748  1.00  0.00     0.074 A 
ATOM     57  C   UNL A   1      43.581  22.899  29.652  1.00  0.00     0.029 A 
ATOM     58  N   UNL A   1      45.336  23.898  28.774  1.00  0.00    -0.354 N 
ATOM     59  N   UNL A   1      46.842  27.894  29.873  1.00  0.00    -0.248 NA
ATOM     60  C   UNL A   1      46.983  27.743  27.549  1.00  0.00     0.031 C 
ATOM     61  C   UNL A   1      44.158  23.790  30.605  1.00  0.00     0.029 A 
ATOM     62  C   UNL A   1      45.147  24.547  29.972  1.00  0.00     0.049 A 
ATOM     63  H   UNL A   1      46.164  23.900  28.241  1.00  0.00     0.167 HD
ATOM     64  C   UNL A   1      46.528  26.587  29.519  1.00  0.00     0.074 A 
ATOM     65  C   UNL A   1      46.692  26.541  28.064  1.00  0.00     0.031 C 
ATOM     66  C   UNL A   1      45.849  25.759  30.374  1.00  0.00     0.034 A 
BRANCH  53  67
ATOM     67  C   UNL A   1      44.443  22.915  25.890  1.00  0.00     0.023 A 
ATOM     68  C   UNL A   1      44.466  21.525  25.684  1.00  0.00     0.031 A 
ATOM     69  C   UNL A   1      45.351  23.663  25.105  1.00  0.00     0.131 A 
ATOM     70  C   UNL A   1      45.425  20.933  24.849  1.00  0.00     0.055 A 
ATOM     71  C   UNL A   1      46.265  23.073  24.229  1.00  0.00     0.041 A 
ATOM     72  F   UNL A   1      45.477  24.991  25.186  1.00  0.00    -0.206 F 
ATOM     73  C   UNL A   1      46.331  21.698  24.122  1.00  0.00     0.022 A 
BRANCH  70  74
ATOM     74  S   UNL A   1      45.575  19.133  24.875  1.00  0.00     0.124 S 
ATOM     75  O   UNL A   1      45.569  18.817  23.451  1.00  0.00    -0.237 OA
ATOM     76  O   UNL A   1      46.844  18.950  25.571  1.00  0.00    -0.237 OA
ATOM     77  O   UNL A   1      44.389  18.707  25.614  1.00  0.00    -0.744 OA
ENDBRANCH  70  74
ENDBRANCH  53  67
BRANCH  54  78
ATOM     78  C   UNL A   1      46.874  31.070  27.907  1.00  0.00     0.023 A 
ATOM     79  C   UNL A   1      46.169  32.046  27.162  1.00  0.00     0.031 A 
ATOM     80  C   UNL A   1      48.234  31.353  28.175  1.00  0.00     0.131 A 
ATOM     81  C   UNL A   1      46.826  33.226  26.720  1.00  0.00     0.055 A 
ATOM     82  C   UNL A   1      48.874  32.519  27.742  1.00  0.00     0.041 A 
ATOM     83  F   UNL A   1      48.971  30.536  28.943  1.00  0.00    -0.206 F 
ATOM     84  C   UNL A   1      48.170  33.465  27.017  1.00  0.00     0.022 A 
BRANCH  81  85
ATOM     85  S   UNL A   1      45.930  34.516  25.784  1.00  0.00     0.124 S 
ATOM     86  O   UNL A   1      47.015  35.339  25.264  1.00  0.00    -0.237 OA
ATOM     87  O   UNL A   1      45.182  33.733  24.806  1.00  0.00    -0.237 OA
ATOM     88  O   UNL A   1      45.102  35.169  26.802  1.00  0.00    -0.744 OA
ENDBRANCH  81  85
ENDBRANCH  54  78
BRANCH  66  89
ATOM     89  C   UNL A   1      45.659  26.199  31.819  1.00  0.00     0.023 A 
ATOM     90  C   UNL A   1      44.514  26.848  32.346  1.00  0.00     0.031 A 
ATOM     91  C   UNL A   1      46.646  25.786  32.732  1.00  0.00     0.131 A 
ATOM     92  C   UNL A   1      44.397  27.051  33.740  1.00  0.00     0.055 A 
ATOM     93  C   UNL A   1      46.513  25.966  34.108  1.00  0.00     0.041 A 
ATOM     94  F   UNL A   1      47.743  25.145  32.299  1.00  0.00    -0.206 F 
ATOM     95  C   UNL A   1      45.390  26.602  34.618  1.00  0.00     0.022 A 
BRANCH  92  96
ATOM     96  S   UNL A   1      42.954  27.915  34.453  1.00  0.00     0.124 S 
ATOM     97  O   UNL A   1      43.452  29.265  34.691  1.00  0.00    -0.237 OA
ATOM     98  O   UNL A   1      41.951  27.779  33.401  1.00  0.00    -0.237 OA
ATOM     99  O   UNL A   1      42.665  27.151  35.669  1.00  0.00    -0.744 OA
ENDBRANCH  92  96
ENDBRANCH  66  89
ENDBRANCH  40  41
ENDBRANCH  33  35
ENDBRANCH  32  33
ENDBRANCH  31  32
ENDBRANCH   1  31
TORSDOF 19
ENDMDL
MODEL 3
REMARK VINA RESULT:     -12.0      1.660      2.834
REMARK SMILES O=C1C[C@H](c2cn[nH]c2C(=O)OCCOCCOC(=O)c2ccc(-c3c4nc(c(-c5cc(S(=O)(=O)[O-])ccc5F)c5ccc([nH]5)c(-c5cc(S(=O)(=O)[O-])ccc5F)c5nc(c(-c6cc(S(=O)(=O)[O-])ccc6F)c6ccc3[nH]6)C=C5)C=C4)cc2)c2c(-c3cccs3)n[nH]c2N1
REMARK SMILES IDX 16 1 15 2 14 3 13 4 12 5 10 6 11 7 9 8 5 9 6 10 7 11 8 12
REMARK SMILES IDX 4 14 1 15 2 16 3 17 94 18 93 19 84 21 92 22 85 23 91 24
REMARK SMILES IDX 86 26 87 27 90 28 88 29 89 30 17 31 18 32 19 33 20 34 21 35
REMARK SMILES IDX 22 36 83 37 23 38 82 39 24 40 25 41 26 42 76 43 27 44 81 45
REMARK SMILES IDX 75 46 77 47 28 48 80 49 74 50 73 51 29 53 61 54 41 55 60 56
REMARK SMILES IDX 42 57 45 58 59 59 78 60 43 61 44 62 58 64 79 65 46 66 30 67
REMARK SMILES IDX 31 68 39 69 32 70 38 71 40 72 37 73 33 74 34 75 35 76 36 77
REMARK SMILES IDX 62 78 63 79 71 80 64 81 70 82 72 83 69 84 65 85 66 86 67 87
REMARK SMILES IDX 68 88 47 89 48 90 56 91 49 92 55 93 57 94 54 95 50 96 51 97
REMARK SMILES IDX 52 98 53 99
REMARK H PARENT 8 13 94 20 92 25 77 52 45 63
REMARK Flexibility Score: inf
ROOT
ATOM      1  C   UNL A   1      34.299  31.769  28.049  1.00  0.00     0.202 C 
ENDROOT
BRANCH   1   2
ATOM      2  O   UNL A   1      33.806  30.534  27.538  1.00  0.00    -0.374 OA
BRANCH   2   3
ATOM      3  C   UNL A   1      32.554  30.524  26.846  1.00  0.00     0.202 C 
BRANCH   3   4
ATOM      4  C   UNL A   1      32.511  29.682  25.578  1.00  0.00     0.261 C 
BRANCH   4   5
ATOM      5  O   UNL A   1      32.283  28.291  25.883  1.00  0.00    -0.459 OA
BRANCH   5   6
ATOM      6  C   UNL A   1      33.347  27.474  25.695  1.00  0.00     0.356 C 
ATOM      7  O   UNL A   1      34.401  27.551  26.315  1.00  0.00    -0.244 OA
BRANCH   6   8
ATOM      8  C   UNL A   1      33.054  26.373  24.814  1.00  0.00     0.147 A 
ATOM      9  C   UNL A   1      32.854  24.991  24.880  1.00  0.00     0.013 A 
ATOM     10  C   UNL A   1      32.485  24.660  23.537  1.00  0.00     0.140 A 
ATOM     11  N   UNL A   1      32.504  25.694  22.705  1.00  0.00    -0.183 NA
ATOM     12  N   UNL A   1      32.857  26.707  23.495  1.00  0.00    -0.271 N 
ATOM     13  H   UNL A   1      32.968  27.626  23.160  1.00  0.00     0.190 HD
BRANCH   9  14
ATOM     14  C   UNL A   1      32.819  23.940  25.984  1.00  0.00     0.069 C 
ATOM     15  O   UNL A   1      29.359  23.821  27.320  1.00  0.00    -0.275 OA
ATOM     16  C   UNL A   1      30.420  23.405  26.859  1.00  0.00     0.226 C 
ATOM     17  C   UNL A   1      31.701  24.207  27.020  1.00  0.00     0.114 C 
ATOM     18  N   UNL A   1      30.498  22.152  26.300  1.00  0.00    -0.311 N 
ATOM     19  C   UNL A   1      31.650  21.759  25.690  1.00  0.00     0.132 A 
ATOM     20  H   UNL A   1      29.727  21.542  26.341  1.00  0.00     0.171 HD
ATOM     21  C   UNL A   1      32.773  22.525  25.549  1.00  0.00     0.031 A 
ATOM     22  N   UNL A   1      31.886  20.578  25.059  1.00  0.00    -0.262 N 
ATOM     23  C   UNL A   1      33.698  21.672  24.908  1.00  0.00     0.108 A 
ATOM     24  N   UNL A   1      33.132  20.511  24.538  1.00  0.00    -0.173 NA
ATOM     25  H   UNL A   1      31.223  19.854  24.990  1.00  0.00     0.192 HD
BRANCH  23  26
ATOM     26  C   UNL A   1      35.084  22.068  24.528  1.00  0.00     0.055 A 
ATOM     27  C   UNL A   1      35.404  22.689  23.342  1.00  0.00     0.022 A 
ATOM     28  S   UNL A   1      36.432  21.917  25.562  1.00  0.00    -0.142 S 
ATOM     29  C   UNL A   1      36.748  23.166  23.345  1.00  0.00     0.012 A 
ATOM     30  C   UNL A   1      37.434  22.763  24.468  1.00  0.00     0.065 A 
ENDBRANCH  23  26
ENDBRANCH   9  14
ENDBRANCH   6   8
ENDBRANCH   5   6
ENDBRANCH   4   5
ENDBRANCH   3   4
ENDBRANCH   2   3
ENDBRANCH   1   2
BRANCH   1  31
ATOM     31  C   UNL A   1      35.684  31.756  28.663  1.00  0.00     0.261 C 
BRANCH  31  32
ATOM     32  O   UNL A   1      36.282  30.485  28.526  1.00  0.00    -0.460 OA
BRANCH  32  33
ATOM     33  C   UNL A   1      36.683  29.917  29.693  1.00  0.00     0.338 C 
ATOM     34  O   UNL A   1      36.345  30.199  30.817  1.00  0.00    -0.246 OA
BRANCH  33  35
ATOM     35  C   UNL A   1      37.706  28.941  29.314  1.00  0.00     0.060 A 
ATOM     36  C   UNL A   1      38.173  28.028  30.257  1.00  0.00     0.016 A 
ATOM     37  C   UNL A   1      38.344  29.125  28.080  1.00  0.00     0.016 A 
ATOM     38  C   UNL A   1      39.427  27.490  30.048  1.00  0.00     0.010 A 
ATOM     39  C   UNL A   1      39.510  28.488  27.818  1.00  0.00     0.010 A 
ATOM     40  C   UNL A   1      40.111  27.847  28.880  1.00  0.00    -0.014 A 
BRANCH  40  41
ATOM     41  C   UNL A   1      41.516  27.597  28.700  1.00  0.00     0.031 A 
ATOM     42  C   UNL A   1      41.741  26.374  27.918  1.00  0.00     0.074 A 
ATOM     43  C   UNL A   1      42.437  28.535  29.008  1.00  0.00     0.049 A 
ATOM     44  N   UNL A   1      41.970  25.196  28.391  1.00  0.00    -0.248 NA
ATOM     45  C   UNL A   1      41.340  26.376  26.498  1.00  0.00     0.031 C 
ATOM     46  C   UNL A   1      42.250  29.914  29.482  1.00  0.00     0.029 A 
ATOM     47  N   UNL A   1      43.780  28.460  28.870  1.00  0.00    -0.354 N 
ATOM     48  C   UNL A   1      42.076  24.384  27.276  1.00  0.00     0.074 A 
ATOM     49  C   UNL A   1      41.358  25.068  26.238  1.00  0.00     0.031 C 
ATOM     50  C   UNL A   1      43.419  30.595  29.376  1.00  0.00     0.029 A 
ATOM     51  C   UNL A   1      44.465  29.669  28.981  1.00  0.00     0.049 A 
ATOM     52  H   UNL A   1      44.243  27.607  28.702  1.00  0.00     0.167 HD
ATOM     53  C   UNL A   1      43.032  23.418  27.218  1.00  0.00     0.034 A 
ATOM     54  C   UNL A   1      45.789  29.857  28.710  1.00  0.00     0.034 A 
ATOM     55  C   UNL A   1      43.621  23.221  28.531  1.00  0.00     0.049 A 
ATOM     56  C   UNL A   1      46.411  28.500  28.777  1.00  0.00     0.074 A 
ATOM     57  C   UNL A   1      43.117  22.855  29.765  1.00  0.00     0.029 A 
ATOM     58  N   UNL A   1      44.822  23.854  28.793  1.00  0.00    -0.354 N 
ATOM     59  N   UNL A   1      46.458  27.801  29.884  1.00  0.00    -0.248 NA
ATOM     60  C   UNL A   1      46.438  27.707  27.553  1.00  0.00     0.031 C 
ATOM     61  C   UNL A   1      43.770  23.714  30.698  1.00  0.00     0.029 A 
ATOM     62  C   UNL A   1      44.725  24.475  30.016  1.00  0.00     0.049 A 
ATOM     63  H   UNL A   1      45.612  23.858  28.205  1.00  0.00     0.167 HD
ATOM     64  C   UNL A   1      46.101  26.507  29.521  1.00  0.00     0.074 A 
ATOM     65  C   UNL A   1      46.166  26.496  28.057  1.00  0.00     0.031 C 
ATOM     66  C   UNL A   1      45.471  25.666  30.400  1.00  0.00     0.034 A 
BRANCH  53  67
ATOM     67  C   UNL A   1      43.720  22.956  25.954  1.00  0.00     0.023 A 
ATOM     68  C   UNL A   1      43.750  21.568  25.737  1.00  0.00     0.031 A 
ATOM     69  C   UNL A   1      44.548  23.725  25.104  1.00  0.00     0.131 A 
ATOM     70  C   UNL A   1      44.649  20.998  24.823  1.00  0.00     0.055 A 
ATOM     71  C   UNL A   1      45.399  23.156  24.153  1.00  0.00     0.041 A 
ATOM     72  F   UNL A   1      44.658  25.054  25.184  1.00  0.00    -0.206 F 
ATOM     73  C   UNL A   1      45.480  21.783  24.032  1.00  0.00     0.022 A 
BRANCH  70  74
ATOM     74  S   UNL A   1      44.831  19.201  24.825  1.00  0.00     0.124 S 
ATOM     75  O   UNL A   1      43.585  18.779  25.455  1.00  0.00    -0.237 OA
ATOM     76  O   UNL A   1      44.963  18.914  23.400  1.00  0.00    -0.237 OA
ATOM     77  O   UNL A   1      46.038  18.986  25.620  1.00  0.00    -0.744 OA
ENDBRANCH  70  74
ENDBRANCH  53  67
BRANCH  54  78
ATOM     78  C   UNL A   1      46.403  31.024  27.999  1.00  0.00     0.023 A 
ATOM     79  C   UNL A   1      45.717  31.842  27.069  1.00  0.00     0.031 A 
ATOM     80  C   UNL A   1      47.667  31.493  28.427  1.00  0.00     0.131 A 
ATOM     81  C   UNL A   1      46.301  33.053  26.607  1.00  0.00     0.055 A 
ATOM     82  C   UNL A   1      48.234  32.689  27.974  1.00  0.00     0.041 A 
ATOM     83  F   UNL A   1      48.364  30.839  29.368  1.00  0.00    -0.206 F 
ATOM     84  C   UNL A   1      47.550  33.479  27.066  1.00  0.00     0.022 A 
BRANCH  81  85
ATOM     85  S   UNL A   1      45.421  34.142  25.431  1.00  0.00     0.124 S 
ATOM     86  O   UNL A   1      44.719  35.062  26.319  1.00  0.00    -0.237 OA
ATOM     87  O   UNL A   1      46.514  34.704  24.645  1.00  0.00    -0.237 OA
ATOM     88  O   UNL A   1      44.551  33.223  24.694  1.00  0.00    -0.744 OA
ENDBRANCH  81  85
ENDBRANCH  54  78
BRANCH  66  89
ATOM     89  C   UNL A   1      45.386  26.072  31.864  1.00  0.00     0.023 A 
ATOM     90  C   UNL A   1      44.239  26.588  32.519  1.00  0.00     0.031 A 
ATOM     91  C   UNL A   1      46.501  25.762  32.663  1.00  0.00     0.131 A 
ATOM     92  C   UNL A   1      44.247  26.766  33.921  1.00  0.00     0.055 A 
ATOM     93  C   UNL A   1      46.495  25.916  34.048  1.00  0.00     0.041 A 
ATOM     94  F   UNL A   1      47.610  25.248  32.107  1.00  0.00    -0.206 F 
ATOM     95  C   UNL A   1      45.368  26.422  34.683  1.00  0.00     0.022 A 
BRANCH  92  96
ATOM     96  S   UNL A   1      42.802  27.462  34.795  1.00  0.00     0.124 S 
ATOM     97  O   UNL A   1      42.500  28.672  34.040  1.00  0.00    -0.237 OA
ATOM     98  O   UNL A   1      41.822  26.384  34.695  1.00  0.00    -0.237 OA
ATOM     99  O   UNL A   1      43.305  27.701  36.150  1.00  0.00    -0.744 OA
ENDBRANCH  92  96
ENDBRANCH  66  89
ENDBRANCH  40  41
ENDBRANCH  33  35
ENDBRANCH  32  33
ENDBRANCH  31  32
ENDBRANCH   1  31
TORSDOF 19
ENDMDL
