MODEL 1
REMARK VINA RESULT:     -11.6      0.000      0.000
REMARK SMILES O=C(OCCOCCOC(=O)[C@H]1CCCN1C(=O)CN1C(=O)[C@@H]2[C@H](C1=O)[C@H]1C=C[C@@H]2C1)c1ccc(-c2c3nc(c(-c4cc(S(=O)(=O)[O-])ccc4F)c4ccc([nH]4)c(-c4cc(S(=O)(=O)[O-])ccc4F)c4nc(c(-c5cc(S(=O)(=O)[O-])ccc5F)c5ccc2[nH]5)C=C4)C=C3)cc1
REMARK SMILES IDX 6 1 5 2 4 3 3 4 2 5 1 6 32 7 33 8 94 9 34 10 93 11 35 12
REMARK SMILES IDX 36 13 37 14 87 15 38 16 92 17 86 18 88 19 39 20 91 21 85 22
REMARK SMILES IDX 84 23 40 25 72 26 52 27 71 28 53 29 56 30 70 31 89 32 54 33
REMARK SMILES IDX 55 34 69 36 90 37 57 38 41 39 42 40 50 41 43 42 49 43 51 44
REMARK SMILES IDX 48 45 44 46 45 47 46 48 47 49 73 50 74 51 82 52 75 53 81 54
REMARK SMILES IDX 83 55 80 56 76 57 77 58 78 59 79 60 58 61 59 62 67 63 60 64
REMARK SMILES IDX 66 65 68 66 65 67 61 68 62 69 63 70 64 71 7 72 8 73 9 74
REMARK SMILES IDX 10 75 11 76 12 77 13 78 16 79 14 80 15 81 17 82 18 83 19 84
REMARK SMILES IDX 20 85 25 86 21 87 26 88 24 89 23 90 22 91 27 92 30 93 28 94
REMARK SMILES IDX 31 95 29 96
REMARK H PARENT 88 24 56 35
REMARK Flexibility Score: inf
ROOT
ATOM      1  O   UNL A   1      32.329  30.066  27.018  1.00  0.00    -0.374 OA
ENDROOT
BRANCH   1   2
ATOM      2  C   UNL A   1      31.656  31.085  26.262  1.00  0.00     0.202 C 
BRANCH   2   3
ATOM      3  C   UNL A   1      31.393  32.432  26.947  1.00  0.00     0.261 C 
BRANCH   3   4
ATOM      4  O   UNL A   1      32.574  33.242  26.961  1.00  0.00    -0.460 OA
BRANCH   4   5
ATOM      5  C   UNL A   1      33.289  33.546  28.075  1.00  0.00     0.338 C 
ATOM      6  O   UNL A   1      32.870  34.415  28.837  1.00  0.00    -0.246 OA
BRANCH   5   7
ATOM      7  C   UNL A   1      34.570  32.859  28.407  1.00  0.00     0.060 A 
ATOM      8  C   UNL A   1      34.673  31.537  28.841  1.00  0.00     0.016 A 
ATOM      9  C   UNL A   1      35.753  33.584  28.241  1.00  0.00     0.016 A 
ATOM     10  C   UNL A   1      35.852  30.954  29.181  1.00  0.00     0.010 A 
ATOM     11  C   UNL A   1      36.979  32.999  28.562  1.00  0.00     0.010 A 
ATOM     12  C   UNL A   1      37.008  31.690  29.057  1.00  0.00    -0.014 A 
BRANCH  12  13
ATOM     13  C   UNL A   1      38.142  31.087  29.745  1.00  0.00     0.031 A 
ATOM     14  C   UNL A   1      38.265  31.386  31.202  1.00  0.00     0.074 A 
ATOM     15  C   UNL A   1      38.803  30.089  29.134  1.00  0.00     0.049 A 
ATOM     16  N   UNL A   1      39.178  31.003  32.042  1.00  0.00    -0.248 NA
ATOM     17  C   UNL A   1      37.203  32.222  31.797  1.00  0.00     0.031 C 
ATOM     18  C   UNL A   1      38.512  29.579  27.785  1.00  0.00     0.029 A 
ATOM     19  N   UNL A   1      39.801  29.281  29.584  1.00  0.00    -0.354 N 
ATOM     20  C   UNL A   1      38.844  31.609  33.245  1.00  0.00     0.074 A 
ATOM     21  C   UNL A   1      37.643  32.381  33.032  1.00  0.00     0.031 C 
ATOM     22  C   UNL A   1      39.315  28.535  27.529  1.00  0.00     0.029 A 
ATOM     23  C   UNL A   1      40.234  28.379  28.644  1.00  0.00     0.049 A 
ATOM     24  H   UNL A   1      40.174  29.338  30.493  1.00  0.00     0.167 HD
ATOM     25  C   UNL A   1      39.518  31.527  34.412  1.00  0.00     0.034 A 
ATOM     26  C   UNL A   1      41.306  27.571  28.683  1.00  0.00     0.034 A 
ATOM     27  C   UNL A   1      40.710  30.732  34.538  1.00  0.00     0.049 A 
ATOM     28  C   UNL A   1      42.136  27.623  29.940  1.00  0.00     0.074 A 
ATOM     29  C   UNL A   1      41.556  30.606  35.620  1.00  0.00     0.029 A 
ATOM     30  N   UNL A   1      41.227  29.928  33.523  1.00  0.00    -0.354 N 
ATOM     31  N   UNL A   1      41.916  28.303  31.045  1.00  0.00    -0.248 NA
ATOM     32  C   UNL A   1      43.351  26.812  29.958  1.00  0.00     0.031 C 
ATOM     33  C   UNL A   1      42.634  29.809  35.225  1.00  0.00     0.029 A 
ATOM     34  C   UNL A   1      42.401  29.333  33.941  1.00  0.00     0.049 A 
ATOM     35  H   UNL A   1      40.815  29.803  32.638  1.00  0.00     0.167 HD
ATOM     36  C   UNL A   1      42.947  27.965  31.912  1.00  0.00     0.074 A 
ATOM     37  C   UNL A   1      43.778  27.013  31.195  1.00  0.00     0.031 C 
ATOM     38  C   UNL A   1      43.190  28.388  33.180  1.00  0.00     0.034 A 
BRANCH  25  39
ATOM     39  C   UNL A   1      39.058  32.422  35.530  1.00  0.00     0.023 A 
ATOM     40  C   UNL A   1      39.469  33.761  35.645  1.00  0.00     0.031 A 
ATOM     41  C   UNL A   1      38.289  31.876  36.574  1.00  0.00     0.131 A 
ATOM     42  C   UNL A   1      39.184  34.480  36.816  1.00  0.00     0.055 A 
ATOM     43  C   UNL A   1      37.925  32.627  37.690  1.00  0.00     0.041 A 
ATOM     44  F   UNL A   1      37.917  30.587  36.547  1.00  0.00    -0.206 F 
ATOM     45  C   UNL A   1      38.387  33.933  37.825  1.00  0.00     0.022 A 
BRANCH  42  46
ATOM     46  S   UNL A   1      40.031  36.061  37.091  1.00  0.00     0.124 S 
ATOM     47  O   UNL A   1      41.386  35.616  37.414  1.00  0.00    -0.237 OA
ATOM     48  O   UNL A   1      39.871  36.734  35.808  1.00  0.00    -0.237 OA
ATOM     49  O   UNL A   1      39.296  36.656  38.205  1.00  0.00    -0.744 OA
ENDBRANCH  42  46
ENDBRANCH  25  39
BRANCH  26  50
ATOM     50  C   UNL A   1      41.694  26.744  27.506  1.00  0.00     0.023 A 
ATOM     51  C   UNL A   1      41.480  25.359  27.496  1.00  0.00     0.031 A 
ATOM     52  C   UNL A   1      42.348  27.315  26.397  1.00  0.00     0.131 A 
ATOM     53  C   UNL A   1      41.973  24.584  26.435  1.00  0.00     0.055 A 
ATOM     54  C   UNL A   1      42.772  26.549  25.311  1.00  0.00     0.041 A 
ATOM     55  F   UNL A   1      42.588  28.636  26.351  1.00  0.00    -0.206 F 
ATOM     56  C   UNL A   1      42.602  25.170  25.335  1.00  0.00     0.022 A 
BRANCH  53  57
ATOM     57  S   UNL A   1      41.892  22.778  26.579  1.00  0.00     0.124 S 
ATOM     58  O   UNL A   1      42.413  22.358  25.283  1.00  0.00    -0.237 OA
ATOM     59  O   UNL A   1      42.755  22.527  27.729  1.00  0.00    -0.237 OA
ATOM     60  O   UNL A   1      40.471  22.519  26.797  1.00  0.00    -0.744 OA
ENDBRANCH  53  57
ENDBRANCH  26  50
BRANCH  38  61
ATOM     61  C   UNL A   1      44.353  27.749  33.889  1.00  0.00     0.023 A 
ATOM     62  C   UNL A   1      44.206  26.589  34.665  1.00  0.00     0.031 A 
ATOM     63  C   UNL A   1      45.631  28.329  33.789  1.00  0.00     0.131 A 
ATOM     64  C   UNL A   1      45.303  26.094  35.380  1.00  0.00     0.055 A 
ATOM     65  C   UNL A   1      46.738  27.774  34.424  1.00  0.00     0.041 A 
ATOM     66  F   UNL A   1      45.823  29.443  33.064  1.00  0.00    -0.206 F 
ATOM     67  C   UNL A   1      46.573  26.660  35.242  1.00  0.00     0.022 A 
BRANCH  64  68
ATOM     68  S   UNL A   1      45.012  24.797  36.609  1.00  0.00     0.124 S 
ATOM     69  O   UNL A   1      45.309  23.589  35.846  1.00  0.00    -0.237 OA
ATOM     70  O   UNL A   1      45.969  25.139  37.656  1.00  0.00    -0.237 OA
ATOM     71  O   UNL A   1      43.606  24.975  36.968  1.00  0.00    -0.744 OA
ENDBRANCH  64  68
ENDBRANCH  38  61
ENDBRANCH  12  13
ENDBRANCH   5   7
ENDBRANCH   4   5
ENDBRANCH   3   4
ENDBRANCH   2   3
ENDBRANCH   1   2
BRANCH   1  72
ATOM     72  C   UNL A   1      33.528  29.480  26.506  1.00  0.00     0.202 C 
BRANCH  72  73
ATOM     73  C   UNL A   1      33.405  27.982  26.241  1.00  0.00     0.261 C 
BRANCH  73  74
ATOM     74  O   UNL A   1      33.812  27.744  24.886  1.00  0.00    -0.462 OA
BRANCH  74  75
ATOM     75  C   UNL A   1      32.861  28.181  24.013  1.00  0.00     0.328 C 
ATOM     76  O   UNL A   1      33.107  29.042  23.207  1.00  0.00    -0.250 OA
BRANCH  75  77
ATOM     77  C   UNL A   1      31.466  27.552  24.174  1.00  0.00     0.195 C 
ATOM     78  C   UNL A   1      30.263  28.445  24.438  1.00  0.00     0.039 C 
ATOM     79  N   UNL A   1      31.230  27.046  22.853  1.00  0.00    -0.327 N 
ATOM     80  C   UNL A   1      30.069  29.142  23.107  1.00  0.00     0.024 C 
ATOM     81  C   UNL A   1      30.474  28.053  22.087  1.00  0.00     0.120 C 
BRANCH  79  82
ATOM     82  C   UNL A   1      31.890  25.937  22.343  1.00  0.00     0.243 C 
ATOM     83  O   UNL A   1      32.600  26.062  21.342  1.00  0.00    -0.273 OA
BRANCH  82  84
ATOM     84  C   UNL A   1      31.640  24.506  22.985  1.00  0.00     0.228 C 
BRANCH  84  85
ATOM     85  N   UNL A   1      32.646  23.756  23.770  1.00  0.00    -0.273 N 
ATOM     86  C   UNL A   1      32.864  23.944  25.117  1.00  0.00     0.234 C 
ATOM     87  C   UNL A   1      33.721  23.112  23.213  1.00  0.00     0.234 C 
ATOM     88  O   UNL A   1      32.171  24.629  25.857  1.00  0.00    -0.274 OA
ATOM     89  C   UNL A   1      34.156  23.261  25.567  1.00  0.00     0.099 C 
ATOM     90  C   UNL A   1      34.387  22.236  24.289  1.00  0.00     0.099 C 
ATOM     91  O   UNL A   1      34.159  23.288  22.082  1.00  0.00    -0.274 OA
ATOM     92  C   UNL A   1      35.618  24.191  25.532  1.00  0.00     0.025 C 
ATOM     93  C   UNL A   1      36.195  22.155  23.971  1.00  0.00     0.025 C 
ATOM     94  C   UNL A   1      37.142  23.637  25.978  1.00  0.00    -0.027 C 
ATOM     95  C   UNL A   1      35.949  23.621  24.177  1.00  0.00     0.017 C 
ATOM     96  C   UNL A   1      37.522  22.580  25.154  1.00  0.00    -0.027 C 
ENDBRANCH  84  85
ENDBRANCH  82  84
ENDBRANCH  79  82
ENDBRANCH  75  77
ENDBRANCH  74  75
ENDBRANCH  73  74
ENDBRANCH  72  73
ENDBRANCH   1  72
TORSDOF 20
ENDMDL
MODEL 2
REMARK VINA RESULT:     -11.3      4.587      7.924
REMARK SMILES O=C(OCCOCCOC(=O)[C@H]1CCCN1C(=O)CN1C(=O)[C@@H]2[C@H](C1=O)[C@H]1C=C[C@@H]2C1)c1ccc(-c2c3nc(c(-c4cc(S(=O)(=O)[O-])ccc4F)c4ccc([nH]4)c(-c4cc(S(=O)(=O)[O-])ccc4F)c4nc(c(-c5cc(S(=O)(=O)[O-])ccc5F)c5ccc2[nH]5)C=C4)C=C3)cc1
REMARK SMILES IDX 6 1 5 2 4 3 3 4 2 5 1 6 32 7 33 8 94 9 34 10 93 11 35 12
REMARK SMILES IDX 36 13 37 14 87 15 38 16 92 17 86 18 88 19 39 20 91 21 85 22
REMARK SMILES IDX 84 23 40 25 72 26 52 27 71 28 53 29 56 30 70 31 89 32 54 33
REMARK SMILES IDX 55 34 69 36 90 37 57 38 41 39 42 40 50 41 43 42 49 43 51 44
REMARK SMILES IDX 48 45 44 46 45 47 46 48 47 49 73 50 74 51 82 52 75 53 81 54
REMARK SMILES IDX 83 55 80 56 76 57 77 58 78 59 79 60 58 61 59 62 67 63 60 64
REMARK SMILES IDX 66 65 68 66 65 67 61 68 62 69 63 70 64 71 7 72 8 73 9 74
REMARK SMILES IDX 10 75 11 76 12 77 13 78 16 79 14 80 15 81 17 82 18 83 19 84
REMARK SMILES IDX 20 85 25 86 21 87 26 88 24 89 23 90 22 91 27 92 30 93 28 94
REMARK SMILES IDX 31 95 29 96
REMARK H PARENT 88 24 56 35
REMARK Flexibility Score: inf
ROOT
ATOM      1  O   UNL A   1      34.685  20.294  24.606  1.00  0.00    -0.374 OA
ENDROOT
BRANCH   1   2
ATOM      2  C   UNL A   1      35.925  19.686  25.001  1.00  0.00     0.202 C 
BRANCH   2   3
ATOM      3  C   UNL A   1      37.227  20.403  24.626  1.00  0.00     0.261 C 
BRANCH   3   4
ATOM      4  O   UNL A   1      37.654  21.280  25.675  1.00  0.00    -0.460 OA
BRANCH   4   5
ATOM      5  C   UNL A   1      38.940  21.425  26.087  1.00  0.00     0.338 C 
ATOM      6  O   UNL A   1      39.701  20.461  26.026  1.00  0.00    -0.246 OA
BRANCH   5   7
ATOM      7  C   UNL A   1      39.463  22.719  26.610  1.00  0.00     0.060 A 
ATOM      8  C   UNL A   1      39.050  23.978  26.174  1.00  0.00     0.016 A 
ATOM      9  C   UNL A   1      40.413  22.663  27.634  1.00  0.00     0.016 A 
ATOM     10  C   UNL A   1      39.580  25.139  26.640  1.00  0.00     0.010 A 
ATOM     11  C   UNL A   1      40.957  23.844  28.144  1.00  0.00     0.010 A 
ATOM     12  C   UNL A   1      40.548  25.074  27.616  1.00  0.00    -0.014 A 
BRANCH  12  13
ATOM     13  C   UNL A   1      41.259  26.333  27.795  1.00  0.00     0.031 A 
ATOM     14  C   UNL A   1      40.597  27.347  28.666  1.00  0.00     0.074 A 
ATOM     15  C   UNL A   1      42.555  26.390  27.443  1.00  0.00     0.049 A 
ATOM     16  N   UNL A   1      40.992  28.545  28.974  1.00  0.00    -0.248 NA
ATOM     17  C   UNL A   1      39.317  26.951  29.286  1.00  0.00     0.031 C 
ATOM     18  C   UNL A   1      43.318  25.291  26.831  1.00  0.00     0.029 A 
ATOM     19  N   UNL A   1      43.475  27.379  27.608  1.00  0.00    -0.354 N 
ATOM     20  C   UNL A   1      39.978  29.072  29.763  1.00  0.00     0.074 A 
ATOM     21  C   UNL A   1      38.952  28.066  29.892  1.00  0.00     0.031 C 
ATOM     22  C   UNL A   1      44.595  25.674  26.685  1.00  0.00     0.029 A 
ATOM     23  C   UNL A   1      44.708  27.065  27.091  1.00  0.00     0.049 A 
ATOM     24  H   UNL A   1      43.277  28.234  28.055  1.00  0.00     0.167 HD
ATOM     25  C   UNL A   1      39.927  30.309  30.302  1.00  0.00     0.034 A 
ATOM     26  C   UNL A   1      45.776  27.860  26.917  1.00  0.00     0.034 A 
ATOM     27  C   UNL A   1      40.997  31.253  30.124  1.00  0.00     0.049 A 
ATOM     28  C   UNL A   1      45.630  29.285  27.383  1.00  0.00     0.074 A 
ATOM     29  C   UNL A   1      41.068  32.568  30.531  1.00  0.00     0.029 A 
ATOM     30  N   UNL A   1      42.193  30.967  29.466  1.00  0.00    -0.354 N 
ATOM     31  N   UNL A   1      44.618  29.849  28.007  1.00  0.00    -0.248 NA
ATOM     32  C   UNL A   1      46.755  30.180  27.120  1.00  0.00     0.031 C 
ATOM     33  C   UNL A   1      42.259  33.104  30.032  1.00  0.00     0.029 A 
ATOM     34  C   UNL A   1      42.991  32.092  29.422  1.00  0.00     0.049 A 
ATOM     35  H   UNL A   1      42.432  30.090  29.087  1.00  0.00     0.167 HD
ATOM     36  C   UNL A   1      45.005  31.160  28.254  1.00  0.00     0.074 A 
ATOM     37  C   UNL A   1      46.347  31.290  27.715  1.00  0.00     0.031 C 
ATOM     38  C   UNL A   1      44.327  32.164  28.871  1.00  0.00     0.034 A 
BRANCH  25  39
ATOM     39  C   UNL A   1      38.639  30.711  30.966  1.00  0.00     0.023 A 
ATOM     40  C   UNL A   1      37.608  31.375  30.279  1.00  0.00     0.031 A 
ATOM     41  C   UNL A   1      38.497  30.532  32.354  1.00  0.00     0.131 A 
ATOM     42  C   UNL A   1      36.528  31.914  30.995  1.00  0.00     0.055 A 
ATOM     43  C   UNL A   1      37.373  30.983  33.044  1.00  0.00     0.041 A 
ATOM     44  F   UNL A   1      39.474  29.956  33.072  1.00  0.00    -0.206 F 
ATOM     45  C   UNL A   1      36.386  31.693  32.367  1.00  0.00     0.022 A 
BRANCH  42  46
ATOM     46  S   UNL A   1      35.417  33.071  30.146  1.00  0.00     0.124 S 
ATOM     47  O   UNL A   1      36.358  33.842  29.336  1.00  0.00    -0.237 OA
ATOM     48  O   UNL A   1      34.529  32.177  29.413  1.00  0.00    -0.237 OA
ATOM     49  O   UNL A   1      34.793  33.814  31.239  1.00  0.00    -0.744 OA
ENDBRANCH  42  46
ENDBRANCH  25  39
BRANCH  26  50
ATOM     50  C   UNL A   1      46.997  27.371  26.218  1.00  0.00     0.023 A 
ATOM     51  C   UNL A   1      48.028  26.736  26.924  1.00  0.00     0.031 A 
ATOM     52  C   UNL A   1      47.186  27.591  24.839  1.00  0.00     0.131 A 
ATOM     53  C   UNL A   1      49.224  26.405  26.268  1.00  0.00     0.055 A 
ATOM     54  C   UNL A   1      48.348  27.196  24.177  1.00  0.00     0.041 A 
ATOM     55  F   UNL A   1      46.237  28.202  24.109  1.00  0.00    -0.206 F 
ATOM     56  C   UNL A   1      49.385  26.614  24.897  1.00  0.00     0.022 A 
BRANCH  53  57
ATOM     57  S   UNL A   1      50.617  25.813  27.266  1.00  0.00     0.124 S 
ATOM     58  O   UNL A   1      51.719  25.910  26.316  1.00  0.00    -0.237 OA
ATOM     59  O   UNL A   1      50.631  26.772  28.365  1.00  0.00    -0.237 OA
ATOM     60  O   UNL A   1      50.220  24.454  27.629  1.00  0.00    -0.744 OA
ENDBRANCH  53  57
ENDBRANCH  26  50
BRANCH  38  61
ATOM     61  C   UNL A   1      45.074  33.455  29.065  1.00  0.00     0.023 A 
ATOM     62  C   UNL A   1      45.197  34.405  28.040  1.00  0.00     0.031 A 
ATOM     63  C   UNL A   1      45.685  33.725  30.304  1.00  0.00     0.131 A 
ATOM     64  C   UNL A   1      45.986  35.543  28.245  1.00  0.00     0.055 A 
ATOM     65  C   UNL A   1      46.385  34.906  30.532  1.00  0.00     0.041 A 
ATOM     66  F   UNL A   1      45.602  32.845  31.315  1.00  0.00    -0.206 F 
ATOM     67  C   UNL A   1      46.555  35.815  29.491  1.00  0.00     0.022 A 
BRANCH  64  68
ATOM     68  S   UNL A   1      46.381  36.583  26.816  1.00  0.00     0.124 S 
ATOM     69  O   UNL A   1      46.227  35.644  25.710  1.00  0.00    -0.237 OA
ATOM     70  O   UNL A   1      45.371  37.632  26.905  1.00  0.00    -0.237 OA
ATOM     71  O   UNL A   1      47.752  37.016  27.078  1.00  0.00    -0.744 OA
ENDBRANCH  64  68
ENDBRANCH  38  61
ENDBRANCH  12  13
ENDBRANCH   5   7
ENDBRANCH   4   5
ENDBRANCH   3   4
ENDBRANCH   2   3
ENDBRANCH   1   2
BRANCH   1  72
ATOM     72  C   UNL A   1      33.460  19.851  25.196  1.00  0.00     0.202 C 
BRANCH  72  73
ATOM     73  C   UNL A   1      32.269  20.744  24.862  1.00  0.00     0.261 C 
BRANCH  73  74
ATOM     74  O   UNL A   1      32.547  22.055  25.378  1.00  0.00    -0.462 OA
BRANCH  74  75
ATOM     75  C   UNL A   1      32.234  23.011  24.459  1.00  0.00     0.328 C 
ATOM     76  O   UNL A   1      31.462  22.782  23.564  1.00  0.00    -0.250 OA
BRANCH  75  77
ATOM     77  C   UNL A   1      32.973  24.353  24.612  1.00  0.00     0.195 C 
ATOM     78  C   UNL A   1      34.083  24.488  25.643  1.00  0.00     0.039 C 
ATOM     79  N   UNL A   1      33.662  24.440  23.357  1.00  0.00    -0.327 N 
ATOM     80  C   UNL A   1      35.199  23.658  25.041  1.00  0.00     0.024 C 
ATOM     81  C   UNL A   1      35.022  23.894  23.523  1.00  0.00     0.120 C 
BRANCH  79  82
ATOM     82  C   UNL A   1      33.014  24.704  22.159  1.00  0.00     0.243 C 
ATOM     83  O   UNL A   1      33.271  24.019  21.166  1.00  0.00    -0.273 OA
BRANCH  82  84
ATOM     84  C   UNL A   1      32.033  25.949  22.053  1.00  0.00     0.228 C 
BRANCH  84  85
ATOM     85  N   UNL A   1      32.187  27.202  22.825  1.00  0.00    -0.273 N 
ATOM     86  C   UNL A   1      33.330  27.971  22.818  1.00  0.00     0.234 C 
ATOM     87  C   UNL A   1      31.418  27.528  23.912  1.00  0.00     0.234 C 
ATOM     88  O   UNL A   1      34.290  27.805  22.076  1.00  0.00    -0.274 OA
ATOM     89  C   UNL A   1      33.300  29.014  23.936  1.00  0.00     0.099 C 
ATOM     90  C   UNL A   1      31.684  28.997  24.287  1.00  0.00     0.099 C 
ATOM     91  O   UNL A   1      30.722  26.754  24.559  1.00  0.00    -0.274 OA
ATOM     92  C   UNL A   1      33.990  28.581  25.465  1.00  0.00     0.025 C 
ATOM     93  C   UNL A   1      31.515  29.199  26.105  1.00  0.00     0.025 C 
ATOM     94  C   UNL A   1      34.058  29.572  26.823  1.00  0.00    -0.027 C 
ATOM     95  C   UNL A   1      32.625  28.197  25.973  1.00  0.00     0.017 C 
ATOM     96  C   UNL A   1      32.769  29.899  27.237  1.00  0.00    -0.027 C 
ENDBRANCH  84  85
ENDBRANCH  82  84
ENDBRANCH  79  82
ENDBRANCH  75  77
ENDBRANCH  74  75
ENDBRANCH  73  74
ENDBRANCH  72  73
ENDBRANCH   1  72
TORSDOF 20
ENDMDL
MODEL 3
REMARK VINA RESULT:     -11.2      1.530      1.816
REMARK SMILES O=C(OCCOCCOC(=O)[C@H]1CCCN1C(=O)CN1C(=O)[C@@H]2[C@H](C1=O)[C@H]1C=C[C@@H]2C1)c1ccc(-c2c3nc(c(-c4cc(S(=O)(=O)[O-])ccc4F)c4ccc([nH]4)c(-c4cc(S(=O)(=O)[O-])ccc4F)c4nc(c(-c5cc(S(=O)(=O)[O-])ccc5F)c5ccc2[nH]5)C=C4)C=C3)cc1
REMARK SMILES IDX 6 1 5 2 4 3 3 4 2 5 1 6 32 7 33 8 94 9 34 10 93 11 35 12
REMARK SMILES IDX 36 13 37 14 87 15 38 16 92 17 86 18 88 19 39 20 91 21 85 22
REMARK SMILES IDX 84 23 40 25 72 26 52 27 71 28 53 29 56 30 70 31 89 32 54 33
REMARK SMILES IDX 55 34 69 36 90 37 57 38 41 39 42 40 50 41 43 42 49 43 51 44
REMARK SMILES IDX 48 45 44 46 45 47 46 48 47 49 73 50 74 51 82 52 75 53 81 54
REMARK SMILES IDX 83 55 80 56 76 57 77 58 78 59 79 60 58 61 59 62 67 63 60 64
REMARK SMILES IDX 66 65 68 66 65 67 61 68 62 69 63 70 64 71 7 72 8 73 9 74
REMARK SMILES IDX 10 75 11 76 12 77 13 78 16 79 14 80 15 81 17 82 18 83 19 84
REMARK SMILES IDX 20 85 25 86 21 87 26 88 24 89 23 90 22 91 27 92 30 93 28 94
REMARK SMILES IDX 31 95 29 96
REMARK H PARENT 88 24 56 35
REMARK Flexibility Score: inf
ROOT
ATOM      1  O   UNL A   1      32.918  30.422  27.254  1.00  0.00    -0.374 OA
ENDROOT
BRANCH   1   2
ATOM      2  C   UNL A   1      32.157  31.398  26.525  1.00  0.00     0.202 C 
BRANCH   2   3
ATOM      3  C   UNL A   1      31.769  32.693  27.248  1.00  0.00     0.261 C 
BRANCH   3   4
ATOM      4  O   UNL A   1      32.883  33.588  27.336  1.00  0.00    -0.460 OA
BRANCH   4   5
ATOM      5  C   UNL A   1      33.623  33.795  28.457  1.00  0.00     0.338 C 
ATOM      6  O   UNL A   1      33.270  34.660  29.256  1.00  0.00    -0.246 OA
BRANCH   5   7
ATOM      7  C   UNL A   1      34.853  33.006  28.752  1.00  0.00     0.060 A 
ATOM      8  C   UNL A   1      34.860  31.715  29.281  1.00  0.00     0.016 A 
ATOM      9  C   UNL A   1      36.084  33.592  28.446  1.00  0.00     0.016 A 
ATOM     10  C   UNL A   1      36.000  31.040  29.582  1.00  0.00     0.010 A 
ATOM     11  C   UNL A   1      37.269  32.908  28.726  1.00  0.00     0.010 A 
ATOM     12  C   UNL A   1      37.209  31.643  29.320  1.00  0.00    -0.014 A 
BRANCH  12  13
ATOM     13  C   UNL A   1      38.329  30.977  29.973  1.00  0.00     0.031 A 
ATOM     14  C   UNL A   1      38.451  31.183  31.445  1.00  0.00     0.074 A 
ATOM     15  C   UNL A   1      38.974  30.008  29.303  1.00  0.00     0.049 A 
ATOM     16  N   UNL A   1      39.355  30.733  32.263  1.00  0.00    -0.248 NA
ATOM     17  C   UNL A   1      37.403  32.000  32.088  1.00  0.00     0.031 C 
ATOM     18  C   UNL A   1      38.679  29.587  27.924  1.00  0.00     0.029 A 
ATOM     19  N   UNL A   1      39.956  29.155  29.705  1.00  0.00    -0.354 N 
ATOM     20  C   UNL A   1      39.026  31.269  33.500  1.00  0.00     0.074 A 
ATOM     21  C   UNL A   1      37.841  32.074  33.332  1.00  0.00     0.031 C 
ATOM     22  C   UNL A   1      39.465  28.547  27.606  1.00  0.00     0.029 A 
ATOM     23  C   UNL A   1      40.377  28.305  28.712  1.00  0.00     0.049 A 
ATOM     24  H   UNL A   1      40.327  29.148  30.617  1.00  0.00     0.167 HD
ATOM     25  C   UNL A   1      39.695  31.102  34.661  1.00  0.00     0.034 A 
ATOM     26  C   UNL A   1      41.434  27.477  28.704  1.00  0.00     0.034 A 
ATOM     27  C   UNL A   1      40.871  30.280  34.742  1.00  0.00     0.049 A 
ATOM     28  C   UNL A   1      42.259  27.435  29.964  1.00  0.00     0.074 A 
ATOM     29  C   UNL A   1      41.710  30.072  35.816  1.00  0.00     0.029 A 
ATOM     30  N   UNL A   1      41.377  29.531  33.680  1.00  0.00    -0.354 N 
ATOM     31  N   UNL A   1      42.047  28.050  31.108  1.00  0.00    -0.248 NA
ATOM     32  C   UNL A   1      43.460  26.603  29.935  1.00  0.00     0.031 C 
ATOM     33  C   UNL A   1      42.775  29.280  35.376  1.00  0.00     0.029 A 
ATOM     34  C   UNL A   1      42.539  28.889  34.064  1.00  0.00     0.049 A 
ATOM     35  H   UNL A   1      40.967  29.468  32.789  1.00  0.00     0.167 HD
ATOM     36  C   UNL A   1      43.069  27.640  31.956  1.00  0.00     0.074 A 
ATOM     37  C   UNL A   1      43.885  26.719  31.183  1.00  0.00     0.031 C 
ATOM     38  C   UNL A   1      43.313  27.979  33.249  1.00  0.00     0.034 A 
BRANCH  25  39
ATOM     39  C   UNL A   1      39.246  31.935  35.832  1.00  0.00     0.023 A 
ATOM     40  C   UNL A   1      38.555  31.389  36.927  1.00  0.00     0.031 A 
ATOM     41  C   UNL A   1      39.408  33.331  35.783  1.00  0.00     0.131 A 
ATOM     42  C   UNL A   1      37.976  32.241  37.881  1.00  0.00     0.055 A 
ATOM     43  C   UNL A   1      38.916  34.165  36.786  1.00  0.00     0.041 A 
ATOM     44  F   UNL A   1      40.008  33.914  34.734  1.00  0.00    -0.206 F 
ATOM     45  C   UNL A   1      38.180  33.623  37.836  1.00  0.00     0.022 A 
BRANCH  42  46
ATOM     46  S   UNL A   1      36.792  31.541  39.064  1.00  0.00     0.124 S 
ATOM     47  O   UNL A   1      36.455  30.270  38.425  1.00  0.00    -0.237 OA
ATOM     48  O   UNL A   1      37.582  31.448  40.286  1.00  0.00    -0.237 OA
ATOM     49  O   UNL A   1      35.711  32.523  39.092  1.00  0.00    -0.744 OA
ENDBRANCH  42  46
ENDBRANCH  25  39
BRANCH  26  50
ATOM     50  C   UNL A   1      41.811  26.717  27.479  1.00  0.00     0.023 A 
ATOM     51  C   UNL A   1      41.556  25.344  27.375  1.00  0.00     0.031 A 
ATOM     52  C   UNL A   1      42.495  27.339  26.417  1.00  0.00     0.131 A 
ATOM     53  C   UNL A   1      42.039  24.624  26.270  1.00  0.00     0.055 A 
ATOM     54  C   UNL A   1      42.911  26.634  25.287  1.00  0.00     0.041 A 
ATOM     55  F   UNL A   1      42.775  28.653  26.461  1.00  0.00    -0.206 F 
ATOM     56  C   UNL A   1      42.699  25.262  25.218  1.00  0.00     0.022 A 
BRANCH  53  57
ATOM     57  S   UNL A   1      41.903  22.817  26.295  1.00  0.00     0.124 S 
ATOM     58  O   UNL A   1      42.629  22.485  27.515  1.00  0.00    -0.237 OA
ATOM     59  O   UNL A   1      40.457  22.622  26.336  1.00  0.00    -0.237 OA
ATOM     60  O   UNL A   1      42.552  22.411  25.050  1.00  0.00    -0.744 OA
ENDBRANCH  53  57
ENDBRANCH  26  50
BRANCH  38  61
ATOM     61  C   UNL A   1      44.462  27.276  33.919  1.00  0.00     0.023 A 
ATOM     62  C   UNL A   1      44.291  26.073  34.622  1.00  0.00     0.031 A 
ATOM     63  C   UNL A   1      45.751  27.838  33.859  1.00  0.00     0.131 A 
ATOM     64  C   UNL A   1      45.376  25.515  35.308  1.00  0.00     0.055 A 
ATOM     65  C   UNL A   1      46.845  27.224  34.462  1.00  0.00     0.041 A 
ATOM     66  F   UNL A   1      45.966  28.992  33.205  1.00  0.00    -0.206 F 
ATOM     67  C   UNL A   1      46.656  26.065  35.209  1.00  0.00     0.022 A 
BRANCH  64  68
ATOM     68  S   UNL A   1      45.057  24.149  36.453  1.00  0.00     0.124 S 
ATOM     69  O   UNL A   1      44.402  23.176  35.584  1.00  0.00    -0.237 OA
ATOM     70  O   UNL A   1      46.400  23.799  36.903  1.00  0.00    -0.237 OA
ATOM     71  O   UNL A   1      44.197  24.751  37.470  1.00  0.00    -0.744 OA
ENDBRANCH  64  68
ENDBRANCH  38  61
ENDBRANCH  12  13
ENDBRANCH   5   7
ENDBRANCH   4   5
ENDBRANCH   3   4
ENDBRANCH   2   3
ENDBRANCH   1   2
BRANCH   1  72
ATOM     72  C   UNL A   1      33.917  29.654  26.578  1.00  0.00     0.202 C 
BRANCH  72  73
ATOM     73  C   UNL A   1      33.338  28.553  25.695  1.00  0.00     0.261 C 
BRANCH  73  74
ATOM     74  O   UNL A   1      33.571  28.922  24.327  1.00  0.00    -0.462 OA
BRANCH  74  75
ATOM     75  C   UNL A   1      32.498  28.601  23.552  1.00  0.00     0.328 C 
ATOM     76  O   UNL A   1      32.639  28.283  22.398  1.00  0.00    -0.250 OA
BRANCH  75  77
ATOM     77  C   UNL A   1      31.121  28.734  24.226  1.00  0.00     0.195 C 
ATOM     78  C   UNL A   1      30.180  29.851  23.802  1.00  0.00     0.039 C 
ATOM     79  N   UNL A   1      30.465  27.544  23.768  1.00  0.00    -0.327 N 
ATOM     80  C   UNL A   1      29.738  29.406  22.422  1.00  0.00     0.024 C 
ATOM     81  C   UNL A   1      29.688  27.867  22.558  1.00  0.00     0.120 C 
BRANCH  79  82
ATOM     82  C   UNL A   1      30.793  26.278  24.232  1.00  0.00     0.243 C 
ATOM     83  O   UNL A   1      30.930  26.094  25.444  1.00  0.00    -0.273 OA
BRANCH  82  84
ATOM     84  C   UNL A   1      31.094  25.112  23.196  1.00  0.00     0.228 C 
BRANCH  84  85
ATOM     85  N   UNL A   1      32.167  24.106  23.360  1.00  0.00    -0.273 N 
ATOM     86  C   UNL A   1      32.169  23.141  24.342  1.00  0.00     0.234 C 
ATOM     87  C   UNL A   1      33.432  24.252  22.853  1.00  0.00     0.234 C 
ATOM     88  O   UNL A   1      31.237  22.896  25.096  1.00  0.00    -0.274 OA
ATOM     89  C   UNL A   1      33.536  22.464  24.447  1.00  0.00     0.099 C 
ATOM     90  C   UNL A   1      34.180  22.915  22.992  1.00  0.00     0.099 C 
ATOM     91  O   UNL A   1      33.935  25.299  22.461  1.00  0.00    -0.274 OA
ATOM     92  C   UNL A   1      34.688  23.133  25.556  1.00  0.00     0.025 C 
ATOM     93  C   UNL A   1      35.968  23.244  23.261  1.00  0.00     0.025 C 
ATOM     94  C   UNL A   1      36.243  22.549  25.823  1.00  0.00    -0.027 C 
ATOM     95  C   UNL A   1      35.314  23.918  24.433  1.00  0.00     0.017 C 
ATOM     96  C   UNL A   1      36.986  22.623  24.646  1.00  0.00    -0.027 C 
ENDBRANCH  84  85
ENDBRANCH  82  84
ENDBRANCH  79  82
ENDBRANCH  75  77
ENDBRANCH  74  75
ENDBRANCH  73  74
ENDBRANCH  72  73
ENDBRANCH   1  72
TORSDOF 20
ENDMDL
