MODEL 1
REMARK VINA RESULT:     -10.9      0.000      0.000
REMARK SMILES O=C(Nc1ccc(N2CC[NH+](CC(=O)N3CCOCC3)CC2)c(C(=O)OCCOCCOC(=O)c2ccc(-c3c4nc(c(-c5cc(S(=O)(=O)[O-])ccc5F)c5ccc([nH]5)c(-c5cc(S(=O)(=O)[O-])ccc5F)c5nc(c(-c6cc(S(=O)(=O)[O-])ccc6F)c6ccc3[nH]6)C=C5)C=C4)cc2)c1)c1cccc(Cl)c1
REMARK SMILES IDX 29 1 28 2 27 3 26 4 24 5 25 6 23 7 4 8 5 9 98 10 6 11 7 12
REMARK SMILES IDX 3 13 1 14 2 15 99 17 100 18 105 19 101 20 103 21 102 22
REMARK SMILES IDX 104 23 8 24 9 25 22 26 10 27 21 28 11 29 12 31 13 32 14 33
REMARK SMILES IDX 15 34 16 35 20 36 17 37 19 38 18 39 30 40 31 41 32 42 33 43
REMARK SMILES IDX 34 44 35 45 36 46 97 47 37 48 96 49 38 50 39 51 40 52 90 53
REMARK SMILES IDX 41 54 95 55 89 56 91 57 42 58 94 59 88 60 87 61 43 63 75 64
REMARK SMILES IDX 55 65 74 66 56 67 59 68 73 69 92 70 57 71 58 72 72 74 93 75
REMARK SMILES IDX 60 76 44 77 45 78 53 79 46 80 52 81 54 82 51 83 47 84 48 85
REMARK SMILES IDX 49 86 50 87 76 88 77 89 85 90 78 91 84 92 86 93 83 94 79 95
REMARK SMILES IDX 80 96 81 97 82 98 61 99 62 100 70 101 63 102 69 103 71 104
REMARK SMILES IDX 68 105 64 106 65 107 66 108 67 109
REMARK H PARENT 3 16 11 30 91 62 59 73
REMARK Flexibility Score: inf
ROOT
ATOM      1  O   UNL A   1      42.001  38.861  28.418  1.00  0.00    -0.374 OA
ENDROOT
BRANCH   1   2
ATOM      2  C   UNL A   1      41.824  39.106  27.012  1.00  0.00     0.202 C 
BRANCH   2   3
ATOM      3  C   UNL A   1      41.976  40.581  26.638  1.00  0.00     0.261 C 
BRANCH   3   4
ATOM      4  O   UNL A   1      43.327  40.780  26.200  1.00  0.00    -0.460 OA
BRANCH   4   5
ATOM      5  C   UNL A   1      43.504  41.725  25.243  1.00  0.00     0.340 C 
ATOM      6  O   UNL A   1      42.700  42.061  24.403  1.00  0.00    -0.246 OA
BRANCH   5   7
ATOM      7  C   UNL A   1      44.820  42.372  25.511  1.00  0.00     0.085 A 
ATOM      8  C   UNL A   1      46.581  42.664  27.141  1.00  0.00     0.042 A 
ATOM      9  C   UNL A   1      47.396  43.198  26.148  1.00  0.00     0.028 A 
ATOM     10  C   UNL A   1      45.257  42.381  26.837  1.00  0.00     0.044 A 
ATOM     11  C   UNL A   1      46.918  43.305  24.829  1.00  0.00     0.029 A 
ATOM     12  C   UNL A   1      45.626  42.881  24.471  1.00  0.00     0.052 A 
BRANCH   8  13
ATOM     13  N   UNL A   1      47.137  42.328  28.390  1.00  0.00    -0.322 N 
ATOM     14  O   UNL A   1      48.028  40.921  29.945  1.00  0.00    -0.269 OA
ATOM     15  C   UNL A   1      47.712  41.122  28.776  1.00  0.00     0.255 C 
ATOM     16  H   UNL A   1      47.115  43.035  29.075  1.00  0.00     0.170 HD
BRANCH  15  17
ATOM     17  C   UNL A   1      48.016  40.087  27.749  1.00  0.00     0.041 A 
ATOM     18  C   UNL A   1      46.977  39.501  27.005  1.00  0.00     0.014 A 
ATOM     19  C   UNL A   1      49.316  39.581  27.671  1.00  0.00     0.034 A 
ATOM     20  C   UNL A   1      47.216  38.333  26.281  1.00  0.00     0.002 A 
ATOM     21  C   UNL A   1      49.544  38.420  26.932  1.00  0.00     0.041 A 
ATOM     22  C   UNL A   1      48.498  37.783  26.260  1.00  0.00     0.020 A 
ATOM     23  Cl  UNL A   1      51.111  37.712  26.920  1.00  0.00    -0.084 Cl
ENDBRANCH  15  17
ENDBRANCH   8  13
BRANCH  12  24
ATOM     24  N   UNL A   1      45.129  43.050  23.179  1.00  0.00    -0.360 N 
ATOM     25  C   UNL A   1      45.730  42.414  21.995  1.00  0.00     0.178 C 
ATOM     26  C   UNL A   1      44.576  44.383  22.923  1.00  0.00     0.178 C 
ATOM     27  C   UNL A   1      44.834  42.590  20.728  1.00  0.00     0.284 C 
ATOM     28  C   UNL A   1      43.594  44.382  21.757  1.00  0.00     0.284 C 
ATOM     29  N   UNL A   1      44.181  43.897  20.511  1.00  0.00    -0.324 N 
ATOM     30  H   UNL A   1      43.428  43.706  19.851  1.00  0.00     0.348 HD
BRANCH  29  31
ATOM     31  C   UNL A   1      44.911  44.908  19.733  1.00  0.00     0.363 C 
BRANCH  31  32
ATOM     32  C   UNL A   1      44.347  45.312  18.364  1.00  0.00     0.277 C 
ATOM     33  O   UNL A   1      44.123  44.445  17.511  1.00  0.00    -0.268 OA
ATOM     34  N   UNL A   1      43.977  46.641  18.149  1.00  0.00    -0.333 N 
ATOM     35  C   UNL A   1      44.677  47.808  18.697  1.00  0.00     0.148 C 
ATOM     36  C   UNL A   1      43.168  46.942  16.965  1.00  0.00     0.148 C 
ATOM     37  C   UNL A   1      43.818  49.071  18.772  1.00  0.00     0.181 C 
ATOM     38  C   UNL A   1      42.343  48.218  17.151  1.00  0.00     0.181 C 
ATOM     39  O   UNL A   1      43.178  49.325  17.514  1.00  0.00    -0.378 OA
ENDBRANCH  31  32
ENDBRANCH  29  31
ENDBRANCH  12  24
ENDBRANCH   5   7
ENDBRANCH   4   5
ENDBRANCH   3   4
ENDBRANCH   2   3
ENDBRANCH   1   2
BRANCH   1  40
ATOM     40  C   UNL A   1      42.705  37.660  28.746  1.00  0.00     0.202 C 
BRANCH  40  41
ATOM     41  C   UNL A   1      43.938  37.848  29.627  1.00  0.00     0.261 C 
BRANCH  41  42
ATOM     42  O   UNL A   1      45.116  37.521  28.888  1.00  0.00    -0.460 OA
BRANCH  42  43
ATOM     43  C   UNL A   1      45.995  36.743  29.564  1.00  0.00     0.338 C 
ATOM     44  O   UNL A   1      46.792  37.104  30.412  1.00  0.00    -0.246 OA
BRANCH  43  45
ATOM     45  C   UNL A   1      45.689  35.330  29.270  1.00  0.00     0.060 A 
ATOM     46  C   UNL A   1      45.208  35.035  27.988  1.00  0.00     0.016 A 
ATOM     47  C   UNL A   1      45.891  34.312  30.210  1.00  0.00     0.016 A 
ATOM     48  C   UNL A   1      44.870  33.729  27.660  1.00  0.00     0.010 A 
ATOM     49  C   UNL A   1      45.547  33.003  29.881  1.00  0.00     0.010 A 
ATOM     50  C   UNL A   1      44.997  32.719  28.620  1.00  0.00    -0.014 A 
BRANCH  50  51
ATOM     51  C   UNL A   1      44.350  31.413  28.373  1.00  0.00     0.031 A 
ATOM     52  C   UNL A   1      45.080  30.422  27.510  1.00  0.00     0.074 A 
ATOM     53  C   UNL A   1      43.169  31.115  28.937  1.00  0.00     0.049 A 
ATOM     54  N   UNL A   1      44.722  29.225  27.134  1.00  0.00    -0.248 NA
ATOM     55  C   UNL A   1      46.396  30.847  27.000  1.00  0.00     0.031 C 
ATOM     56  C   UNL A   1      42.406  32.001  29.817  1.00  0.00     0.029 A 
ATOM     57  N   UNL A   1      42.403  29.983  28.851  1.00  0.00    -0.354 N 
ATOM     58  C   UNL A   1      45.768  28.750  26.349  1.00  0.00     0.074 A 
ATOM     59  C   UNL A   1      46.752  29.806  26.267  1.00  0.00     0.031 C 
ATOM     60  C   UNL A   1      41.270  31.380  30.179  1.00  0.00     0.029 A 
ATOM     61  C   UNL A   1      41.214  30.069  29.535  1.00  0.00     0.049 A 
ATOM     62  H   UNL A   1      42.677  29.184  28.345  1.00  0.00     0.167 HD
ATOM     63  C   UNL A   1      45.895  27.535  25.761  1.00  0.00     0.034 A 
ATOM     64  C   UNL A   1      40.193  29.192  29.607  1.00  0.00     0.034 A 
ATOM     65  C   UNL A   1      44.885  26.512  25.836  1.00  0.00     0.049 A 
ATOM     66  C   UNL A   1      40.325  27.874  28.882  1.00  0.00     0.074 A 
ATOM     67  C   UNL A   1      44.886  25.252  25.267  1.00  0.00     0.029 A 
ATOM     68  N   UNL A   1      43.680  26.640  26.518  1.00  0.00    -0.354 N 
ATOM     69  N   UNL A   1      41.320  27.431  28.144  1.00  0.00    -0.248 NA
ATOM     70  C   UNL A   1      39.206  26.933  29.008  1.00  0.00     0.031 C 
ATOM     71  C   UNL A   1      43.659  24.642  25.556  1.00  0.00     0.029 A 
ATOM     72  C   UNL A   1      42.922  25.492  26.366  1.00  0.00     0.049 A 
ATOM     73  H   UNL A   1      43.407  27.433  27.035  1.00  0.00     0.167 HD
ATOM     74  C   UNL A   1      40.955  26.149  27.744  1.00  0.00     0.074 A 
ATOM     75  C   UNL A   1      39.658  25.886  28.335  1.00  0.00     0.031 C 
ATOM     76  C   UNL A   1      41.627  25.264  26.963  1.00  0.00     0.034 A 
BRANCH  63  77
ATOM     77  C   UNL A   1      47.146  27.293  24.954  1.00  0.00     0.023 A 
ATOM     78  C   UNL A   1      47.234  27.664  23.599  1.00  0.00     0.031 A 
ATOM     79  C   UNL A   1      48.246  26.633  25.528  1.00  0.00     0.131 A 
ATOM     80  C   UNL A   1      48.367  27.311  22.848  1.00  0.00     0.055 A 
ATOM     81  C   UNL A   1      49.401  26.352  24.795  1.00  0.00     0.041 A 
ATOM     82  F   UNL A   1      48.209  26.228  26.808  1.00  0.00    -0.206 F 
ATOM     83  C   UNL A   1      49.461  26.678  23.443  1.00  0.00     0.022 A 
BRANCH  80  84
ATOM     84  S   UNL A   1      48.332  27.566  21.052  1.00  0.00     0.124 S 
ATOM     85  O   UNL A   1      47.001  28.137  20.861  1.00  0.00    -0.237 OA
ATOM     86  O   UNL A   1      49.452  28.475  20.840  1.00  0.00    -0.237 OA
ATOM     87  O   UNL A   1      48.509  26.220  20.511  1.00  0.00    -0.744 OA
ENDBRANCH  80  84
ENDBRANCH  63  77
BRANCH  64  88
ATOM     88  C   UNL A   1      38.950  29.538  30.355  1.00  0.00     0.023 A 
ATOM     89  C   UNL A   1      38.036  30.479  29.856  1.00  0.00     0.031 A 
ATOM     90  C   UNL A   1      38.686  28.964  31.612  1.00  0.00     0.131 A 
ATOM     91  C   UNL A   1      36.925  30.852  30.630  1.00  0.00     0.055 A 
ATOM     92  C   UNL A   1      37.553  29.299  32.354  1.00  0.00     0.041 A 
ATOM     93  F   UNL A   1      39.528  28.059  32.135  1.00  0.00    -0.206 F 
ATOM     94  C   UNL A   1      36.671  30.260  31.869  1.00  0.00     0.022 A 
BRANCH  91  95
ATOM     95  S   UNL A   1      35.859  32.192  30.031  1.00  0.00     0.124 S 
ATOM     96  O   UNL A   1      35.532  31.735  28.684  1.00  0.00    -0.237 OA
ATOM     97  O   UNL A   1      34.766  32.165  30.999  1.00  0.00    -0.237 OA
ATOM     98  O   UNL A   1      36.720  33.371  30.100  1.00  0.00    -0.744 OA
ENDBRANCH  91  95
ENDBRANCH  64  88
BRANCH  76  99
ATOM     99  C   UNL A   1      40.984  23.917  26.751  1.00  0.00     0.023 A 
ATOM    100  C   UNL A   1      41.720  22.724  26.838  1.00  0.00     0.031 A 
ATOM    101  C   UNL A   1      39.612  23.831  26.455  1.00  0.00     0.131 A 
ATOM    102  C   UNL A   1      41.092  21.497  26.578  1.00  0.00     0.055 A 
ATOM    103  C   UNL A   1      38.980  22.604  26.254  1.00  0.00     0.041 A 
ATOM    104  F   UNL A   1      38.862  24.941  26.361  1.00  0.00    -0.206 F 
ATOM    105  C   UNL A   1      39.724  21.428  26.302  1.00  0.00     0.022 A 
BRANCH 102 106
ATOM    106  S   UNL A   1      42.107  19.995  26.522  1.00  0.00     0.124 S 
ATOM    107  O   UNL A   1      41.386  19.177  25.553  1.00  0.00    -0.237 OA
ATOM    108  O   UNL A   1      43.401  20.509  26.086  1.00  0.00    -0.237 OA
ATOM    109  O   UNL A   1      42.069  19.504  27.899  1.00  0.00    -0.744 OA
ENDBRANCH 102 106
ENDBRANCH  76  99
ENDBRANCH  50  51
ENDBRANCH  43  45
ENDBRANCH  42  43
ENDBRANCH  41  42
ENDBRANCH  40  41
ENDBRANCH   1  40
TORSDOF 22
ENDMDL
MODEL 2
REMARK VINA RESULT:     -10.8      3.533      5.365
REMARK SMILES O=C(Nc1ccc(N2CC[NH+](CC(=O)N3CCOCC3)CC2)c(C(=O)OCCOCCOC(=O)c2ccc(-c3c4nc(c(-c5cc(S(=O)(=O)[O-])ccc5F)c5ccc([nH]5)c(-c5cc(S(=O)(=O)[O-])ccc5F)c5nc(c(-c6cc(S(=O)(=O)[O-])ccc6F)c6ccc3[nH]6)C=C5)C=C4)cc2)c1)c1cccc(Cl)c1
REMARK SMILES IDX 29 1 28 2 27 3 26 4 24 5 25 6 23 7 4 8 5 9 98 10 6 11 7 12
REMARK SMILES IDX 3 13 1 14 2 15 99 17 100 18 105 19 101 20 103 21 102 22
REMARK SMILES IDX 104 23 8 24 9 25 22 26 10 27 21 28 11 29 12 31 13 32 14 33
REMARK SMILES IDX 15 34 16 35 20 36 17 37 19 38 18 39 30 40 31 41 32 42 33 43
REMARK SMILES IDX 34 44 35 45 36 46 97 47 37 48 96 49 38 50 39 51 40 52 90 53
REMARK SMILES IDX 41 54 95 55 89 56 91 57 42 58 94 59 88 60 87 61 43 63 75 64
REMARK SMILES IDX 55 65 74 66 56 67 59 68 73 69 92 70 57 71 58 72 72 74 93 75
REMARK SMILES IDX 60 76 44 77 45 78 53 79 46 80 52 81 54 82 51 83 47 84 48 85
REMARK SMILES IDX 49 86 50 87 76 88 77 89 85 90 78 91 84 92 86 93 83 94 79 95
REMARK SMILES IDX 80 96 81 97 82 98 61 99 62 100 70 101 63 102 69 103 71 104
REMARK SMILES IDX 68 105 64 106 65 107 66 108 67 109
REMARK H PARENT 3 16 11 30 91 62 59 73
REMARK Flexibility Score: inf
ROOT
ATOM      1  O   UNL A   1      42.286  38.991  28.153  1.00  0.00    -0.374 OA
ENDROOT
BRANCH   1   2
ATOM      2  C   UNL A   1      42.483  38.929  26.730  1.00  0.00     0.202 C 
BRANCH   2   3
ATOM      3  C   UNL A   1      43.505  39.948  26.222  1.00  0.00     0.261 C 
BRANCH   3   4
ATOM      4  O   UNL A   1      44.796  39.325  26.265  1.00  0.00    -0.460 OA
BRANCH   4   5
ATOM      5  C   UNL A   1      45.804  40.014  25.674  1.00  0.00     0.340 C 
ATOM      6  O   UNL A   1      45.719  40.717  24.693  1.00  0.00    -0.246 OA
BRANCH   5   7
ATOM      7  C   UNL A   1      47.004  39.858  26.545  1.00  0.00     0.085 A 
ATOM      8  C   UNL A   1      49.115  38.712  26.811  1.00  0.00     0.042 A 
ATOM      9  C   UNL A   1      49.464  39.612  27.813  1.00  0.00     0.028 A 
ATOM     10  C   UNL A   1      47.833  38.768  26.282  1.00  0.00     0.044 A 
ATOM     11  C   UNL A   1      48.579  40.645  28.169  1.00  0.00     0.029 A 
ATOM     12  C   UNL A   1      47.334  40.807  27.536  1.00  0.00     0.052 A 
BRANCH   8  13
ATOM     13  N   UNL A   1      50.091  37.843  26.286  1.00  0.00    -0.322 N 
ATOM     14  O   UNL A   1      51.579  36.119  26.361  1.00  0.00    -0.269 OA
ATOM     15  C   UNL A   1      50.628  36.702  26.873  1.00  0.00     0.255 C 
ATOM     16  H   UNL A   1      50.437  38.073  25.394  1.00  0.00     0.170 HD
BRANCH  15  17
ATOM     17  C   UNL A   1      49.997  36.136  28.098  1.00  0.00     0.041 A 
ATOM     18  C   UNL A   1      50.090  36.819  29.323  1.00  0.00     0.014 A 
ATOM     19  C   UNL A   1      49.480  34.839  28.048  1.00  0.00     0.034 A 
ATOM     20  C   UNL A   1      49.781  36.158  30.511  1.00  0.00     0.002 A 
ATOM     21  C   UNL A   1      49.162  34.193  29.243  1.00  0.00     0.041 A 
ATOM     22  C   UNL A   1      49.333  34.837  30.471  1.00  0.00     0.020 A 
ATOM     23  Cl  UNL A   1      48.638  32.556  29.214  1.00  0.00    -0.084 Cl
ENDBRANCH  15  17
ENDBRANCH   8  13
BRANCH  12  24
ATOM     24  N   UNL A   1      46.428  41.789  27.936  1.00  0.00    -0.360 N 
ATOM     25  C   UNL A   1      46.782  43.214  28.048  1.00  0.00     0.178 C 
ATOM     26  C   UNL A   1      45.462  41.335  28.940  1.00  0.00     0.178 C 
ATOM     27  C   UNL A   1      45.522  44.105  28.288  1.00  0.00     0.284 C 
ATOM     28  C   UNL A   1      44.207  42.200  28.960  1.00  0.00     0.284 C 
ATOM     29  N   UNL A   1      44.485  43.611  29.216  1.00  0.00    -0.324 N 
ATOM     30  H   UNL A   1      43.651  44.152  28.988  1.00  0.00     0.348 HD
BRANCH  29  31
ATOM     31  C   UNL A   1      44.606  43.973  30.636  1.00  0.00     0.363 C 
BRANCH  31  32
ATOM     32  C   UNL A   1      43.551  43.433  31.612  1.00  0.00     0.277 C 
ATOM     33  O   UNL A   1      42.363  43.740  31.464  1.00  0.00    -0.268 OA
ATOM     34  N   UNL A   1      43.935  42.500  32.577  1.00  0.00    -0.333 N 
ATOM     35  C   UNL A   1      45.224  42.499  33.278  1.00  0.00     0.148 C 
ATOM     36  C   UNL A   1      42.877  41.776  33.286  1.00  0.00     0.148 C 
ATOM     37  C   UNL A   1      45.613  41.140  33.862  1.00  0.00     0.181 C 
ATOM     38  C   UNL A   1      43.372  40.429  33.820  1.00  0.00     0.181 C 
ATOM     39  O   UNL A   1      44.538  40.594  34.637  1.00  0.00    -0.378 OA
ENDBRANCH  31  32
ENDBRANCH  29  31
ENDBRANCH  12  24
ENDBRANCH   5   7
ENDBRANCH   4   5
ENDBRANCH   3   4
ENDBRANCH   2   3
ENDBRANCH   1   2
BRANCH   1  40
ATOM     40  C   UNL A   1      42.625  37.800  28.869  1.00  0.00     0.202 C 
BRANCH  40  41
ATOM     41  C   UNL A   1      43.819  37.926  29.813  1.00  0.00     0.261 C 
BRANCH  41  42
ATOM     42  O   UNL A   1      45.021  37.584  29.123  1.00  0.00    -0.460 OA
BRANCH  42  43
ATOM     43  C   UNL A   1      45.865  36.799  29.836  1.00  0.00     0.338 C 
ATOM     44  O   UNL A   1      46.636  37.157  30.709  1.00  0.00    -0.246 OA
BRANCH  43  45
ATOM     45  C   UNL A   1      45.550  35.388  29.541  1.00  0.00     0.060 A 
ATOM     46  C   UNL A   1      45.177  35.079  28.228  1.00  0.00     0.016 A 
ATOM     47  C   UNL A   1      45.643  34.385  30.514  1.00  0.00     0.016 A 
ATOM     48  C   UNL A   1      44.836  33.775  27.894  1.00  0.00     0.010 A 
ATOM     49  C   UNL A   1      45.297  33.077  30.179  1.00  0.00     0.010 A 
ATOM     50  C   UNL A   1      44.854  32.781  28.880  1.00  0.00    -0.014 A 
BRANCH  50  51
ATOM     51  C   UNL A   1      44.199  31.486  28.601  1.00  0.00     0.031 A 
ATOM     52  C   UNL A   1      44.935  30.501  27.736  1.00  0.00     0.074 A 
ATOM     53  C   UNL A   1      43.003  31.191  29.138  1.00  0.00     0.049 A 
ATOM     54  N   UNL A   1      44.571  29.314  27.335  1.00  0.00    -0.248 NA
ATOM     55  C   UNL A   1      46.264  30.920  27.258  1.00  0.00     0.031 C 
ATOM     56  C   UNL A   1      42.233  32.072  30.017  1.00  0.00     0.029 A 
ATOM     57  N   UNL A   1      42.228  30.069  29.019  1.00  0.00    -0.354 N 
ATOM     58  C   UNL A   1      45.627  28.841  26.562  1.00  0.00     0.074 A 
ATOM     59  C   UNL A   1      46.623  29.888  26.515  1.00  0.00     0.031 C 
ATOM     60  C   UNL A   1      41.085  31.457  30.348  1.00  0.00     0.029 A 
ATOM     61  C   UNL A   1      41.028  30.157  29.683  1.00  0.00     0.049 A 
ATOM     62  H   UNL A   1      42.504  29.275  28.506  1.00  0.00     0.167 HD
ATOM     63  C   UNL A   1      45.754  27.634  25.958  1.00  0.00     0.034 A 
ATOM     64  C   UNL A   1      39.997  29.289  29.722  1.00  0.00     0.034 A 
ATOM     65  C   UNL A   1      44.732  26.620  25.997  1.00  0.00     0.049 A 
ATOM     66  C   UNL A   1      40.129  27.982  28.979  1.00  0.00     0.074 A 
ATOM     67  C   UNL A   1      44.731  25.369  25.409  1.00  0.00     0.029 A 
ATOM     68  N   UNL A   1      43.516  26.750  26.659  1.00  0.00    -0.354 N 
ATOM     69  N   UNL A   1      41.133  27.539  28.253  1.00  0.00    -0.248 NA
ATOM     70  C   UNL A   1      38.998  27.050  29.069  1.00  0.00     0.031 C 
ATOM     71  C   UNL A   1      43.493  24.767  25.665  1.00  0.00     0.029 A 
ATOM     72  C   UNL A   1      42.749  25.612  26.474  1.00  0.00     0.049 A 
ATOM     73  H   UNL A   1      43.240  27.537  27.183  1.00  0.00     0.167 HD
ATOM     74  C   UNL A   1      40.763  26.267  27.826  1.00  0.00     0.074 A 
ATOM     75  C   UNL A   1      39.452  26.009  28.387  1.00  0.00     0.031 C 
ATOM     76  C   UNL A   1      41.441  25.388  27.043  1.00  0.00     0.034 A 
BRANCH  63  77
ATOM     77  C   UNL A   1      47.017  27.391  25.170  1.00  0.00     0.023 A 
ATOM     78  C   UNL A   1      47.155  27.834  23.841  1.00  0.00     0.031 A 
ATOM     79  C   UNL A   1      48.077  26.660  25.733  1.00  0.00     0.131 A 
ATOM     80  C   UNL A   1      48.295  27.482  23.101  1.00  0.00     0.055 A 
ATOM     81  C   UNL A   1      49.241  26.378  25.016  1.00  0.00     0.041 A 
ATOM     82  F   UNL A   1      47.990  26.186  26.987  1.00  0.00    -0.206 F 
ATOM     83  C   UNL A   1      49.349  26.777  23.686  1.00  0.00     0.022 A 
BRANCH  80  84
ATOM     84  S   UNL A   1      48.319  27.838  21.322  1.00  0.00     0.124 S 
ATOM     85  O   UNL A   1      46.938  28.250  21.085  1.00  0.00    -0.237 OA
ATOM     86  O   UNL A   1      49.325  28.889  21.223  1.00  0.00    -0.237 OA
ATOM     87  O   UNL A   1      48.692  26.559  20.721  1.00  0.00    -0.744 OA
ENDBRANCH  80  84
ENDBRANCH  63  77
BRANCH  64  88
ATOM     88  C   UNL A   1      38.744  29.636  30.451  1.00  0.00     0.023 A 
ATOM     89  C   UNL A   1      37.783  30.491  29.888  1.00  0.00     0.031 A 
ATOM     90  C   UNL A   1      38.513  29.153  31.753  1.00  0.00     0.131 A 
ATOM     91  C   UNL A   1      36.660  30.873  30.640  1.00  0.00     0.055 A 
ATOM     92  C   UNL A   1      37.371  29.495  32.477  1.00  0.00     0.041 A 
ATOM     93  F   UNL A   1      39.401  28.334  32.339  1.00  0.00    -0.206 F 
ATOM     94  C   UNL A   1      36.442  30.371  31.925  1.00  0.00     0.022 A 
BRANCH  91  95
ATOM     95  S   UNL A   1      35.529  32.110  29.946  1.00  0.00     0.124 S 
ATOM     96  O   UNL A   1      36.428  33.231  29.697  1.00  0.00    -0.237 OA
ATOM     97  O   UNL A   1      35.019  31.423  28.763  1.00  0.00    -0.237 OA
ATOM     98  O   UNL A   1      34.552  32.316  31.013  1.00  0.00    -0.744 OA
ENDBRANCH  91  95
ENDBRANCH  64  88
BRANCH  76  99
ATOM     99  C   UNL A   1      40.788  24.052  26.798  1.00  0.00     0.023 A 
ATOM    100  C   UNL A   1      41.501  22.847  26.920  1.00  0.00     0.031 A 
ATOM    101  C   UNL A   1      39.431  23.987  26.433  1.00  0.00     0.131 A 
ATOM    102  C   UNL A   1      40.868  21.630  26.629  1.00  0.00     0.055 A 
ATOM    103  C   UNL A   1      38.792  22.770  26.200  1.00  0.00     0.041 A 
ATOM    104  F   UNL A   1      38.704  25.108  26.303  1.00  0.00    -0.206 F 
ATOM    105  C   UNL A   1      39.514  21.583  26.284  1.00  0.00     0.022 A 
BRANCH 102 106
ATOM    106  S   UNL A   1      41.861  20.113  26.622  1.00  0.00     0.124 S 
ATOM    107  O   UNL A   1      41.289  19.380  25.497  1.00  0.00    -0.237 OA
ATOM    108  O   UNL A   1      43.213  20.625  26.428  1.00  0.00    -0.237 OA
ATOM    109  O   UNL A   1      41.603  19.529  27.937  1.00  0.00    -0.744 OA
ENDBRANCH 102 106
ENDBRANCH  76  99
ENDBRANCH  50  51
ENDBRANCH  43  45
ENDBRANCH  42  43
ENDBRANCH  41  42
ENDBRANCH  40  41
ENDBRANCH   1  40
TORSDOF 22
ENDMDL
MODEL 3
REMARK VINA RESULT:     -10.8      5.928     12.856
REMARK SMILES O=C(Nc1ccc(N2CC[NH+](CC(=O)N3CCOCC3)CC2)c(C(=O)OCCOCCOC(=O)c2ccc(-c3c4nc(c(-c5cc(S(=O)(=O)[O-])ccc5F)c5ccc([nH]5)c(-c5cc(S(=O)(=O)[O-])ccc5F)c5nc(c(-c6cc(S(=O)(=O)[O-])ccc6F)c6ccc3[nH]6)C=C5)C=C4)cc2)c1)c1cccc(Cl)c1
REMARK SMILES IDX 29 1 28 2 27 3 26 4 24 5 25 6 23 7 4 8 5 9 98 10 6 11 7 12
REMARK SMILES IDX 3 13 1 14 2 15 99 17 100 18 105 19 101 20 103 21 102 22
REMARK SMILES IDX 104 23 8 24 9 25 22 26 10 27 21 28 11 29 12 31 13 32 14 33
REMARK SMILES IDX 15 34 16 35 20 36 17 37 19 38 18 39 30 40 31 41 32 42 33 43
REMARK SMILES IDX 34 44 35 45 36 46 97 47 37 48 96 49 38 50 39 51 40 52 90 53
REMARK SMILES IDX 41 54 95 55 89 56 91 57 42 58 94 59 88 60 87 61 43 63 75 64
REMARK SMILES IDX 55 65 74 66 56 67 59 68 73 69 92 70 57 71 58 72 72 74 93 75
REMARK SMILES IDX 60 76 44 77 45 78 53 79 46 80 52 81 54 82 51 83 47 84 48 85
REMARK SMILES IDX 49 86 50 87 76 88 77 89 85 90 78 91 84 92 86 93 83 94 79 95
REMARK SMILES IDX 80 96 81 97 82 98 61 99 62 100 70 101 63 102 69 103 71 104
REMARK SMILES IDX 68 105 64 106 65 107 66 108 67 109
REMARK H PARENT 3 16 11 30 91 62 59 73
REMARK Flexibility Score: inf
ROOT
ATOM      1  O   UNL A   1      42.522  42.489  19.509  1.00  0.00    -0.374 OA
ENDROOT
BRANCH   1   2
ATOM      2  C   UNL A   1      42.365  43.460  18.459  1.00  0.00     0.202 C 
BRANCH   2   3
ATOM      3  C   UNL A   1      43.698  44.000  17.939  1.00  0.00     0.261 C 
BRANCH   3   4
ATOM      4  O   UNL A   1      44.292  44.774  18.991  1.00  0.00    -0.460 OA
BRANCH   4   5
ATOM      5  C   UNL A   1      45.498  44.340  19.435  1.00  0.00     0.340 C 
ATOM      6  O   UNL A   1      45.869  43.190  19.507  1.00  0.00    -0.246 OA
BRANCH   5   7
ATOM      7  C   UNL A   1      46.331  45.551  19.678  1.00  0.00     0.085 A 
ATOM      8  C   UNL A   1      47.476  47.404  18.630  1.00  0.00     0.042 A 
ATOM      9  C   UNL A   1      47.615  48.008  19.875  1.00  0.00     0.028 A 
ATOM     10  C   UNL A   1      46.952  46.120  18.566  1.00  0.00     0.044 A 
ATOM     11  C   UNL A   1      47.097  47.380  21.022  1.00  0.00     0.029 A 
ATOM     12  C   UNL A   1      46.427  46.145  20.954  1.00  0.00     0.052 A 
BRANCH   8  13
ATOM     13  N   UNL A   1      47.767  48.140  17.465  1.00  0.00    -0.322 N 
ATOM     14  O   UNL A   1      47.258  49.289  15.565  1.00  0.00    -0.269 OA
ATOM     15  C   UNL A   1      46.880  48.807  16.628  1.00  0.00     0.255 C 
ATOM     16  H   UNL A   1      48.717  48.185  17.211  1.00  0.00     0.170 HD
BRANCH  15  17
ATOM     17  C   UNL A   1      45.467  49.006  17.058  1.00  0.00     0.041 A 
ATOM     18  C   UNL A   1      45.154  49.967  18.036  1.00  0.00     0.014 A 
ATOM     19  C   UNL A   1      44.497  48.105  16.614  1.00  0.00     0.034 A 
ATOM     20  C   UNL A   1      43.905  49.942  18.657  1.00  0.00     0.002 A 
ATOM     21  C   UNL A   1      43.247  48.099  17.235  1.00  0.00     0.041 A 
ATOM     22  C   UNL A   1      42.958  48.995  18.267  1.00  0.00     0.020 A 
ATOM     23  Cl  UNL A   1      42.079  46.920  16.788  1.00  0.00    -0.084 Cl
ENDBRANCH  15  17
ENDBRANCH   8  13
BRANCH  12  24
ATOM     24  N   UNL A   1      45.974  45.491  22.100  1.00  0.00    -0.360 N 
ATOM     25  C   UNL A   1      44.875  46.000  22.936  1.00  0.00     0.178 C 
ATOM     26  C   UNL A   1      47.030  44.809  22.853  1.00  0.00     0.178 C 
ATOM     27  C   UNL A   1      44.433  44.954  24.008  1.00  0.00     0.284 C 
ATOM     28  C   UNL A   1      46.476  43.703  23.744  1.00  0.00     0.284 C 
ATOM     29  N   UNL A   1      45.481  44.179  24.701  1.00  0.00    -0.324 N 
ATOM     30  H   UNL A   1      44.995  43.372  25.091  1.00  0.00     0.348 HD
BRANCH  29  31
ATOM     31  C   UNL A   1      46.033  44.732  25.946  1.00  0.00     0.363 C 
BRANCH  31  32
ATOM     32  C   UNL A   1      47.461  44.334  26.344  1.00  0.00     0.277 C 
ATOM     33  O   UNL A   1      48.414  45.048  26.010  1.00  0.00    -0.268 OA
ATOM     34  N   UNL A   1      47.649  43.236  27.186  1.00  0.00    -0.333 N 
ATOM     35  C   UNL A   1      46.842  42.011  27.162  1.00  0.00     0.148 C 
ATOM     36  C   UNL A   1      48.970  43.060  27.794  1.00  0.00     0.148 C 
ATOM     37  C   UNL A   1      46.881  41.215  28.467  1.00  0.00     0.181 C 
ATOM     38  C   UNL A   1      48.893  42.259  29.096  1.00  0.00     0.181 C 
ATOM     39  O   UNL A   1      48.234  41.002  28.891  1.00  0.00    -0.378 OA
ENDBRANCH  31  32
ENDBRANCH  29  31
ENDBRANCH  12  24
ENDBRANCH   5   7
ENDBRANCH   4   5
ENDBRANCH   3   4
ENDBRANCH   2   3
ENDBRANCH   1   2
BRANCH   1  40
ATOM     40  C   UNL A   1      41.998  42.875  20.782  1.00  0.00     0.202 C 
BRANCH  40  41
ATOM     41  C   UNL A   1      43.038  43.061  21.885  1.00  0.00     0.261 C 
BRANCH  41  42
ATOM     42  O   UNL A   1      42.917  42.011  22.847  1.00  0.00    -0.460 OA
BRANCH  42  43
ATOM     43  C   UNL A   1      41.977  42.238  23.795  1.00  0.00     0.338 C 
ATOM     44  O   UNL A   1      40.964  42.904  23.679  1.00  0.00    -0.246 OA
BRANCH  43  45
ATOM     45  C   UNL A   1      42.260  41.364  24.950  1.00  0.00     0.060 A 
ATOM     46  C   UNL A   1      41.160  40.797  25.605  1.00  0.00     0.016 A 
ATOM     47  C   UNL A   1      43.565  41.081  25.369  1.00  0.00     0.016 A 
ATOM     48  C   UNL A   1      41.357  39.992  26.719  1.00  0.00     0.010 A 
ATOM     49  C   UNL A   1      43.763  40.277  26.490  1.00  0.00     0.010 A 
ATOM     50  C   UNL A   1      42.657  39.767  27.189  1.00  0.00    -0.014 A 
BRANCH  50  51
ATOM     51  C   UNL A   1      42.839  39.183  28.534  1.00  0.00     0.031 A 
ATOM     52  C   UNL A   1      43.170  40.117  29.664  1.00  0.00     0.074 A 
ATOM     53  C   UNL A   1      42.673  37.866  28.739  1.00  0.00     0.049 A 
ATOM     54  N   UNL A   1      43.393  39.852  30.923  1.00  0.00    -0.248 NA
ATOM     55  C   UNL A   1      43.266  41.546  29.321  1.00  0.00     0.031 C 
ATOM     56  C   UNL A   1      42.316  36.890  27.708  1.00  0.00     0.029 A 
ATOM     57  N   UNL A   1      42.785  37.123  29.883  1.00  0.00    -0.354 N 
ATOM     58  C   UNL A   1      43.649  41.080  31.524  1.00  0.00     0.074 A 
ATOM     59  C   UNL A   1      43.599  42.082  30.483  1.00  0.00     0.031 C 
ATOM     60  C   UNL A   1      42.252  35.671  28.269  1.00  0.00     0.029 A 
ATOM     61  C   UNL A   1      42.590  35.777  29.687  1.00  0.00     0.049 A 
ATOM     62  H   UNL A   1      42.988  37.516  30.763  1.00  0.00     0.167 HD
ATOM     63  C   UNL A   1      43.892  41.344  32.831  1.00  0.00     0.034 A 
ATOM     64  C   UNL A   1      42.699  34.752  30.556  1.00  0.00     0.034 A 
ATOM     65  C   UNL A   1      43.964  40.322  33.843  1.00  0.00     0.049 A 
ATOM     66  C   UNL A   1      43.045  35.062  31.993  1.00  0.00     0.074 A 
ATOM     67  C   UNL A   1      44.225  40.458  35.194  1.00  0.00     0.029 A 
ATOM     68  N   UNL A   1      43.785  38.963  33.606  1.00  0.00    -0.354 N 
ATOM     69  N   UNL A   1      43.282  36.228  32.555  1.00  0.00    -0.248 NA
ATOM     70  C   UNL A   1      43.125  33.924  32.916  1.00  0.00     0.031 C 
ATOM     71  C   UNL A   1      44.262  39.178  35.762  1.00  0.00     0.029 A 
ATOM     72  C   UNL A   1      43.952  38.249  34.780  1.00  0.00     0.049 A 
ATOM     73  H   UNL A   1      43.572  38.567  32.730  1.00  0.00     0.167 HD
ATOM     74  C   UNL A   1      43.511  35.961  33.902  1.00  0.00     0.074 A 
ATOM     75  C   UNL A   1      43.369  34.529  34.069  1.00  0.00     0.031 C 
ATOM     76  C   UNL A   1      43.810  36.818  34.912  1.00  0.00     0.034 A 
BRANCH  63  77
ATOM     77  C   UNL A   1      44.145  42.783  33.205  1.00  0.00     0.023 A 
ATOM     78  C   UNL A   1      45.376  43.200  33.746  1.00  0.00     0.031 A 
ATOM     79  C   UNL A   1      43.128  43.743  33.071  1.00  0.00     0.131 A 
ATOM     80  C   UNL A   1      45.532  44.521  34.195  1.00  0.00     0.055 A 
ATOM     81  C   UNL A   1      43.315  45.073  33.450  1.00  0.00     0.041 A 
ATOM     82  F   UNL A   1      41.922  43.398  32.589  1.00  0.00    -0.206 F 
ATOM     83  C   UNL A   1      44.518  45.466  34.030  1.00  0.00     0.022 A 
BRANCH  80  84
ATOM     84  S   UNL A   1      47.030  44.950  35.126  1.00  0.00     0.124 S 
ATOM     85  O   UNL A   1      46.787  46.355  35.443  1.00  0.00    -0.237 OA
ATOM     86  O   UNL A   1      46.980  44.023  36.250  1.00  0.00    -0.237 OA
ATOM     87  O   UNL A   1      48.108  44.713  34.168  1.00  0.00    -0.744 OA
ENDBRANCH  80  84
ENDBRANCH  63  77
BRANCH  64  88
ATOM     88  C   UNL A   1      42.519  33.346  30.094  1.00  0.00     0.023 A 
ATOM     89  C   UNL A   1      41.299  32.673  30.260  1.00  0.00     0.031 A 
ATOM     90  C   UNL A   1      43.590  32.636  29.522  1.00  0.00     0.131 A 
ATOM     91  C   UNL A   1      41.192  31.319  29.901  1.00  0.00     0.055 A 
ATOM     92  C   UNL A   1      43.465  31.306  29.120  1.00  0.00     0.041 A 
ATOM     93  F   UNL A   1      44.780  33.232  29.342  1.00  0.00    -0.206 F 
ATOM     94  C   UNL A   1      42.263  30.636  29.321  1.00  0.00     0.022 A 
BRANCH  91  95
ATOM     95  S   UNL A   1      39.654  30.436  30.286  1.00  0.00     0.124 S 
ATOM     96  O   UNL A   1      39.902  29.985  31.651  1.00  0.00    -0.237 OA
ATOM     97  O   UNL A   1      38.655  31.488  30.129  1.00  0.00    -0.237 OA
ATOM     98  O   UNL A   1      39.606  29.379  29.277  1.00  0.00    -0.744 OA
ENDBRANCH  91  95
ENDBRANCH  64  88
BRANCH  76  99
ATOM     99  C   UNL A   1      43.950  36.222  36.290  1.00  0.00     0.023 A 
ATOM    100  C   UNL A   1      42.841  36.036  37.132  1.00  0.00     0.031 A 
ATOM    101  C   UNL A   1      45.217  35.839  36.766  1.00  0.00     0.131 A 
ATOM    102  C   UNL A   1      43.026  35.530  38.427  1.00  0.00     0.055 A 
ATOM    103  C   UNL A   1      45.387  35.283  38.033  1.00  0.00     0.041 A 
ATOM    104  F   UNL A   1      46.310  35.995  36.001  1.00  0.00    -0.206 F 
ATOM    105  C   UNL A   1      44.289  35.139  38.877  1.00  0.00     0.022 A 
BRANCH 102 106
ATOM    106  S   UNL A   1      41.602  35.470  39.548  1.00  0.00     0.124 S 
ATOM    107  O   UNL A   1      42.195  35.885  40.816  1.00  0.00    -0.237 OA
ATOM    108  O   UNL A   1      40.681  36.420  38.935  1.00  0.00    -0.237 OA
ATOM    109  O   UNL A   1      41.179  34.072  39.491  1.00  0.00    -0.744 OA
ENDBRANCH 102 106
ENDBRANCH  76  99
ENDBRANCH  50  51
ENDBRANCH  43  45
ENDBRANCH  42  43
ENDBRANCH  41  42
ENDBRANCH  40  41
ENDBRANCH   1  40
TORSDOF 22
ENDMDL
