MODEL 1
REMARK VINA RESULT:     -10.7      0.000      0.000
REMARK SMILES CCc1cc(Nc2ccc(C(=O)OCCOCCOC(=O)c3ccc(-c4c5nc(c(-c6cc(S(=O)(=O)[O-])ccc6F)c6ccc([nH]6)c(-c6cc(S(=O)(=O)[O-])ccc6F)c6nc(c(-c7cc(S(=O)(=O)[O-])ccc7F)c7ccc4[nH]7)C=C6)C=C5)cc3)cc2)nc(C(C)C)n1
REMARK SMILES IDX 16 1 15 2 14 3 13 4 11 5 12 6 10 7 7 8 8 9 86 10 9 11 85 12
REMARK SMILES IDX 6 13 5 15 3 16 4 17 92 18 88 19 87 20 2 21 1 22 89 23 90 24
REMARK SMILES IDX 91 25 17 26 18 27 19 28 20 29 21 30 22 31 23 32 84 33 24 34
REMARK SMILES IDX 83 35 25 36 26 37 27 38 77 39 28 40 82 41 76 42 78 43 29 44
REMARK SMILES IDX 81 45 75 46 74 47 30 49 62 50 42 51 61 52 43 53 46 54 60 55
REMARK SMILES IDX 79 56 44 57 45 58 59 60 80 61 47 62 31 63 32 64 40 65 33 66
REMARK SMILES IDX 39 67 41 68 38 69 34 70 35 71 36 72 37 73 63 74 64 75 72 76
REMARK SMILES IDX 65 77 71 78 73 79 70 80 66 81 67 82 68 83 69 84 48 85 49 86
REMARK SMILES IDX 57 87 50 88 56 89 58 90 55 91 51 92 52 93 53 94 54 95
REMARK H PARENT 6 14 78 48 46 59
REMARK Flexibility Score: inf
ROOT
ATOM      1  O   UNL A   1      31.184  29.658  24.698  1.00  0.00    -0.374 OA
ENDROOT
BRANCH   1   2
ATOM      2  C   UNL A   1      32.350  29.124  24.071  1.00  0.00     0.202 C 
BRANCH   2   3
ATOM      3  C   UNL A   1      32.577  27.620  24.255  1.00  0.00     0.261 C 
BRANCH   3   4
ATOM      4  O   UNL A   1      31.331  26.933  24.448  1.00  0.00    -0.460 OA
BRANCH   4   5
ATOM      5  C   UNL A   1      31.167  26.379  25.672  1.00  0.00     0.338 C 
ATOM      6  O   UNL A   1      30.894  26.960  26.713  1.00  0.00    -0.246 OA
BRANCH   5   7
ATOM      7  C   UNL A   1      31.200  24.902  25.574  1.00  0.00     0.060 A 
ATOM      8  C   UNL A   1      31.406  22.102  25.556  1.00  0.00     0.040 A 
ATOM      9  C   UNL A   1      31.223  22.790  26.761  1.00  0.00     0.027 A 
ATOM     10  C   UNL A   1      31.421  22.831  24.357  1.00  0.00     0.027 A 
ATOM     11  C   UNL A   1      31.131  24.181  26.771  1.00  0.00     0.018 A 
ATOM     12  C   UNL A   1      31.305  24.225  24.357  1.00  0.00     0.018 A 
BRANCH   8  13
ATOM     13  N   UNL A   1      31.736  20.732  25.598  1.00  0.00    -0.340 N 
ATOM     14  H   UNL A   1      31.036  20.106  25.890  1.00  0.00     0.168 HD
BRANCH  13  15
ATOM     15  C   UNL A   1      32.993  20.189  25.256  1.00  0.00     0.134 A 
ATOM     16  C   UNL A   1      34.316  18.384  24.509  1.00  0.00     0.046 A 
ATOM     17  C   UNL A   1      33.062  18.887  24.804  1.00  0.00     0.071 A 
ATOM     18  N   UNL A   1      35.435  19.126  24.645  1.00  0.00    -0.238 NA
ATOM     19  C   UNL A   1      35.279  20.391  25.074  1.00  0.00     0.133 A 
ATOM     20  N   UNL A   1      34.097  20.941  25.379  1.00  0.00    -0.216 NA
BRANCH  16  21
ATOM     21  C   UNL A   1      34.507  16.953  24.079  1.00  0.00     0.053 C 
ATOM     22  C   UNL A   1      35.114  16.064  25.155  1.00  0.00     0.011 C 
ENDBRANCH  16  21
BRANCH  19  23
ATOM     23  C   UNL A   1      36.497  21.269  25.244  1.00  0.00     0.051 C 
ATOM     24  C   UNL A   1      37.001  21.784  23.898  1.00  0.00     0.016 C 
ATOM     25  C   UNL A   1      36.211  22.415  26.210  1.00  0.00     0.016 C 
ENDBRANCH  19  23
ENDBRANCH  13  15
ENDBRANCH   8  13
ENDBRANCH   5   7
ENDBRANCH   4   5
ENDBRANCH   3   4
ENDBRANCH   2   3
ENDBRANCH   1   2
BRANCH   1  26
ATOM     26  C   UNL A   1      31.388  30.716  25.637  1.00  0.00     0.202 C 
BRANCH  26  27
ATOM     27  C   UNL A   1      32.176  30.358  26.902  1.00  0.00     0.261 C 
BRANCH  27  28
ATOM     28  O   UNL A   1      33.589  30.578  26.731  1.00  0.00    -0.460 OA
BRANCH  28  29
ATOM     29  C   UNL A   1      34.112  31.548  27.520  1.00  0.00     0.338 C 
ATOM     30  O   UNL A   1      33.559  32.581  27.874  1.00  0.00    -0.246 OA
BRANCH  29  31
ATOM     31  C   UNL A   1      35.409  31.109  28.071  1.00  0.00     0.060 A 
ATOM     32  C   UNL A   1      35.501  29.786  28.523  1.00  0.00     0.016 A 
ATOM     33  C   UNL A   1      36.492  31.980  28.202  1.00  0.00     0.016 A 
ATOM     34  C   UNL A   1      36.661  29.342  29.154  1.00  0.00     0.010 A 
ATOM     35  C   UNL A   1      37.654  31.533  28.845  1.00  0.00     0.010 A 
ATOM     36  C   UNL A   1      37.732  30.224  29.354  1.00  0.00    -0.014 A 
BRANCH  36  37
ATOM     37  C   UNL A   1      38.867  29.815  30.220  1.00  0.00     0.031 A 
ATOM     38  C   UNL A   1      38.963  30.383  31.611  1.00  0.00     0.074 A 
ATOM     39  C   UNL A   1      39.786  28.933  29.781  1.00  0.00     0.049 A 
ATOM     40  N   UNL A   1      39.883  30.198  32.522  1.00  0.00    -0.248 NA
ATOM     41  C   UNL A   1      37.875  31.283  32.029  1.00  0.00     0.031 C 
ATOM     42  C   UNL A   1      39.774  28.287  28.469  1.00  0.00     0.029 A 
ATOM     43  N   UNL A   1      40.912  28.436  30.389  1.00  0.00    -0.354 N 
ATOM     44  C   UNL A   1      39.497  30.969  33.613  1.00  0.00     0.074 A 
ATOM     45  C   UNL A   1      38.269  31.639  33.243  1.00  0.00     0.031 C 
ATOM     46  C   UNL A   1      40.854  27.491  28.365  1.00  0.00     0.029 A 
ATOM     47  C   UNL A   1      41.651  27.599  29.585  1.00  0.00     0.049 A 
ATOM     48  H   UNL A   1      41.166  28.658  31.314  1.00  0.00     0.167 HD
ATOM     49  C   UNL A   1      40.113  31.105  34.813  1.00  0.00     0.034 A 
ATOM     50  C   UNL A   1      42.849  27.014  29.799  1.00  0.00     0.034 A 
ATOM     51  C   UNL A   1      41.330  30.421  35.173  1.00  0.00     0.049 A 
ATOM     52  C   UNL A   1      43.542  27.231  31.125  1.00  0.00     0.074 A 
ATOM     53  C   UNL A   1      42.005  30.447  36.381  1.00  0.00     0.029 A 
ATOM     54  N   UNL A   1      42.064  29.603  34.325  1.00  0.00    -0.354 N 
ATOM     55  N   UNL A   1      43.143  27.930  32.164  1.00  0.00    -0.248 NA
ATOM     56  C   UNL A   1      44.843  26.574  31.313  1.00  0.00     0.031 C 
ATOM     57  C   UNL A   1      43.184  29.708  36.240  1.00  0.00     0.029 A 
ATOM     58  C   UNL A   1      43.207  29.154  34.971  1.00  0.00     0.049 A 
ATOM     59  H   UNL A   1      41.812  29.376  33.401  1.00  0.00     0.167 HD
ATOM     60  C   UNL A   1      44.126  27.760  33.137  1.00  0.00     0.074 A 
ATOM     61  C   UNL A   1      45.127  26.884  32.567  1.00  0.00     0.031 C 
ATOM     62  C   UNL A   1      44.196  28.278  34.390  1.00  0.00     0.034 A 
BRANCH  49  63
ATOM     63  C   UNL A   1      39.515  32.068  35.808  1.00  0.00     0.023 A 
ATOM     64  C   UNL A   1      39.946  33.402  35.911  1.00  0.00     0.031 A 
ATOM     65  C   UNL A   1      38.478  31.640  36.656  1.00  0.00     0.131 A 
ATOM     66  C   UNL A   1      39.369  34.248  36.870  1.00  0.00     0.055 A 
ATOM     67  C   UNL A   1      37.864  32.505  37.563  1.00  0.00     0.041 A 
ATOM     68  F   UNL A   1      38.043  30.371  36.615  1.00  0.00    -0.206 F 
ATOM     69  C   UNL A   1      38.315  33.816  37.680  1.00  0.00     0.022 A 
BRANCH  66  70
ATOM     70  S   UNL A   1      40.076  35.901  37.114  1.00  0.00     0.124 S 
ATOM     71  O   UNL A   1      41.494  35.592  37.282  1.00  0.00    -0.237 OA
ATOM     72  O   UNL A   1      39.714  36.586  35.879  1.00  0.00    -0.237 OA
ATOM     73  O   UNL A   1      39.404  36.387  38.317  1.00  0.00    -0.744 OA
ENDBRANCH  66  70
ENDBRANCH  49  63
BRANCH  50  74
ATOM     74  C   UNL A   1      43.511  26.210  28.729  1.00  0.00     0.023 A 
ATOM     75  C   UNL A   1      44.419  26.797  27.833  1.00  0.00     0.031 A 
ATOM     76  C   UNL A   1      43.166  24.861  28.523  1.00  0.00     0.131 A 
ATOM     77  C   UNL A   1      44.895  26.062  26.736  1.00  0.00     0.055 A 
ATOM     78  C   UNL A   1      43.693  24.115  27.468  1.00  0.00     0.041 A 
ATOM     79  F   UNL A   1      42.298  24.249  29.345  1.00  0.00    -0.206 F 
ATOM     80  C   UNL A   1      44.549  24.721  26.555  1.00  0.00     0.022 A 
BRANCH  77  81
ATOM     81  S   UNL A   1      45.873  26.924  25.473  1.00  0.00     0.124 S 
ATOM     82  O   UNL A   1      46.189  25.838  24.551  1.00  0.00    -0.237 OA
ATOM     83  O   UNL A   1      44.925  27.921  24.988  1.00  0.00    -0.237 OA
ATOM     84  O   UNL A   1      47.007  27.455  26.225  1.00  0.00    -0.744 OA
ENDBRANCH  77  81
ENDBRANCH  50  74
BRANCH  62  85
ATOM     85  C   UNL A   1      45.366  27.858  35.247  1.00  0.00     0.023 A 
ATOM     86  C   UNL A   1      45.337  26.685  36.021  1.00  0.00     0.031 A 
ATOM     87  C   UNL A   1      46.526  28.653  35.293  1.00  0.00     0.131 A 
ATOM     88  C   UNL A   1      46.423  26.369  36.851  1.00  0.00     0.055 A 
ATOM     89  C   UNL A   1      47.628  28.301  36.073  1.00  0.00     0.041 A 
ATOM     90  F   UNL A   1      46.609  29.784  34.574  1.00  0.00    -0.206 F 
ATOM     91  C   UNL A   1      47.575  27.161  36.868  1.00  0.00     0.022 A 
BRANCH  88  92
ATOM     92  S   UNL A   1      46.277  24.956  37.979  1.00  0.00     0.124 S 
ATOM     93  O   UNL A   1      47.499  24.211  37.692  1.00  0.00    -0.237 OA
ATOM     94  O   UNL A   1      46.218  25.604  39.285  1.00  0.00    -0.237 OA
ATOM     95  O   UNL A   1      45.040  24.305  37.556  1.00  0.00    -0.744 OA
ENDBRANCH  88  92
ENDBRANCH  62  85
ENDBRANCH  36  37
ENDBRANCH  29  31
ENDBRANCH  28  29
ENDBRANCH  27  28
ENDBRANCH  26  27
ENDBRANCH   1  26
TORSDOF 21
ENDMDL
MODEL 2
REMARK VINA RESULT:     -10.7      5.102     10.648
REMARK SMILES CCc1cc(Nc2ccc(C(=O)OCCOCCOC(=O)c3ccc(-c4c5nc(c(-c6cc(S(=O)(=O)[O-])ccc6F)c6ccc([nH]6)c(-c6cc(S(=O)(=O)[O-])ccc6F)c6nc(c(-c7cc(S(=O)(=O)[O-])ccc7F)c7ccc4[nH]7)C=C6)C=C5)cc3)cc2)nc(C(C)C)n1
REMARK SMILES IDX 16 1 15 2 14 3 13 4 11 5 12 6 10 7 7 8 8 9 86 10 9 11 85 12
REMARK SMILES IDX 6 13 5 15 3 16 4 17 92 18 88 19 87 20 2 21 1 22 89 23 90 24
REMARK SMILES IDX 91 25 17 26 18 27 19 28 20 29 21 30 22 31 23 32 84 33 24 34
REMARK SMILES IDX 83 35 25 36 26 37 27 38 77 39 28 40 82 41 76 42 78 43 29 44
REMARK SMILES IDX 81 45 75 46 74 47 30 49 62 50 42 51 61 52 43 53 46 54 60 55
REMARK SMILES IDX 79 56 44 57 45 58 59 60 80 61 47 62 31 63 32 64 40 65 33 66
REMARK SMILES IDX 39 67 41 68 38 69 34 70 35 71 36 72 37 73 63 74 64 75 72 76
REMARK SMILES IDX 65 77 71 78 73 79 70 80 66 81 67 82 68 83 69 84 48 85 49 86
REMARK SMILES IDX 57 87 50 88 56 89 58 90 55 91 51 92 52 93 53 94 54 95
REMARK H PARENT 6 14 78 48 46 59
REMARK Flexibility Score: inf
ROOT
ATOM      1  O   UNL A   1      37.371  20.187  24.532  1.00  0.00    -0.374 OA
ENDROOT
BRANCH   1   2
ATOM      2  C   UNL A   1      36.093  19.782  25.024  1.00  0.00     0.202 C 
BRANCH   2   3
ATOM      3  C   UNL A   1      35.028  20.880  25.094  1.00  0.00     0.261 C 
BRANCH   3   4
ATOM      4  O   UNL A   1      33.920  20.472  25.912  1.00  0.00    -0.460 OA
BRANCH   4   5
ATOM      5  C   UNL A   1      32.767  20.244  25.241  1.00  0.00     0.338 C 
ATOM      6  O   UNL A   1      32.204  19.169  25.090  1.00  0.00    -0.246 OA
BRANCH   5   7
ATOM      7  C   UNL A   1      32.153  21.526  24.828  1.00  0.00     0.060 A 
ATOM      8  C   UNL A   1      30.813  23.902  24.165  1.00  0.00     0.040 A 
ATOM      9  C   UNL A   1      30.862  23.465  25.493  1.00  0.00     0.027 A 
ATOM     10  C   UNL A   1      31.498  23.167  23.185  1.00  0.00     0.027 A 
ATOM     11  C   UNL A   1      31.518  22.279  25.821  1.00  0.00     0.018 A 
ATOM     12  C   UNL A   1      32.179  21.989  23.511  1.00  0.00     0.018 A 
BRANCH   8  13
ATOM     13  N   UNL A   1      29.946  24.962  23.829  1.00  0.00    -0.340 N 
ATOM     14  H   UNL A   1      29.049  24.727  23.501  1.00  0.00     0.168 HD
BRANCH  13  15
ATOM     15  C   UNL A   1      30.264  26.333  23.926  1.00  0.00     0.134 A 
ATOM     16  C   UNL A   1      29.734  28.598  23.531  1.00  0.00     0.046 A 
ATOM     17  C   UNL A   1      29.370  27.267  23.444  1.00  0.00     0.071 A 
ATOM     18  N   UNL A   1      30.910  28.985  24.068  1.00  0.00    -0.238 NA
ATOM     19  C   UNL A   1      31.717  28.014  24.531  1.00  0.00     0.133 A 
ATOM     20  N   UNL A   1      31.429  26.707  24.478  1.00  0.00    -0.216 NA
BRANCH  16  21
ATOM     21  C   UNL A   1      28.861  29.689  22.968  1.00  0.00     0.053 C 
ATOM     22  C   UNL A   1      27.386  29.322  22.899  1.00  0.00     0.011 C 
ENDBRANCH  16  21
BRANCH  19  23
ATOM     23  C   UNL A   1      33.046  28.388  25.144  1.00  0.00     0.051 C 
ATOM     24  C   UNL A   1      33.029  29.821  25.672  1.00  0.00     0.016 C 
ATOM     25  C   UNL A   1      33.441  27.396  26.234  1.00  0.00     0.016 C 
ENDBRANCH  19  23
ENDBRANCH  13  15
ENDBRANCH   8  13
ENDBRANCH   5   7
ENDBRANCH   4   5
ENDBRANCH   3   4
ENDBRANCH   2   3
ENDBRANCH   1   2
BRANCH   1  26
ATOM     26  C   UNL A   1      38.389  20.423  25.507  1.00  0.00     0.202 C 
BRANCH  26  27
ATOM     27  C   UNL A   1      39.370  19.271  25.756  1.00  0.00     0.261 C 
BRANCH  27  28
ATOM     28  O   UNL A   1      40.719  19.634  25.404  1.00  0.00    -0.460 OA
BRANCH  28  29
ATOM     29  C   UNL A   1      41.550  19.819  26.457  1.00  0.00     0.338 C 
ATOM     30  O   UNL A   1      42.302  18.989  26.952  1.00  0.00    -0.246 OA
BRANCH  29  31
ATOM     31  C   UNL A   1      41.579  21.245  26.836  1.00  0.00     0.060 A 
ATOM     32  C   UNL A   1      41.460  22.187  25.806  1.00  0.00     0.016 A 
ATOM     33  C   UNL A   1      41.779  21.660  28.154  1.00  0.00     0.016 A 
ATOM     34  C   UNL A   1      41.590  23.547  26.082  1.00  0.00     0.010 A 
ATOM     35  C   UNL A   1      41.919  23.026  28.428  1.00  0.00     0.010 A 
ATOM     36  C   UNL A   1      41.859  23.974  27.389  1.00  0.00    -0.014 A 
BRANCH  36  37
ATOM     37  C   UNL A   1      42.218  25.393  27.638  1.00  0.00     0.031 A 
ATOM     38  C   UNL A   1      43.563  25.894  27.182  1.00  0.00     0.074 A 
ATOM     39  C   UNL A   1      41.350  26.228  28.240  1.00  0.00     0.049 A 
ATOM     40  N   UNL A   1      44.101  27.076  27.327  1.00  0.00    -0.248 NA
ATOM     41  C   UNL A   1      44.417  24.927  26.470  1.00  0.00     0.031 C 
ATOM     42  C   UNL A   1      40.005  25.867  28.688  1.00  0.00     0.029 A 
ATOM     43  N   UNL A   1      41.474  27.551  28.585  1.00  0.00    -0.354 N 
ATOM     44  C   UNL A   1      45.361  26.996  26.741  1.00  0.00     0.074 A 
ATOM     45  C   UNL A   1      45.513  25.641  26.255  1.00  0.00     0.031 C 
ATOM     46  C   UNL A   1      39.436  26.939  29.266  1.00  0.00     0.029 A 
ATOM     47  C   UNL A   1      40.385  28.051  29.263  1.00  0.00     0.049 A 
ATOM     48  H   UNL A   1      42.268  28.092  28.370  1.00  0.00     0.167 HD
ATOM     49  C   UNL A   1      46.301  27.963  26.621  1.00  0.00     0.034 A 
ATOM     50  C   UNL A   1      40.191  29.255  29.840  1.00  0.00     0.034 A 
ATOM     51  C   UNL A   1      46.131  29.313  27.099  1.00  0.00     0.049 A 
ATOM     52  C   UNL A   1      41.284  30.297  29.742  1.00  0.00     0.074 A 
ATOM     53  C   UNL A   1      47.000  30.384  26.978  1.00  0.00     0.029 A 
ATOM     54  N   UNL A   1      45.027  29.775  27.802  1.00  0.00    -0.354 N 
ATOM     55  N   UNL A   1      42.452  30.218  29.147  1.00  0.00    -0.248 NA
ATOM     56  C   UNL A   1      41.027  31.593  30.384  1.00  0.00     0.031 C 
ATOM     57  C   UNL A   1      46.458  31.469  27.673  1.00  0.00     0.029 A 
ATOM     58  C   UNL A   1      45.213  31.102  28.158  1.00  0.00     0.049 A 
ATOM     59  H   UNL A   1      44.230  29.240  28.017  1.00  0.00     0.167 HD
ATOM     60  C   UNL A   1      43.048  31.467  29.313  1.00  0.00     0.074 A 
ATOM     61  C   UNL A   1      42.106  32.282  30.048  1.00  0.00     0.031 C 
ATOM     62  C   UNL A   1      44.263  31.904  28.892  1.00  0.00     0.034 A 
BRANCH  49  63
ATOM     63  C   UNL A   1      47.623  27.589  25.997  1.00  0.00     0.023 A 
ATOM     64  C   UNL A   1      48.705  27.118  26.760  1.00  0.00     0.031 A 
ATOM     65  C   UNL A   1      47.790  27.691  24.604  1.00  0.00     0.131 A 
ATOM     66  C   UNL A   1      49.918  26.805  26.130  1.00  0.00     0.055 A 
ATOM     67  C   UNL A   1      48.979  27.317  23.976  1.00  0.00     0.041 A 
ATOM     68  F   UNL A   1      46.797  28.157  23.831  1.00  0.00    -0.206 F 
ATOM     69  C   UNL A   1      50.055  26.879  24.741  1.00  0.00     0.022 A 
BRANCH  66  70
ATOM     70  S   UNL A   1      51.354  26.388  27.157  1.00  0.00     0.124 S 
ATOM     71  O   UNL A   1      51.261  24.931  27.216  1.00  0.00    -0.237 OA
ATOM     72  O   UNL A   1      52.465  26.926  26.382  1.00  0.00    -0.237 OA
ATOM     73  O   UNL A   1      51.083  27.074  28.419  1.00  0.00    -0.744 OA
ENDBRANCH  66  70
ENDBRANCH  49  63
BRANCH  50  74
ATOM     74  C   UNL A   1      38.946  29.544  30.612  1.00  0.00     0.023 A 
ATOM     75  C   UNL A   1      37.941  30.374  30.090  1.00  0.00     0.031 A 
ATOM     76  C   UNL A   1      38.790  29.073  31.929  1.00  0.00     0.131 A 
ATOM     77  C   UNL A   1      36.863  30.764  30.900  1.00  0.00     0.055 A 
ATOM     78  C   UNL A   1      37.683  29.412  32.708  1.00  0.00     0.041 A 
ATOM     79  F   UNL A   1      39.722  28.281  32.482  1.00  0.00    -0.206 F 
ATOM     80  C   UNL A   1      36.720  30.278  32.202  1.00  0.00     0.022 A 
BRANCH  77  81
ATOM     81  S   UNL A   1      35.717  32.023  30.273  1.00  0.00     0.124 S 
ATOM     82  O   UNL A   1      36.614  33.150  30.041  1.00  0.00    -0.237 OA
ATOM     83  O   UNL A   1      35.179  31.375  29.082  1.00  0.00    -0.237 OA
ATOM     84  O   UNL A   1      34.768  32.195  31.371  1.00  0.00    -0.744 OA
ENDBRANCH  77  81
ENDBRANCH  50  74
BRANCH  62  85
ATOM     85  C   UNL A   1      44.611  33.347  29.168  1.00  0.00     0.023 A 
ATOM     86  C   UNL A   1      44.249  34.381  28.287  1.00  0.00     0.031 A 
ATOM     87  C   UNL A   1      45.326  33.689  30.330  1.00  0.00     0.131 A 
ATOM     88  C   UNL A   1      44.650  35.698  28.553  1.00  0.00     0.055 A 
ATOM     89  C   UNL A   1      45.668  35.010  30.621  1.00  0.00     0.041 A 
ATOM     90  F   UNL A   1      45.698  32.742  31.207  1.00  0.00    -0.206 F 
ATOM     91  C   UNL A   1      45.343  36.021  29.723  1.00  0.00     0.022 A 
BRANCH  88  92
ATOM     92  S   UNL A   1      44.334  36.976  27.305  1.00  0.00     0.124 S 
ATOM     93  O   UNL A   1      45.596  37.005  26.573  1.00  0.00    -0.237 OA
ATOM     94  O   UNL A   1      43.190  36.429  26.581  1.00  0.00    -0.237 OA
ATOM     95  O   UNL A   1      44.050  38.169  28.099  1.00  0.00    -0.744 OA
ENDBRANCH  88  92
ENDBRANCH  62  85
ENDBRANCH  36  37
ENDBRANCH  29  31
ENDBRANCH  28  29
ENDBRANCH  27  28
ENDBRANCH  26  27
ENDBRANCH   1  26
TORSDOF 21
ENDMDL
MODEL 3
REMARK VINA RESULT:     -10.7      5.058     10.656
REMARK SMILES CCc1cc(Nc2ccc(C(=O)OCCOCCOC(=O)c3ccc(-c4c5nc(c(-c6cc(S(=O)(=O)[O-])ccc6F)c6ccc([nH]6)c(-c6cc(S(=O)(=O)[O-])ccc6F)c6nc(c(-c7cc(S(=O)(=O)[O-])ccc7F)c7ccc4[nH]7)C=C6)C=C5)cc3)cc2)nc(C(C)C)n1
REMARK SMILES IDX 16 1 15 2 14 3 13 4 11 5 12 6 10 7 7 8 8 9 86 10 9 11 85 12
REMARK SMILES IDX 6 13 5 15 3 16 4 17 92 18 88 19 87 20 2 21 1 22 89 23 90 24
REMARK SMILES IDX 91 25 17 26 18 27 19 28 20 29 21 30 22 31 23 32 84 33 24 34
REMARK SMILES IDX 83 35 25 36 26 37 27 38 77 39 28 40 82 41 76 42 78 43 29 44
REMARK SMILES IDX 81 45 75 46 74 47 30 49 62 50 42 51 61 52 43 53 46 54 60 55
REMARK SMILES IDX 79 56 44 57 45 58 59 60 80 61 47 62 31 63 32 64 40 65 33 66
REMARK SMILES IDX 39 67 41 68 38 69 34 70 35 71 36 72 37 73 63 74 64 75 72 76
REMARK SMILES IDX 65 77 71 78 73 79 70 80 66 81 67 82 68 83 69 84 48 85 49 86
REMARK SMILES IDX 57 87 50 88 56 89 58 90 55 91 51 92 52 93 53 94 54 95
REMARK H PARENT 6 14 78 48 46 59
REMARK Flexibility Score: inf
ROOT
ATOM      1  O   UNL A   1      37.528  20.538  24.635  1.00  0.00    -0.374 OA
ENDROOT
BRANCH   1   2
ATOM      2  C   UNL A   1      36.195  20.067  24.834  1.00  0.00     0.202 C 
BRANCH   2   3
ATOM      3  C   UNL A   1      35.103  21.141  24.840  1.00  0.00     0.261 C 
BRANCH   3   4
ATOM      4  O   UNL A   1      34.056  20.805  25.765  1.00  0.00    -0.460 OA
BRANCH   4   5
ATOM      5  C   UNL A   1      32.850  20.566  25.200  1.00  0.00     0.338 C 
ATOM      6  O   UNL A   1      32.297  19.482  25.079  1.00  0.00    -0.246 OA
BRANCH   5   7
ATOM      7  C   UNL A   1      32.175  21.842  24.874  1.00  0.00     0.060 A 
ATOM      8  C   UNL A   1      30.735  24.205  24.397  1.00  0.00     0.040 A 
ATOM      9  C   UNL A   1      30.954  23.762  25.707  1.00  0.00     0.027 A 
ATOM     10  C   UNL A   1      31.301  23.481  23.336  1.00  0.00     0.027 A 
ATOM     11  C   UNL A   1      31.660  22.583  25.943  1.00  0.00     0.018 A 
ATOM     12  C   UNL A   1      32.031  22.311  23.567  1.00  0.00     0.018 A 
BRANCH   8  13
ATOM     13  N   UNL A   1      29.821  25.255  24.179  1.00  0.00    -0.340 N 
ATOM     14  H   UNL A   1      28.888  25.011  23.984  1.00  0.00     0.168 HD
BRANCH  13  15
ATOM     15  C   UNL A   1      30.138  26.629  24.215  1.00  0.00     0.134 A 
ATOM     16  C   UNL A   1      30.004  28.795  23.288  1.00  0.00     0.046 A 
ATOM     17  C   UNL A   1      29.643  27.460  23.232  1.00  0.00     0.071 A 
ATOM     18  N   UNL A   1      30.801  29.280  24.262  1.00  0.00    -0.238 NA
ATOM     19  C   UNL A   1      31.227  28.407  25.192  1.00  0.00     0.133 A 
ATOM     20  N   UNL A   1      30.918  27.104  25.198  1.00  0.00    -0.216 NA
BRANCH  16  21
ATOM     21  C   UNL A   1      29.575  29.769  22.222  1.00  0.00     0.053 C 
ATOM     22  C   UNL A   1      28.069  29.822  22.007  1.00  0.00     0.011 C 
ENDBRANCH  16  21
BRANCH  19  23
ATOM     23  C   UNL A   1      32.122  28.895  26.308  1.00  0.00     0.051 C 
ATOM     24  C   UNL A   1      31.788  28.204  27.628  1.00  0.00     0.016 C 
ATOM     25  C   UNL A   1      33.593  28.719  25.942  1.00  0.00     0.016 C 
ENDBRANCH  19  23
ENDBRANCH  13  15
ENDBRANCH   8  13
ENDBRANCH   5   7
ENDBRANCH   4   5
ENDBRANCH   3   4
ENDBRANCH   2   3
ENDBRANCH   1   2
BRANCH   1  26
ATOM     26  C   UNL A   1      38.417  20.436  25.750  1.00  0.00     0.202 C 
BRANCH  26  27
ATOM     27  C   UNL A   1      39.382  19.245  25.742  1.00  0.00     0.261 C 
BRANCH  27  28
ATOM     28  O   UNL A   1      40.748  19.666  25.568  1.00  0.00    -0.460 OA
BRANCH  28  29
ATOM     29  C   UNL A   1      41.428  19.879  26.721  1.00  0.00     0.338 C 
ATOM     30  O   UNL A   1      42.076  19.056  27.352  1.00  0.00    -0.246 OA
BRANCH  29  31
ATOM     31  C   UNL A   1      41.445  21.321  27.039  1.00  0.00     0.060 A 
ATOM     32  C   UNL A   1      41.284  22.217  25.974  1.00  0.00     0.016 A 
ATOM     33  C   UNL A   1      41.675  21.792  28.333  1.00  0.00     0.016 A 
ATOM     34  C   UNL A   1      41.402  23.588  26.190  1.00  0.00     0.010 A 
ATOM     35  C   UNL A   1      41.802  23.171  28.546  1.00  0.00     0.010 A 
ATOM     36  C   UNL A   1      41.699  24.073  27.471  1.00  0.00    -0.014 A 
BRANCH  36  37
ATOM     37  C   UNL A   1      42.044  25.506  27.651  1.00  0.00     0.031 A 
ATOM     38  C   UNL A   1      43.342  26.019  27.085  1.00  0.00     0.074 A 
ATOM     39  C   UNL A   1      41.203  26.343  28.288  1.00  0.00     0.049 A 
ATOM     40  N   UNL A   1      43.863  27.216  27.156  1.00  0.00    -0.248 NA
ATOM     41  C   UNL A   1      44.164  25.048  26.343  1.00  0.00     0.031 C 
ATOM     42  C   UNL A   1      39.901  25.970  28.841  1.00  0.00     0.029 A 
ATOM     43  N   UNL A   1      41.322  27.678  28.584  1.00  0.00    -0.354 N 
ATOM     44  C   UNL A   1      45.079  27.142  26.485  1.00  0.00     0.074 A 
ATOM     45  C   UNL A   1      45.226  25.776  26.030  1.00  0.00     0.031 C 
ATOM     46  C   UNL A   1      39.350  27.048  29.426  1.00  0.00     0.029 A 
ATOM     47  C   UNL A   1      40.273  28.177  29.322  1.00  0.00     0.049 A 
ATOM     48  H   UNL A   1      42.086  28.227  28.296  1.00  0.00     0.167 HD
ATOM     49  C   UNL A   1      45.987  28.124  26.268  1.00  0.00     0.034 A 
ATOM     50  C   UNL A   1      40.093  29.395  29.875  1.00  0.00     0.034 A 
ATOM     51  C   UNL A   1      45.821  29.484  26.716  1.00  0.00     0.049 A 
ATOM     52  C   UNL A   1      41.153  30.455  29.668  1.00  0.00     0.074 A 
ATOM     53  C   UNL A   1      46.657  30.568  26.502  1.00  0.00     0.029 A 
ATOM     54  N   UNL A   1      44.761  29.946  27.483  1.00  0.00    -0.354 N 
ATOM     55  N   UNL A   1      42.278  30.380  28.994  1.00  0.00    -0.248 NA
ATOM     56  C   UNL A   1      40.914  31.765  30.288  1.00  0.00     0.031 C 
ATOM     57  C   UNL A   1      46.141  31.664  27.201  1.00  0.00     0.029 A 
ATOM     58  C   UNL A   1      44.942  31.288  27.785  1.00  0.00     0.049 A 
ATOM     59  H   UNL A   1      43.992  29.403  27.770  1.00  0.00     0.167 HD
ATOM     60  C   UNL A   1      42.857  31.646  29.079  1.00  0.00     0.074 A 
ATOM     61  C   UNL A   1      41.951  32.465  29.856  1.00  0.00     0.031 C 
ATOM     62  C   UNL A   1      44.029  32.093  28.560  1.00  0.00     0.034 A 
BRANCH  49  63
ATOM     63  C   UNL A   1      47.269  27.757  25.563  1.00  0.00     0.023 A 
ATOM     64  C   UNL A   1      47.404  27.832  24.167  1.00  0.00     0.031 A 
ATOM     65  C   UNL A   1      48.383  27.340  26.314  1.00  0.00     0.131 A 
ATOM     66  C   UNL A   1      48.614  27.458  23.562  1.00  0.00     0.055 A 
ATOM     67  C   UNL A   1      49.603  27.030  25.712  1.00  0.00     0.041 A 
ATOM     68  F   UNL A   1      48.302  27.228  27.650  1.00  0.00    -0.206 F 
ATOM     69  C   UNL A   1      49.721  27.080  24.327  1.00  0.00     0.022 A 
BRANCH  66  70
ATOM     70  S   UNL A   1      48.698  27.378  21.752  1.00  0.00     0.124 S 
ATOM     71  O   UNL A   1      47.492  28.109  21.369  1.00  0.00    -0.237 OA
ATOM     72  O   UNL A   1      49.964  28.041  21.464  1.00  0.00    -0.237 OA
ATOM     73  O   UNL A   1      48.665  25.945  21.470  1.00  0.00    -0.744 OA
ENDBRANCH  66  70
ENDBRANCH  49  63
BRANCH  50  74
ATOM     74  C   UNL A   1      38.900  29.683  30.725  1.00  0.00     0.023 A 
ATOM     75  C   UNL A   1      37.861  30.509  30.267  1.00  0.00     0.031 A 
ATOM     76  C   UNL A   1      38.831  29.217  32.051  1.00  0.00     0.131 A 
ATOM     77  C   UNL A   1      36.837  30.899  31.144  1.00  0.00     0.055 A 
ATOM     78  C   UNL A   1      37.775  29.555  32.900  1.00  0.00     0.041 A 
ATOM     79  F   UNL A   1      39.798  28.428  32.545  1.00  0.00    -0.206 F 
ATOM     80  C   UNL A   1      36.780  30.417  32.453  1.00  0.00     0.022 A 
BRANCH  77  81
ATOM     81  S   UNL A   1      35.649  32.153  30.588  1.00  0.00     0.124 S 
ATOM     82  O   UNL A   1      36.500  33.331  30.463  1.00  0.00    -0.237 OA
ATOM     83  O   UNL A   1      35.164  31.577  29.339  1.00  0.00    -0.237 OA
ATOM     84  O   UNL A   1      34.672  32.200  31.673  1.00  0.00    -0.744 OA
ENDBRANCH  77  81
ENDBRANCH  50  74
BRANCH  62  85
ATOM     85  C   UNL A   1      44.364  33.551  28.767  1.00  0.00     0.023 A 
ATOM     86  C   UNL A   1      45.011  34.006  29.928  1.00  0.00     0.031 A 
ATOM     87  C   UNL A   1      44.020  34.499  27.786  1.00  0.00     0.131 A 
ATOM     88  C   UNL A   1      45.244  35.378  30.106  1.00  0.00     0.055 A 
ATOM     89  C   UNL A   1      44.310  35.855  27.940  1.00  0.00     0.041 A 
ATOM     90  F   UNL A   1      43.399  34.120  26.657  1.00  0.00    -0.206 F 
ATOM     91  C   UNL A   1      44.913  36.303  29.111  1.00  0.00     0.022 A 
BRANCH  88  92
ATOM     92  S   UNL A   1      45.906  35.953  31.694  1.00  0.00     0.124 S 
ATOM     93  O   UNL A   1      46.589  34.762  32.187  1.00  0.00    -0.237 OA
ATOM     94  O   UNL A   1      46.768  37.060  31.290  1.00  0.00    -0.237 OA
ATOM     95  O   UNL A   1      44.714  36.340  32.444  1.00  0.00    -0.744 OA
ENDBRANCH  88  92
ENDBRANCH  62  85
ENDBRANCH  36  37
ENDBRANCH  29  31
ENDBRANCH  28  29
ENDBRANCH  27  28
ENDBRANCH  26  27
ENDBRANCH   1  26
TORSDOF 21
ENDMDL
