MODEL 1
REMARK VINA RESULT:     -11.4      0.000      0.000
REMARK SMILES C[C@H]1CCC[C@](Cc2cn3ccccc3n2)(C(=O)OCCOCCOC(=O)c2ccc(-c3c4nc(c(-c5cc(S(=O)(=O)[O-])ccc5F)c5ccc([nH]5)c(-c5cc(S(=O)(=O)[O-])ccc5F)c5nc(c(-c6cc(S(=O)(=O)[O-])ccc6F)c6ccc3[nH]6)C=C5)C=C4)cc2)C1
REMARK SMILES IDX 23 1 22 2 21 3 20 4 19 5 17 6 18 7 6 8 1 9 2 10 3 11 91 12
REMARK SMILES IDX 4 13 5 14 7 15 8 16 9 17 16 18 10 19 15 20 11 21 14 22 12 23
REMARK SMILES IDX 13 24 24 25 25 26 26 27 27 28 28 29 29 30 90 31 30 32 89 33
REMARK SMILES IDX 31 34 32 35 33 36 83 37 34 38 88 39 82 40 84 41 35 42 87 43
REMARK SMILES IDX 81 44 80 45 36 47 68 48 48 49 67 50 49 51 52 52 66 53 85 54
REMARK SMILES IDX 50 55 51 56 65 58 86 59 53 60 37 61 38 62 46 63 39 64 45 65
REMARK SMILES IDX 47 66 44 67 40 68 41 69 42 70 43 71 69 72 70 73 78 74 71 75
REMARK SMILES IDX 77 76 79 77 76 78 72 79 73 80 74 81 75 82 54 83 55 84 63 85
REMARK SMILES IDX 56 86 62 87 64 88 61 89 57 90 58 91 59 92 60 93
REMARK H PARENT 84 46 52 57
REMARK Flexibility Score: inf
ROOT
ATOM      1  C   UNL A   1      31.418  31.241  26.827  1.00  0.00     0.202 C 
ENDROOT
BRANCH   1   2
ATOM      2  O   UNL A   1      31.985  30.639  25.665  1.00  0.00    -0.374 OA
BRANCH   2   3
ATOM      3  C   UNL A   1      33.116  29.786  25.850  1.00  0.00     0.202 C 
BRANCH   3   4
ATOM      4  C   UNL A   1      33.020  28.776  26.991  1.00  0.00     0.261 C 
BRANCH   4   5
ATOM      5  O   UNL A   1      33.023  27.426  26.493  1.00  0.00    -0.463 OA
BRANCH   5   6
ATOM      6  C   UNL A   1      31.808  26.840  26.361  1.00  0.00     0.312 C 
ATOM      7  O   UNL A   1      30.921  26.913  27.206  1.00  0.00    -0.252 OA
BRANCH   6   8
ATOM      8  C   UNL A   1      31.659  26.009  25.069  1.00  0.00     0.074 C 
ATOM      9  C   UNL A   1      31.081  28.929  22.542  1.00  0.00     0.007 C 
ATOM     10  C   UNL A   1      30.750  27.973  23.688  1.00  0.00    -0.013 C 
ATOM     11  C   UNL A   1      29.465  27.194  23.389  1.00  0.00     0.003 C 
ATOM     12  C   UNL A   1      31.918  26.999  23.915  1.00  0.00     0.022 C 
ATOM     13  C   UNL A   1      29.120  26.224  24.512  1.00  0.00     0.001 C 
ATOM     14  C   UNL A   1      30.290  25.305  24.878  1.00  0.00     0.019 C 
BRANCH   8  15
ATOM     15  C   UNL A   1      32.786  24.937  25.221  1.00  0.00     0.076 C 
BRANCH  15  16
ATOM     16  C   UNL A   1      32.545  23.541  24.743  1.00  0.00     0.061 A 
ATOM     17  C   UNL A   1      32.356  23.056  23.466  1.00  0.00     0.116 A 
ATOM     18  N   UNL A   1      32.660  22.489  25.633  1.00  0.00    -0.234 NA
ATOM     19  N   UNL A   1      32.333  21.691  23.574  1.00  0.00    -0.307 N 
ATOM     20  C   UNL A   1      32.561  21.392  24.910  1.00  0.00     0.136 A 
ATOM     21  C   UNL A   1      32.161  20.731  22.582  1.00  0.00     0.093 A 
ATOM     22  C   UNL A   1      32.670  20.012  25.251  1.00  0.00     0.048 A 
ATOM     23  C   UNL A   1      32.240  19.430  22.911  1.00  0.00     0.018 A 
ATOM     24  C   UNL A   1      32.522  19.073  24.295  1.00  0.00     0.005 A 
ENDBRANCH  15  16
ENDBRANCH   8  15
ENDBRANCH   6   8
ENDBRANCH   5   6
ENDBRANCH   4   5
ENDBRANCH   3   4
ENDBRANCH   2   3
ENDBRANCH   1   2
BRANCH   1  25
ATOM     25  C   UNL A   1      31.489  32.771  26.925  1.00  0.00     0.261 C 
BRANCH  25  26
ATOM     26  O   UNL A   1      32.821  33.290  26.752  1.00  0.00    -0.460 OA
BRANCH  26  27
ATOM     27  C   UNL A   1      33.396  33.755  27.888  1.00  0.00     0.338 C 
ATOM     28  O   UNL A   1      32.908  34.556  28.680  1.00  0.00    -0.246 OA
BRANCH  27  29
ATOM     29  C   UNL A   1      34.649  33.035  28.179  1.00  0.00     0.060 A 
ATOM     30  C   UNL A   1      34.546  31.688  28.550  1.00  0.00     0.016 A 
ATOM     31  C   UNL A   1      35.887  33.679  28.193  1.00  0.00     0.016 A 
ATOM     32  C   UNL A   1      35.671  30.994  28.991  1.00  0.00     0.010 A 
ATOM     33  C   UNL A   1      37.016  32.982  28.647  1.00  0.00     0.010 A 
ATOM     34  C   UNL A   1      36.907  31.649  29.084  1.00  0.00    -0.014 A 
BRANCH  34  35
ATOM     35  C   UNL A   1      38.031  30.981  29.791  1.00  0.00     0.031 A 
ATOM     36  C   UNL A   1      38.306  31.345  31.226  1.00  0.00     0.074 A 
ATOM     37  C   UNL A   1      38.759  30.025  29.185  1.00  0.00     0.049 A 
ATOM     38  N   UNL A   1      39.243  30.912  32.029  1.00  0.00    -0.248 NA
ATOM     39  C   UNL A   1      37.397  32.329  31.838  1.00  0.00     0.031 C 
ATOM     40  C   UNL A   1      38.551  29.544  27.820  1.00  0.00     0.029 A 
ATOM     41  N   UNL A   1      39.823  29.287  29.642  1.00  0.00    -0.354 N 
ATOM     42  C   UNL A   1      39.037  31.566  33.241  1.00  0.00     0.074 A 
ATOM     43  C   UNL A   1      37.909  32.453  33.053  1.00  0.00     0.031 C 
ATOM     44  C   UNL A   1      39.464  28.596  27.548  1.00  0.00     0.029 A 
ATOM     45  C   UNL A   1      40.346  28.430  28.702  1.00  0.00     0.049 A 
ATOM     46  H   UNL A   1      40.177  29.364  30.557  1.00  0.00     0.167 HD
ATOM     47  C   UNL A   1      39.720  31.430  34.405  1.00  0.00     0.034 A 
ATOM     48  C   UNL A   1      41.427  27.624  28.758  1.00  0.00     0.034 A 
ATOM     49  C   UNL A   1      40.850  30.551  34.578  1.00  0.00     0.049 A 
ATOM     50  C   UNL A   1      42.232  27.565  30.037  1.00  0.00     0.074 A 
ATOM     51  C   UNL A   1      41.617  30.345  35.713  1.00  0.00     0.029 A 
ATOM     52  N   UNL A   1      41.383  29.737  33.587  1.00  0.00    -0.354 N 
ATOM     53  N   UNL A   1      42.029  28.194  31.172  1.00  0.00    -0.248 NA
ATOM     54  C   UNL A   1      43.405  26.681  30.043  1.00  0.00     0.031 C 
ATOM     55  C   UNL A   1      42.649  29.457  35.391  1.00  0.00     0.029 A 
ATOM     56  C   UNL A   1      42.483  29.049  34.077  1.00  0.00     0.049 A 
ATOM     57  H   UNL A   1      41.031  29.659  32.672  1.00  0.00     0.167 HD
ATOM     58  C   UNL A   1      43.028  27.751  32.036  1.00  0.00     0.074 A 
ATOM     59  C   UNL A   1      43.823  26.794  31.295  1.00  0.00     0.031 C 
ATOM     60  C   UNL A   1      43.268  28.099  33.326  1.00  0.00     0.034 A 
BRANCH  47  61
ATOM     61  C   UNL A   1      39.288  32.290  35.567  1.00  0.00     0.023 A 
ATOM     62  C   UNL A   1      39.708  33.625  35.695  1.00  0.00     0.031 A 
ATOM     63  C   UNL A   1      38.450  31.762  36.566  1.00  0.00     0.131 A 
ATOM     64  C   UNL A   1      39.331  34.371  36.824  1.00  0.00     0.055 A 
ATOM     65  C   UNL A   1      38.022  32.530  37.649  1.00  0.00     0.041 A 
ATOM     66  F   UNL A   1      38.037  30.487  36.507  1.00  0.00    -0.206 F 
ATOM     67  C   UNL A   1      38.471  33.841  37.789  1.00  0.00     0.022 A 
BRANCH  64  68
ATOM     68  S   UNL A   1      40.070  36.009  37.071  1.00  0.00     0.124 S 
ATOM     69  O   UNL A   1      41.455  35.663  37.383  1.00  0.00    -0.237 OA
ATOM     70  O   UNL A   1      39.848  36.654  35.783  1.00  0.00    -0.237 OA
ATOM     71  O   UNL A   1      39.307  36.565  38.187  1.00  0.00    -0.744 OA
ENDBRANCH  64  68
ENDBRANCH  47  61
BRANCH  48  72
ATOM     72  C   UNL A   1      41.858  26.842  27.562  1.00  0.00     0.023 A 
ATOM     73  C   UNL A   1      41.585  25.469  27.453  1.00  0.00     0.031 A 
ATOM     74  C   UNL A   1      42.631  27.441  26.550  1.00  0.00     0.131 A 
ATOM     75  C   UNL A   1      42.130  24.730  26.390  1.00  0.00     0.055 A 
ATOM     76  C   UNL A   1      43.120  26.714  25.464  1.00  0.00     0.041 A 
ATOM     77  F   UNL A   1      42.927  28.750  26.606  1.00  0.00    -0.206 F 
ATOM     78  C   UNL A   1      42.885  25.345  25.390  1.00  0.00     0.022 A 
BRANCH  75  79
ATOM     79  S   UNL A   1      41.937  22.925  26.399  1.00  0.00     0.124 S 
ATOM     80  O   UNL A   1      42.675  22.554  27.602  1.00  0.00    -0.237 OA
ATOM     81  O   UNL A   1      40.487  22.777  26.463  1.00  0.00    -0.237 OA
ATOM     82  O   UNL A   1      42.550  22.511  25.139  1.00  0.00    -0.744 OA
ENDBRANCH  75  79
ENDBRANCH  48  72
BRANCH  60  83
ATOM     83  C   UNL A   1      44.402  27.395  34.031  1.00  0.00     0.023 A 
ATOM     84  C   UNL A   1      44.213  26.176  34.705  1.00  0.00     0.031 A 
ATOM     85  C   UNL A   1      45.690  27.961  34.034  1.00  0.00     0.131 A 
ATOM     86  C   UNL A   1      45.282  25.590  35.401  1.00  0.00     0.055 A 
ATOM     87  C   UNL A   1      46.762  27.344  34.680  1.00  0.00     0.041 A 
ATOM     88  F   UNL A   1      45.926  29.124  33.406  1.00  0.00    -0.206 F 
ATOM     89  C   UNL A   1      46.559  26.158  35.380  1.00  0.00     0.022 A 
BRANCH  86  90
ATOM     90  S   UNL A   1      44.963  24.117  36.412  1.00  0.00     0.124 S 
ATOM     91  O   UNL A   1      43.934  23.433  35.635  1.00  0.00    -0.237 OA
ATOM     92  O   UNL A   1      46.272  23.471  36.443  1.00  0.00    -0.237 OA
ATOM     93  O   UNL A   1      44.514  24.666  37.689  1.00  0.00    -0.744 OA
ENDBRANCH  86  90
ENDBRANCH  60  83
ENDBRANCH  34  35
ENDBRANCH  27  29
ENDBRANCH  26  27
ENDBRANCH  25  26
ENDBRANCH   1  25
TORSDOF 19
ENDMDL
MODEL 2
REMARK VINA RESULT:     -11.4      1.540      7.949
REMARK SMILES C[C@H]1CCC[C@](Cc2cn3ccccc3n2)(C(=O)OCCOCCOC(=O)c2ccc(-c3c4nc(c(-c5cc(S(=O)(=O)[O-])ccc5F)c5ccc([nH]5)c(-c5cc(S(=O)(=O)[O-])ccc5F)c5nc(c(-c6cc(S(=O)(=O)[O-])ccc6F)c6ccc3[nH]6)C=C5)C=C4)cc2)C1
REMARK SMILES IDX 23 1 22 2 21 3 20 4 19 5 17 6 18 7 6 8 1 9 2 10 3 11 91 12
REMARK SMILES IDX 4 13 5 14 7 15 8 16 9 17 16 18 10 19 15 20 11 21 14 22 12 23
REMARK SMILES IDX 13 24 24 25 25 26 26 27 27 28 28 29 29 30 90 31 30 32 89 33
REMARK SMILES IDX 31 34 32 35 33 36 83 37 34 38 88 39 82 40 84 41 35 42 87 43
REMARK SMILES IDX 81 44 80 45 36 47 68 48 48 49 67 50 49 51 52 52 66 53 85 54
REMARK SMILES IDX 50 55 51 56 65 58 86 59 53 60 37 61 38 62 46 63 39 64 45 65
REMARK SMILES IDX 47 66 44 67 40 68 41 69 42 70 43 71 69 72 70 73 78 74 71 75
REMARK SMILES IDX 77 76 79 77 76 78 72 79 73 80 74 81 75 82 54 83 55 84 63 85
REMARK SMILES IDX 56 86 62 87 64 88 61 89 57 90 58 91 59 92 60 93
REMARK H PARENT 84 46 52 57
REMARK Flexibility Score: inf
ROOT
ATOM      1  C   UNL A   1      30.888  30.176  25.008  1.00  0.00     0.202 C 
ENDROOT
BRANCH   1   2
ATOM      2  O   UNL A   1      30.167  30.514  23.825  1.00  0.00    -0.374 OA
BRANCH   2   3
ATOM      3  C   UNL A   1      29.636  29.440  23.048  1.00  0.00     0.202 C 
BRANCH   3   4
ATOM      4  C   UNL A   1      29.931  28.030  23.555  1.00  0.00     0.261 C 
BRANCH   4   5
ATOM      5  O   UNL A   1      30.738  27.297  22.615  1.00  0.00    -0.463 OA
BRANCH   5   6
ATOM      6  C   UNL A   1      31.201  26.097  23.042  1.00  0.00     0.312 C 
ATOM      7  O   UNL A   1      30.484  25.210  23.493  1.00  0.00    -0.252 OA
BRANCH   6   8
ATOM      8  C   UNL A   1      32.738  25.965  22.968  1.00  0.00     0.074 C 
ATOM      9  C   UNL A   1      33.651  27.702  26.344  1.00  0.00     0.007 C 
ATOM     10  C   UNL A   1      33.158  27.602  24.901  1.00  0.00    -0.013 C 
ATOM     11  C   UNL A   1      33.990  28.503  23.982  1.00  0.00     0.003 C 
ATOM     12  C   UNL A   1      33.232  26.144  24.418  1.00  0.00     0.022 C 
ATOM     13  C   UNL A   1      33.526  28.412  22.533  1.00  0.00     0.001 C 
ATOM     14  C   UNL A   1      33.453  26.968  22.027  1.00  0.00     0.019 C 
BRANCH   8  15
ATOM     15  C   UNL A   1      32.929  24.510  22.431  1.00  0.00     0.076 C 
BRANCH  15  16
ATOM     16  C   UNL A   1      33.801  23.556  23.183  1.00  0.00     0.061 A 
ATOM     17  C   UNL A   1      33.480  22.392  23.852  1.00  0.00     0.116 A 
ATOM     18  N   UNL A   1      35.175  23.702  23.128  1.00  0.00    -0.234 NA
ATOM     19  N   UNL A   1      34.669  21.828  24.231  1.00  0.00    -0.307 N 
ATOM     20  C   UNL A   1      35.676  22.644  23.734  1.00  0.00     0.136 A 
ATOM     21  C   UNL A   1      34.900  20.654  24.940  1.00  0.00     0.093 A 
ATOM     22  C   UNL A   1      37.017  22.204  23.931  1.00  0.00     0.048 A 
ATOM     23  C   UNL A   1      36.168  20.254  25.145  1.00  0.00     0.018 A 
ATOM     24  C   UNL A   1      37.253  21.058  24.601  1.00  0.00     0.005 A 
ENDBRANCH  15  16
ENDBRANCH   8  15
ENDBRANCH   6   8
ENDBRANCH   5   6
ENDBRANCH   4   5
ENDBRANCH   3   4
ENDBRANCH   2   3
ENDBRANCH   1   2
BRANCH   1  25
ATOM     25  C   UNL A   1      31.240  31.326  25.964  1.00  0.00     0.261 C 
BRANCH  25  26
ATOM     26  O   UNL A   1      32.311  31.003  26.871  1.00  0.00    -0.460 OA
BRANCH  26  27
ATOM     27  C   UNL A   1      33.023  32.072  27.304  1.00  0.00     0.338 C 
ATOM     28  O   UNL A   1      32.606  33.215  27.458  1.00  0.00    -0.246 OA
BRANCH  27  29
ATOM     29  C   UNL A   1      34.365  31.661  27.758  1.00  0.00     0.060 A 
ATOM     30  C   UNL A   1      34.556  30.308  28.064  1.00  0.00     0.016 A 
ATOM     31  C   UNL A   1      35.386  32.588  27.982  1.00  0.00     0.016 A 
ATOM     32  C   UNL A   1      35.748  29.882  28.648  1.00  0.00     0.010 A 
ATOM     33  C   UNL A   1      36.580  32.159  28.579  1.00  0.00     0.010 A 
ATOM     34  C   UNL A   1      36.752  30.812  28.949  1.00  0.00    -0.014 A 
BRANCH  34  35
ATOM     35  C   UNL A   1      37.899  30.393  29.797  1.00  0.00     0.031 A 
ATOM     36  C   UNL A   1      38.887  29.400  29.245  1.00  0.00     0.074 A 
ATOM     37  C   UNL A   1      38.090  30.930  31.017  1.00  0.00     0.049 A 
ATOM     38  N   UNL A   1      39.943  28.875  29.810  1.00  0.00    -0.248 NA
ATOM     39  C   UNL A   1      38.652  28.940  27.866  1.00  0.00     0.031 C 
ATOM     40  C   UNL A   1      37.237  31.943  31.635  1.00  0.00     0.029 A 
ATOM     41  N   UNL A   1      39.067  30.696  31.953  1.00  0.00    -0.354 N 
ATOM     42  C   UNL A   1      40.501  28.026  28.859  1.00  0.00     0.074 A 
ATOM     43  C   UNL A   1      39.644  28.079  27.694  1.00  0.00     0.031 C 
ATOM     44  C   UNL A   1      37.724  32.238  32.853  1.00  0.00     0.029 A 
ATOM     45  C   UNL A   1      38.898  31.408  33.118  1.00  0.00     0.049 A 
ATOM     46  H   UNL A   1      39.817  30.077  31.805  1.00  0.00     0.167 HD
ATOM     47  C   UNL A   1      41.631  27.280  28.946  1.00  0.00     0.034 A 
ATOM     48  C   UNL A   1      39.595  31.375  34.272  1.00  0.00     0.034 A 
ATOM     49  C   UNL A   1      42.472  27.226  30.115  1.00  0.00     0.049 A 
ATOM     50  C   UNL A   1      40.793  30.460  34.379  1.00  0.00     0.074 A 
ATOM     51  C   UNL A   1      43.634  26.498  30.310  1.00  0.00     0.029 A 
ATOM     52  N   UNL A   1      42.240  27.922  31.294  1.00  0.00    -0.354 N 
ATOM     53  N   UNL A   1      41.306  29.658  33.472  1.00  0.00    -0.248 NA
ATOM     54  C   UNL A   1      41.512  30.452  35.660  1.00  0.00     0.031 C 
ATOM     55  C   UNL A   1      44.067  26.702  31.624  1.00  0.00     0.029 A 
ATOM     56  C   UNL A   1      43.220  27.618  32.227  1.00  0.00     0.049 A 
ATOM     57  H   UNL A   1      41.490  28.541  31.446  1.00  0.00     0.167 HD
ATOM     58  C   UNL A   1      42.427  29.081  34.066  1.00  0.00     0.074 A 
ATOM     59  C   UNL A   1      42.523  29.637  35.399  1.00  0.00     0.031 C 
ATOM     60  C   UNL A   1      43.303  28.178  33.555  1.00  0.00     0.034 A 
BRANCH  47  61
ATOM     61  C   UNL A   1      41.992  26.426  27.756  1.00  0.00     0.023 A 
ATOM     62  C   UNL A   1      41.562  25.093  27.644  1.00  0.00     0.031 A 
ATOM     63  C   UNL A   1      42.785  26.953  26.720  1.00  0.00     0.131 A 
ATOM     64  C   UNL A   1      41.970  24.316  26.548  1.00  0.00     0.055 A 
ATOM     65  C   UNL A   1      43.130  26.197  25.599  1.00  0.00     0.041 A 
ATOM     66  F   UNL A   1      43.243  28.213  26.784  1.00  0.00    -0.206 F 
ATOM     67  C   UNL A   1      42.731  24.866  25.513  1.00  0.00     0.022 A 
BRANCH  64  68
ATOM     68  S   UNL A   1      41.587  22.542  26.548  1.00  0.00     0.124 S 
ATOM     69  O   UNL A   1      42.330  22.080  25.378  1.00  0.00    -0.237 OA
ATOM     70  O   UNL A   1      42.099  22.109  27.842  1.00  0.00    -0.237 OA
ATOM     71  O   UNL A   1      40.132  22.506  26.409  1.00  0.00    -0.744 OA
ENDBRANCH  64  68
ENDBRANCH  47  61
BRANCH  48  72
ATOM     72  C   UNL A   1      39.162  32.186  35.448  1.00  0.00     0.023 A 
ATOM     73  C   UNL A   1      39.568  33.522  35.601  1.00  0.00     0.031 A 
ATOM     74  C   UNL A   1      38.408  31.606  36.485  1.00  0.00     0.131 A 
ATOM     75  C   UNL A   1      39.270  34.213  36.786  1.00  0.00     0.055 A 
ATOM     76  C   UNL A   1      38.063  32.317  37.636  1.00  0.00     0.041 A 
ATOM     77  F   UNL A   1      37.998  30.331  36.395  1.00  0.00    -0.206 F 
ATOM     78  C   UNL A   1      38.510  33.623  37.799  1.00  0.00     0.022 A 
BRANCH  75  79
ATOM     79  S   UNL A   1      39.993  35.858  37.038  1.00  0.00     0.124 S 
ATOM     80  O   UNL A   1      39.279  36.317  38.224  1.00  0.00    -0.237 OA
ATOM     81  O   UNL A   1      41.405  35.542  37.219  1.00  0.00    -0.237 OA
ATOM     82  O   UNL A   1      39.667  36.565  35.800  1.00  0.00    -0.744 OA
ENDBRANCH  75  79
ENDBRANCH  48  72
BRANCH  60  83
ATOM     83  C   UNL A   1      44.470  27.781  34.426  1.00  0.00     0.023 A 
ATOM     84  C   UNL A   1      44.390  26.707  35.328  1.00  0.00     0.031 A 
ATOM     85  C   UNL A   1      45.678  28.499  34.355  1.00  0.00     0.131 A 
ATOM     86  C   UNL A   1      45.479  26.415  36.165  1.00  0.00     0.055 A 
ATOM     87  C   UNL A   1      46.777  28.167  35.148  1.00  0.00     0.041 A 
ATOM     88  F   UNL A   1      45.809  29.535  33.511  1.00  0.00    -0.206 F 
ATOM     89  C   UNL A   1      46.678  27.128  36.069  1.00  0.00     0.022 A 
BRANCH  86  90
ATOM     90  S   UNL A   1      45.282  25.144  37.444  1.00  0.00     0.124 S 
ATOM     91  O   UNL A   1      46.636  25.037  37.978  1.00  0.00    -0.237 OA
ATOM     92  O   UNL A   1      44.293  25.747  38.333  1.00  0.00    -0.237 OA
ATOM     93  O   UNL A   1      44.814  23.976  36.700  1.00  0.00    -0.744 OA
ENDBRANCH  86  90
ENDBRANCH  60  83
ENDBRANCH  34  35
ENDBRANCH  27  29
ENDBRANCH  26  27
ENDBRANCH  25  26
ENDBRANCH   1  25
TORSDOF 19
ENDMDL
MODEL 3
REMARK VINA RESULT:     -11.3      4.762      8.327
REMARK SMILES C[C@H]1CCC[C@](Cc2cn3ccccc3n2)(C(=O)OCCOCCOC(=O)c2ccc(-c3c4nc(c(-c5cc(S(=O)(=O)[O-])ccc5F)c5ccc([nH]5)c(-c5cc(S(=O)(=O)[O-])ccc5F)c5nc(c(-c6cc(S(=O)(=O)[O-])ccc6F)c6ccc3[nH]6)C=C5)C=C4)cc2)C1
REMARK SMILES IDX 23 1 22 2 21 3 20 4 19 5 17 6 18 7 6 8 1 9 2 10 3 11 91 12
REMARK SMILES IDX 4 13 5 14 7 15 8 16 9 17 16 18 10 19 15 20 11 21 14 22 12 23
REMARK SMILES IDX 13 24 24 25 25 26 26 27 27 28 28 29 29 30 90 31 30 32 89 33
REMARK SMILES IDX 31 34 32 35 33 36 83 37 34 38 88 39 82 40 84 41 35 42 87 43
REMARK SMILES IDX 81 44 80 45 36 47 68 48 48 49 67 50 49 51 52 52 66 53 85 54
REMARK SMILES IDX 50 55 51 56 65 58 86 59 53 60 37 61 38 62 46 63 39 64 45 65
REMARK SMILES IDX 47 66 44 67 40 68 41 69 42 70 43 71 69 72 70 73 78 74 71 75
REMARK SMILES IDX 77 76 79 77 76 78 72 79 73 80 74 81 75 82 54 83 55 84 63 85
REMARK SMILES IDX 56 86 62 87 64 88 61 89 57 90 58 91 59 92 60 93
REMARK H PARENT 84 46 52 57
REMARK Flexibility Score: inf
ROOT
ATOM      1  C   UNL A   1      35.472  20.095  24.884  1.00  0.00     0.202 C 
ENDROOT
BRANCH   1   2
ATOM      2  O   UNL A   1      34.614  19.030  24.478  1.00  0.00    -0.374 OA
BRANCH   2   3
ATOM      3  C   UNL A   1      33.314  18.970  25.066  1.00  0.00     0.202 C 
BRANCH   3   4
ATOM      4  C   UNL A   1      32.252  19.879  24.450  1.00  0.00     0.261 C 
BRANCH   4   5
ATOM      5  O   UNL A   1      31.865  20.921  25.364  1.00  0.00    -0.463 OA
BRANCH   5   6
ATOM      6  C   UNL A   1      31.868  22.180  24.863  1.00  0.00     0.312 C 
ATOM      7  O   UNL A   1      31.742  22.440  23.670  1.00  0.00    -0.252 OA
BRANCH   6   8
ATOM      8  C   UNL A   1      32.113  23.269  25.929  1.00  0.00     0.074 C 
ATOM      9  C   UNL A   1      35.804  24.173  25.026  1.00  0.00     0.007 C 
ATOM     10  C   UNL A   1      34.654  23.321  25.563  1.00  0.00    -0.013 C 
ATOM     11  C   UNL A   1      34.892  22.955  27.031  1.00  0.00     0.003 C 
ATOM     12  C   UNL A   1      33.324  24.077  25.416  1.00  0.00     0.022 C 
ATOM     13  C   UNL A   1      33.753  22.115  27.595  1.00  0.00     0.001 C 
ATOM     14  C   UNL A   1      32.380  22.753  27.367  1.00  0.00     0.019 C 
BRANCH   8  15
ATOM     15  C   UNL A   1      30.779  24.082  25.899  1.00  0.00     0.076 C 
BRANCH  15  16
ATOM     16  C   UNL A   1      30.731  25.395  25.186  1.00  0.00     0.061 A 
ATOM     17  C   UNL A   1      30.067  25.759  24.032  1.00  0.00     0.116 A 
ATOM     18  N   UNL A   1      31.287  26.513  25.780  1.00  0.00    -0.234 NA
ATOM     19  N   UNL A   1      30.235  27.112  23.904  1.00  0.00    -0.307 N 
ATOM     20  C   UNL A   1      30.954  27.532  25.014  1.00  0.00     0.136 A 
ATOM     21  C   UNL A   1      29.774  27.967  22.908  1.00  0.00     0.093 A 
ATOM     22  C   UNL A   1      31.176  28.934  25.144  1.00  0.00     0.048 A 
ATOM     23  C   UNL A   1      30.005  29.286  23.022  1.00  0.00     0.018 A 
ATOM     24  C   UNL A   1      30.717  29.775  24.195  1.00  0.00     0.005 A 
ENDBRANCH  15  16
ENDBRANCH   8  15
ENDBRANCH   6   8
ENDBRANCH   5   6
ENDBRANCH   4   5
ENDBRANCH   3   4
ENDBRANCH   2   3
ENDBRANCH   1   2
BRANCH   1  25
ATOM     25  C   UNL A   1      36.968  19.775  25.014  1.00  0.00     0.261 C 
BRANCH  25  26
ATOM     26  O   UNL A   1      37.780  20.941  25.246  1.00  0.00    -0.460 OA
BRANCH  26  27
ATOM     27  C   UNL A   1      38.960  20.692  25.865  1.00  0.00     0.338 C 
ATOM     28  O   UNL A   1      39.620  19.660  25.793  1.00  0.00    -0.246 OA
BRANCH  27  29
ATOM     29  C   UNL A   1      39.478  21.906  26.522  1.00  0.00     0.060 A 
ATOM     30  C   UNL A   1      38.923  23.133  26.137  1.00  0.00     0.016 A 
ATOM     31  C   UNL A   1      40.552  21.864  27.413  1.00  0.00     0.016 A 
ATOM     32  C   UNL A   1      39.474  24.328  26.598  1.00  0.00     0.010 A 
ATOM     33  C   UNL A   1      41.111  23.068  27.867  1.00  0.00     0.010 A 
ATOM     34  C   UNL A   1      40.599  24.305  27.432  1.00  0.00    -0.014 A 
BRANCH  34  35
ATOM     35  C   UNL A   1      41.327  25.572  27.706  1.00  0.00     0.031 A 
ATOM     36  C   UNL A   1      40.621  26.667  28.461  1.00  0.00     0.074 A 
ATOM     37  C   UNL A   1      42.613  25.724  27.338  1.00  0.00     0.049 A 
ATOM     38  N   UNL A   1      41.048  27.859  28.790  1.00  0.00    -0.248 NA
ATOM     39  C   UNL A   1      39.249  26.375  28.909  1.00  0.00     0.031 C 
ATOM     40  C   UNL A   1      43.420  24.714  26.656  1.00  0.00     0.029 A 
ATOM     41  N   UNL A   1      43.465  26.790  27.490  1.00  0.00    -0.354 N 
ATOM     42  C   UNL A   1      40.002  28.459  29.484  1.00  0.00     0.074 A 
ATOM     43  C   UNL A   1      38.907  27.512  29.495  1.00  0.00     0.031 C 
ATOM     44  C   UNL A   1      44.649  25.213  26.440  1.00  0.00     0.029 A 
ATOM     45  C   UNL A   1      44.707  26.589  26.931  1.00  0.00     0.049 A 
ATOM     46  H   UNL A   1      43.212  27.619  27.953  1.00  0.00     0.167 HD
ATOM     47  C   UNL A   1      39.962  29.683  30.068  1.00  0.00     0.034 A 
ATOM     48  C   UNL A   1      45.757  27.427  26.809  1.00  0.00     0.034 A 
ATOM     49  C   UNL A   1      41.055  30.623  30.041  1.00  0.00     0.049 A 
ATOM     50  C   UNL A   1      45.652  28.822  27.381  1.00  0.00     0.074 A 
ATOM     51  C   UNL A   1      41.116  31.891  30.594  1.00  0.00     0.029 A 
ATOM     52  N   UNL A   1      42.278  30.404  29.421  1.00  0.00    -0.354 N 
ATOM     53  N   UNL A   1      44.654  29.377  28.030  1.00  0.00    -0.248 NA
ATOM     54  C   UNL A   1      46.818  29.699  27.213  1.00  0.00     0.031 C 
ATOM     55  C   UNL A   1      42.347  32.461  30.255  1.00  0.00     0.029 A 
ATOM     56  C   UNL A   1      43.087  31.522  29.555  1.00  0.00     0.049 A 
ATOM     57  H   UNL A   1      42.534  29.575  28.956  1.00  0.00     0.167 HD
ATOM     58  C   UNL A   1      45.090  30.655  28.377  1.00  0.00     0.074 A 
ATOM     59  C   UNL A   1      46.443  30.781  27.878  1.00  0.00     0.031 C 
ATOM     60  C   UNL A   1      44.435  31.635  29.050  1.00  0.00     0.034 A 
BRANCH  47  61
ATOM     61  C   UNL A   1      38.676  30.089  30.743  1.00  0.00     0.023 A 
ATOM     62  C   UNL A   1      37.676  30.805  30.061  1.00  0.00     0.031 A 
ATOM     63  C   UNL A   1      38.449  29.760  32.091  1.00  0.00     0.131 A 
ATOM     64  C   UNL A   1      36.520  31.214  30.745  1.00  0.00     0.055 A 
ATOM     65  C   UNL A   1      37.267  30.109  32.746  1.00  0.00     0.041 A 
ATOM     66  F   UNL A   1      39.378  29.097  32.798  1.00  0.00    -0.206 F 
ATOM     67  C   UNL A   1      36.298  30.850  32.075  1.00  0.00     0.022 A 
BRANCH  64  68
ATOM     68  S   UNL A   1      35.360  32.326  29.903  1.00  0.00     0.124 S 
ATOM     69  O   UNL A   1      34.891  31.485  28.804  1.00  0.00    -0.237 OA
ATOM     70  O   UNL A   1      34.386  32.616  30.948  1.00  0.00    -0.237 OA
ATOM     71  O   UNL A   1      36.198  33.455  29.501  1.00  0.00    -0.744 OA
ENDBRANCH  64  68
ENDBRANCH  47  61
BRANCH  48  72
ATOM     72  C   UNL A   1      46.986  27.007  26.073  1.00  0.00     0.023 A 
ATOM     73  C   UNL A   1      48.046  26.364  26.733  1.00  0.00     0.031 A 
ATOM     74  C   UNL A   1      47.154  27.324  24.713  1.00  0.00     0.131 A 
ATOM     75  C   UNL A   1      49.247  26.115  26.050  1.00  0.00     0.055 A 
ATOM     76  C   UNL A   1      48.329  27.020  24.022  1.00  0.00     0.041 A 
ATOM     77  F   UNL A   1      46.176  27.943  24.033  1.00  0.00    -0.206 F 
ATOM     78  C   UNL A   1      49.391  26.427  24.697  1.00  0.00     0.022 A 
BRANCH  75  79
ATOM     79  S   UNL A   1      50.666  25.483  26.990  1.00  0.00     0.124 S 
ATOM     80  O   UNL A   1      51.657  25.293  25.937  1.00  0.00    -0.237 OA
ATOM     81  O   UNL A   1      50.919  26.575  27.923  1.00  0.00    -0.237 OA
ATOM     82  O   UNL A   1      50.153  24.255  27.594  1.00  0.00    -0.744 OA
ENDBRANCH  75  79
ENDBRANCH  48  72
BRANCH  60  83
ATOM     83  C   UNL A   1      45.199  32.905  29.334  1.00  0.00     0.023 A 
ATOM     84  C   UNL A   1      45.162  34.004  28.458  1.00  0.00     0.031 A 
ATOM     85  C   UNL A   1      45.984  33.012  30.496  1.00  0.00     0.131 A 
ATOM     86  C   UNL A   1      45.940  35.140  28.729  1.00  0.00     0.055 A 
ATOM     87  C   UNL A   1      46.710  34.167  30.790  1.00  0.00     0.041 A 
ATOM     88  F   UNL A   1      46.056  31.992  31.367  1.00  0.00    -0.206 F 
ATOM     89  C   UNL A   1      46.701  35.235  29.897  1.00  0.00     0.022 A 
BRANCH  86  90
ATOM     90  S   UNL A   1      46.014  36.464  27.491  1.00  0.00     0.124 S 
ATOM     91  O   UNL A   1      45.249  35.891  26.387  1.00  0.00    -0.237 OA
ATOM     92  O   UNL A   1      45.384  37.580  28.189  1.00  0.00    -0.237 OA
ATOM     93  O   UNL A   1      47.445  36.620  27.238  1.00  0.00    -0.744 OA
ENDBRANCH  86  90
ENDBRANCH  60  83
ENDBRANCH  34  35
ENDBRANCH  27  29
ENDBRANCH  26  27
ENDBRANCH  25  26
ENDBRANCH   1  25
TORSDOF 19
ENDMDL
