MODEL 1
REMARK VINA RESULT:     -11.6      0.000      0.000
REMARK SMILES O=C(OCCOCCOC(=O)c1ccc(-c2c3nc(c(-c4cc(S(=O)(=O)[O-])ccc4F)c4ccc([nH]4)c(-c4cc(S(=O)(=O)[O-])ccc4F)c4nc(c(-c5cc(S(=O)(=O)[O-])ccc5F)c5ccc2[nH]5)C=C4)C=C3)cc1)c1ccc(NS(=O)(=O)C2=Cc3ccccc3CC2)cc1
REMARK SMILES IDX 6 1 5 2 4 3 3 4 2 5 1 6 75 7 76 8 94 9 77 10 93 11 78 12
REMARK SMILES IDX 79 13 80 15 81 16 82 17 83 18 84 19 92 20 85 21 91 22 86 23
REMARK SMILES IDX 90 24 87 25 89 26 88 27 7 28 8 29 9 30 10 31 11 32 12 33
REMARK SMILES IDX 13 34 74 35 14 36 73 37 15 38 16 39 17 40 67 41 18 42 72 43
REMARK SMILES IDX 66 44 68 45 19 46 71 47 65 48 64 49 20 51 52 52 32 53 51 54
REMARK SMILES IDX 33 55 36 56 50 57 69 58 34 59 35 60 49 62 70 63 37 64 21 65
REMARK SMILES IDX 22 66 30 67 23 68 29 69 31 70 28 71 24 72 25 73 26 74 27 75
REMARK SMILES IDX 53 76 54 77 62 78 55 79 61 80 63 81 60 82 56 83 57 84 58 85
REMARK SMILES IDX 59 86 38 87 39 88 47 89 40 90 46 91 48 92 45 93 41 94 42 95
REMARK SMILES IDX 43 96 44 97
REMARK H PARENT 79 14 68 50 36 61
REMARK Flexibility Score: inf
ROOT
ATOM      1  O   UNL A   1      33.427  29.236  25.599  1.00  0.00    -0.374 OA
ENDROOT
BRANCH   1   2
ATOM      2  C   UNL A   1      33.678  28.454  24.429  1.00  0.00     0.202 C 
BRANCH   2   3
ATOM      3  C   UNL A   1      33.073  29.012  23.138  1.00  0.00     0.261 C 
BRANCH   3   4
ATOM      4  O   UNL A   1      32.356  28.029  22.369  1.00  0.00    -0.460 OA
BRANCH   4   5
ATOM      5  C   UNL A   1      31.137  27.472  22.556  1.00  0.00     0.338 C 
ATOM      6  O   UNL A   1      30.165  28.032  22.048  1.00  0.00    -0.246 OA
BRANCH   5   7
ATOM      7  C   UNL A   1      30.858  26.251  23.380  1.00  0.00     0.060 A 
ATOM      8  C   UNL A   1      30.799  24.949  22.913  1.00  0.00     0.018 A 
ATOM      9  C   UNL A   1      30.689  26.427  24.768  1.00  0.00     0.018 A 
ATOM     10  C   UNL A   1      30.707  23.882  23.795  1.00  0.00     0.027 A 
ATOM     11  C   UNL A   1      30.731  25.335  25.655  1.00  0.00     0.027 A 
ATOM     12  C   UNL A   1      30.863  24.049  25.149  1.00  0.00     0.049 A 
BRANCH  12  13
ATOM     13  N   UNL A   1      31.498  23.041  25.935  1.00  0.00    -0.280 N 
ATOM     14  H   UNL A   1      30.932  22.494  26.526  1.00  0.00     0.180 HD
BRANCH  13  15
ATOM     15  S   UNL A   1      33.168  22.726  25.914  1.00  0.00     0.258 S 
ATOM     16  O   UNL A   1      33.540  22.898  27.308  1.00  0.00    -0.202 OA
ATOM     17  O   UNL A   1      33.298  21.416  25.308  1.00  0.00    -0.202 OA
BRANCH  15  18
ATOM     18  C   UNL A   1      34.033  23.959  24.904  1.00  0.00     0.066 C 
ATOM     19  C   UNL A   1      35.098  24.538  25.516  1.00  0.00     0.026 C 
ATOM     20  C   UNL A   1      34.412  23.556  23.475  1.00  0.00     0.055 C 
ATOM     21  C   UNL A   1      36.341  23.694  25.470  1.00  0.00    -0.021 A 
ATOM     22  C   UNL A   1      35.405  22.394  23.494  1.00  0.00     0.041 C 
ATOM     23  C   UNL A   1      37.418  23.986  26.305  1.00  0.00     0.008 A 
ATOM     24  C   UNL A   1      36.436  22.597  24.579  1.00  0.00    -0.040 A 
ATOM     25  C   UNL A   1      38.519  23.127  26.345  1.00  0.00     0.001 A 
ATOM     26  C   UNL A   1      37.503  21.702  24.682  1.00  0.00     0.004 A 
ATOM     27  C   UNL A   1      38.538  21.963  25.574  1.00  0.00     0.000 A 
ENDBRANCH  15  18
ENDBRANCH  13  15
ENDBRANCH  12  13
ENDBRANCH   5   7
ENDBRANCH   4   5
ENDBRANCH   3   4
ENDBRANCH   2   3
ENDBRANCH   1   2
BRANCH   1  28
ATOM     28  C   UNL A   1      32.056  29.639  25.745  1.00  0.00     0.202 C 
BRANCH  28  29
ATOM     29  C   UNL A   1      31.880  31.078  26.251  1.00  0.00     0.261 C 
BRANCH  29  30
ATOM     30  O   UNL A   1      32.583  31.269  27.484  1.00  0.00    -0.460 OA
BRANCH  30  31
ATOM     31  C   UNL A   1      33.338  32.397  27.550  1.00  0.00     0.338 C 
ATOM     32  O   UNL A   1      32.969  33.542  27.395  1.00  0.00    -0.246 OA
BRANCH  31  33
ATOM     33  C   UNL A   1      34.659  32.010  28.094  1.00  0.00     0.060 A 
ATOM     34  C   UNL A   1      34.813  30.699  28.566  1.00  0.00     0.016 A 
ATOM     35  C   UNL A   1      35.741  32.893  28.075  1.00  0.00     0.016 A 
ATOM     36  C   UNL A   1      36.052  30.269  29.035  1.00  0.00     0.010 A 
ATOM     37  C   UNL A   1      36.976  32.465  28.550  1.00  0.00     0.010 A 
ATOM     38  C   UNL A   1      37.128  31.161  29.056  1.00  0.00    -0.014 A 
BRANCH  38  39
ATOM     39  C   UNL A   1      38.366  30.838  29.797  1.00  0.00     0.031 A 
ATOM     40  C   UNL A   1      39.296  29.837  29.180  1.00  0.00     0.074 A 
ATOM     41  C   UNL A   1      38.605  31.362  31.011  1.00  0.00     0.049 A 
ATOM     42  N   UNL A   1      40.324  29.225  29.700  1.00  0.00    -0.248 NA
ATOM     43  C   UNL A   1      38.996  29.454  27.791  1.00  0.00     0.031 C 
ATOM     44  C   UNL A   1      37.774  32.364  31.676  1.00  0.00     0.029 A 
ATOM     45  N   UNL A   1      39.598  31.088  31.914  1.00  0.00    -0.354 N 
ATOM     46  C   UNL A   1      40.777  28.358  28.712  1.00  0.00     0.074 A 
ATOM     47  C   UNL A   1      39.888  28.502  27.580  1.00  0.00     0.031 C 
ATOM     48  C   UNL A   1      38.273  32.593  32.903  1.00  0.00     0.029 A 
ATOM     49  C   UNL A   1      39.420  31.715  33.125  1.00  0.00     0.049 A 
ATOM     50  H   UNL A   1      40.363  30.499  31.717  1.00  0.00     0.167 HD
ATOM     51  C   UNL A   1      41.840  27.518  28.754  1.00  0.00     0.034 A 
ATOM     52  C   UNL A   1      40.078  31.552  34.292  1.00  0.00     0.034 A 
ATOM     53  C   UNL A   1      42.689  27.389  29.911  1.00  0.00     0.049 A 
ATOM     54  C   UNL A   1      41.218  30.564  34.348  1.00  0.00     0.074 A 
ATOM     55  C   UNL A   1      43.817  26.605  30.071  1.00  0.00     0.029 A 
ATOM     56  N   UNL A   1      42.488  28.048  31.119  1.00  0.00    -0.354 N 
ATOM     57  N   UNL A   1      41.663  29.763  33.406  1.00  0.00    -0.248 NA
ATOM     58  C   UNL A   1      41.948  30.461  35.618  1.00  0.00     0.031 C 
ATOM     59  C   UNL A   1      44.241  26.721  31.397  1.00  0.00     0.029 A 
ATOM     60  C   UNL A   1      43.444  27.657  32.040  1.00  0.00     0.049 A 
ATOM     61  H   UNL A   1      41.770  28.699  31.292  1.00  0.00     0.167 HD
ATOM     62  C   UNL A   1      42.745  29.084  33.959  1.00  0.00     0.074 A 
ATOM     63  C   UNL A   1      42.885  29.571  35.317  1.00  0.00     0.031 C 
ATOM     64  C   UNL A   1      43.560  28.155  33.394  1.00  0.00     0.034 A 
BRANCH  51  65
ATOM     65  C   UNL A   1      42.075  26.638  27.549  1.00  0.00     0.023 A 
ATOM     66  C   UNL A   1      41.908  25.242  27.602  1.00  0.00     0.031 A 
ATOM     67  C   UNL A   1      42.547  27.194  26.347  1.00  0.00     0.131 A 
ATOM     68  C   UNL A   1      42.309  24.446  26.519  1.00  0.00     0.055 A 
ATOM     69  C   UNL A   1      42.850  26.404  25.236  1.00  0.00     0.041 A 
ATOM     70  F   UNL A   1      42.756  28.516  26.239  1.00  0.00    -0.206 F 
ATOM     71  C   UNL A   1      42.753  25.018  25.325  1.00  0.00     0.022 A 
BRANCH  68  72
ATOM     72  S   UNL A   1      42.429  22.651  26.765  1.00  0.00     0.124 S 
ATOM     73  O   UNL A   1      41.996  22.146  25.464  1.00  0.00    -0.237 OA
ATOM     74  O   UNL A   1      43.840  22.472  27.083  1.00  0.00    -0.237 OA
ATOM     75  O   UNL A   1      41.501  22.394  27.865  1.00  0.00    -0.744 OA
ENDBRANCH  68  72
ENDBRANCH  51  65
BRANCH  52  76
ATOM     76  C   UNL A   1      39.633  32.297  35.504  1.00  0.00     0.023 A 
ATOM     77  C   UNL A   1      38.808  31.699  36.467  1.00  0.00     0.031 A 
ATOM     78  C   UNL A   1      40.037  33.629  35.716  1.00  0.00     0.131 A 
ATOM     79  C   UNL A   1      38.391  32.438  37.587  1.00  0.00     0.055 A 
ATOM     80  C   UNL A   1      39.660  34.343  36.855  1.00  0.00     0.041 A 
ATOM     81  F   UNL A   1      40.828  34.249  34.826  1.00  0.00    -0.206 F 
ATOM     82  C   UNL A   1      38.826  33.750  37.796  1.00  0.00     0.022 A 
BRANCH  79  83
ATOM     83  S   UNL A   1      37.223  31.677  38.747  1.00  0.00     0.124 S 
ATOM     84  O   UNL A   1      36.088  32.590  38.666  1.00  0.00    -0.237 OA
ATOM     85  O   UNL A   1      37.027  30.357  38.158  1.00  0.00    -0.237 OA
ATOM     86  O   UNL A   1      37.945  31.691  40.017  1.00  0.00    -0.744 OA
ENDBRANCH  79  83
ENDBRANCH  52  76
BRANCH  64  87
ATOM     87  C   UNL A   1      44.717  27.647  34.220  1.00  0.00     0.023 A 
ATOM     88  C   UNL A   1      44.633  26.474  34.987  1.00  0.00     0.031 A 
ATOM     89  C   UNL A   1      45.943  28.338  34.196  1.00  0.00     0.131 A 
ATOM     90  C   UNL A   1      45.746  26.044  35.726  1.00  0.00     0.055 A 
ATOM     91  C   UNL A   1      47.063  27.872  34.884  1.00  0.00     0.041 A 
ATOM     92  F   UNL A   1      46.077  29.468  33.483  1.00  0.00    -0.206 F 
ATOM     93  C   UNL A   1      46.966  26.723  35.661  1.00  0.00     0.022 A 
BRANCH  90  94
ATOM     94  S   UNL A   1      45.563  24.620  36.834  1.00  0.00     0.124 S 
ATOM     95  O   UNL A   1      44.437  25.029  37.668  1.00  0.00    -0.237 OA
ATOM     96  O   UNL A   1      45.304  23.529  35.903  1.00  0.00    -0.237 OA
ATOM     97  O   UNL A   1      46.851  24.553  37.523  1.00  0.00    -0.744 OA
ENDBRANCH  90  94
ENDBRANCH  64  87
ENDBRANCH  38  39
ENDBRANCH  31  33
ENDBRANCH  30  31
ENDBRANCH  29  30
ENDBRANCH  28  29
ENDBRANCH   1  28
TORSDOF 20
ENDMDL
MODEL 2
REMARK VINA RESULT:     -11.0      5.578     10.772
REMARK SMILES O=C(OCCOCCOC(=O)c1ccc(-c2c3nc(c(-c4cc(S(=O)(=O)[O-])ccc4F)c4ccc([nH]4)c(-c4cc(S(=O)(=O)[O-])ccc4F)c4nc(c(-c5cc(S(=O)(=O)[O-])ccc5F)c5ccc2[nH]5)C=C4)C=C3)cc1)c1ccc(NS(=O)(=O)C2=Cc3ccccc3CC2)cc1
REMARK SMILES IDX 6 1 5 2 4 3 3 4 2 5 1 6 75 7 76 8 94 9 77 10 93 11 78 12
REMARK SMILES IDX 79 13 80 15 81 16 82 17 83 18 84 19 92 20 85 21 91 22 86 23
REMARK SMILES IDX 90 24 87 25 89 26 88 27 7 28 8 29 9 30 10 31 11 32 12 33
REMARK SMILES IDX 13 34 74 35 14 36 73 37 15 38 16 39 17 40 67 41 18 42 72 43
REMARK SMILES IDX 66 44 68 45 19 46 71 47 65 48 64 49 20 51 52 52 32 53 51 54
REMARK SMILES IDX 33 55 36 56 50 57 69 58 34 59 35 60 49 62 70 63 37 64 21 65
REMARK SMILES IDX 22 66 30 67 23 68 29 69 31 70 28 71 24 72 25 73 26 74 27 75
REMARK SMILES IDX 53 76 54 77 62 78 55 79 61 80 63 81 60 82 56 83 57 84 58 85
REMARK SMILES IDX 59 86 38 87 39 88 47 89 40 90 46 91 48 92 45 93 41 94 42 95
REMARK SMILES IDX 43 96 44 97
REMARK H PARENT 79 14 68 50 36 61
REMARK Flexibility Score: inf
ROOT
ATOM      1  O   UNL A   1      36.873  22.041  25.865  1.00  0.00    -0.374 OA
ENDROOT
BRANCH   1   2
ATOM      2  C   UNL A   1      35.616  21.373  25.748  1.00  0.00     0.202 C 
BRANCH   2   3
ATOM      3  C   UNL A   1      35.595  20.207  24.755  1.00  0.00     0.261 C 
BRANCH   3   4
ATOM      4  O   UNL A   1      34.466  19.331  24.922  1.00  0.00    -0.460 OA
BRANCH   4   5
ATOM      5  C   UNL A   1      33.152  19.600  25.106  1.00  0.00     0.338 C 
ATOM      6  O   UNL A   1      32.486  18.794  25.757  1.00  0.00    -0.246 OA
BRANCH   5   7
ATOM      7  C   UNL A   1      32.420  20.777  24.535  1.00  0.00     0.060 A 
ATOM      8  C   UNL A   1      31.898  21.838  25.255  1.00  0.00     0.018 A 
ATOM      9  C   UNL A   1      32.289  20.845  23.133  1.00  0.00     0.018 A 
ATOM     10  C   UNL A   1      31.393  22.956  24.606  1.00  0.00     0.027 A 
ATOM     11  C   UNL A   1      31.900  22.036  22.492  1.00  0.00     0.027 A 
ATOM     12  C   UNL A   1      31.563  23.145  23.256  1.00  0.00     0.049 A 
BRANCH  12  13
ATOM     13  N   UNL A   1      31.758  24.456  22.727  1.00  0.00    -0.280 N 
ATOM     14  H   UNL A   1      30.961  24.970  22.464  1.00  0.00     0.180 HD
BRANCH  13  15
ATOM     15  S   UNL A   1      33.280  25.184  22.522  1.00  0.00     0.258 S 
ATOM     16  O   UNL A   1      34.194  24.106  22.860  1.00  0.00    -0.202 OA
ATOM     17  O   UNL A   1      33.273  25.701  21.168  1.00  0.00    -0.202 OA
BRANCH  15  18
ATOM     18  C   UNL A   1      33.495  26.546  23.700  1.00  0.00     0.066 C 
ATOM     19  C   UNL A   1      33.253  27.779  23.183  1.00  0.00     0.026 C 
ATOM     20  C   UNL A   1      32.809  26.411  25.063  1.00  0.00     0.055 C 
ATOM     21  C   UNL A   1      31.791  28.120  23.124  1.00  0.00    -0.021 A 
ATOM     22  C   UNL A   1      31.290  26.363  24.894  1.00  0.00     0.041 C 
ATOM     23  C   UNL A   1      31.353  29.191  22.347  1.00  0.00     0.008 A 
ATOM     24  C   UNL A   1      30.843  27.365  23.856  1.00  0.00    -0.040 A 
ATOM     25  C   UNL A   1      29.984  29.427  22.199  1.00  0.00     0.001 A 
ATOM     26  C   UNL A   1      29.477  27.559  23.640  1.00  0.00     0.004 A 
ATOM     27  C   UNL A   1      29.050  28.584  22.802  1.00  0.00     0.000 A 
ENDBRANCH  15  18
ENDBRANCH  13  15
ENDBRANCH  12  13
ENDBRANCH   5   7
ENDBRANCH   4   5
ENDBRANCH   3   4
ENDBRANCH   2   3
ENDBRANCH   1   2
BRANCH   1  28
ATOM     28  C   UNL A   1      37.986  21.277  25.376  1.00  0.00     0.202 C 
BRANCH  28  29
ATOM     29  C   UNL A   1      39.297  21.527  26.134  1.00  0.00     0.261 C 
BRANCH  29  30
ATOM     30  O   UNL A   1      39.889  20.289  26.542  1.00  0.00    -0.460 OA
BRANCH  30  31
ATOM     31  C   UNL A   1      41.158  20.081  26.101  1.00  0.00     0.338 C 
ATOM     32  O   UNL A   1      41.551  19.186  25.384  1.00  0.00    -0.246 OA
BRANCH  31  33
ATOM     33  C   UNL A   1      41.945  21.285  26.446  1.00  0.00     0.060 A 
ATOM     34  C   UNL A   1      42.320  21.462  27.786  1.00  0.00     0.016 A 
ATOM     35  C   UNL A   1      42.369  22.184  25.463  1.00  0.00     0.016 A 
ATOM     36  C   UNL A   1      43.110  22.549  28.151  1.00  0.00     0.010 A 
ATOM     37  C   UNL A   1      43.152  23.274  25.830  1.00  0.00     0.010 A 
ATOM     38  C   UNL A   1      43.501  23.473  27.178  1.00  0.00    -0.014 A 
BRANCH  38  39
ATOM     39  C   UNL A   1      44.091  24.773  27.562  1.00  0.00     0.031 A 
ATOM     40  C   UNL A   1      43.158  25.827  28.078  1.00  0.00     0.074 A 
ATOM     41  C   UNL A   1      45.398  25.023  27.381  1.00  0.00     0.049 A 
ATOM     42  N   UNL A   1      43.368  27.098  28.284  1.00  0.00    -0.248 NA
ATOM     43  C   UNL A   1      41.786  25.382  28.368  1.00  0.00     0.031 C 
ATOM     44  C   UNL A   1      46.386  24.052  26.915  1.00  0.00     0.029 A 
ATOM     45  N   UNL A   1      46.107  26.187  27.529  1.00  0.00    -0.354 N 
ATOM     46  C   UNL A   1      42.145  27.614  28.698  1.00  0.00     0.074 A 
ATOM     47  C   UNL A   1      41.195  26.523  28.678  1.00  0.00     0.031 C 
ATOM     48  C   UNL A   1      47.571  24.673  26.778  1.00  0.00     0.029 A 
ATOM     49  C   UNL A   1      47.408  26.091  27.093  1.00  0.00     0.049 A 
ATOM     50  H   UNL A   1      45.724  27.010  27.910  1.00  0.00     0.167 HD
ATOM     51  C   UNL A   1      41.850  28.886  29.059  1.00  0.00     0.034 A 
ATOM     52  C   UNL A   1      48.338  27.052  26.918  1.00  0.00     0.034 A 
ATOM     53  C   UNL A   1      42.822  29.950  29.045  1.00  0.00     0.049 A 
ATOM     54  C   UNL A   1      47.977  28.478  27.259  1.00  0.00     0.074 A 
ATOM     55  C   UNL A   1      42.662  31.270  29.421  1.00  0.00     0.029 A 
ATOM     56  N   UNL A   1      44.135  29.816  28.608  1.00  0.00    -0.354 N 
ATOM     57  N   UNL A   1      46.829  28.962  27.676  1.00  0.00    -0.248 NA
ATOM     58  C   UNL A   1      49.036  29.486  27.115  1.00  0.00     0.031 C 
ATOM     59  C   UNL A   1      43.847  31.951  29.128  1.00  0.00     0.029 A 
ATOM     60  C   UNL A   1      44.783  31.038  28.666  1.00  0.00     0.049 A 
ATOM     61  H   UNL A   1      44.545  28.974  28.304  1.00  0.00     0.167 HD
ATOM     62  C   UNL A   1      47.035  30.324  27.874  1.00  0.00     0.074 A 
ATOM     63  C   UNL A   1      48.419  30.584  27.531  1.00  0.00     0.031 C 
ATOM     64  C   UNL A   1      46.166  31.273  28.313  1.00  0.00     0.034 A 
BRANCH  51  65
ATOM     65  C   UNL A   1      40.413  29.188  29.416  1.00  0.00     0.023 A 
ATOM     66  C   UNL A   1      39.964  29.195  30.749  1.00  0.00     0.031 A 
ATOM     67  C   UNL A   1      39.459  29.396  28.405  1.00  0.00     0.131 A 
ATOM     68  C   UNL A   1      38.593  29.300  31.027  1.00  0.00     0.055 A 
ATOM     69  C   UNL A   1      38.108  29.601  28.693  1.00  0.00     0.041 A 
ATOM     70  F   UNL A   1      39.818  29.373  27.111  1.00  0.00    -0.206 F 
ATOM     71  C   UNL A   1      37.664  29.531  30.010  1.00  0.00     0.022 A 
BRANCH  68  72
ATOM     72  S   UNL A   1      38.023  28.932  32.711  1.00  0.00     0.124 S 
ATOM     73  O   UNL A   1      36.645  29.419  32.668  1.00  0.00    -0.237 OA
ATOM     74  O   UNL A   1      38.187  27.486  32.789  1.00  0.00    -0.237 OA
ATOM     75  O   UNL A   1      38.924  29.712  33.556  1.00  0.00    -0.744 OA
ENDBRANCH  68  72
ENDBRANCH  51  65
BRANCH  52  76
ATOM     76  C   UNL A   1      49.668  26.702  26.342  1.00  0.00     0.023 A 
ATOM     77  C   UNL A   1      50.036  27.115  25.053  1.00  0.00     0.031 A 
ATOM     78  C   UNL A   1      50.594  25.945  27.083  1.00  0.00     0.131 A 
ATOM     79  C   UNL A   1      51.290  26.749  24.534  1.00  0.00     0.055 A 
ATOM     80  C   UNL A   1      51.857  25.627  26.581  1.00  0.00     0.041 A 
ATOM     81  F   UNL A   1      50.292  25.526  28.322  1.00  0.00    -0.206 F 
ATOM     82  C   UNL A   1      52.208  26.023  25.296  1.00  0.00     0.022 A 
BRANCH  79  83
ATOM     83  S   UNL A   1      51.684  27.191  22.820  1.00  0.00     0.124 S 
ATOM     84  O   UNL A   1      51.974  28.615  22.940  1.00  0.00    -0.237 OA
ATOM     85  O   UNL A   1      52.825  26.326  22.538  1.00  0.00    -0.237 OA
ATOM     86  O   UNL A   1      50.460  26.862  22.092  1.00  0.00    -0.744 OA
ENDBRANCH  79  83
ENDBRANCH  52  76
BRANCH  64  87
ATOM     87  C   UNL A   1      46.702  32.671  28.510  1.00  0.00     0.023 A 
ATOM     88  C   UNL A   1      46.728  33.617  27.473  1.00  0.00     0.031 A 
ATOM     89  C   UNL A   1      47.153  33.069  29.782  1.00  0.00     0.131 A 
ATOM     90  C   UNL A   1      47.227  34.905  27.718  1.00  0.00     0.055 A 
ATOM     91  C   UNL A   1      47.590  34.369  30.035  1.00  0.00     0.041 A 
ATOM     92  F   UNL A   1      47.153  32.202  30.809  1.00  0.00    -0.206 F 
ATOM     93  C   UNL A   1      47.636  35.294  28.997  1.00  0.00     0.022 A 
BRANCH  90  94
ATOM     94  S   UNL A   1      47.402  36.055  26.327  1.00  0.00     0.124 S 
ATOM     95  O   UNL A   1      47.980  35.198  25.297  1.00  0.00    -0.237 OA
ATOM     96  O   UNL A   1      46.027  36.486  26.100  1.00  0.00    -0.237 OA
ATOM     97  O   UNL A   1      48.297  37.089  26.846  1.00  0.00    -0.744 OA
ENDBRANCH  90  94
ENDBRANCH  64  87
ENDBRANCH  38  39
ENDBRANCH  31  33
ENDBRANCH  30  31
ENDBRANCH  29  30
ENDBRANCH  28  29
ENDBRANCH   1  28
TORSDOF 20
ENDMDL
MODEL 3
REMARK VINA RESULT:     -11.0      2.959      8.475
REMARK SMILES O=C(OCCOCCOC(=O)c1ccc(-c2c3nc(c(-c4cc(S(=O)(=O)[O-])ccc4F)c4ccc([nH]4)c(-c4cc(S(=O)(=O)[O-])ccc4F)c4nc(c(-c5cc(S(=O)(=O)[O-])ccc5F)c5ccc2[nH]5)C=C4)C=C3)cc1)c1ccc(NS(=O)(=O)C2=Cc3ccccc3CC2)cc1
REMARK SMILES IDX 6 1 5 2 4 3 3 4 2 5 1 6 75 7 76 8 94 9 77 10 93 11 78 12
REMARK SMILES IDX 79 13 80 15 81 16 82 17 83 18 84 19 92 20 85 21 91 22 86 23
REMARK SMILES IDX 90 24 87 25 89 26 88 27 7 28 8 29 9 30 10 31 11 32 12 33
REMARK SMILES IDX 13 34 74 35 14 36 73 37 15 38 16 39 17 40 67 41 18 42 72 43
REMARK SMILES IDX 66 44 68 45 19 46 71 47 65 48 64 49 20 51 52 52 32 53 51 54
REMARK SMILES IDX 33 55 36 56 50 57 69 58 34 59 35 60 49 62 70 63 37 64 21 65
REMARK SMILES IDX 22 66 30 67 23 68 29 69 31 70 28 71 24 72 25 73 26 74 27 75
REMARK SMILES IDX 53 76 54 77 62 78 55 79 61 80 63 81 60 82 56 83 57 84 58 85
REMARK SMILES IDX 59 86 38 87 39 88 47 89 40 90 46 91 48 92 45 93 41 94 42 95
REMARK SMILES IDX 43 96 44 97
REMARK H PARENT 79 14 68 50 36 61
REMARK Flexibility Score: inf
ROOT
ATOM      1  O   UNL A   1      34.639  33.530  28.736  1.00  0.00    -0.374 OA
ENDROOT
BRANCH   1   2
ATOM      2  C   UNL A   1      34.345  32.137  28.860  1.00  0.00     0.202 C 
BRANCH   2   3
ATOM      3  C   UNL A   1      34.711  31.290  27.638  1.00  0.00     0.261 C 
BRANCH   3   4
ATOM      4  O   UNL A   1      33.571  30.700  26.987  1.00  0.00    -0.460 OA
BRANCH   4   5
ATOM      5  C   UNL A   1      33.366  29.448  26.517  1.00  0.00     0.338 C 
ATOM      6  O   UNL A   1      33.699  28.503  27.233  1.00  0.00    -0.246 OA
BRANCH   5   7
ATOM      7  C   UNL A   1      32.812  29.109  25.165  1.00  0.00     0.060 A 
ATOM      8  C   UNL A   1      33.460  29.277  23.954  1.00  0.00     0.018 A 
ATOM      9  C   UNL A   1      31.534  28.516  25.115  1.00  0.00     0.018 A 
ATOM     10  C   UNL A   1      32.919  28.767  22.782  1.00  0.00     0.027 A 
ATOM     11  C   UNL A   1      31.064  27.889  23.947  1.00  0.00     0.027 A 
ATOM     12  C   UNL A   1      31.838  27.920  22.795  1.00  0.00     0.049 A 
BRANCH  12  13
ATOM     13  N   UNL A   1      31.736  26.861  21.844  1.00  0.00    -0.280 N 
ATOM     14  H   UNL A   1      30.908  26.797  21.314  1.00  0.00     0.180 HD
BRANCH  13  15
ATOM     15  S   UNL A   1      32.951  25.706  21.569  1.00  0.00     0.258 S 
ATOM     16  O   UNL A   1      32.931  25.564  20.123  1.00  0.00    -0.202 OA
ATOM     17  O   UNL A   1      34.136  26.244  22.206  1.00  0.00    -0.202 OA
BRANCH  15  18
ATOM     18  C   UNL A   1      32.507  24.122  22.334  1.00  0.00     0.066 C 
ATOM     19  C   UNL A   1      33.500  23.195  22.322  1.00  0.00     0.026 C 
ATOM     20  C   UNL A   1      31.857  24.170  23.721  1.00  0.00     0.055 C 
ATOM     21  C   UNL A   1      34.508  23.392  23.419  1.00  0.00    -0.021 A 
ATOM     22  C   UNL A   1      32.825  24.766  24.743  1.00  0.00     0.041 C 
ATOM     23  C   UNL A   1      35.737  22.737  23.367  1.00  0.00     0.008 A 
ATOM     24  C   UNL A   1      34.222  24.237  24.519  1.00  0.00    -0.040 A 
ATOM     25  C   UNL A   1      36.715  23.019  24.324  1.00  0.00     0.001 A 
ATOM     26  C   UNL A   1      35.231  24.571  25.425  1.00  0.00     0.004 A 
ATOM     27  C   UNL A   1      36.480  23.969  25.319  1.00  0.00     0.000 A 
ENDBRANCH  15  18
ENDBRANCH  13  15
ENDBRANCH  12  13
ENDBRANCH   5   7
ENDBRANCH   4   5
ENDBRANCH   3   4
ENDBRANCH   2   3
ENDBRANCH   1   2
BRANCH   1  28
ATOM     28  C   UNL A   1      33.537  34.316  28.256  1.00  0.00     0.202 C 
BRANCH  28  29
ATOM     29  C   UNL A   1      33.146  35.475  29.185  1.00  0.00     0.261 C 
BRANCH  29  30
ATOM     30  O   UNL A   1      32.565  34.978  30.395  1.00  0.00    -0.460 OA
BRANCH  30  31
ATOM     31  C   UNL A   1      32.905  35.658  31.522  1.00  0.00     0.338 C 
ATOM     32  O   UNL A   1      32.323  36.598  32.020  1.00  0.00    -0.246 OA
BRANCH  31  33
ATOM     33  C   UNL A   1      33.982  34.893  32.188  1.00  0.00     0.060 A 
ATOM     34  C   UNL A   1      35.288  35.399  32.112  1.00  0.00     0.016 A 
ATOM     35  C   UNL A   1      33.706  33.743  32.932  1.00  0.00     0.016 A 
ATOM     36  C   UNL A   1      36.328  34.747  32.770  1.00  0.00     0.010 A 
ATOM     37  C   UNL A   1      34.746  33.088  33.584  1.00  0.00     0.010 A 
ATOM     38  C   UNL A   1      36.062  33.573  33.482  1.00  0.00    -0.014 A 
BRANCH  38  39
ATOM     39  C   UNL A   1      37.165  32.707  33.951  1.00  0.00     0.031 A 
ATOM     40  C   UNL A   1      37.855  33.099  35.223  1.00  0.00     0.074 A 
ATOM     41  C   UNL A   1      37.581  31.657  33.223  1.00  0.00     0.049 A 
ATOM     42  N   UNL A   1      38.965  32.650  35.741  1.00  0.00    -0.248 NA
ATOM     43  C   UNL A   1      37.212  34.173  35.996  1.00  0.00     0.031 C 
ATOM     44  C   UNL A   1      36.953  31.183  31.992  1.00  0.00     0.029 A 
ATOM     45  N   UNL A   1      38.658  30.828  33.398  1.00  0.00    -0.354 N 
ATOM     46  C   UNL A   1      39.173  33.410  36.887  1.00  0.00     0.074 A 
ATOM     47  C   UNL A   1      38.092  34.368  36.963  1.00  0.00     0.031 C 
ATOM     48  C   UNL A   1      37.682  30.167  31.499  1.00  0.00     0.029 A 
ATOM     49  C   UNL A   1      38.852  29.960  32.350  1.00  0.00     0.049 A 
ATOM     50  H   UNL A   1      39.237  30.853  34.195  1.00  0.00     0.167 HD
ATOM     51  C   UNL A   1      40.180  33.311  37.789  1.00  0.00     0.034 A 
ATOM     52  C   UNL A   1      39.886  29.135  32.086  1.00  0.00     0.034 A 
ATOM     53  C   UNL A   1      41.250  32.354  37.665  1.00  0.00     0.049 A 
ATOM     54  C   UNL A   1      41.036  29.082  33.063  1.00  0.00     0.074 A 
ATOM     55  C   UNL A   1      42.308  32.126  38.525  1.00  0.00     0.029 A 
ATOM     56  N   UNL A   1      41.411  31.480  36.595  1.00  0.00    -0.354 N 
ATOM     57  N   UNL A   1      41.221  29.781  34.160  1.00  0.00    -0.248 NA
ATOM     58  C   UNL A   1      42.113  28.126  32.772  1.00  0.00     0.031 C 
ATOM     59  C   UNL A   1      43.152  31.182  37.934  1.00  0.00     0.029 A 
ATOM     60  C   UNL A   1      42.571  30.742  36.753  1.00  0.00     0.049 A 
ATOM     61  H   UNL A   1      40.789  31.397  35.837  1.00  0.00     0.167 HD
ATOM     62  C   UNL A   1      42.418  29.328  34.708  1.00  0.00     0.074 A 
ATOM     63  C   UNL A   1      42.911  28.295  33.819  1.00  0.00     0.031 C 
ATOM     64  C   UNL A   1      43.046  29.718  35.848  1.00  0.00     0.034 A 
BRANCH  51  65
ATOM     65  C   UNL A   1      40.193  34.309  38.923  1.00  0.00     0.023 A 
ATOM     66  C   UNL A   1      39.566  34.044  40.154  1.00  0.00     0.031 A 
ATOM     67  C   UNL A   1      40.775  35.576  38.746  1.00  0.00     0.131 A 
ATOM     68  C   UNL A   1      39.445  35.060  41.113  1.00  0.00     0.055 A 
ATOM     69  C   UNL A   1      40.739  36.552  39.744  1.00  0.00     0.041 A 
ATOM     70  F   UNL A   1      41.363  35.903  37.584  1.00  0.00    -0.206 F 
ATOM     71  C   UNL A   1      40.051  36.305  40.928  1.00  0.00     0.022 A 
BRANCH  68  72
ATOM     72  S   UNL A   1      38.318  34.798  42.512  1.00  0.00     0.124 S 
ATOM     73  O   UNL A   1      38.761  33.496  43.006  1.00  0.00    -0.237 OA
ATOM     74  O   UNL A   1      38.610  35.940  43.369  1.00  0.00    -0.237 OA
ATOM     75  O   UNL A   1      36.995  34.802  41.891  1.00  0.00    -0.744 OA
ENDBRANCH  68  72
ENDBRANCH  51  65
BRANCH  52  76
ATOM     76  C   UNL A   1      39.903  28.346  30.821  1.00  0.00     0.023 A 
ATOM     77  C   UNL A   1      40.692  28.734  29.729  1.00  0.00     0.031 A 
ATOM     78  C   UNL A   1      39.123  27.182  30.691  1.00  0.00     0.131 A 
ATOM     79  C   UNL A   1      40.667  27.979  28.544  1.00  0.00     0.055 A 
ATOM     80  C   UNL A   1      39.139  26.408  29.530  1.00  0.00     0.041 A 
ATOM     81  F   UNL A   1      38.350  26.765  31.706  1.00  0.00    -0.206 F 
ATOM     82  C   UNL A   1      39.909  26.809  28.444  1.00  0.00     0.022 A 
BRANCH  79  83
ATOM     83  S   UNL A   1      41.600  28.578  27.109  1.00  0.00     0.124 S 
ATOM     84  O   UNL A   1      42.465  29.583  27.717  1.00  0.00    -0.237 OA
ATOM     85  O   UNL A   1      42.259  27.361  26.646  1.00  0.00    -0.237 OA
ATOM     86  O   UNL A   1      40.563  29.100  26.222  1.00  0.00    -0.744 OA
ENDBRANCH  79  83
ENDBRANCH  52  76
BRANCH  64  87
ATOM     87  C   UNL A   1      44.305  28.981  36.238  1.00  0.00     0.023 A 
ATOM     88  C   UNL A   1      44.306  27.957  37.199  1.00  0.00     0.031 A 
ATOM     89  C   UNL A   1      45.517  29.288  35.594  1.00  0.00     0.131 A 
ATOM     90  C   UNL A   1      45.505  27.298  37.512  1.00  0.00     0.055 A 
ATOM     91  C   UNL A   1      46.692  28.588  35.865  1.00  0.00     0.041 A 
ATOM     92  F   UNL A   1      45.573  30.262  34.670  1.00  0.00    -0.206 F 
ATOM     93  C   UNL A   1      46.693  27.592  36.835  1.00  0.00     0.022 A 
BRANCH  90  94
ATOM     94  S   UNL A   1      45.513  26.094  38.869  1.00  0.00     0.124 S 
ATOM     95  O   UNL A   1      44.213  26.327  39.487  1.00  0.00    -0.237 OA
ATOM     96  O   UNL A   1      45.666  24.827  38.163  1.00  0.00    -0.237 OA
ATOM     97  O   UNL A   1      46.664  26.496  39.677  1.00  0.00    -0.744 OA
ENDBRANCH  90  94
ENDBRANCH  64  87
ENDBRANCH  38  39
ENDBRANCH  31  33
ENDBRANCH  30  31
ENDBRANCH  29  30
ENDBRANCH  28  29
ENDBRANCH   1  28
TORSDOF 20
ENDMDL
