MODEL 1
REMARK VINA RESULT:     -11.1      0.000      0.000
REMARK SMILES Cc1nn(C(C)C)cc1-c1cnccc1C(=O)OCCOCCOC(=O)c1ccc(-c2c3nc(c(-c4cc(S(=O)(=O)[O-])ccc4F)c4ccc([nH]4)c(-c4cc(S(=O)(=O)[O-])ccc4F)c4nc(c(-c5cc(S(=O)(=O)[O-])ccc5F)c5ccc2[nH]5)C=C4)C=C3)cc1
REMARK SMILES IDX 22 1 21 2 20 3 19 4 18 5 16 6 17 7 15 8 10 9 11 10 12 11
REMARK SMILES IDX 14 12 13 13 9 14 1 15 2 16 3 17 4 18 8 19 5 20 6 21 7 22
REMARK SMILES IDX 23 23 24 24 25 25 26 26 27 27 28 28 89 29 29 30 88 31 30 32
REMARK SMILES IDX 31 33 32 34 82 35 33 36 87 37 81 38 83 39 34 40 86 41 80 42
REMARK SMILES IDX 79 43 35 45 67 46 47 47 66 48 48 49 51 50 65 51 84 52 49 53
REMARK SMILES IDX 50 54 64 56 85 57 52 58 36 59 37 60 45 61 38 62 44 63 46 64
REMARK SMILES IDX 43 65 39 66 40 67 41 68 42 69 68 70 69 71 77 72 70 73 76 74
REMARK SMILES IDX 78 75 75 76 71 77 72 78 73 79 74 80 53 81 54 82 62 83 55 84
REMARK SMILES IDX 61 85 63 86 60 87 56 88 57 89 58 90 59 91
REMARK H PARENT 83 44 51 55
REMARK Flexibility Score: inf
ROOT
ATOM      1  C   UNL A   1      32.601  30.652  27.154  1.00  0.00     0.202 C 
ENDROOT
BRANCH   1   2
ATOM      2  O   UNL A   1      32.365  30.463  25.761  1.00  0.00    -0.374 OA
BRANCH   2   3
ATOM      3  C   UNL A   1      32.299  29.138  25.232  1.00  0.00     0.202 C 
BRANCH   3   4
ATOM      4  C   UNL A   1      33.616  28.470  24.846  1.00  0.00     0.261 C 
BRANCH   4   5
ATOM      5  O   UNL A   1      33.644  27.085  25.225  1.00  0.00    -0.460 OA
BRANCH   5   6
ATOM      6  C   UNL A   1      32.887  26.261  24.467  1.00  0.00     0.338 C 
ATOM      7  O   UNL A   1      32.934  26.145  23.251  1.00  0.00    -0.246 OA
BRANCH   6   8
ATOM      8  C   UNL A   1      32.066  25.348  25.292  1.00  0.00     0.071 A 
ATOM      9  C   UNL A   1      32.488  24.116  25.803  1.00  0.00     0.018 A 
ATOM     10  C   UNL A   1      31.603  23.490  26.681  1.00  0.00     0.120 A 
ATOM     11  N   UNL A   1      30.363  23.942  26.999  1.00  0.00    -0.264 NA
ATOM     12  C   UNL A   1      30.780  25.830  25.590  1.00  0.00     0.036 A 
ATOM     13  C   UNL A   1      29.968  25.089  26.422  1.00  0.00     0.112 A 
BRANCH   9  14
ATOM     14  C   UNL A   1      33.725  23.442  25.455  1.00  0.00     0.025 A 
ATOM     15  C   UNL A   1      33.358  22.558  22.992  1.00  0.00     0.069 C 
ATOM     16  C   UNL A   1      34.118  22.786  24.250  1.00  0.00     0.067 A 
ATOM     17  N   UNL A   1      35.382  22.352  24.319  1.00  0.00    -0.177 NA
ATOM     18  N   UNL A   1      35.802  22.736  25.535  1.00  0.00    -0.269 N 
ATOM     19  C   UNL A   1      34.820  23.319  26.285  1.00  0.00     0.118 A 
BRANCH  18  20
ATOM     20  C   UNL A   1      37.185  22.508  25.940  1.00  0.00     0.101 C 
ATOM     21  C   UNL A   1      37.859  21.480  25.034  1.00  0.00     0.033 C 
ATOM     22  C   UNL A   1      37.982  23.812  26.001  1.00  0.00     0.033 C 
ENDBRANCH  18  20
ENDBRANCH   9  14
ENDBRANCH   6   8
ENDBRANCH   5   6
ENDBRANCH   4   5
ENDBRANCH   3   4
ENDBRANCH   2   3
ENDBRANCH   1   2
BRANCH   1  23
ATOM     23  C   UNL A   1      33.656  31.661  27.579  1.00  0.00     0.261 C 
BRANCH  23  24
ATOM     24  O   UNL A   1      34.955  31.099  27.620  1.00  0.00    -0.460 OA
BRANCH  24  25
ATOM     25  C   UNL A   1      35.917  31.969  28.019  1.00  0.00     0.338 C 
ATOM     26  O   UNL A   1      36.104  33.097  27.611  1.00  0.00    -0.246 OA
BRANCH  25  27
ATOM     27  C   UNL A   1      36.820  31.254  28.925  1.00  0.00     0.060 A 
ATOM     28  C   UNL A   1      37.923  31.958  29.412  1.00  0.00     0.016 A 
ATOM     29  C   UNL A   1      36.745  29.858  28.971  1.00  0.00     0.016 A 
ATOM     30  C   UNL A   1      39.059  31.242  29.711  1.00  0.00     0.010 A 
ATOM     31  C   UNL A   1      37.879  29.148  29.250  1.00  0.00     0.010 A 
ATOM     32  C   UNL A   1      39.044  29.858  29.512  1.00  0.00    -0.014 A 
BRANCH  32  33
ATOM     33  C   UNL A   1      40.260  29.105  29.693  1.00  0.00     0.031 A 
ATOM     34  C   UNL A   1      40.589  28.957  31.123  1.00  0.00     0.074 A 
ATOM     35  C   UNL A   1      40.882  28.491  28.669  1.00  0.00     0.049 A 
ATOM     36  N   UNL A   1      41.513  29.578  31.776  1.00  0.00    -0.248 NA
ATOM     37  C   UNL A   1      39.622  28.250  31.983  1.00  0.00     0.031 C 
ATOM     38  C   UNL A   1      40.458  28.378  27.272  1.00  0.00     0.029 A 
ATOM     39  N   UNL A   1      42.008  27.736  28.697  1.00  0.00    -0.354 N 
ATOM     40  C   UNL A   1      41.411  29.097  33.072  1.00  0.00     0.074 A 
ATOM     41  C   UNL A   1      40.089  28.553  33.194  1.00  0.00     0.031 C 
ATOM     42  C   UNL A   1      41.185  27.412  26.660  1.00  0.00     0.029 A 
ATOM     43  C   UNL A   1      42.196  26.920  27.584  1.00  0.00     0.049 A 
ATOM     44  H   UNL A   1      42.645  27.762  29.446  1.00  0.00     0.167 HD
ATOM     45  C   UNL A   1      42.526  28.874  33.817  1.00  0.00     0.034 A 
ATOM     46  C   UNL A   1      43.057  25.864  27.499  1.00  0.00     0.034 A 
ATOM     47  C   UNL A   1      43.665  29.582  33.272  1.00  0.00     0.049 A 
ATOM     48  C   UNL A   1      44.084  26.083  28.561  1.00  0.00     0.074 A 
ATOM     49  C   UNL A   1      43.895  30.909  32.954  1.00  0.00     0.029 A 
ATOM     50  N   UNL A   1      44.594  28.864  32.549  1.00  0.00    -0.354 N 
ATOM     51  N   UNL A   1      44.919  27.090  28.541  1.00  0.00    -0.248 NA
ATOM     52  C   UNL A   1      43.814  25.537  29.886  1.00  0.00     0.031 C 
ATOM     53  C   UNL A   1      44.561  30.872  31.694  1.00  0.00     0.029 A 
ATOM     54  C   UNL A   1      44.811  29.537  31.367  1.00  0.00     0.049 A 
ATOM     55  H   UNL A   1      45.025  28.024  32.828  1.00  0.00     0.167 HD
ATOM     56  C   UNL A   1      44.937  27.576  29.842  1.00  0.00     0.074 A 
ATOM     57  C   UNL A   1      44.287  26.534  30.641  1.00  0.00     0.031 C 
ATOM     58  C   UNL A   1      45.181  28.894  30.116  1.00  0.00     0.034 A 
BRANCH  45  59
ATOM     59  C   UNL A   1      42.652  27.729  34.792  1.00  0.00     0.023 A 
ATOM     60  C   UNL A   1      43.362  26.594  34.369  1.00  0.00     0.031 A 
ATOM     61  C   UNL A   1      41.915  27.581  35.994  1.00  0.00     0.131 A 
ATOM     62  C   UNL A   1      43.274  25.386  35.083  1.00  0.00     0.055 A 
ATOM     63  C   UNL A   1      41.896  26.403  36.740  1.00  0.00     0.041 A 
ATOM     64  F   UNL A   1      41.092  28.523  36.469  1.00  0.00    -0.206 F 
ATOM     65  C   UNL A   1      42.556  25.287  36.273  1.00  0.00     0.022 A 
BRANCH  62  66
ATOM     66  S   UNL A   1      43.983  23.898  34.340  1.00  0.00     0.124 S 
ATOM     67  O   UNL A   1      42.825  23.013  34.292  1.00  0.00    -0.237 OA
ATOM     68  O   UNL A   1      44.461  24.404  33.057  1.00  0.00    -0.237 OA
ATOM     69  O   UNL A   1      45.026  23.512  35.285  1.00  0.00    -0.744 OA
ENDBRANCH  62  66
ENDBRANCH  45  59
BRANCH  46  70
ATOM     70  C   UNL A   1      42.786  24.537  26.852  1.00  0.00     0.023 A 
ATOM     71  C   UNL A   1      43.711  23.864  26.017  1.00  0.00     0.031 A 
ATOM     72  C   UNL A   1      41.649  23.790  27.244  1.00  0.00     0.131 A 
ATOM     73  C   UNL A   1      43.471  22.523  25.610  1.00  0.00     0.055 A 
ATOM     74  C   UNL A   1      41.417  22.474  26.838  1.00  0.00     0.041 A 
ATOM     75  F   UNL A   1      40.754  24.284  28.113  1.00  0.00    -0.206 F 
ATOM     76  C   UNL A   1      42.331  21.831  26.024  1.00  0.00     0.022 A 
BRANCH  73  77
ATOM     77  S   UNL A   1      44.680  21.613  24.586  1.00  0.00     0.124 S 
ATOM     78  O   UNL A   1      44.125  20.265  24.572  1.00  0.00    -0.237 OA
ATOM     79  O   UNL A   1      44.641  22.345  23.326  1.00  0.00    -0.237 OA
ATOM     80  O   UNL A   1      45.933  21.750  25.332  1.00  0.00    -0.744 OA
ENDBRANCH  73  77
ENDBRANCH  46  70
BRANCH  58  81
ATOM     81  C   UNL A   1      45.680  29.803  29.001  1.00  0.00     0.023 A 
ATOM     82  C   UNL A   1      44.883  30.700  28.249  1.00  0.00     0.031 A 
ATOM     83  C   UNL A   1      47.072  29.855  28.797  1.00  0.00     0.131 A 
ATOM     84  C   UNL A   1      45.488  31.593  27.336  1.00  0.00     0.055 A 
ATOM     85  C   UNL A   1      47.668  30.756  27.916  1.00  0.00     0.041 A 
ATOM     86  F   UNL A   1      47.891  29.047  29.491  1.00  0.00    -0.206 F 
ATOM     87  C   UNL A   1      46.877  31.626  27.177  1.00  0.00     0.022 A 
BRANCH  84  88
ATOM     88  S   UNL A   1      44.482  32.721  26.313  1.00  0.00     0.124 S 
ATOM     89  O   UNL A   1      45.465  33.361  25.446  1.00  0.00    -0.237 OA
ATOM     90  O   UNL A   1      43.551  31.807  25.658  1.00  0.00    -0.237 OA
ATOM     91  O   UNL A   1      43.866  33.613  27.297  1.00  0.00    -0.744 OA
ENDBRANCH  84  88
ENDBRANCH  58  81
ENDBRANCH  32  33
ENDBRANCH  25  27
ENDBRANCH  24  25
ENDBRANCH  23  24
ENDBRANCH   1  23
TORSDOF 19
ENDMDL
MODEL 2
REMARK VINA RESULT:     -11.0      1.611      2.563
REMARK SMILES Cc1nn(C(C)C)cc1-c1cnccc1C(=O)OCCOCCOC(=O)c1ccc(-c2c3nc(c(-c4cc(S(=O)(=O)[O-])ccc4F)c4ccc([nH]4)c(-c4cc(S(=O)(=O)[O-])ccc4F)c4nc(c(-c5cc(S(=O)(=O)[O-])ccc5F)c5ccc2[nH]5)C=C4)C=C3)cc1
REMARK SMILES IDX 22 1 21 2 20 3 19 4 18 5 16 6 17 7 15 8 10 9 11 10 12 11
REMARK SMILES IDX 14 12 13 13 9 14 1 15 2 16 3 17 4 18 8 19 5 20 6 21 7 22
REMARK SMILES IDX 23 23 24 24 25 25 26 26 27 27 28 28 89 29 29 30 88 31 30 32
REMARK SMILES IDX 31 33 32 34 82 35 33 36 87 37 81 38 83 39 34 40 86 41 80 42
REMARK SMILES IDX 79 43 35 45 67 46 47 47 66 48 48 49 51 50 65 51 84 52 49 53
REMARK SMILES IDX 50 54 64 56 85 57 52 58 36 59 37 60 45 61 38 62 44 63 46 64
REMARK SMILES IDX 43 65 39 66 40 67 41 68 42 69 68 70 69 71 77 72 70 73 76 74
REMARK SMILES IDX 78 75 75 76 71 77 72 78 73 79 74 80 53 81 54 82 62 83 55 84
REMARK SMILES IDX 61 85 63 86 60 87 56 88 57 89 58 90 59 91
REMARK H PARENT 83 44 51 55
REMARK Flexibility Score: inf
ROOT
ATOM      1  C   UNL A   1      32.118  30.353  26.795  1.00  0.00     0.202 C 
ENDROOT
BRANCH   1   2
ATOM      2  O   UNL A   1      31.528  29.158  26.292  1.00  0.00    -0.374 OA
BRANCH   2   3
ATOM      3  C   UNL A   1      31.822  27.909  26.920  1.00  0.00     0.202 C 
BRANCH   3   4
ATOM      4  C   UNL A   1      31.202  26.654  26.313  1.00  0.00     0.261 C 
BRANCH   4   5
ATOM      5  O   UNL A   1      31.557  25.473  27.048  1.00  0.00    -0.460 OA
BRANCH   5   6
ATOM      6  C   UNL A   1      31.460  24.312  26.362  1.00  0.00     0.338 C 
ATOM      7  O   UNL A   1      30.492  23.924  25.724  1.00  0.00    -0.246 OA
BRANCH   6   8
ATOM      8  C   UNL A   1      32.749  23.589  26.314  1.00  0.00     0.071 A 
ATOM      9  C   UNL A   1      33.776  23.821  25.392  1.00  0.00     0.018 A 
ATOM     10  C   UNL A   1      34.965  23.129  25.623  1.00  0.00     0.120 A 
ATOM     11  N   UNL A   1      35.160  22.211  26.603  1.00  0.00    -0.264 NA
ATOM     12  C   UNL A   1      32.917  22.630  27.327  1.00  0.00     0.036 A 
ATOM     13  C   UNL A   1      34.120  21.961  27.416  1.00  0.00     0.112 A 
BRANCH   9  14
ATOM     14  C   UNL A   1      33.676  24.671  24.220  1.00  0.00     0.025 A 
ATOM     15  C   UNL A   1      33.206  23.020  22.211  1.00  0.00     0.069 C 
ATOM     16  C   UNL A   1      33.414  24.344  22.855  1.00  0.00     0.067 A 
ATOM     17  N   UNL A   1      33.336  25.443  22.095  1.00  0.00    -0.177 NA
ATOM     18  N   UNL A   1      33.524  26.458  22.954  1.00  0.00    -0.269 N 
ATOM     19  C   UNL A   1      33.814  26.043  24.223  1.00  0.00     0.118 A 
BRANCH  18  20
ATOM     20  C   UNL A   1      33.419  27.839  22.493  1.00  0.00     0.101 C 
ATOM     21  C   UNL A   1      31.970  28.320  22.532  1.00  0.00     0.033 C 
ATOM     22  C   UNL A   1      34.343  28.772  23.277  1.00  0.00     0.033 C 
ENDBRANCH  18  20
ENDBRANCH   9  14
ENDBRANCH   6   8
ENDBRANCH   5   6
ENDBRANCH   4   5
ENDBRANCH   3   4
ENDBRANCH   2   3
ENDBRANCH   1   2
BRANCH   1  23
ATOM     23  C   UNL A   1      33.633  30.481  26.762  1.00  0.00     0.261 C 
BRANCH  23  24
ATOM     24  O   UNL A   1      34.188  30.660  28.052  1.00  0.00    -0.460 OA
BRANCH  24  25
ATOM     25  C   UNL A   1      35.232  31.526  28.086  1.00  0.00     0.338 C 
ATOM     26  O   UNL A   1      35.381  32.525  27.413  1.00  0.00    -0.246 OA
BRANCH  25  27
ATOM     27  C   UNL A   1      36.255  30.961  28.970  1.00  0.00     0.060 A 
ATOM     28  C   UNL A   1      37.319  31.791  29.324  1.00  0.00     0.016 A 
ATOM     29  C   UNL A   1      36.309  29.571  29.118  1.00  0.00     0.016 A 
ATOM     30  C   UNL A   1      38.534  31.200  29.587  1.00  0.00     0.010 A 
ATOM     31  C   UNL A   1      37.519  28.983  29.360  1.00  0.00     0.010 A 
ATOM     32  C   UNL A   1      38.630  29.808  29.486  1.00  0.00    -0.014 A 
BRANCH  32  33
ATOM     33  C   UNL A   1      39.919  29.177  29.628  1.00  0.00     0.031 A 
ATOM     34  C   UNL A   1      40.285  29.024  31.048  1.00  0.00     0.074 A 
ATOM     35  C   UNL A   1      40.582  28.657  28.578  1.00  0.00     0.049 A 
ATOM     36  N   UNL A   1      41.153  29.717  31.705  1.00  0.00    -0.248 NA
ATOM     37  C   UNL A   1      39.409  28.199  31.900  1.00  0.00     0.031 C 
ATOM     38  C   UNL A   1      40.148  28.541  27.184  1.00  0.00     0.029 A 
ATOM     39  N   UNL A   1      41.779  28.019  28.567  1.00  0.00    -0.354 N 
ATOM     40  C   UNL A   1      41.122  29.193  32.988  1.00  0.00     0.074 A 
ATOM     41  C   UNL A   1      39.863  28.514  33.113  1.00  0.00     0.031 C 
ATOM     42  C   UNL A   1      40.958  27.670  26.534  1.00  0.00     0.029 A 
ATOM     43  C   UNL A   1      42.029  27.258  27.429  1.00  0.00     0.049 A 
ATOM     44  H   UNL A   1      42.423  28.090  29.308  1.00  0.00     0.167 HD
ATOM     45  C   UNL A   1      42.266  29.063  33.711  1.00  0.00     0.034 A 
ATOM     46  C   UNL A   1      42.990  26.297  27.301  1.00  0.00     0.034 A 
ATOM     47  C   UNL A   1      43.318  29.897  33.171  1.00  0.00     0.049 A 
ATOM     48  C   UNL A   1      44.008  26.590  28.355  1.00  0.00     0.074 A 
ATOM     49  C   UNL A   1      43.408  31.250  32.888  1.00  0.00     0.029 A 
ATOM     50  N   UNL A   1      44.303  29.298  32.415  1.00  0.00    -0.354 N 
ATOM     51  N   UNL A   1      44.737  27.676  28.352  1.00  0.00    -0.248 NA
ATOM     52  C   UNL A   1      43.817  25.983  29.667  1.00  0.00     0.031 C 
ATOM     53  C   UNL A   1      44.053  31.314  31.618  1.00  0.00     0.029 A 
ATOM     54  C   UNL A   1      44.431  30.021  31.250  1.00  0.00     0.049 A 
ATOM     55  H   UNL A   1      44.821  28.498  32.663  1.00  0.00     0.167 HD
ATOM     56  C   UNL A   1      44.728  28.126  29.667  1.00  0.00     0.074 A 
ATOM     57  C   UNL A   1      44.200  27.002  30.445  1.00  0.00     0.031 C 
ATOM     58  C   UNL A   1      44.842  29.454  29.975  1.00  0.00     0.034 A 
BRANCH  45  59
ATOM     59  C   UNL A   1      42.523  27.910  34.650  1.00  0.00     0.023 A 
ATOM     60  C   UNL A   1      43.274  26.830  34.159  1.00  0.00     0.031 A 
ATOM     61  C   UNL A   1      41.873  27.694  35.892  1.00  0.00     0.131 A 
ATOM     62  C   UNL A   1      43.306  25.607  34.850  1.00  0.00     0.055 A 
ATOM     63  C   UNL A   1      41.974  26.504  36.611  1.00  0.00     0.041 A 
ATOM     64  F   UNL A   1      41.025  28.573  36.437  1.00  0.00    -0.206 F 
ATOM     65  C   UNL A   1      42.671  25.440  36.079  1.00  0.00     0.022 A 
BRANCH  62  66
ATOM     66  S   UNL A   1      44.057  24.180  34.031  1.00  0.00     0.124 S 
ATOM     67  O   UNL A   1      45.230  23.946  34.866  1.00  0.00    -0.237 OA
ATOM     68  O   UNL A   1      42.991  23.188  34.123  1.00  0.00    -0.237 OA
ATOM     69  O   UNL A   1      44.336  24.672  32.685  1.00  0.00    -0.744 OA
ENDBRANCH  62  66
ENDBRANCH  45  59
BRANCH  46  70
ATOM     70  C   UNL A   1      42.844  24.968  26.620  1.00  0.00     0.023 A 
ATOM     71  C   UNL A   1      43.867  24.359  25.853  1.00  0.00     0.031 A 
ATOM     72  C   UNL A   1      41.722  24.155  26.913  1.00  0.00     0.131 A 
ATOM     73  C   UNL A   1      43.732  23.014  25.413  1.00  0.00     0.055 A 
ATOM     74  C   UNL A   1      41.595  22.835  26.475  1.00  0.00     0.041 A 
ATOM     75  F   UNL A   1      40.737  24.587  27.714  1.00  0.00    -0.206 F 
ATOM     76  C   UNL A   1      42.603  22.255  25.728  1.00  0.00     0.022 A 
BRANCH  73  77
ATOM     77  S   UNL A   1      45.066  22.185  24.477  1.00  0.00     0.124 S 
ATOM     78  O   UNL A   1      44.373  21.045  23.890  1.00  0.00    -0.237 OA
ATOM     79  O   UNL A   1      45.498  23.228  23.554  1.00  0.00    -0.237 OA
ATOM     80  O   UNL A   1      46.046  21.840  25.508  1.00  0.00    -0.744 OA
ENDBRANCH  73  77
ENDBRANCH  46  70
BRANCH  58  81
ATOM     81  C   UNL A   1      45.229  30.439  28.880  1.00  0.00     0.023 A 
ATOM     82  C   UNL A   1      46.551  30.815  28.540  1.00  0.00     0.031 A 
ATOM     83  C   UNL A   1      44.194  30.903  28.047  1.00  0.00     0.131 A 
ATOM     84  C   UNL A   1      46.787  31.631  27.409  1.00  0.00     0.055 A 
ATOM     85  C   UNL A   1      44.433  31.684  26.917  1.00  0.00     0.041 A 
ATOM     86  F   UNL A   1      42.917  30.567  28.299  1.00  0.00    -0.206 F 
ATOM     87  C   UNL A   1      45.732  32.056  26.596  1.00  0.00     0.022 A 
BRANCH  84  88
ATOM     88  S   UNL A   1      48.474  32.179  26.979  1.00  0.00     0.124 S 
ATOM     89  O   UNL A   1      49.131  30.950  26.547  1.00  0.00    -0.237 OA
ATOM     90  O   UNL A   1      48.227  33.172  25.938  1.00  0.00    -0.237 OA
ATOM     91  O   UNL A   1      48.983  32.730  28.236  1.00  0.00    -0.744 OA
ENDBRANCH  84  88
ENDBRANCH  58  81
ENDBRANCH  32  33
ENDBRANCH  25  27
ENDBRANCH  24  25
ENDBRANCH  23  24
ENDBRANCH   1  23
TORSDOF 19
ENDMDL
MODEL 3
REMARK VINA RESULT:     -10.9      1.700      3.322
REMARK SMILES Cc1nn(C(C)C)cc1-c1cnccc1C(=O)OCCOCCOC(=O)c1ccc(-c2c3nc(c(-c4cc(S(=O)(=O)[O-])ccc4F)c4ccc([nH]4)c(-c4cc(S(=O)(=O)[O-])ccc4F)c4nc(c(-c5cc(S(=O)(=O)[O-])ccc5F)c5ccc2[nH]5)C=C4)C=C3)cc1
REMARK SMILES IDX 22 1 21 2 20 3 19 4 18 5 16 6 17 7 15 8 10 9 11 10 12 11
REMARK SMILES IDX 14 12 13 13 9 14 1 15 2 16 3 17 4 18 8 19 5 20 6 21 7 22
REMARK SMILES IDX 23 23 24 24 25 25 26 26 27 27 28 28 89 29 29 30 88 31 30 32
REMARK SMILES IDX 31 33 32 34 82 35 33 36 87 37 81 38 83 39 34 40 86 41 80 42
REMARK SMILES IDX 79 43 35 45 67 46 47 47 66 48 48 49 51 50 65 51 84 52 49 53
REMARK SMILES IDX 50 54 64 56 85 57 52 58 36 59 37 60 45 61 38 62 44 63 46 64
REMARK SMILES IDX 43 65 39 66 40 67 41 68 42 69 68 70 69 71 77 72 70 73 76 74
REMARK SMILES IDX 78 75 75 76 71 77 72 78 73 79 74 80 53 81 54 82 62 83 55 84
REMARK SMILES IDX 61 85 63 86 60 87 56 88 57 89 58 90 59 91
REMARK H PARENT 83 44 51 55
REMARK Flexibility Score: inf
ROOT
ATOM      1  C   UNL A   1      32.911  30.001  26.775  1.00  0.00     0.202 C 
ENDROOT
BRANCH   1   2
ATOM      2  O   UNL A   1      32.922  28.702  27.359  1.00  0.00    -0.374 OA
BRANCH   2   3
ATOM      3  C   UNL A   1      32.315  27.612  26.664  1.00  0.00     0.202 C 
BRANCH   3   4
ATOM      4  C   UNL A   1      33.242  26.563  26.057  1.00  0.00     0.261 C 
BRANCH   4   5
ATOM      5  O   UNL A   1      32.623  25.269  26.005  1.00  0.00    -0.460 OA
BRANCH   5   6
ATOM      6  C   UNL A   1      31.602  25.149  25.128  1.00  0.00     0.338 C 
ATOM      7  O   UNL A   1      30.412  25.287  25.375  1.00  0.00    -0.246 OA
BRANCH   6   8
ATOM      8  C   UNL A   1      32.082  24.988  23.738  1.00  0.00     0.071 A 
ATOM      9  C   UNL A   1      32.060  25.980  22.752  1.00  0.00     0.018 A 
ATOM     10  C   UNL A   1      32.702  25.658  21.556  1.00  0.00     0.120 A 
ATOM     11  N   UNL A   1      33.256  24.455  21.263  1.00  0.00    -0.264 NA
ATOM     12  C   UNL A   1      32.632  23.726  23.455  1.00  0.00     0.036 A 
ATOM     13  C   UNL A   1      33.182  23.506  22.210  1.00  0.00     0.112 A 
BRANCH   9  14
ATOM     14  C   UNL A   1      31.394  27.264  22.867  1.00  0.00     0.025 A 
ATOM     15  C   UNL A   1      33.335  29.012  23.269  1.00  0.00     0.069 C 
ATOM     16  C   UNL A   1      31.928  28.572  23.071  1.00  0.00     0.067 A 
ATOM     17  N   UNL A   1      30.965  29.502  23.048  1.00  0.00    -0.177 NA
ATOM     18  N   UNL A   1      29.838  28.812  22.816  1.00  0.00    -0.269 N 
ATOM     19  C   UNL A   1      30.032  27.460  22.783  1.00  0.00     0.118 A 
BRANCH  18  20
ATOM     20  C   UNL A   1      28.571  29.513  22.636  1.00  0.00     0.101 C 
ATOM     21  C   UNL A   1      27.404  28.676  23.153  1.00  0.00     0.033 C 
ATOM     22  C   UNL A   1      28.594  30.902  23.277  1.00  0.00     0.033 C 
ENDBRANCH  18  20
ENDBRANCH   9  14
ENDBRANCH   6   8
ENDBRANCH   5   6
ENDBRANCH   4   5
ENDBRANCH   3   4
ENDBRANCH   2   3
ENDBRANCH   1   2
BRANCH   1  23
ATOM     23  C   UNL A   1      33.750  31.093  27.421  1.00  0.00     0.261 C 
BRANCH  23  24
ATOM     24  O   UNL A   1      35.132  30.786  27.417  1.00  0.00    -0.460 OA
BRANCH  24  25
ATOM     25  C   UNL A   1      35.911  31.751  27.967  1.00  0.00     0.338 C 
ATOM     26  O   UNL A   1      35.944  32.928  27.670  1.00  0.00    -0.246 OA
BRANCH  25  27
ATOM     27  C   UNL A   1      36.849  31.101  28.886  1.00  0.00     0.060 A 
ATOM     28  C   UNL A   1      37.959  31.843  29.293  1.00  0.00     0.016 A 
ATOM     29  C   UNL A   1      36.789  29.710  29.020  1.00  0.00     0.016 A 
ATOM     30  C   UNL A   1      39.112  31.156  29.599  1.00  0.00     0.010 A 
ATOM     31  C   UNL A   1      37.938  29.028  29.306  1.00  0.00     0.010 A 
ATOM     32  C   UNL A   1      39.104  29.762  29.486  1.00  0.00    -0.014 A 
BRANCH  32  33
ATOM     33  C   UNL A   1      40.333  29.032  29.674  1.00  0.00     0.031 A 
ATOM     34  C   UNL A   1      40.629  28.844  31.107  1.00  0.00     0.074 A 
ATOM     35  C   UNL A   1      40.995  28.466  28.648  1.00  0.00     0.049 A 
ATOM     36  N   UNL A   1      41.520  29.463  31.804  1.00  0.00    -0.248 NA
ATOM     37  C   UNL A   1      39.656  28.086  31.917  1.00  0.00     0.031 C 
ATOM     38  C   UNL A   1      40.609  28.391  27.237  1.00  0.00     0.029 A 
ATOM     39  N   UNL A   1      42.138  27.737  28.680  1.00  0.00    -0.354 N 
ATOM     40  C   UNL A   1      41.397  28.937  33.080  1.00  0.00     0.074 A 
ATOM     41  C   UNL A   1      40.085  28.359  33.150  1.00  0.00     0.031 C 
ATOM     42  C   UNL A   1      41.375  27.462  26.613  1.00  0.00     0.029 A 
ATOM     43  C   UNL A   1      42.373  26.963  27.546  1.00  0.00     0.049 A 
ATOM     44  H   UNL A   1      42.755  27.753  29.447  1.00  0.00     0.167 HD
ATOM     45  C   UNL A   1      42.497  28.714  33.847  1.00  0.00     0.034 A 
ATOM     46  C   UNL A   1      43.261  25.931  27.449  1.00  0.00     0.034 A 
ATOM     47  C   UNL A   1      43.632  29.466  33.356  1.00  0.00     0.049 A 
ATOM     48  C   UNL A   1      44.255  26.138  28.545  1.00  0.00     0.074 A 
ATOM     49  C   UNL A   1      43.839  30.809  33.088  1.00  0.00     0.029 A 
ATOM     50  N   UNL A   1      44.597  28.795  32.635  1.00  0.00    -0.354 N 
ATOM     51  N   UNL A   1      45.066  27.163  28.580  1.00  0.00    -0.248 NA
ATOM     52  C   UNL A   1      43.965  25.542  29.844  1.00  0.00     0.031 C 
ATOM     53  C   UNL A   1      44.538  30.829  31.845  1.00  0.00     0.029 A 
ATOM     54  C   UNL A   1      44.828  29.512  31.482  1.00  0.00     0.049 A 
ATOM     55  H   UNL A   1      45.041  27.955  32.897  1.00  0.00     0.167 HD
ATOM     56  C   UNL A   1      45.039  27.606  29.897  1.00  0.00     0.074 A 
ATOM     57  C   UNL A   1      44.394  26.524  30.644  1.00  0.00     0.031 C 
ATOM     58  C   UNL A   1      45.244  28.920  30.220  1.00  0.00     0.034 A 
BRANCH  45  59
ATOM     59  C   UNL A   1      42.625  27.541  34.787  1.00  0.00     0.023 A 
ATOM     60  C   UNL A   1      43.401  26.451  34.359  1.00  0.00     0.031 A 
ATOM     61  C   UNL A   1      41.840  27.320  35.947  1.00  0.00     0.131 A 
ATOM     62  C   UNL A   1      43.330  25.216  35.026  1.00  0.00     0.055 A 
ATOM     63  C   UNL A   1      41.836  26.116  36.650  1.00  0.00     0.041 A 
ATOM     64  F   UNL A   1      40.958  28.210  36.413  1.00  0.00    -0.206 F 
ATOM     65  C   UNL A   1      42.563  25.044  36.177  1.00  0.00     0.022 A 
BRANCH  62  66
ATOM     66  S   UNL A   1      44.134  23.785  34.267  1.00  0.00     0.124 S 
ATOM     67  O   UNL A   1      45.015  24.424  33.296  1.00  0.00    -0.237 OA
ATOM     68  O   UNL A   1      44.783  23.163  35.415  1.00  0.00    -0.237 OA
ATOM     69  O   UNL A   1      43.019  23.034  33.699  1.00  0.00    -0.744 OA
ENDBRANCH  62  66
ENDBRANCH  45  59
BRANCH  46  70
ATOM     70  C   UNL A   1      43.039  24.621  26.753  1.00  0.00     0.023 A 
ATOM     71  C   UNL A   1      43.909  24.095  25.767  1.00  0.00     0.031 A 
ATOM     72  C   UNL A   1      42.040  23.738  27.230  1.00  0.00     0.131 A 
ATOM     73  C   UNL A   1      43.748  22.761  25.302  1.00  0.00     0.055 A 
ATOM     74  C   UNL A   1      41.886  22.429  26.768  1.00  0.00     0.041 A 
ATOM     75  F   UNL A   1      41.222  24.087  28.235  1.00  0.00    -0.206 F 
ATOM     76  C   UNL A   1      42.745  21.932  25.805  1.00  0.00     0.022 A 
BRANCH  73  77
ATOM     77  S   UNL A   1      44.897  22.040  24.077  1.00  0.00     0.124 S 
ATOM     78  O   UNL A   1      44.187  22.251  22.821  1.00  0.00    -0.237 OA
ATOM     79  O   UNL A   1      46.108  22.826  24.279  1.00  0.00    -0.237 OA
ATOM     80  O   UNL A   1      45.004  20.639  24.490  1.00  0.00    -0.744 OA
ENDBRANCH  73  77
ENDBRANCH  46  70
BRANCH  58  81
ATOM     81  C   UNL A   1      45.751  29.876  29.149  1.00  0.00     0.023 A 
ATOM     82  C   UNL A   1      44.938  30.665  28.297  1.00  0.00     0.031 A 
ATOM     83  C   UNL A   1      47.140  30.098  29.097  1.00  0.00     0.131 A 
ATOM     84  C   UNL A   1      45.529  31.620  27.439  1.00  0.00     0.055 A 
ATOM     85  C   UNL A   1      47.716  31.060  28.269  1.00  0.00     0.041 A 
ATOM     86  F   UNL A   1      47.969  29.400  29.892  1.00  0.00    -0.206 F 
ATOM     87  C   UNL A   1      46.912  31.822  27.432  1.00  0.00     0.022 A 
BRANCH  84  88
ATOM     88  S   UNL A   1      44.513  32.611  26.291  1.00  0.00     0.124 S 
ATOM     89  O   UNL A   1      43.922  33.628  27.152  1.00  0.00    -0.237 OA
ATOM     90  O   UNL A   1      45.500  33.085  25.325  1.00  0.00    -0.237 OA
ATOM     91  O   UNL A   1      43.558  31.637  25.756  1.00  0.00    -0.744 OA
ENDBRANCH  84  88
ENDBRANCH  58  81
ENDBRANCH  32  33
ENDBRANCH  25  27
ENDBRANCH  24  25
ENDBRANCH  23  24
ENDBRANCH   1  23
TORSDOF 19
ENDMDL
