MODEL 1
REMARK VINA RESULT:     -10.5      0.000      0.000
REMARK SMILES [NH3+][C@@H](Cc1c[nH]c2ccccc12)C(=O)N[C@@H](CS)C(=O)N[C@@H](CO)C(=O)OCCOCCOC(=O)c1ccc(-c2c3nc(c(-c4cc(S(=O)(=O)[O-])ccc4F)c4ccc([nH]4)c(-c4cc(S(=O)(=O)[O-])ccc4F)c4nc(c(-c5cc(S(=O)(=O)[O-])ccc5F)c5ccc2[nH]5)C=C4)C=C3)cc1
REMARK SMILES IDX 28 1 27 2 25 3 26 4 22 5 21 6 19 7 20 8 16 10 15 11 13 12
REMARK SMILES IDX 14 13 2 15 1 16 3 20 4 21 5 22 12 23 6 24 7 25 11 26 8 28
REMARK SMILES IDX 10 29 9 30 17 31 18 32 23 34 24 35 29 37 30 38 31 39 32 40
REMARK SMILES IDX 33 41 34 42 35 43 36 44 37 45 98 46 38 47 97 48 39 49 40 50
REMARK SMILES IDX 41 51 91 52 42 53 96 54 90 55 92 56 43 57 95 58 89 59 88 60
REMARK SMILES IDX 44 62 76 63 56 64 75 65 57 66 60 67 74 68 93 69 58 70 59 71
REMARK SMILES IDX 73 73 94 74 61 75 45 76 46 77 54 78 47 79 53 80 55 81 52 82
REMARK SMILES IDX 48 83 49 84 50 85 51 86 77 87 78 88 86 89 79 90 85 91 87 92
REMARK SMILES IDX 84 93 80 94 81 95 82 96 83 97 62 98 63 99 71 100 64 101
REMARK SMILES IDX 70 102 72 103 69 104 65 105 66 106 67 107 68 108
REMARK H PARENT 21 9 15 14 1 17 1 18 1 19 6 27 18 33 24 36 92 61 60 72
REMARK Flexibility Score: inf
ROOT
ATOM      1  C   UNL A   1      32.087  28.155  26.593  1.00  0.00     0.261 C 
ENDROOT
BRANCH   1   2
ATOM      2  O   UNL A   1      32.574  26.814  26.432  1.00  0.00    -0.462 OA
BRANCH   2   3
ATOM      3  C   UNL A   1      31.626  25.836  26.429  1.00  0.00     0.331 C 
ATOM      4  O   UNL A   1      30.448  25.995  26.726  1.00  0.00    -0.250 OA
BRANCH   3   5
ATOM      5  C   UNL A   1      32.204  24.478  26.010  1.00  0.00     0.218 C 
BRANCH   5   6
ATOM      6  N   UNL A   1      33.619  24.514  25.621  1.00  0.00    -0.339 N 
ATOM      7  C   UNL A   1      34.145  23.960  24.500  1.00  0.00     0.244 C 
ATOM      8  O   UNL A   1      35.050  23.138  24.666  1.00  0.00    -0.273 OA
ATOM      9  H   UNL A   1      34.239  24.983  26.225  1.00  0.00     0.164 HD
BRANCH   7  10
ATOM     10  C   UNL A   1      33.575  24.243  23.091  1.00  0.00     0.181 C 
BRANCH  10  11
ATOM     11  N   UNL A   1      34.131  25.429  22.469  1.00  0.00    -0.338 N 
ATOM     12  C   UNL A   1      33.507  26.602  22.151  1.00  0.00     0.279 C 
ATOM     13  O   UNL A   1      34.258  27.554  21.895  1.00  0.00    -0.268 OA
ATOM     14  H   UNL A   1      35.088  25.383  22.246  1.00  0.00     0.164 HD
BRANCH  12  15
ATOM     15  C   UNL A   1      31.959  26.771  22.017  1.00  0.00     0.275 C 
BRANCH  15  16
ATOM     16  N   UNL A   1      31.442  25.990  20.872  1.00  0.00    -0.347 N 
ATOM     17  H   UNL A   1      30.658  26.487  20.449  1.00  0.00     0.345 HD
ATOM     18  H   UNL A   1      31.130  25.076  21.198  1.00  0.00     0.345 HD
ATOM     19  H   UNL A   1      32.182  25.870  20.181  1.00  0.00     0.345 HD
ENDBRANCH  15  16
BRANCH  15  20
ATOM     20  C   UNL A   1      31.097  26.793  23.302  1.00  0.00     0.113 C 
BRANCH  20  21
ATOM     21  C   UNL A   1      29.663  27.273  23.277  1.00  0.00    -0.016 A 
ATOM     22  C   UNL A   1      28.493  26.614  23.621  1.00  0.00     0.087 A 
ATOM     23  C   UNL A   1      29.254  28.583  22.836  1.00  0.00     0.003 A 
ATOM     24  N   UNL A   1      27.461  27.521  23.607  1.00  0.00    -0.361 N 
ATOM     25  C   UNL A   1      27.900  28.731  23.133  1.00  0.00     0.046 A 
ATOM     26  C   UNL A   1      29.928  29.673  22.244  1.00  0.00     0.010 A 
ATOM     27  H   UNL A   1      26.539  27.330  23.894  1.00  0.00     0.166 HD
ATOM     28  C   UNL A   1      27.205  29.932  22.944  1.00  0.00     0.026 A 
ATOM     29  C   UNL A   1      29.237  30.866  22.000  1.00  0.00     0.001 A 
ATOM     30  C   UNL A   1      27.900  30.998  22.366  1.00  0.00     0.002 A 
ENDBRANCH  20  21
ENDBRANCH  15  20
ENDBRANCH  12  15
ENDBRANCH  10  11
BRANCH  10  31
ATOM     31  C   UNL A   1      33.273  23.064  22.159  1.00  0.00     0.101 C 
BRANCH  31  32
ATOM     32  S   UNL A   1      32.268  21.693  22.794  1.00  0.00    -0.177 SA
ATOM     33  H   UNL A   1      32.386  20.623  21.963  1.00  0.00     0.102 HD
ENDBRANCH  31  32
ENDBRANCH  10  31
ENDBRANCH   7  10
ENDBRANCH   5   6
BRANCH   5  34
ATOM     34  C   UNL A   1      32.006  23.487  27.164  1.00  0.00     0.193 C 
BRANCH  34  35
ATOM     35  O   UNL A   1      30.625  23.184  27.348  1.00  0.00    -0.394 OA
ATOM     36  H   UNL A   1      30.105  23.617  26.653  1.00  0.00     0.210 HD
ENDBRANCH  34  35
ENDBRANCH   5  34
ENDBRANCH   3   5
ENDBRANCH   2   3
ENDBRANCH   1   2
BRANCH   1  37
ATOM     37  C   UNL A   1      33.088  29.166  26.024  1.00  0.00     0.202 C 
BRANCH  37  38
ATOM     38  O   UNL A   1      33.009  30.503  26.522  1.00  0.00    -0.374 OA
BRANCH  38  39
ATOM     39  C   UNL A   1      31.738  31.142  26.489  1.00  0.00     0.202 C 
BRANCH  39  40
ATOM     40  C   UNL A   1      31.664  32.628  26.869  1.00  0.00     0.261 C 
BRANCH  40  41
ATOM     41  O   UNL A   1      32.920  33.312  26.775  1.00  0.00    -0.460 OA
BRANCH  41  42
ATOM     42  C   UNL A   1      33.402  33.760  27.959  1.00  0.00     0.338 C 
ATOM     43  O   UNL A   1      32.866  34.568  28.713  1.00  0.00    -0.246 OA
BRANCH  42  44
ATOM     44  C   UNL A   1      34.608  33.007  28.329  1.00  0.00     0.060 A 
ATOM     45  C   UNL A   1      34.437  31.784  28.992  1.00  0.00     0.016 A 
ATOM     46  C   UNL A   1      35.886  33.517  28.093  1.00  0.00     0.016 A 
ATOM     47  C   UNL A   1      35.547  31.078  29.448  1.00  0.00     0.010 A 
ATOM     48  C   UNL A   1      36.999  32.814  28.565  1.00  0.00     0.010 A 
ATOM     49  C   UNL A   1      36.832  31.606  29.268  1.00  0.00    -0.014 A 
BRANCH  49  50
ATOM     50  C   UNL A   1      37.983  30.962  29.945  1.00  0.00     0.031 A 
ATOM     51  C   UNL A   1      38.269  31.313  31.380  1.00  0.00     0.074 A 
ATOM     52  C   UNL A   1      38.739  30.055  29.299  1.00  0.00     0.049 A 
ATOM     53  N   UNL A   1      39.237  30.907  32.157  1.00  0.00    -0.248 NA
ATOM     54  C   UNL A   1      37.334  32.252  32.021  1.00  0.00     0.031 C 
ATOM     55  C   UNL A   1      38.522  29.606  27.925  1.00  0.00     0.029 A 
ATOM     56  N   UNL A   1      39.843  29.354  29.713  1.00  0.00    -0.354 N 
ATOM     57  C   UNL A   1      39.037  31.545  33.376  1.00  0.00     0.074 A 
ATOM     58  C   UNL A   1      37.872  32.390  33.223  1.00  0.00     0.031 C 
ATOM     59  C   UNL A   1      39.474  28.713  27.604  1.00  0.00     0.029 A 
ATOM     60  C   UNL A   1      40.389  28.557  28.733  1.00  0.00     0.049 A 
ATOM     61  H   UNL A   1      40.211  29.415  30.624  1.00  0.00     0.167 HD
ATOM     62  C   UNL A   1      39.759  31.431  34.520  1.00  0.00     0.034 A 
ATOM     63  C   UNL A   1      41.513  27.814  28.740  1.00  0.00     0.034 A 
ATOM     64  C   UNL A   1      40.922  30.587  34.648  1.00  0.00     0.049 A 
ATOM     65  C   UNL A   1      42.345  27.764  30.001  1.00  0.00     0.074 A 
ATOM     66  C   UNL A   1      41.715  30.379  35.763  1.00  0.00     0.029 A 
ATOM     67  N   UNL A   1      41.469  29.824  33.625  1.00  0.00    -0.354 N 
ATOM     68  N   UNL A   1      42.137  28.360  31.152  1.00  0.00    -0.248 NA
ATOM     69  C   UNL A   1      43.555  26.932  29.965  1.00  0.00     0.031 C 
ATOM     70  C   UNL A   1      42.783  29.554  35.393  1.00  0.00     0.029 A 
ATOM     71  C   UNL A   1      42.610  29.175  34.071  1.00  0.00     0.049 A 
ATOM     72  H   UNL A   1      41.101  29.754  32.714  1.00  0.00     0.167 HD
ATOM     73  C   UNL A   1      43.174  27.947  31.987  1.00  0.00     0.074 A 
ATOM     74  C   UNL A   1      43.994  27.041  31.210  1.00  0.00     0.031 C 
ATOM     75  C   UNL A   1      43.422  28.280  33.280  1.00  0.00     0.034 A 
BRANCH  62  76
ATOM     76  C   UNL A   1      39.341  32.279  35.697  1.00  0.00     0.023 A 
ATOM     77  C   UNL A   1      39.808  33.594  35.871  1.00  0.00     0.031 A 
ATOM     78  C   UNL A   1      38.471  31.755  36.670  1.00  0.00     0.131 A 
ATOM     79  C   UNL A   1      39.451  34.316  37.020  1.00  0.00     0.055 A 
ATOM     80  C   UNL A   1      38.059  32.506  37.771  1.00  0.00     0.041 A 
ATOM     81  F   UNL A   1      38.014  30.497  36.570  1.00  0.00    -0.206 F 
ATOM     82  C   UNL A   1      38.559  33.791  37.959  1.00  0.00     0.022 A 
BRANCH  79  83
ATOM     83  S   UNL A   1      40.273  35.901  37.341  1.00  0.00     0.124 S 
ATOM     84  O   UNL A   1      39.812  36.707  36.213  1.00  0.00    -0.237 OA
ATOM     85  O   UNL A   1      39.747  36.272  38.649  1.00  0.00    -0.237 OA
ATOM     86  O   UNL A   1      41.695  35.562  37.314  1.00  0.00    -0.744 OA
ENDBRANCH  79  83
ENDBRANCH  62  76
BRANCH  63  87
ATOM     87  C   UNL A   1      41.954  27.094  27.509  1.00  0.00     0.023 A 
ATOM     88  C   UNL A   1      41.854  25.697  27.405  1.00  0.00     0.031 A 
ATOM     89  C   UNL A   1      42.544  27.792  26.439  1.00  0.00     0.131 A 
ATOM     90  C   UNL A   1      42.383  25.039  26.282  1.00  0.00     0.055 A 
ATOM     91  C   UNL A   1      43.014  27.139  25.298  1.00  0.00     0.041 A 
ATOM     92  F   UNL A   1      42.669  29.128  26.487  1.00  0.00    -0.206 F 
ATOM     93  C   UNL A   1      42.949  25.752  25.222  1.00  0.00     0.022 A 
BRANCH  90  94
ATOM     94  S   UNL A   1      42.414  23.225  26.272  1.00  0.00     0.124 S 
ATOM     95  O   UNL A   1      41.075  22.904  26.751  1.00  0.00    -0.237 OA
ATOM     96  O   UNL A   1      42.680  22.936  24.867  1.00  0.00    -0.237 OA
ATOM     97  O   UNL A   1      43.502  22.899  27.192  1.00  0.00    -0.744 OA
ENDBRANCH  90  94
ENDBRANCH  63  87
BRANCH  75  98
ATOM     98  C   UNL A   1      44.603  27.616  33.948  1.00  0.00     0.023 A 
ATOM     99  C   UNL A   1      44.486  26.381  34.609  1.00  0.00     0.031 A 
ATOM    100  C   UNL A   1      45.866  28.235  33.923  1.00  0.00     0.131 A 
ATOM    101  C   UNL A   1      45.598  25.832  35.267  1.00  0.00     0.055 A 
ATOM    102  C   UNL A   1      46.983  27.654  34.524  1.00  0.00     0.041 A 
ATOM    103  F   UNL A   1      46.036  29.417  33.309  1.00  0.00    -0.206 F 
ATOM    104  C   UNL A   1      46.850  26.451  35.212  1.00  0.00     0.022 A 
BRANCH 101 105
ATOM    105  S   UNL A   1      45.367  24.344  36.277  1.00  0.00     0.124 S 
ATOM    106  O   UNL A   1      45.353  24.894  37.629  1.00  0.00    -0.237 OA
ATOM    107  O   UNL A   1      44.093  23.829  35.786  1.00  0.00    -0.237 OA
ATOM    108  O   UNL A   1      46.533  23.525  35.952  1.00  0.00    -0.744 OA
ENDBRANCH 101 105
ENDBRANCH  75  98
ENDBRANCH  49  50
ENDBRANCH  42  44
ENDBRANCH  41  42
ENDBRANCH  40  41
ENDBRANCH  39  40
ENDBRANCH  38  39
ENDBRANCH  37  38
ENDBRANCH   1  37
TORSDOF 28
ENDMDL
MODEL 2
REMARK VINA RESULT:     -10.1      1.352      2.382
REMARK SMILES [NH3+][C@@H](Cc1c[nH]c2ccccc12)C(=O)N[C@@H](CS)C(=O)N[C@@H](CO)C(=O)OCCOCCOC(=O)c1ccc(-c2c3nc(c(-c4cc(S(=O)(=O)[O-])ccc4F)c4ccc([nH]4)c(-c4cc(S(=O)(=O)[O-])ccc4F)c4nc(c(-c5cc(S(=O)(=O)[O-])ccc5F)c5ccc2[nH]5)C=C4)C=C3)cc1
REMARK SMILES IDX 28 1 27 2 25 3 26 4 22 5 21 6 19 7 20 8 16 10 15 11 13 12
REMARK SMILES IDX 14 13 2 15 1 16 3 20 4 21 5 22 12 23 6 24 7 25 11 26 8 28
REMARK SMILES IDX 10 29 9 30 17 31 18 32 23 34 24 35 29 37 30 38 31 39 32 40
REMARK SMILES IDX 33 41 34 42 35 43 36 44 37 45 98 46 38 47 97 48 39 49 40 50
REMARK SMILES IDX 41 51 91 52 42 53 96 54 90 55 92 56 43 57 95 58 89 59 88 60
REMARK SMILES IDX 44 62 76 63 56 64 75 65 57 66 60 67 74 68 93 69 58 70 59 71
REMARK SMILES IDX 73 73 94 74 61 75 45 76 46 77 54 78 47 79 53 80 55 81 52 82
REMARK SMILES IDX 48 83 49 84 50 85 51 86 77 87 78 88 86 89 79 90 85 91 87 92
REMARK SMILES IDX 84 93 80 94 81 95 82 96 83 97 62 98 63 99 71 100 64 101
REMARK SMILES IDX 70 102 72 103 69 104 65 105 66 106 67 107 68 108
REMARK H PARENT 21 9 15 14 1 17 1 18 1 19 6 27 18 33 24 36 92 61 60 72
REMARK Flexibility Score: inf
ROOT
ATOM      1  C   UNL A   1      34.005  27.622  24.320  1.00  0.00     0.261 C 
ENDROOT
BRANCH   1   2
ATOM      2  O   UNL A   1      32.950  27.046  23.536  1.00  0.00    -0.462 OA
BRANCH   2   3
ATOM      3  C   UNL A   1      33.262  26.760  22.241  1.00  0.00     0.331 C 
ATOM      4  O   UNL A   1      33.769  27.545  21.448  1.00  0.00    -0.250 OA
BRANCH   3   5
ATOM      5  C   UNL A   1      32.898  25.318  21.868  1.00  0.00     0.218 C 
BRANCH   5   6
ATOM      6  N   UNL A   1      31.615  24.856  22.410  1.00  0.00    -0.339 N 
ATOM      7  C   UNL A   1      31.450  23.856  23.312  1.00  0.00     0.244 C 
ATOM      8  O   UNL A   1      30.719  22.922  22.972  1.00  0.00    -0.273 OA
ATOM      9  H   UNL A   1      30.802  25.312  22.090  1.00  0.00     0.164 HD
BRANCH   7  10
ATOM     10  C   UNL A   1      32.223  23.816  24.652  1.00  0.00     0.181 C 
BRANCH  10  11
ATOM     11  N   UNL A   1      31.368  23.622  25.807  1.00  0.00    -0.338 N 
ATOM     12  C   UNL A   1      30.450  24.479  26.346  1.00  0.00     0.279 C 
ATOM     13  O   UNL A   1      29.654  23.972  27.149  1.00  0.00    -0.268 OA
ATOM     14  H   UNL A   1      31.461  22.757  26.265  1.00  0.00     0.164 HD
BRANCH  12  15
ATOM     15  C   UNL A   1      30.414  26.018  26.078  1.00  0.00     0.275 C 
BRANCH  15  16
ATOM     16  N   UNL A   1      31.285  26.740  27.031  1.00  0.00    -0.347 N 
ATOM     17  H   UNL A   1      31.689  27.555  26.571  1.00  0.00     0.345 HD
ATOM     18  H   UNL A   1      32.032  26.120  27.344  1.00  0.00     0.345 HD
ATOM     19  H   UNL A   1      30.733  27.040  27.834  1.00  0.00     0.345 HD
ENDBRANCH  15  16
BRANCH  15  20
ATOM     20  C   UNL A   1      30.404  26.519  24.614  1.00  0.00     0.113 C 
BRANCH  20  21
ATOM     21  C   UNL A   1      29.158  27.110  23.994  1.00  0.00    -0.016 A 
ATOM     22  C   UNL A   1      27.832  26.718  24.102  1.00  0.00     0.087 A 
ATOM     23  C   UNL A   1      29.154  28.245  23.106  1.00  0.00     0.003 A 
ATOM     24  N   UNL A   1      27.045  27.673  23.507  1.00  0.00    -0.361 N 
ATOM     25  C   UNL A   1      27.827  28.617  22.892  1.00  0.00     0.046 A 
ATOM     26  C   UNL A   1      30.167  29.015  22.494  1.00  0.00     0.010 A 
ATOM     27  H   UNL A   1      26.061  27.678  23.518  1.00  0.00     0.166 HD
ATOM     28  C   UNL A   1      27.462  29.759  22.169  1.00  0.00     0.026 A 
ATOM     29  C   UNL A   1      29.819  30.131  21.723  1.00  0.00     0.001 A 
ATOM     30  C   UNL A   1      28.487  30.509  21.583  1.00  0.00     0.002 A 
ENDBRANCH  20  21
ENDBRANCH  15  20
ENDBRANCH  12  15
ENDBRANCH  10  11
BRANCH  10  31
ATOM     31  C   UNL A   1      33.596  23.136  24.699  1.00  0.00     0.101 C 
BRANCH  31  32
ATOM     32  S   UNL A   1      35.057  24.157  25.034  1.00  0.00    -0.177 SA
ATOM     33  H   UNL A   1      36.035  23.858  24.137  1.00  0.00     0.102 HD
ENDBRANCH  31  32
ENDBRANCH  10  31
ENDBRANCH   7  10
ENDBRANCH   5   6
BRANCH   5  34
ATOM     34  C   UNL A   1      32.893  25.196  20.340  1.00  0.00     0.193 C 
BRANCH  34  35
ATOM     35  O   UNL A   1      31.734  25.809  19.780  1.00  0.00    -0.394 OA
ATOM     36  H   UNL A   1      31.992  26.618  19.312  1.00  0.00     0.210 HD
ENDBRANCH  34  35
ENDBRANCH   5  34
ENDBRANCH   3   5
ENDBRANCH   2   3
ENDBRANCH   1   2
BRANCH   1  37
ATOM     37  C   UNL A   1      33.463  28.732  25.226  1.00  0.00     0.202 C 
BRANCH  37  38
ATOM     38  O   UNL A   1      32.396  29.527  24.705  1.00  0.00    -0.374 OA
BRANCH  38  39
ATOM     39  C   UNL A   1      31.477  30.083  25.637  1.00  0.00     0.202 C 
BRANCH  39  40
ATOM     40  C   UNL A   1      31.821  31.437  26.275  1.00  0.00     0.261 C 
BRANCH  40  41
ATOM     41  O   UNL A   1      32.614  31.331  27.465  1.00  0.00    -0.460 OA
BRANCH  41  42
ATOM     42  C   UNL A   1      33.499  32.341  27.638  1.00  0.00     0.338 C 
ATOM     43  O   UNL A   1      33.254  33.544  27.625  1.00  0.00    -0.246 OA
BRANCH  42  44
ATOM     44  C   UNL A   1      34.809  31.802  28.026  1.00  0.00     0.060 A 
ATOM     45  C   UNL A   1      34.896  30.430  28.297  1.00  0.00     0.016 A 
ATOM     46  C   UNL A   1      35.920  32.632  28.189  1.00  0.00     0.016 A 
ATOM     47  C   UNL A   1      36.091  29.886  28.760  1.00  0.00     0.010 A 
ATOM     48  C   UNL A   1      37.115  32.086  28.668  1.00  0.00     0.010 A 
ATOM     49  C   UNL A   1      37.197  30.717  28.981  1.00  0.00    -0.014 A 
BRANCH  49  50
ATOM     50  C   UNL A   1      38.387  30.172  29.678  1.00  0.00     0.031 A 
ATOM     51  C   UNL A   1      38.707  30.667  31.062  1.00  0.00     0.074 A 
ATOM     52  C   UNL A   1      39.149  29.227  29.096  1.00  0.00     0.049 A 
ATOM     53  N   UNL A   1      39.710  30.364  31.842  1.00  0.00    -0.248 NA
ATOM     54  C   UNL A   1      37.764  31.638  31.642  1.00  0.00     0.031 C 
ATOM     55  C   UNL A   1      38.904  28.643  27.779  1.00  0.00     0.029 A 
ATOM     56  N   UNL A   1      40.286  28.599  29.537  1.00  0.00    -0.354 N 
ATOM     57  C   UNL A   1      39.529  31.111  33.000  1.00  0.00     0.074 A 
ATOM     58  C   UNL A   1      38.335  31.905  32.806  1.00  0.00     0.031 C 
ATOM     59  C   UNL A   1      39.871  27.748  27.513  1.00  0.00     0.029 A 
ATOM     60  C   UNL A   1      40.825  27.727  28.620  1.00  0.00     0.049 A 
ATOM     61  H   UNL A   1      40.679  28.757  30.426  1.00  0.00     0.167 HD
ATOM     62  C   UNL A   1      40.288  31.126  34.125  1.00  0.00     0.034 A 
ATOM     63  C   UNL A   1      41.970  27.017  28.661  1.00  0.00     0.034 A 
ATOM     64  C   UNL A   1      41.479  30.331  34.294  1.00  0.00     0.049 A 
ATOM     65  C   UNL A   1      42.841  27.111  29.892  1.00  0.00     0.074 A 
ATOM     66  C   UNL A   1      42.313  30.252  35.396  1.00  0.00     0.029 A 
ATOM     67  N   UNL A   1      42.018  29.487  33.330  1.00  0.00    -0.354 N 
ATOM     68  N   UNL A   1      42.652  27.809  30.988  1.00  0.00    -0.248 NA
ATOM     69  C   UNL A   1      44.074  26.313  29.895  1.00  0.00     0.031 C 
ATOM     70  C   UNL A   1      43.393  29.424  35.071  1.00  0.00     0.029 A 
ATOM     71  C   UNL A   1      43.190  28.914  33.798  1.00  0.00     0.049 A 
ATOM     72  H   UNL A   1      41.623  29.320  32.443  1.00  0.00     0.167 HD
ATOM     73  C   UNL A   1      43.725  27.506  31.823  1.00  0.00     0.074 A 
ATOM     74  C   UNL A   1      44.548  26.553  31.109  1.00  0.00     0.031 C 
ATOM     75  C   UNL A   1      44.004  27.969  33.069  1.00  0.00     0.034 A 
BRANCH  62  76
ATOM     76  C   UNL A   1      39.882  32.073  35.229  1.00  0.00     0.023 A 
ATOM     77  C   UNL A   1      40.380  33.386  35.305  1.00  0.00     0.031 A 
ATOM     78  C   UNL A   1      38.992  31.646  36.231  1.00  0.00     0.131 A 
ATOM     79  C   UNL A   1      40.032  34.203  36.392  1.00  0.00     0.055 A 
ATOM     80  C   UNL A   1      38.590  32.490  37.266  1.00  0.00     0.041 A 
ATOM     81  F   UNL A   1      38.505  30.396  36.224  1.00  0.00    -0.206 F 
ATOM     82  C   UNL A   1      39.120  33.773  37.360  1.00  0.00     0.022 A 
BRANCH  79  83
ATOM     83  S   UNL A   1      40.890  35.788  36.598  1.00  0.00     0.124 S 
ATOM     84  O   UNL A   1      41.215  36.130  35.215  1.00  0.00    -0.237 OA
ATOM     85  O   UNL A   1      39.876  36.615  37.240  1.00  0.00    -0.237 OA
ATOM     86  O   UNL A   1      42.040  35.449  37.433  1.00  0.00    -0.744 OA
ENDBRANCH  79  83
ENDBRANCH  62  76
BRANCH  63  87
ATOM     87  C   UNL A   1      42.394  26.194  27.490  1.00  0.00     0.023 A 
ATOM     88  C   UNL A   1      42.067  24.831  27.399  1.00  0.00     0.031 A 
ATOM     89  C   UNL A   1      43.191  26.748  26.471  1.00  0.00     0.131 A 
ATOM     90  C   UNL A   1      42.577  24.058  26.343  1.00  0.00     0.055 A 
ATOM     91  C   UNL A   1      43.647  25.989  25.393  1.00  0.00     0.041 A 
ATOM     92  F   UNL A   1      43.538  28.044  26.510  1.00  0.00    -0.206 F 
ATOM     93  C   UNL A   1      43.353  24.631  25.333  1.00  0.00     0.022 A 
BRANCH  90  94
ATOM     94  S   UNL A   1      42.298  22.266  26.365  1.00  0.00     0.124 S 
ATOM     95  O   UNL A   1      42.674  21.924  27.732  1.00  0.00    -0.237 OA
ATOM     96  O   UNL A   1      40.876  22.178  26.050  1.00  0.00    -0.237 OA
ATOM     97  O   UNL A   1      43.198  21.768  25.327  1.00  0.00    -0.744 OA
ENDBRANCH  90  94
ENDBRANCH  63  87
BRANCH  75  98
ATOM     98  C   UNL A   1      45.224  27.404  33.757  1.00  0.00     0.023 A 
ATOM     99  C   UNL A   1      45.175  26.207  34.493  1.00  0.00     0.031 A 
ATOM    100  C   UNL A   1      46.455  28.081  33.676  1.00  0.00     0.131 A 
ATOM    101  C   UNL A   1      46.321  25.753  35.165  1.00  0.00     0.055 A 
ATOM    102  C   UNL A   1      47.606  27.591  34.293  1.00  0.00     0.041 A 
ATOM    103  F   UNL A   1      46.560  29.230  32.989  1.00  0.00    -0.206 F 
ATOM    104  C   UNL A   1      47.540  26.428  35.053  1.00  0.00     0.022 A 
BRANCH 101 105
ATOM    105  S   UNL A   1      46.176  24.319  36.265  1.00  0.00     0.124 S 
ATOM    106  O   UNL A   1      46.940  24.753  37.431  1.00  0.00    -0.237 OA
ATOM    107  O   UNL A   1      44.732  24.215  36.453  1.00  0.00    -0.237 OA
ATOM    108  O   UNL A   1      46.780  23.234  35.496  1.00  0.00    -0.744 OA
ENDBRANCH 101 105
ENDBRANCH  75  98
ENDBRANCH  49  50
ENDBRANCH  42  44
ENDBRANCH  41  42
ENDBRANCH  40  41
ENDBRANCH  39  40
ENDBRANCH  38  39
ENDBRANCH  37  38
ENDBRANCH   1  37
TORSDOF 28
ENDMDL
MODEL 3
REMARK VINA RESULT:     -10.0      2.492      4.772
REMARK SMILES [NH3+][C@@H](Cc1c[nH]c2ccccc12)C(=O)N[C@@H](CS)C(=O)N[C@@H](CO)C(=O)OCCOCCOC(=O)c1ccc(-c2c3nc(c(-c4cc(S(=O)(=O)[O-])ccc4F)c4ccc([nH]4)c(-c4cc(S(=O)(=O)[O-])ccc4F)c4nc(c(-c5cc(S(=O)(=O)[O-])ccc5F)c5ccc2[nH]5)C=C4)C=C3)cc1
REMARK SMILES IDX 28 1 27 2 25 3 26 4 22 5 21 6 19 7 20 8 16 10 15 11 13 12
REMARK SMILES IDX 14 13 2 15 1 16 3 20 4 21 5 22 12 23 6 24 7 25 11 26 8 28
REMARK SMILES IDX 10 29 9 30 17 31 18 32 23 34 24 35 29 37 30 38 31 39 32 40
REMARK SMILES IDX 33 41 34 42 35 43 36 44 37 45 98 46 38 47 97 48 39 49 40 50
REMARK SMILES IDX 41 51 91 52 42 53 96 54 90 55 92 56 43 57 95 58 89 59 88 60
REMARK SMILES IDX 44 62 76 63 56 64 75 65 57 66 60 67 74 68 93 69 58 70 59 71
REMARK SMILES IDX 73 73 94 74 61 75 45 76 46 77 54 78 47 79 53 80 55 81 52 82
REMARK SMILES IDX 48 83 49 84 50 85 51 86 77 87 78 88 86 89 79 90 85 91 87 92
REMARK SMILES IDX 84 93 80 94 81 95 82 96 83 97 62 98 63 99 71 100 64 101
REMARK SMILES IDX 70 102 72 103 69 104 65 105 66 106 67 107 68 108
REMARK H PARENT 21 9 15 14 1 17 1 18 1 19 6 27 18 33 24 36 92 61 60 72
REMARK Flexibility Score: inf
ROOT
ATOM      1  C   UNL A   1      33.973  28.084  24.481  1.00  0.00     0.261 C 
ENDROOT
BRANCH   1   2
ATOM      2  O   UNL A   1      32.942  27.585  23.614  1.00  0.00    -0.462 OA
BRANCH   2   3
ATOM      3  C   UNL A   1      33.348  27.193  22.375  1.00  0.00     0.331 C 
ATOM      4  O   UNL A   1      33.943  27.901  21.571  1.00  0.00    -0.250 OA
BRANCH   3   5
ATOM      5  C   UNL A   1      32.968  25.737  22.081  1.00  0.00     0.218 C 
BRANCH   5   6
ATOM      6  N   UNL A   1      31.703  25.305  22.688  1.00  0.00    -0.339 N 
ATOM      7  C   UNL A   1      31.579  24.446  23.732  1.00  0.00     0.244 C 
ATOM      8  O   UNL A   1      30.892  23.440  23.538  1.00  0.00    -0.273 OA
ATOM      9  H   UNL A   1      30.873  25.670  22.305  1.00  0.00     0.164 HD
BRANCH   7  10
ATOM     10  C   UNL A   1      32.346  24.644  25.061  1.00  0.00     0.181 C 
BRANCH  10  11
ATOM     11  N   UNL A   1      33.772  24.834  24.883  1.00  0.00    -0.338 N 
ATOM     12  C   UNL A   1      34.784  23.928  25.043  1.00  0.00     0.279 C 
ATOM     13  O   UNL A   1      35.875  24.255  24.557  1.00  0.00    -0.268 OA
ATOM     14  H   UNL A   1      34.051  25.737  24.609  1.00  0.00     0.164 HD
BRANCH  12  15
ATOM     15  C   UNL A   1      34.656  22.597  25.851  1.00  0.00     0.275 C 
BRANCH  15  16
ATOM     16  N   UNL A   1      34.304  22.869  27.262  1.00  0.00    -0.347 N 
ATOM     17  H   UNL A   1      33.296  23.004  27.340  1.00  0.00     0.345 HD
ATOM     18  H   UNL A   1      34.785  23.712  27.575  1.00  0.00     0.345 HD
ATOM     19  H   UNL A   1      34.588  22.079  27.841  1.00  0.00     0.345 HD
ENDBRANCH  15  16
BRANCH  15  20
ATOM     20  C   UNL A   1      33.980  21.378  25.179  1.00  0.00     0.113 C 
BRANCH  20  21
ATOM     21  C   UNL A   1      34.734  20.086  24.957  1.00  0.00    -0.016 A 
ATOM     22  C   UNL A   1      36.095  19.826  24.988  1.00  0.00     0.087 A 
ATOM     23  C   UNL A   1      34.108  18.829  24.629  1.00  0.00     0.003 A 
ATOM     24  N   UNL A   1      36.283  18.468  24.908  1.00  0.00    -0.361 N 
ATOM     25  C   UNL A   1      35.085  17.836  24.690  1.00  0.00     0.046 A 
ATOM     26  C   UNL A   1      32.785  18.442  24.324  1.00  0.00     0.010 A 
ATOM     27  H   UNL A   1      37.152  18.014  24.992  1.00  0.00     0.166 HD
ATOM     28  C   UNL A   1      34.798  16.473  24.540  1.00  0.00     0.026 A 
ATOM     29  C   UNL A   1      32.488  17.089  24.120  1.00  0.00     0.001 A 
ATOM     30  C   UNL A   1      33.478  16.119  24.249  1.00  0.00     0.002 A 
ENDBRANCH  20  21
ENDBRANCH  15  20
ENDBRANCH  12  15
ENDBRANCH  10  11
BRANCH  10  31
ATOM     31  C   UNL A   1      31.688  25.449  26.187  1.00  0.00     0.101 C 
BRANCH  31  32
ATOM     32  S   UNL A   1      29.879  25.589  26.209  1.00  0.00    -0.177 SA
ATOM     33  H   UNL A   1      29.381  24.867  27.249  1.00  0.00     0.102 HD
ENDBRANCH  31  32
ENDBRANCH  10  31
ENDBRANCH   7  10
ENDBRANCH   5   6
BRANCH   5  34
ATOM     34  C   UNL A   1      32.908  25.546  20.560  1.00  0.00     0.193 C 
BRANCH  34  35
ATOM     35  O   UNL A   1      33.086  24.175  20.208  1.00  0.00    -0.394 OA
ATOM     36  H   UNL A   1      33.653  24.116  19.424  1.00  0.00     0.210 HD
ENDBRANCH  34  35
ENDBRANCH   5  34
ENDBRANCH   3   5
ENDBRANCH   2   3
ENDBRANCH   1   2
BRANCH   1  37
ATOM     37  C   UNL A   1      33.422  29.173  25.406  1.00  0.00     0.202 C 
BRANCH  37  38
ATOM     38  O   UNL A   1      32.257  29.870  24.962  1.00  0.00    -0.374 OA
BRANCH  38  39
ATOM     39  C   UNL A   1      31.434  30.473  25.953  1.00  0.00     0.202 C 
BRANCH  39  40
ATOM     40  C   UNL A   1      31.846  31.849  26.498  1.00  0.00     0.261 C 
BRANCH  40  41
ATOM     41  O   UNL A   1      32.667  31.784  27.671  1.00  0.00    -0.460 OA
BRANCH  41  42
ATOM     42  C   UNL A   1      33.647  32.718  27.719  1.00  0.00     0.338 C 
ATOM     43  O   UNL A   1      33.509  33.934  27.613  1.00  0.00    -0.246 OA
BRANCH  42  44
ATOM     44  C   UNL A   1      34.922  32.093  28.095  1.00  0.00     0.060 A 
ATOM     45  C   UNL A   1      34.916  30.721  28.384  1.00  0.00     0.016 A 
ATOM     46  C   UNL A   1      36.091  32.845  28.230  1.00  0.00     0.016 A 
ATOM     47  C   UNL A   1      36.077  30.101  28.837  1.00  0.00     0.010 A 
ATOM     48  C   UNL A   1      37.251  32.222  28.700  1.00  0.00     0.010 A 
ATOM     49  C   UNL A   1      37.242  30.854  29.030  1.00  0.00    -0.014 A 
BRANCH  49  50
ATOM     50  C   UNL A   1      38.401  30.236  29.717  1.00  0.00     0.031 A 
ATOM     51  C   UNL A   1      38.740  30.683  31.114  1.00  0.00     0.074 A 
ATOM     52  C   UNL A   1      39.118  29.269  29.116  1.00  0.00     0.049 A 
ATOM     53  N   UNL A   1      39.724  30.313  31.888  1.00  0.00    -0.248 NA
ATOM     54  C   UNL A   1      37.844  31.685  31.713  1.00  0.00     0.031 C 
ATOM     55  C   UNL A   1      38.849  28.728  27.785  1.00  0.00     0.029 A 
ATOM     56  N   UNL A   1      40.221  28.576  29.545  1.00  0.00    -0.354 N 
ATOM     57  C   UNL A   1      39.576  31.041  33.064  1.00  0.00     0.074 A 
ATOM     58  C   UNL A   1      38.423  31.897  32.885  1.00  0.00     0.031 C 
ATOM     59  C   UNL A   1      39.773  27.793  27.500  1.00  0.00     0.029 A 
ATOM     60  C   UNL A   1      40.720  27.699  28.609  1.00  0.00     0.049 A 
ATOM     61  H   UNL A   1      40.619  28.694  30.438  1.00  0.00     0.167 HD
ATOM     62  C   UNL A   1      40.331  30.993  34.190  1.00  0.00     0.034 A 
ATOM     63  C   UNL A   1      41.829  26.934  28.636  1.00  0.00     0.034 A 
ATOM     64  C   UNL A   1      41.481  30.137  34.343  1.00  0.00     0.049 A 
ATOM     65  C   UNL A   1      42.700  26.956  29.871  1.00  0.00     0.074 A 
ATOM     66  C   UNL A   1      42.305  29.991  35.446  1.00  0.00     0.029 A 
ATOM     67  N   UNL A   1      41.981  29.290  33.362  1.00  0.00    -0.354 N 
ATOM     68  N   UNL A   1      42.541  27.638  30.982  1.00  0.00    -0.248 NA
ATOM     69  C   UNL A   1      43.892  26.099  29.859  1.00  0.00     0.031 C 
ATOM     70  C   UNL A   1      43.345  29.119  35.104  1.00  0.00     0.029 A 
ATOM     71  C   UNL A   1      43.122  28.650  33.819  1.00  0.00     0.049 A 
ATOM     72  H   UNL A   1      41.582  29.163  32.470  1.00  0.00     0.167 HD
ATOM     73  C   UNL A   1      43.595  27.264  31.813  1.00  0.00     0.074 A 
ATOM     74  C   UNL A   1      44.373  26.288  31.079  1.00  0.00     0.031 C 
ATOM     75  C   UNL A   1      43.891  27.683  33.071  1.00  0.00     0.034 A 
BRANCH  62  76
ATOM     76  C   UNL A   1      39.967  31.933  35.315  1.00  0.00     0.023 A 
ATOM     77  C   UNL A   1      39.067  31.566  36.330  1.00  0.00     0.031 A 
ATOM     78  C   UNL A   1      40.522  33.225  35.360  1.00  0.00     0.131 A 
ATOM     79  C   UNL A   1      38.703  32.501  37.312  1.00  0.00     0.055 A 
ATOM     80  C   UNL A   1      40.215  34.122  36.383  1.00  0.00     0.041 A 
ATOM     81  F   UNL A   1      41.367  33.639  34.404  1.00  0.00    -0.206 F 
ATOM     82  C   UNL A   1      39.290  33.768  37.361  1.00  0.00     0.022 A 
BRANCH  79  83
ATOM     83  S   UNL A   1      37.351  32.086  38.448  1.00  0.00     0.124 S 
ATOM     84  O   UNL A   1      37.169  30.660  38.183  1.00  0.00    -0.237 OA
ATOM     85  O   UNL A   1      37.914  32.428  39.748  1.00  0.00    -0.237 OA
ATOM     86  O   UNL A   1      36.252  32.939  38.000  1.00  0.00    -0.744 OA
ENDBRANCH  79  83
ENDBRANCH  62  76
BRANCH  63  87
ATOM     87  C   UNL A   1      42.217  26.118  27.447  1.00  0.00     0.023 A 
ATOM     88  C   UNL A   1      41.839  24.770  27.332  1.00  0.00     0.031 A 
ATOM     89  C   UNL A   1      43.029  26.662  26.435  1.00  0.00     0.131 A 
ATOM     90  C   UNL A   1      42.316  23.999  26.259  1.00  0.00     0.055 A 
ATOM     91  C   UNL A   1      43.451  25.907  25.339  1.00  0.00     0.041 A 
ATOM     92  F   UNL A   1      43.423  27.944  26.496  1.00  0.00    -0.206 F 
ATOM     93  C   UNL A   1      43.107  24.563  25.255  1.00  0.00     0.022 A 
BRANCH  90  94
ATOM     94  S   UNL A   1      41.971  22.218  26.250  1.00  0.00     0.124 S 
ATOM     95  O   UNL A   1      40.516  22.198  26.165  1.00  0.00    -0.237 OA
ATOM     96  O   UNL A   1      42.689  21.779  25.058  1.00  0.00    -0.237 OA
ATOM     97  O   UNL A   1      42.530  21.757  27.518  1.00  0.00    -0.744 OA
ENDBRANCH  90  94
ENDBRANCH  63  87
BRANCH  75  98
ATOM     98  C   UNL A   1      45.080  27.044  33.748  1.00  0.00     0.023 A 
ATOM     99  C   UNL A   1      44.975  25.822  34.436  1.00  0.00     0.031 A 
ATOM    100  C   UNL A   1      46.337  27.673  33.706  1.00  0.00     0.131 A 
ATOM    101  C   UNL A   1      46.094  25.297  35.101  1.00  0.00     0.055 A 
ATOM    102  C   UNL A   1      47.461  27.114  34.315  1.00  0.00     0.041 A 
ATOM    103  F   UNL A   1      46.496  28.843  33.066  1.00  0.00    -0.206 F 
ATOM    104  C   UNL A   1      47.340  25.925  35.029  1.00  0.00     0.022 A 
BRANCH 101 105
ATOM    105  S   UNL A   1      45.879  23.828  36.143  1.00  0.00     0.124 S 
ATOM    106  O   UNL A   1      46.879  22.917  35.594  1.00  0.00    -0.237 OA
ATOM    107  O   UNL A   1      46.156  24.348  37.477  1.00  0.00    -0.237 OA
ATOM    108  O   UNL A   1      44.489  23.440  35.905  1.00  0.00    -0.744 OA
ENDBRANCH 101 105
ENDBRANCH  75  98
ENDBRANCH  49  50
ENDBRANCH  42  44
ENDBRANCH  41  42
ENDBRANCH  40  41
ENDBRANCH  39  40
ENDBRANCH  38  39
ENDBRANCH  37  38
ENDBRANCH   1  37
TORSDOF 28
ENDMDL
