MODEL 1
REMARK VINA RESULT:     -11.9      0.000      0.000
REMARK SMILES Cc1ccc(C(=O)Nc2cccc(F)c2C(=O)OCCOCCOC(=O)c2ccc(-c3c4nc(c(-c5cc(S(=O)(=O)[O-])ccc5F)c5ccc([nH]5)c(-c5cc(S(=O)(=O)[O-])ccc5F)c5nc(c(-c6cc(S(=O)(=O)[O-])ccc6F)c6ccc3[nH]6)C=C5)C=C4)cc2)c(F)c1
REMARK SMILES IDX 22 1 21 2 20 3 19 4 18 5 16 6 17 7 15 8 9 9 10 10 11 11
REMARK SMILES IDX 13 12 12 13 14 14 8 15 6 16 7 17 5 19 1 20 2 21 3 22 92 23
REMARK SMILES IDX 4 24 90 25 91 26 23 27 24 28 25 29 26 30 27 31 28 32 89 33
REMARK SMILES IDX 29 34 88 35 30 36 31 37 32 38 82 39 33 40 87 41 81 42 83 43
REMARK SMILES IDX 34 44 86 45 80 46 79 47 35 49 67 50 47 51 66 52 48 53 51 54
REMARK SMILES IDX 65 55 84 56 49 57 50 58 64 60 85 61 52 62 36 63 37 64 45 65
REMARK SMILES IDX 38 66 44 67 46 68 43 69 39 70 40 71 41 72 42 73 68 74 69 75
REMARK SMILES IDX 77 76 70 77 76 78 78 79 75 80 71 81 72 82 73 83 74 84 53 85
REMARK SMILES IDX 54 86 62 87 55 88 61 89 63 90 60 91 56 92 57 93 58 94 59 95
REMARK H PARENT 8 18 83 48 51 59
REMARK Flexibility Score: inf
ROOT
ATOM      1  C   UNL A   1      34.476  21.710  24.763  1.00  0.00     0.202 C 
ENDROOT
BRANCH   1   2
ATOM      2  O   UNL A   1      33.677  22.497  25.646  1.00  0.00    -0.374 OA
BRANCH   2   3
ATOM      3  C   UNL A   1      32.324  22.757  25.264  1.00  0.00     0.202 C 
BRANCH   3   4
ATOM      4  C   UNL A   1      31.493  23.582  26.248  1.00  0.00     0.261 C 
BRANCH   4   5
ATOM      5  O   UNL A   1      32.126  24.851  26.483  1.00  0.00    -0.460 OA
BRANCH   5   6
ATOM      6  C   UNL A   1      31.317  25.926  26.372  1.00  0.00     0.343 C 
ATOM      7  O   UNL A   1      30.113  25.969  26.580  1.00  0.00    -0.246 OA
BRANCH   6   8
ATOM      8  C   UNL A   1      32.136  27.135  26.202  1.00  0.00     0.119 A 
ATOM      9  C   UNL A   1      32.769  27.383  24.969  1.00  0.00     0.059 A 
ATOM     10  C   UNL A   1      33.616  28.492  24.841  1.00  0.00     0.027 A 
ATOM     11  C   UNL A   1      33.854  29.323  25.940  1.00  0.00     0.005 A 
ATOM     12  C   UNL A   1      32.387  27.963  27.291  1.00  0.00     0.139 A 
ATOM     13  C   UNL A   1      33.245  29.053  27.167  1.00  0.00     0.040 A 
ATOM     14  F   UNL A   1      31.853  27.702  28.491  1.00  0.00    -0.206 F 
BRANCH   9  15
ATOM     15  N   UNL A   1      32.547  26.523  23.876  1.00  0.00    -0.321 N 
ATOM     16  C   UNL A   1      31.472  26.437  23.012  1.00  0.00     0.258 C 
ATOM     17  O   UNL A   1      31.407  25.461  22.267  1.00  0.00    -0.269 OA
ATOM     18  H   UNL A   1      33.273  25.882  23.699  1.00  0.00     0.170 HD
BRANCH  16  19
ATOM     19  C   UNL A   1      30.487  27.548  22.873  1.00  0.00     0.075 A 
ATOM     20  C   UNL A   1      27.566  30.722  22.571  1.00  0.00     0.044 C 
ATOM     21  C   UNL A   1      28.571  29.616  22.663  1.00  0.00    -0.048 A 
ATOM     22  C   UNL A   1      29.863  29.796  22.167  1.00  0.00     0.004 A 
ATOM     23  C   UNL A   1      28.218  28.366  23.182  1.00  0.00     0.043 A 
ATOM     24  C   UNL A   1      30.794  28.759  22.236  1.00  0.00     0.017 A 
ATOM     25  C   UNL A   1      29.171  27.352  23.298  1.00  0.00     0.136 A 
ATOM     26  F   UNL A   1      28.771  26.190  23.834  1.00  0.00    -0.206 F 
ENDBRANCH  16  19
ENDBRANCH   9  15
ENDBRANCH   6   8
ENDBRANCH   5   6
ENDBRANCH   4   5
ENDBRANCH   3   4
ENDBRANCH   2   3
ENDBRANCH   1   2
BRANCH   1  27
ATOM     27  C   UNL A   1      35.765  21.096  25.327  1.00  0.00     0.261 C 
BRANCH  27  28
ATOM     28  O   UNL A   1      36.929  21.891  25.050  1.00  0.00    -0.460 OA
BRANCH  28  29
ATOM     29  C   UNL A   1      38.076  21.440  25.617  1.00  0.00     0.338 C 
ATOM     30  O   UNL A   1      38.519  20.302  25.577  1.00  0.00    -0.246 OA
BRANCH  29  31
ATOM     31  C   UNL A   1      38.840  22.579  26.158  1.00  0.00     0.060 A 
ATOM     32  C   UNL A   1      38.305  23.865  25.998  1.00  0.00     0.016 A 
ATOM     33  C   UNL A   1      40.078  22.397  26.775  1.00  0.00     0.016 A 
ATOM     34  C   UNL A   1      39.012  24.977  26.453  1.00  0.00     0.010 A 
ATOM     35  C   UNL A   1      40.794  23.517  27.215  1.00  0.00     0.010 A 
ATOM     36  C   UNL A   1      40.270  24.812  27.047  1.00  0.00    -0.014 A 
BRANCH  36  37
ATOM     37  C   UNL A   1      41.078  25.992  27.435  1.00  0.00     0.031 A 
ATOM     38  C   UNL A   1      40.472  27.043  28.322  1.00  0.00     0.074 A 
ATOM     39  C   UNL A   1      42.347  26.116  27.006  1.00  0.00     0.049 A 
ATOM     40  N   UNL A   1      40.955  28.207  28.670  1.00  0.00    -0.248 NA
ATOM     41  C   UNL A   1      39.152  26.739  28.898  1.00  0.00     0.031 C 
ATOM     42  C   UNL A   1      43.072  25.120  26.215  1.00  0.00     0.029 A 
ATOM     43  N   UNL A   1      43.253  27.133  27.175  1.00  0.00    -0.354 N 
ATOM     44  C   UNL A   1      40.006  28.774  29.513  1.00  0.00     0.074 A 
ATOM     45  C   UNL A   1      38.906  27.836  29.601  1.00  0.00     0.031 C 
ATOM     46  C   UNL A   1      44.311  25.578  25.968  1.00  0.00     0.029 A 
ATOM     47  C   UNL A   1      44.450  26.917  26.534  1.00  0.00     0.049 A 
ATOM     48  H   UNL A   1      43.063  27.940  27.705  1.00  0.00     0.167 HD
ATOM     49  C   UNL A   1      40.052  29.966  30.153  1.00  0.00     0.034 A 
ATOM     50  C   UNL A   1      45.524  27.722  26.396  1.00  0.00     0.034 A 
ATOM     51  C   UNL A   1      41.142  30.901  30.041  1.00  0.00     0.049 A 
ATOM     52  C   UNL A   1      45.498  29.096  27.016  1.00  0.00     0.074 A 
ATOM     53  C   UNL A   1      41.257  32.162  30.602  1.00  0.00     0.029 A 
ATOM     54  N   UNL A   1      42.310  30.678  29.326  1.00  0.00    -0.354 N 
ATOM     55  N   UNL A   1      44.552  29.661  27.729  1.00  0.00    -0.248 NA
ATOM     56  C   UNL A   1      46.682  29.942  26.810  1.00  0.00     0.031 C 
ATOM     57  C   UNL A   1      42.471  32.719  30.188  1.00  0.00     0.029 A 
ATOM     58  C   UNL A   1      43.145  31.779  29.427  1.00  0.00     0.049 A 
ATOM     59  H   UNL A   1      42.515  29.857  28.821  1.00  0.00     0.167 HD
ATOM     60  C   UNL A   1      45.047  30.912  28.093  1.00  0.00     0.074 A 
ATOM     61  C   UNL A   1      46.369  31.021  27.514  1.00  0.00     0.031 C 
ATOM     62  C   UNL A   1      44.464  31.874  28.849  1.00  0.00     0.034 A 
BRANCH  49  63
ATOM     63  C   UNL A   1      38.872  30.349  31.007  1.00  0.00     0.023 A 
ATOM     64  C   UNL A   1      37.795  31.079  30.482  1.00  0.00     0.031 A 
ATOM     65  C   UNL A   1      38.806  29.934  32.349  1.00  0.00     0.131 A 
ATOM     66  C   UNL A   1      36.701  31.393  31.303  1.00  0.00     0.055 A 
ATOM     67  C   UNL A   1      37.692  30.204  33.145  1.00  0.00     0.041 A 
ATOM     68  F   UNL A   1      39.819  29.250  32.903  1.00  0.00    -0.206 F 
ATOM     69  C   UNL A   1      36.631  30.940  32.623  1.00  0.00     0.022 A 
BRANCH  66  70
ATOM     70  S   UNL A   1      35.384  32.449  30.638  1.00  0.00     0.124 S 
ATOM     71  O   UNL A   1      35.109  31.803  29.358  1.00  0.00    -0.237 OA
ATOM     72  O   UNL A   1      34.340  32.331  31.650  1.00  0.00    -0.237 OA
ATOM     73  O   UNL A   1      36.014  33.764  30.546  1.00  0.00    -0.744 OA
ENDBRANCH  66  70
ENDBRANCH  49  63
BRANCH  50  74
ATOM     74  C   UNL A   1      46.708  27.270  25.614  1.00  0.00     0.023 A 
ATOM     75  C   UNL A   1      46.938  27.747  24.315  1.00  0.00     0.031 A 
ATOM     76  C   UNL A   1      47.606  26.323  26.139  1.00  0.00     0.131 A 
ATOM     77  C   UNL A   1      48.017  27.251  23.568  1.00  0.00     0.055 A 
ATOM     78  C   UNL A   1      48.705  25.867  25.411  1.00  0.00     0.041 A 
ATOM     79  F   UNL A   1      47.431  25.835  27.378  1.00  0.00    -0.206 F 
ATOM     80  C   UNL A   1      48.910  26.324  24.112  1.00  0.00     0.022 A 
BRANCH  77  81
ATOM     81  S   UNL A   1      48.207  27.792  21.848  1.00  0.00     0.124 S 
ATOM     82  O   UNL A   1      48.433  26.525  21.163  1.00  0.00    -0.237 OA
ATOM     83  O   UNL A   1      46.926  28.443  21.591  1.00  0.00    -0.237 OA
ATOM     84  O   UNL A   1      49.359  28.690  21.900  1.00  0.00    -0.744 OA
ENDBRANCH  77  81
ENDBRANCH  50  74
BRANCH  62  85
ATOM     85  C   UNL A   1      45.279  33.102  29.162  1.00  0.00     0.023 A 
ATOM     86  C   UNL A   1      45.164  34.283  28.410  1.00  0.00     0.031 A 
ATOM     87  C   UNL A   1      46.169  33.090  30.251  1.00  0.00     0.131 A 
ATOM     88  C   UNL A   1      45.957  35.395  28.735  1.00  0.00     0.055 A 
ATOM     89  C   UNL A   1      46.919  34.214  30.600  1.00  0.00     0.041 A 
ATOM     90  F   UNL A   1      46.314  31.986  31.001  1.00  0.00    -0.206 F 
ATOM     91  C   UNL A   1      46.821  35.372  29.834  1.00  0.00     0.022 A 
BRANCH  88  92
ATOM     92  S   UNL A   1      45.884  36.861  27.672  1.00  0.00     0.124 S 
ATOM     93  O   UNL A   1      47.018  36.645  26.779  1.00  0.00    -0.237 OA
ATOM     94  O   UNL A   1      44.563  36.742  27.061  1.00  0.00    -0.237 OA
ATOM     95  O   UNL A   1      46.033  37.974  28.607  1.00  0.00    -0.744 OA
ENDBRANCH  88  92
ENDBRANCH  62  85
ENDBRANCH  36  37
ENDBRANCH  29  31
ENDBRANCH  28  29
ENDBRANCH  27  28
ENDBRANCH   1  27
TORSDOF 19
ENDMDL
MODEL 2
REMARK VINA RESULT:     -11.8      1.882      2.696
REMARK SMILES Cc1ccc(C(=O)Nc2cccc(F)c2C(=O)OCCOCCOC(=O)c2ccc(-c3c4nc(c(-c5cc(S(=O)(=O)[O-])ccc5F)c5ccc([nH]5)c(-c5cc(S(=O)(=O)[O-])ccc5F)c5nc(c(-c6cc(S(=O)(=O)[O-])ccc6F)c6ccc3[nH]6)C=C5)C=C4)cc2)c(F)c1
REMARK SMILES IDX 22 1 21 2 20 3 19 4 18 5 16 6 17 7 15 8 9 9 10 10 11 11
REMARK SMILES IDX 13 12 12 13 14 14 8 15 6 16 7 17 5 19 1 20 2 21 3 22 92 23
REMARK SMILES IDX 4 24 90 25 91 26 23 27 24 28 25 29 26 30 27 31 28 32 89 33
REMARK SMILES IDX 29 34 88 35 30 36 31 37 32 38 82 39 33 40 87 41 81 42 83 43
REMARK SMILES IDX 34 44 86 45 80 46 79 47 35 49 67 50 47 51 66 52 48 53 51 54
REMARK SMILES IDX 65 55 84 56 49 57 50 58 64 60 85 61 52 62 36 63 37 64 45 65
REMARK SMILES IDX 38 66 44 67 46 68 43 69 39 70 40 71 41 72 42 73 68 74 69 75
REMARK SMILES IDX 77 76 70 77 76 78 78 79 75 80 71 81 72 82 73 83 74 84 53 85
REMARK SMILES IDX 54 86 62 87 55 88 61 89 63 90 60 91 56 92 57 93 58 94 59 95
REMARK H PARENT 8 18 83 48 51 59
REMARK Flexibility Score: inf
ROOT
ATOM      1  C   UNL A   1      35.355  20.908  25.413  1.00  0.00     0.202 C 
ENDROOT
BRANCH   1   2
ATOM      2  O   UNL A   1      35.144  21.795  26.512  1.00  0.00    -0.374 OA
BRANCH   2   3
ATOM      3  C   UNL A   1      34.100  21.475  27.434  1.00  0.00     0.202 C 
BRANCH   3   4
ATOM      4  C   UNL A   1      33.296  22.657  27.978  1.00  0.00     0.261 C 
BRANCH   4   5
ATOM      5  O   UNL A   1      32.036  22.752  27.294  1.00  0.00    -0.460 OA
BRANCH   5   6
ATOM      6  C   UNL A   1      31.844  23.892  26.599  1.00  0.00     0.343 C 
ATOM      7  O   UNL A   1      31.343  24.931  27.006  1.00  0.00    -0.246 OA
BRANCH   6   8
ATOM      8  C   UNL A   1      32.558  23.807  25.317  1.00  0.00     0.119 A 
ATOM      9  C   UNL A   1      33.507  24.790  24.978  1.00  0.00     0.059 A 
ATOM     10  C   UNL A   1      34.121  24.748  23.719  1.00  0.00     0.027 A 
ATOM     11  C   UNL A   1      33.767  23.758  22.798  1.00  0.00     0.005 A 
ATOM     12  C   UNL A   1      32.206  22.831  24.389  1.00  0.00     0.139 A 
ATOM     13  C   UNL A   1      32.804  22.805  23.131  1.00  0.00     0.040 A 
ATOM     14  F   UNL A   1      31.253  21.931  24.664  1.00  0.00    -0.206 F 
BRANCH   9  15
ATOM     15  N   UNL A   1      33.835  25.801  25.901  1.00  0.00    -0.321 N 
ATOM     16  C   UNL A   1      33.663  27.169  25.824  1.00  0.00     0.258 C 
ATOM     17  O   UNL A   1      34.227  27.871  26.663  1.00  0.00    -0.269 OA
ATOM     18  H   UNL A   1      34.253  25.482  26.733  1.00  0.00     0.170 HD
BRANCH  16  19
ATOM     19  C   UNL A   1      32.717  27.788  24.851  1.00  0.00     0.075 A 
ATOM     20  C   UNL A   1      30.057  29.556  21.935  1.00  0.00     0.044 C 
ATOM     21  C   UNL A   1      30.981  28.958  22.951  1.00  0.00    -0.048 A 
ATOM     22  C   UNL A   1      30.474  28.418  24.133  1.00  0.00     0.004 A 
ATOM     23  C   UNL A   1      32.367  28.990  22.767  1.00  0.00     0.043 A 
ATOM     24  C   UNL A   1      31.337  27.877  25.088  1.00  0.00     0.017 A 
ATOM     25  C   UNL A   1      33.221  28.397  23.700  1.00  0.00     0.136 A 
ATOM     26  F   UNL A   1      34.536  28.436  23.444  1.00  0.00    -0.206 F 
ENDBRANCH  16  19
ENDBRANCH   9  15
ENDBRANCH   6   8
ENDBRANCH   5   6
ENDBRANCH   4   5
ENDBRANCH   3   4
ENDBRANCH   2   3
ENDBRANCH   1   2
BRANCH   1  27
ATOM     27  C   UNL A   1      36.801  20.672  24.957  1.00  0.00     0.261 C 
BRANCH  27  28
ATOM     28  O   UNL A   1      37.675  21.763  25.289  1.00  0.00    -0.460 OA
BRANCH  28  29
ATOM     29  C   UNL A   1      38.799  21.408  25.962  1.00  0.00     0.338 C 
ATOM     30  O   UNL A   1      39.308  20.298  26.012  1.00  0.00    -0.246 OA
BRANCH  29  31
ATOM     31  C   UNL A   1      39.453  22.615  26.501  1.00  0.00     0.060 A 
ATOM     32  C   UNL A   1      38.996  23.864  26.057  1.00  0.00     0.016 A 
ATOM     33  C   UNL A   1      40.521  22.526  27.394  1.00  0.00     0.016 A 
ATOM     34  C   UNL A   1      39.612  25.031  26.504  1.00  0.00     0.010 A 
ATOM     35  C   UNL A   1      41.150  23.700  27.826  1.00  0.00     0.010 A 
ATOM     36  C   UNL A   1      40.706  24.956  27.376  1.00  0.00    -0.014 A 
BRANCH  36  37
ATOM     37  C   UNL A   1      41.436  26.184  27.771  1.00  0.00     0.031 A 
ATOM     38  C   UNL A   1      40.730  27.239  28.574  1.00  0.00     0.074 A 
ATOM     39  C   UNL A   1      42.726  26.347  27.423  1.00  0.00     0.049 A 
ATOM     40  N   UNL A   1      41.139  28.434  28.909  1.00  0.00    -0.248 NA
ATOM     41  C   UNL A   1      39.387  26.899  29.072  1.00  0.00     0.031 C 
ATOM     42  C   UNL A   1      43.542  25.356  26.721  1.00  0.00     0.029 A 
ATOM     43  N   UNL A   1      43.576  27.408  27.613  1.00  0.00    -0.354 N 
ATOM     44  C   UNL A   1      40.113  28.990  29.664  1.00  0.00     0.074 A 
ATOM     45  C   UNL A   1      39.049  28.009  29.715  1.00  0.00     0.031 C 
ATOM     46  C   UNL A   1      44.776  25.857  26.539  1.00  0.00     0.029 A 
ATOM     47  C   UNL A   1      44.822  27.221  27.062  1.00  0.00     0.049 A 
ATOM     48  H   UNL A   1      43.318  28.224  28.098  1.00  0.00     0.167 HD
ATOM     49  C   UNL A   1      40.067  30.205  30.259  1.00  0.00     0.034 A 
ATOM     50  C   UNL A   1      45.869  28.066  26.964  1.00  0.00     0.034 A 
ATOM     51  C   UNL A   1      41.123  31.182  30.184  1.00  0.00     0.049 A 
ATOM     52  C   UNL A   1      45.745  29.459  27.528  1.00  0.00     0.074 A 
ATOM     53  C   UNL A   1      41.149  32.465  30.702  1.00  0.00     0.029 A 
ATOM     54  N   UNL A   1      42.345  30.983  29.558  1.00  0.00    -0.354 N 
ATOM     55  N   UNL A   1      44.730  30.008  28.153  1.00  0.00    -0.248 NA
ATOM     56  C   UNL A   1      46.905  30.347  27.368  1.00  0.00     0.031 C 
ATOM     57  C   UNL A   1      42.364  33.059  30.348  1.00  0.00     0.029 A 
ATOM     58  C   UNL A   1      43.126  32.122  29.671  1.00  0.00     0.049 A 
ATOM     59  H   UNL A   1      42.618  30.155  29.100  1.00  0.00     0.167 HD
ATOM     60  C   UNL A   1      45.148  31.291  28.501  1.00  0.00     0.074 A 
ATOM     61  C   UNL A   1      46.501  31.436  28.007  1.00  0.00     0.031 C 
ATOM     62  C   UNL A   1      44.477  32.253  29.179  1.00  0.00     0.034 A 
BRANCH  49  63
ATOM     63  C   UNL A   1      38.817  30.566  31.017  1.00  0.00     0.023 A 
ATOM     64  C   UNL A   1      37.753  31.239  30.396  1.00  0.00     0.031 A 
ATOM     65  C   UNL A   1      38.672  30.189  32.364  1.00  0.00     0.131 A 
ATOM     66  C   UNL A   1      36.594  31.535  31.130  1.00  0.00     0.055 A 
ATOM     67  C   UNL A   1      37.497  30.439  33.072  1.00  0.00     0.041 A 
ATOM     68  F   UNL A   1      39.669  29.562  33.008  1.00  0.00    -0.206 F 
ATOM     69  C   UNL A   1      36.449  31.118  32.455  1.00  0.00     0.022 A 
BRANCH  66  70
ATOM     70  S   UNL A   1      35.289  32.518  30.343  1.00  0.00     0.124 S 
ATOM     71  O   UNL A   1      36.010  33.741  30.000  1.00  0.00    -0.237 OA
ATOM     72  O   UNL A   1      34.889  31.677  29.220  1.00  0.00    -0.237 OA
ATOM     73  O   UNL A   1      34.288  32.664  31.397  1.00  0.00    -0.744 OA
ENDBRANCH  66  70
ENDBRANCH  49  63
BRANCH  50  74
ATOM     74  C   UNL A   1      47.121  27.638  26.281  1.00  0.00     0.023 A 
ATOM     75  C   UNL A   1      47.306  27.864  24.909  1.00  0.00     0.031 A 
ATOM     76  C   UNL A   1      48.135  26.959  26.982  1.00  0.00     0.131 A 
ATOM     77  C   UNL A   1      48.460  27.385  24.270  1.00  0.00     0.055 A 
ATOM     78  C   UNL A   1      49.302  26.525  26.353  1.00  0.00     0.041 A 
ATOM     79  F   UNL A   1      48.006  26.717  28.297  1.00  0.00    -0.206 F 
ATOM     80  C   UNL A   1      49.465  26.729  24.986  1.00  0.00     0.022 A 
BRANCH  77  81
ATOM     81  S   UNL A   1      48.605  27.581  22.474  1.00  0.00     0.124 S 
ATOM     82  O   UNL A   1      49.847  28.336  22.358  1.00  0.00    -0.237 OA
ATOM     83  O   UNL A   1      48.649  26.195  22.019  1.00  0.00    -0.237 OA
ATOM     84  O   UNL A   1      47.393  28.313  22.113  1.00  0.00    -0.744 OA
ENDBRANCH  77  81
ENDBRANCH  50  74
BRANCH  62  85
ATOM     85  C   UNL A   1      45.217  33.526  29.497  1.00  0.00     0.023 A 
ATOM     86  C   UNL A   1      45.971  33.675  30.673  1.00  0.00     0.031 A 
ATOM     87  C   UNL A   1      45.181  34.600  28.589  1.00  0.00     0.131 A 
ATOM     88  C   UNL A   1      46.631  34.887  30.928  1.00  0.00     0.055 A 
ATOM     89  C   UNL A   1      45.879  35.785  28.824  1.00  0.00     0.041 A 
ATOM     90  F   UNL A   1      44.475  34.506  27.451  1.00  0.00    -0.206 F 
ATOM     91  C   UNL A   1      46.602  35.936  30.004  1.00  0.00     0.022 A 
BRANCH  88  92
ATOM     92  S   UNL A   1      47.490  35.099  32.510  1.00  0.00     0.124 S 
ATOM     93  O   UNL A   1      46.775  36.229  33.095  1.00  0.00    -0.237 OA
ATOM     94  O   UNL A   1      47.278  33.808  33.159  1.00  0.00    -0.237 OA
ATOM     95  O   UNL A   1      48.871  35.374  32.120  1.00  0.00    -0.744 OA
ENDBRANCH  88  92
ENDBRANCH  62  85
ENDBRANCH  36  37
ENDBRANCH  29  31
ENDBRANCH  28  29
ENDBRANCH  27  28
ENDBRANCH   1  27
TORSDOF 19
ENDMDL
MODEL 3
REMARK VINA RESULT:     -11.8      5.012      8.115
REMARK SMILES Cc1ccc(C(=O)Nc2cccc(F)c2C(=O)OCCOCCOC(=O)c2ccc(-c3c4nc(c(-c5cc(S(=O)(=O)[O-])ccc5F)c5ccc([nH]5)c(-c5cc(S(=O)(=O)[O-])ccc5F)c5nc(c(-c6cc(S(=O)(=O)[O-])ccc6F)c6ccc3[nH]6)C=C5)C=C4)cc2)c(F)c1
REMARK SMILES IDX 22 1 21 2 20 3 19 4 18 5 16 6 17 7 15 8 9 9 10 10 11 11
REMARK SMILES IDX 13 12 12 13 14 14 8 15 6 16 7 17 5 19 1 20 2 21 3 22 92 23
REMARK SMILES IDX 4 24 90 25 91 26 23 27 24 28 25 29 26 30 27 31 28 32 89 33
REMARK SMILES IDX 29 34 88 35 30 36 31 37 32 38 82 39 33 40 87 41 81 42 83 43
REMARK SMILES IDX 34 44 86 45 80 46 79 47 35 49 67 50 47 51 66 52 48 53 51 54
REMARK SMILES IDX 65 55 84 56 49 57 50 58 64 60 85 61 52 62 36 63 37 64 45 65
REMARK SMILES IDX 38 66 44 67 46 68 43 69 39 70 40 71 41 72 42 73 68 74 69 75
REMARK SMILES IDX 77 76 70 77 76 78 78 79 75 80 71 81 72 82 73 83 74 84 53 85
REMARK SMILES IDX 54 86 62 87 55 88 61 89 63 90 60 91 56 92 57 93 58 94 59 95
REMARK H PARENT 8 18 83 48 51 59
REMARK Flexibility Score: inf
ROOT
ATOM      1  C   UNL A   1      32.083  31.349  26.836  1.00  0.00     0.202 C 
ENDROOT
BRANCH   1   2
ATOM      2  O   UNL A   1      33.119  30.765  26.047  1.00  0.00    -0.374 OA
BRANCH   2   3
ATOM      3  C   UNL A   1      34.053  29.905  26.704  1.00  0.00     0.202 C 
BRANCH   3   4
ATOM      4  C   UNL A   1      33.453  28.764  27.527  1.00  0.00     0.261 C 
BRANCH   4   5
ATOM      5  O   UNL A   1      32.940  27.745  26.655  1.00  0.00    -0.460 OA
BRANCH   5   6
ATOM      6  C   UNL A   1      31.668  27.364  26.900  1.00  0.00     0.343 C 
ATOM      7  O   UNL A   1      30.984  27.655  27.871  1.00  0.00    -0.246 OA
BRANCH   6   8
ATOM      8  C   UNL A   1      31.108  26.735  25.696  1.00  0.00     0.119 A 
ATOM      9  C   UNL A   1      30.962  25.336  25.640  1.00  0.00     0.059 A 
ATOM     10  C   UNL A   1      30.506  24.738  24.457  1.00  0.00     0.027 A 
ATOM     11  C   UNL A   1      30.233  25.524  23.334  1.00  0.00     0.005 A 
ATOM     12  C   UNL A   1      30.841  27.507  24.569  1.00  0.00     0.139 A 
ATOM     13  C   UNL A   1      30.408  26.908  23.388  1.00  0.00     0.040 A 
ATOM     14  F   UNL A   1      31.044  28.831  24.578  1.00  0.00    -0.206 F 
BRANCH   9  15
ATOM     15  N   UNL A   1      31.269  24.549  26.767  1.00  0.00    -0.321 N 
ATOM     16  C   UNL A   1      32.213  23.555  26.930  1.00  0.00     0.258 C 
ATOM     17  O   UNL A   1      32.149  22.858  27.942  1.00  0.00    -0.269 OA
ATOM     18  H   UNL A   1      30.724  24.739  27.565  1.00  0.00     0.170 HD
BRANCH  16  19
ATOM     19  C   UNL A   1      33.364  23.403  25.994  1.00  0.00     0.075 A 
ATOM     20  C   UNL A   1      36.622  22.909  23.193  1.00  0.00     0.044 C 
ATOM     21  C   UNL A   1      35.500  23.069  24.172  1.00  0.00    -0.048 A 
ATOM     22  C   UNL A   1      35.534  24.092  25.120  1.00  0.00     0.004 A 
ATOM     23  C   UNL A   1      34.437  22.162  24.199  1.00  0.00     0.043 A 
ATOM     24  C   UNL A   1      34.496  24.230  26.044  1.00  0.00     0.017 A 
ATOM     25  C   UNL A   1      33.375  22.339  25.091  1.00  0.00     0.136 A 
ATOM     26  F   UNL A   1      32.374  21.449  25.040  1.00  0.00    -0.206 F 
ENDBRANCH  16  19
ENDBRANCH   9  15
ENDBRANCH   6   8
ENDBRANCH   5   6
ENDBRANCH   4   5
ENDBRANCH   3   4
ENDBRANCH   2   3
ENDBRANCH   1   2
BRANCH   1  27
ATOM     27  C   UNL A   1      32.009  32.880  26.894  1.00  0.00     0.261 C 
BRANCH  27  28
ATOM     28  O   UNL A   1      32.587  33.421  28.093  1.00  0.00    -0.460 OA
BRANCH  28  29
ATOM     29  C   UNL A   1      33.765  34.071  27.916  1.00  0.00     0.338 C 
ATOM     30  O   UNL A   1      33.922  35.211  27.504  1.00  0.00    -0.246 OA
BRANCH  29  31
ATOM     31  C   UNL A   1      34.864  33.261  28.471  1.00  0.00     0.060 A 
ATOM     32  C   UNL A   1      34.537  32.243  29.378  1.00  0.00     0.016 A 
ATOM     33  C   UNL A   1      36.196  33.518  28.143  1.00  0.00     0.016 A 
ATOM     34  C   UNL A   1      35.545  31.479  29.964  1.00  0.00     0.010 A 
ATOM     35  C   UNL A   1      37.207  32.762  28.747  1.00  0.00     0.010 A 
ATOM     36  C   UNL A   1      36.888  31.747  29.667  1.00  0.00    -0.014 A 
BRANCH  36  37
ATOM     37  C   UNL A   1      37.971  31.015  30.366  1.00  0.00     0.031 A 
ATOM     38  C   UNL A   1      38.282  31.344  31.798  1.00  0.00     0.074 A 
ATOM     39  C   UNL A   1      38.664  30.055  29.725  1.00  0.00     0.049 A 
ATOM     40  N   UNL A   1      39.265  30.921  32.548  1.00  0.00    -0.248 NA
ATOM     41  C   UNL A   1      37.358  32.268  32.477  1.00  0.00     0.031 C 
ATOM     42  C   UNL A   1      38.395  29.586  28.365  1.00  0.00     0.029 A 
ATOM     43  N   UNL A   1      39.734  29.301  30.135  1.00  0.00    -0.354 N 
ATOM     44  C   UNL A   1      39.077  31.515  33.790  1.00  0.00     0.074 A 
ATOM     45  C   UNL A   1      37.900  32.352  33.684  1.00  0.00     0.031 C 
ATOM     46  C   UNL A   1      39.280  28.624  28.053  1.00  0.00     0.029 A 
ATOM     47  C   UNL A   1      40.209  28.446  29.167  1.00  0.00     0.049 A 
ATOM     48  H   UNL A   1      40.125  29.365  31.036  1.00  0.00     0.167 HD
ATOM     49  C   UNL A   1      39.820  31.372  34.914  1.00  0.00     0.034 A 
ATOM     50  C   UNL A   1      41.287  27.636  29.171  1.00  0.00     0.034 A 
ATOM     51  C   UNL A   1      41.002  30.554  35.002  1.00  0.00     0.049 A 
ATOM     52  C   UNL A   1      42.169  27.590  30.394  1.00  0.00     0.074 A 
ATOM     53  C   UNL A   1      41.858  30.390  36.077  1.00  0.00     0.029 A 
ATOM     54  N   UNL A   1      41.493  29.755  33.980  1.00  0.00    -0.354 N 
ATOM     55  N   UNL A   1      42.037  28.235  31.529  1.00  0.00    -0.248 NA
ATOM     56  C   UNL A   1      43.346  26.713  30.332  1.00  0.00     0.031 C 
ATOM     57  C   UNL A   1      42.891  29.531  35.690  1.00  0.00     0.029 A 
ATOM     58  C   UNL A   1      42.642  29.103  34.397  1.00  0.00     0.049 A 
ATOM     59  H   UNL A   1      41.085  29.664  33.087  1.00  0.00     0.167 HD
ATOM     60  C   UNL A   1      43.090  27.805  32.333  1.00  0.00     0.074 A 
ATOM     61  C   UNL A   1      43.852  26.855  31.549  1.00  0.00     0.031 C 
ATOM     62  C   UNL A   1      43.390  28.154  33.608  1.00  0.00     0.034 A 
BRANCH  49  63
ATOM     63  C   UNL A   1      39.399  32.147  36.135  1.00  0.00     0.023 A 
ATOM     64  C   UNL A   1      38.455  31.633  37.038  1.00  0.00     0.031 A 
ATOM     65  C   UNL A   1      39.987  33.392  36.421  1.00  0.00     0.131 A 
ATOM     66  C   UNL A   1      38.108  32.374  38.179  1.00  0.00     0.055 A 
ATOM     67  C   UNL A   1      39.679  34.098  37.584  1.00  0.00     0.041 A 
ATOM     68  F   UNL A   1      40.881  33.934  35.579  1.00  0.00    -0.206 F 
ATOM     69  C   UNL A   1      38.732  33.590  38.470  1.00  0.00     0.022 A 
BRANCH  66  70
ATOM     70  S   UNL A   1      36.792  31.750  39.259  1.00  0.00     0.124 S 
ATOM     71  O   UNL A   1      36.585  30.408  38.724  1.00  0.00    -0.237 OA
ATOM     72  O   UNL A   1      37.403  31.824  40.581  1.00  0.00    -0.237 OA
ATOM     73  O   UNL A   1      35.691  32.685  39.031  1.00  0.00    -0.744 OA
ENDBRANCH  66  70
ENDBRANCH  49  63
BRANCH  50  74
ATOM     74  C   UNL A   1      41.620  26.819  27.971  1.00  0.00     0.023 A 
ATOM     75  C   UNL A   1      41.262  25.464  27.900  1.00  0.00     0.031 A 
ATOM     76  C   UNL A   1      42.337  27.371  26.893  1.00  0.00     0.131 A 
ATOM     77  C   UNL A   1      41.653  24.695  26.793  1.00  0.00     0.055 A 
ATOM     78  C   UNL A   1      42.683  26.614  25.774  1.00  0.00     0.041 A 
ATOM     79  F   UNL A   1      42.703  28.663  26.913  1.00  0.00    -0.206 F 
ATOM     80  C   UNL A   1      42.349  25.264  25.724  1.00  0.00     0.022 A 
BRANCH  77  81
ATOM     81  S   UNL A   1      41.287  22.919  26.796  1.00  0.00     0.124 S 
ATOM     82  O   UNL A   1      39.835  22.916  26.666  1.00  0.00    -0.237 OA
ATOM     83  O   UNL A   1      42.039  22.452  25.636  1.00  0.00    -0.237 OA
ATOM     84  O   UNL A   1      41.799  22.469  28.088  1.00  0.00    -0.744 OA
ENDBRANCH  77  81
ENDBRANCH  50  74
BRANCH  62  85
ATOM     85  C   UNL A   1      44.548  27.453  34.269  1.00  0.00     0.023 A 
ATOM     86  C   UNL A   1      44.368  26.320  35.080  1.00  0.00     0.031 A 
ATOM     87  C   UNL A   1      45.858  27.920  34.059  1.00  0.00     0.131 A 
ATOM     88  C   UNL A   1      45.480  25.712  35.684  1.00  0.00     0.055 A 
ATOM     89  C   UNL A   1      46.964  27.283  34.622  1.00  0.00     0.041 A 
ATOM     90  F   UNL A   1      46.082  28.998  33.291  1.00  0.00    -0.206 F 
ATOM     91  C   UNL A   1      46.777  26.177  35.447  1.00  0.00     0.022 A 
BRANCH  88  92
ATOM     92  S   UNL A   1      45.208  24.333  36.827  1.00  0.00     0.124 S 
ATOM     93  O   UNL A   1      44.056  24.796  37.594  1.00  0.00    -0.237 OA
ATOM     94  O   UNL A   1      44.961  23.215  35.920  1.00  0.00    -0.237 OA
ATOM     95  O   UNL A   1      46.461  24.253  37.576  1.00  0.00    -0.744 OA
ENDBRANCH  88  92
ENDBRANCH  62  85
ENDBRANCH  36  37
ENDBRANCH  29  31
ENDBRANCH  28  29
ENDBRANCH  27  28
ENDBRANCH   1  27
TORSDOF 19
ENDMDL
