MODEL 1
REMARK VINA RESULT:     -12.4      0.000      0.000
REMARK SMILES Cc1ccc(/C=C2/SC(=O)N(CC(=O)OCCOCCOC(=O)c3ccc(-c4c5nc(c(-c6cc(S(=O)(=O)[O-])ccc6F)c6ccc([nH]6)c(-c6cc(S(=O)(=O)[O-])ccc6F)c6nc(c(-c7cc(S(=O)(=O)[O-])ccc7F)c7ccc4[nH]7)C=C6)C=C5)cc3)C2=O)cc1
REMARK SMILES IDX 19 1 18 2 17 3 16 4 15 5 13 6 14 7 12 8 11 9 6 10 7 11 8 12
REMARK SMILES IDX 87 13 9 14 88 15 10 16 5 17 1 18 2 19 3 20 90 21 4 22 89 23
REMARK SMILES IDX 20 24 21 25 22 26 23 27 24 28 25 29 86 30 26 31 85 32 27 33
REMARK SMILES IDX 28 34 29 35 79 36 30 37 84 38 78 39 80 40 31 41 83 42 77 43
REMARK SMILES IDX 76 44 32 46 64 47 44 48 63 49 45 50 48 51 62 52 81 53 46 54
REMARK SMILES IDX 47 55 61 57 82 58 49 59 33 60 34 61 42 62 35 63 41 64 43 65
REMARK SMILES IDX 40 66 36 67 37 68 38 69 39 70 65 71 66 72 74 73 67 74 73 75
REMARK SMILES IDX 75 76 72 77 68 78 69 79 70 80 71 81 50 82 51 83 59 84 52 85
REMARK SMILES IDX 58 86 60 87 57 88 53 89 54 90 55 91 56 92
REMARK H PARENT 80 45 48 56
REMARK Flexibility Score: inf
ROOT
ATOM      1  C   UNL A   1      33.418  27.211  24.336  1.00  0.00     0.202 C 
ENDROOT
BRANCH   1   2
ATOM      2  O   UNL A   1      32.164  26.609  24.168  1.00  0.00    -0.374 OA
BRANCH   2   3
ATOM      3  C   UNL A   1      31.115  26.998  25.048  1.00  0.00     0.202 C 
BRANCH   3   4
ATOM      4  C   UNL A   1      31.283  26.050  26.195  1.00  0.00     0.261 C 
BRANCH   4   5
ATOM      5  O   UNL A   1      30.615  24.815  25.898  1.00  0.00    -0.462 OA
BRANCH   5   6
ATOM      6  C   UNL A   1      31.002  23.650  26.481  1.00  0.00     0.326 C 
ATOM      7  O   UNL A   1      31.217  23.479  27.671  1.00  0.00    -0.250 OA
BRANCH   6   8
ATOM      8  C   UNL A   1      31.216  22.573  25.422  1.00  0.00     0.252 C 
BRANCH   8   9
ATOM      9  N   UNL A   1      32.182  23.092  24.465  1.00  0.00    -0.257 N 
ATOM     10  C   UNL A   1      35.651  23.144  23.340  1.00  0.00     0.029 C 
ATOM     11  C   UNL A   1      34.326  23.294  23.518  1.00  0.00     0.083 C 
ATOM     12  S   UNL A   1      33.248  23.681  22.216  1.00  0.00    -0.022 SA
ATOM     13  C   UNL A   1      33.524  23.096  24.764  1.00  0.00     0.268 C 
ATOM     14  C   UNL A   1      31.817  23.470  23.210  1.00  0.00     0.294 C 
ATOM     15  O   UNL A   1      33.987  22.972  25.887  1.00  0.00    -0.268 OA
ATOM     16  O   UNL A   1      30.678  23.741  22.830  1.00  0.00    -0.261 OA
BRANCH  10  17
ATOM     17  C   UNL A   1      36.638  22.757  24.359  1.00  0.00    -0.024 A 
ATOM     18  C   UNL A   1      40.085  21.874  26.780  1.00  0.00     0.044 C 
ATOM     19  C   UNL A   1      38.790  22.139  26.068  1.00  0.00    -0.051 A 
ATOM     20  C   UNL A   1      38.163  21.135  25.329  1.00  0.00     0.004 A 
ATOM     21  C   UNL A   1      38.213  23.412  26.089  1.00  0.00     0.004 A 
ATOM     22  C   UNL A   1      37.087  21.441  24.489  1.00  0.00     0.008 A 
ATOM     23  C   UNL A   1      37.161  23.727  25.218  1.00  0.00     0.008 A 
ENDBRANCH  10  17
ENDBRANCH   8   9
ENDBRANCH   6   8
ENDBRANCH   5   6
ENDBRANCH   4   5
ENDBRANCH   3   4
ENDBRANCH   2   3
ENDBRANCH   1   2
BRANCH   1  24
ATOM     24  C   UNL A   1      33.350  28.717  24.591  1.00  0.00     0.261 C 
BRANCH  24  25
ATOM     25  O   UNL A   1      33.893  29.168  25.843  1.00  0.00    -0.460 OA
BRANCH  25  26
ATOM     26  C   UNL A   1      33.224  30.185  26.449  1.00  0.00     0.338 C 
ATOM     27  O   UNL A   1      32.181  30.672  26.049  1.00  0.00    -0.246 OA
BRANCH  26  28
ATOM     28  C   UNL A   1      34.040  30.683  27.585  1.00  0.00     0.060 A 
ATOM     29  C   UNL A   1      34.417  32.034  27.664  1.00  0.00     0.016 A 
ATOM     30  C   UNL A   1      34.704  29.719  28.331  1.00  0.00     0.016 A 
ATOM     31  C   UNL A   1      35.579  32.383  28.363  1.00  0.00     0.010 A 
ATOM     32  C   UNL A   1      35.955  30.033  28.782  1.00  0.00     0.010 A 
ATOM     33  C   UNL A   1      36.391  31.361  28.843  1.00  0.00    -0.014 A 
BRANCH  33  34
ATOM     34  C   UNL A   1      37.684  31.487  29.503  1.00  0.00     0.031 A 
ATOM     35  C   UNL A   1      38.694  30.455  29.143  1.00  0.00     0.074 A 
ATOM     36  C   UNL A   1      38.045  32.622  30.149  1.00  0.00     0.049 A 
ATOM     37  N   UNL A   1      39.783  30.264  29.791  1.00  0.00    -0.248 NA
ATOM     38  C   UNL A   1      38.558  29.514  28.023  1.00  0.00     0.031 C 
ATOM     39  C   UNL A   1      39.393  33.132  30.397  1.00  0.00     0.029 A 
ATOM     40  N   UNL A   1      37.248  33.610  30.744  1.00  0.00    -0.354 N 
ATOM     41  C   UNL A   1      40.619  29.526  28.983  1.00  0.00     0.074 A 
ATOM     42  C   UNL A   1      39.776  28.976  27.961  1.00  0.00     0.031 C 
ATOM     43  C   UNL A   1      39.342  34.098  31.336  1.00  0.00     0.029 A 
ATOM     44  C   UNL A   1      37.969  34.154  31.815  1.00  0.00     0.049 A 
ATOM     45  H   UNL A   1      36.342  33.874  30.460  1.00  0.00     0.167 HD
ATOM     46  C   UNL A   1      41.959  29.622  29.185  1.00  0.00     0.034 A 
ATOM     47  C   UNL A   1      37.516  34.051  33.093  1.00  0.00     0.034 A 
ATOM     48  C   UNL A   1      42.231  30.538  30.301  1.00  0.00     0.049 A 
ATOM     49  C   UNL A   1      38.517  33.231  33.863  1.00  0.00     0.074 A 
ATOM     50  C   UNL A   1      42.704  31.838  30.369  1.00  0.00     0.029 A 
ATOM     51  N   UNL A   1      41.680  30.260  31.545  1.00  0.00    -0.354 N 
ATOM     52  N   UNL A   1      39.334  32.392  33.281  1.00  0.00    -0.248 NA
ATOM     53  C   UNL A   1      38.784  33.371  35.287  1.00  0.00     0.031 C 
ATOM     54  C   UNL A   1      42.408  32.342  31.668  1.00  0.00     0.029 A 
ATOM     55  C   UNL A   1      41.772  31.343  32.389  1.00  0.00     0.049 A 
ATOM     56  H   UNL A   1      41.274  29.398  31.793  1.00  0.00     0.167 HD
ATOM     57  C   UNL A   1      40.286  31.986  34.166  1.00  0.00     0.074 A 
ATOM     58  C   UNL A   1      39.870  32.586  35.425  1.00  0.00     0.031 C 
ATOM     59  C   UNL A   1      41.350  31.220  33.779  1.00  0.00     0.034 A 
BRANCH  46  60
ATOM     60  C   UNL A   1      43.035  29.133  28.244  1.00  0.00     0.023 A 
ATOM     61  C   UNL A   1      44.047  30.040  27.869  1.00  0.00     0.031 A 
ATOM     62  C   UNL A   1      43.153  27.847  27.678  1.00  0.00     0.131 A 
ATOM     63  C   UNL A   1      45.046  29.699  26.943  1.00  0.00     0.055 A 
ATOM     64  C   UNL A   1      44.124  27.516  26.721  1.00  0.00     0.041 A 
ATOM     65  F   UNL A   1      42.386  26.821  28.060  1.00  0.00    -0.206 F 
ATOM     66  C   UNL A   1      45.078  28.447  26.344  1.00  0.00     0.022 A 
BRANCH  63  67
ATOM     67  S   UNL A   1      46.326  30.921  26.564  1.00  0.00     0.124 S 
ATOM     68  O   UNL A   1      45.683  31.727  25.531  1.00  0.00    -0.237 OA
ATOM     69  O   UNL A   1      46.530  31.569  27.855  1.00  0.00    -0.237 OA
ATOM     70  O   UNL A   1      47.447  30.104  26.102  1.00  0.00    -0.744 OA
ENDBRANCH  63  67
ENDBRANCH  46  60
BRANCH  47  71
ATOM     71  C   UNL A   1      36.017  34.044  33.164  1.00  0.00     0.023 A 
ATOM     72  C   UNL A   1      35.348  35.301  33.184  1.00  0.00     0.031 A 
ATOM     73  C   UNL A   1      35.280  32.933  32.727  1.00  0.00     0.131 A 
ATOM     74  C   UNL A   1      34.048  35.435  32.653  1.00  0.00     0.055 A 
ATOM     75  C   UNL A   1      33.983  33.071  32.208  1.00  0.00     0.041 A 
ATOM     76  F   UNL A   1      35.853  31.723  32.652  1.00  0.00    -0.206 F 
ATOM     77  C   UNL A   1      33.380  34.327  32.129  1.00  0.00     0.022 A 
BRANCH  74  78
ATOM     78  S   UNL A   1      33.347  37.103  32.343  1.00  0.00     0.124 S 
ATOM     79  O   UNL A   1      31.984  36.965  32.838  1.00  0.00    -0.237 OA
ATOM     80  O   UNL A   1      34.225  37.978  33.112  1.00  0.00    -0.237 OA
ATOM     81  O   UNL A   1      33.479  37.254  30.893  1.00  0.00    -0.744 OA
ENDBRANCH  74  78
ENDBRANCH  47  71
BRANCH  59  82
ATOM     82  C   UNL A   1      42.141  30.317  34.689  1.00  0.00     0.023 A 
ATOM     83  C   UNL A   1      41.758  29.000  34.943  1.00  0.00     0.031 A 
ATOM     84  C   UNL A   1      43.390  30.707  35.240  1.00  0.00     0.131 A 
ATOM     85  C   UNL A   1      42.520  28.167  35.772  1.00  0.00     0.055 A 
ATOM     86  C   UNL A   1      44.201  29.842  35.975  1.00  0.00     0.041 A 
ATOM     87  F   UNL A   1      43.901  31.934  35.074  1.00  0.00    -0.206 F 
ATOM     88  C   UNL A   1      43.757  28.565  36.267  1.00  0.00     0.022 A 
BRANCH  85  89
ATOM     89  S   UNL A   1      41.789  26.587  36.242  1.00  0.00     0.124 S 
ATOM     90  O   UNL A   1      41.004  26.960  37.416  1.00  0.00    -0.237 OA
ATOM     91  O   UNL A   1      41.017  26.231  35.055  1.00  0.00    -0.237 OA
ATOM     92  O   UNL A   1      42.948  25.740  36.511  1.00  0.00    -0.744 OA
ENDBRANCH  85  89
ENDBRANCH  59  82
ENDBRANCH  33  34
ENDBRANCH  26  28
ENDBRANCH  25  26
ENDBRANCH  24  25
ENDBRANCH   1  24
TORSDOF 19
ENDMDL
MODEL 2
REMARK VINA RESULT:     -12.4      3.852      5.679
REMARK SMILES Cc1ccc(/C=C2/SC(=O)N(CC(=O)OCCOCCOC(=O)c3ccc(-c4c5nc(c(-c6cc(S(=O)(=O)[O-])ccc6F)c6ccc([nH]6)c(-c6cc(S(=O)(=O)[O-])ccc6F)c6nc(c(-c7cc(S(=O)(=O)[O-])ccc7F)c7ccc4[nH]7)C=C6)C=C5)cc3)C2=O)cc1
REMARK SMILES IDX 19 1 18 2 17 3 16 4 15 5 13 6 14 7 12 8 11 9 6 10 7 11 8 12
REMARK SMILES IDX 87 13 9 14 88 15 10 16 5 17 1 18 2 19 3 20 90 21 4 22 89 23
REMARK SMILES IDX 20 24 21 25 22 26 23 27 24 28 25 29 86 30 26 31 85 32 27 33
REMARK SMILES IDX 28 34 29 35 79 36 30 37 84 38 78 39 80 40 31 41 83 42 77 43
REMARK SMILES IDX 76 44 32 46 64 47 44 48 63 49 45 50 48 51 62 52 81 53 46 54
REMARK SMILES IDX 47 55 61 57 82 58 49 59 33 60 34 61 42 62 35 63 41 64 43 65
REMARK SMILES IDX 40 66 36 67 37 68 38 69 39 70 65 71 66 72 74 73 67 74 73 75
REMARK SMILES IDX 75 76 72 77 68 78 69 79 70 80 71 81 50 82 51 83 59 84 52 85
REMARK SMILES IDX 58 86 60 87 57 88 53 89 54 90 55 91 56 92
REMARK H PARENT 80 45 48 56
REMARK Flexibility Score: inf
ROOT
ATOM      1  C   UNL A   1      32.534  29.985  25.819  1.00  0.00     0.202 C 
ENDROOT
BRANCH   1   2
ATOM      2  O   UNL A   1      32.443  28.658  25.378  1.00  0.00    -0.374 OA
BRANCH   2   3
ATOM      3  C   UNL A   1      33.460  28.175  24.505  1.00  0.00     0.202 C 
BRANCH   3   4
ATOM      4  C   UNL A   1      33.242  28.992  23.268  1.00  0.00     0.261 C 
BRANCH   4   5
ATOM      5  O   UNL A   1      32.467  28.237  22.326  1.00  0.00    -0.462 OA
BRANCH   5   6
ATOM      6  C   UNL A   1      32.801  26.958  22.008  1.00  0.00     0.326 C 
ATOM      7  O   UNL A   1      33.928  26.546  21.782  1.00  0.00    -0.250 OA
BRANCH   6   8
ATOM      8  C   UNL A   1      31.548  26.096  21.890  1.00  0.00     0.252 C 
BRANCH   8   9
ATOM      9  N   UNL A   1      31.177  25.685  23.236  1.00  0.00    -0.257 N 
ATOM     10  C   UNL A   1      32.217  24.091  26.347  1.00  0.00     0.029 C 
ATOM     11  C   UNL A   1      31.583  24.729  25.346  1.00  0.00     0.083 C 
ATOM     12  S   UNL A   1      30.279  25.838  25.626  1.00  0.00    -0.022 SA
ATOM     13  C   UNL A   1      31.883  24.699  23.882  1.00  0.00     0.268 C 
ATOM     14  C   UNL A   1      30.212  26.335  23.944  1.00  0.00     0.294 C 
ATOM     15  O   UNL A   1      32.633  23.907  23.334  1.00  0.00    -0.268 OA
ATOM     16  O   UNL A   1      29.342  27.073  23.486  1.00  0.00    -0.261 OA
BRANCH  10  17
ATOM     17  C   UNL A   1      33.368  23.184  26.223  1.00  0.00    -0.024 A 
ATOM     18  C   UNL A   1      36.712  20.736  25.063  1.00  0.00     0.044 C 
ATOM     19  C   UNL A   1      35.578  21.544  25.625  1.00  0.00    -0.051 A 
ATOM     20  C   UNL A   1      34.302  20.993  25.750  1.00  0.00     0.004 A 
ATOM     21  C   UNL A   1      35.767  22.880  25.988  1.00  0.00     0.004 A 
ATOM     22  C   UNL A   1      33.207  21.807  26.058  1.00  0.00     0.008 A 
ATOM     23  C   UNL A   1      34.664  23.704  26.257  1.00  0.00     0.008 A 
ENDBRANCH  10  17
ENDBRANCH   8   9
ENDBRANCH   6   8
ENDBRANCH   5   6
ENDBRANCH   4   5
ENDBRANCH   3   4
ENDBRANCH   2   3
ENDBRANCH   1   2
BRANCH   1  24
ATOM     24  C   UNL A   1      33.242  30.139  27.165  1.00  0.00     0.261 C 
BRANCH  24  25
ATOM     25  O   UNL A   1      34.395  30.998  27.175  1.00  0.00    -0.460 OA
BRANCH  25  26
ATOM     26  C   UNL A   1      34.994  31.175  28.383  1.00  0.00     0.338 C 
ATOM     27  O   UNL A   1      34.805  32.123  29.125  1.00  0.00    -0.246 OA
BRANCH  26  28
ATOM     28  C   UNL A   1      36.004  30.104  28.576  1.00  0.00     0.060 A 
ATOM     29  C   UNL A   1      36.265  29.581  29.854  1.00  0.00     0.016 A 
ATOM     30  C   UNL A   1      36.907  29.920  27.539  1.00  0.00     0.016 A 
ATOM     31  C   UNL A   1      37.521  29.025  30.124  1.00  0.00     0.010 A 
ATOM     32  C   UNL A   1      38.196  29.618  27.882  1.00  0.00     0.010 A 
ATOM     33  C   UNL A   1      38.511  29.131  29.155  1.00  0.00    -0.014 A 
BRANCH  33  34
ATOM     34  C   UNL A   1      39.905  28.719  29.256  1.00  0.00     0.031 A 
ATOM     35  C   UNL A   1      40.192  27.312  28.869  1.00  0.00     0.074 A 
ATOM     36  C   UNL A   1      40.906  29.625  29.390  1.00  0.00     0.049 A 
ATOM     37  N   UNL A   1      41.296  26.712  29.120  1.00  0.00    -0.248 NA
ATOM     38  C   UNL A   1      39.241  26.429  28.180  1.00  0.00     0.031 C 
ATOM     39  C   UNL A   1      42.307  29.488  28.996  1.00  0.00     0.029 A 
ATOM     40  N   UNL A   1      40.880  30.920  29.924  1.00  0.00    -0.354 N 
ATOM     41  C   UNL A   1      41.353  25.598  28.312  1.00  0.00     0.074 A 
ATOM     42  C   UNL A   1      40.012  25.393  27.848  1.00  0.00     0.031 C 
ATOM     43  C   UNL A   1      43.035  30.459  29.582  1.00  0.00     0.029 A 
ATOM     44  C   UNL A   1      42.142  31.180  30.476  1.00  0.00     0.049 A 
ATOM     45  H   UNL A   1      40.112  31.538  29.914  1.00  0.00     0.167 HD
ATOM     46  C   UNL A   1      42.575  25.094  27.996  1.00  0.00     0.034 A 
ATOM     47  C   UNL A   1      42.291  31.422  31.805  1.00  0.00     0.034 A 
ATOM     48  C   UNL A   1      43.626  25.892  28.641  1.00  0.00     0.049 A 
ATOM     49  C   UNL A   1      43.143  30.317  32.373  1.00  0.00     0.074 A 
ATOM     50  C   UNL A   1      44.526  26.835  28.172  1.00  0.00     0.029 A 
ATOM     51  N   UNL A   1      43.616  26.020  30.024  1.00  0.00    -0.354 N 
ATOM     52  N   UNL A   1      43.246  29.145  31.802  1.00  0.00    -0.248 NA
ATOM     53  C   UNL A   1      44.037  30.461  33.513  1.00  0.00     0.031 C 
ATOM     54  C   UNL A   1      45.039  27.544  29.296  1.00  0.00     0.029 A 
ATOM     55  C   UNL A   1      44.463  27.021  30.443  1.00  0.00     0.049 A 
ATOM     56  H   UNL A   1      43.071  25.466  30.629  1.00  0.00     0.167 HD
ATOM     57  C   UNL A   1      44.262  28.441  32.372  1.00  0.00     0.074 A 
ATOM     58  C   UNL A   1      44.695  29.286  33.475  1.00  0.00     0.031 C 
ATOM     59  C   UNL A   1      44.679  27.241  31.867  1.00  0.00     0.034 A 
BRANCH  46  60
ATOM     60  C   UNL A   1      42.863  24.079  26.914  1.00  0.00     0.023 A 
ATOM     61  C   UNL A   1      42.324  22.785  27.065  1.00  0.00     0.031 A 
ATOM     62  C   UNL A   1      43.624  24.271  25.744  1.00  0.00     0.131 A 
ATOM     63  C   UNL A   1      42.597  21.754  26.151  1.00  0.00     0.055 A 
ATOM     64  C   UNL A   1      43.934  23.235  24.851  1.00  0.00     0.041 A 
ATOM     65  F   UNL A   1      44.059  25.476  25.360  1.00  0.00    -0.206 F 
ATOM     66  C   UNL A   1      43.423  21.964  25.053  1.00  0.00     0.022 A 
BRANCH  63  67
ATOM     67  S   UNL A   1      41.819  20.141  26.409  1.00  0.00     0.124 S 
ATOM     68  O   UNL A   1      40.399  20.474  26.349  1.00  0.00    -0.237 OA
ATOM     69  O   UNL A   1      42.348  19.359  25.299  1.00  0.00    -0.237 OA
ATOM     70  O   UNL A   1      42.304  19.740  27.730  1.00  0.00    -0.744 OA
ENDBRANCH  63  67
ENDBRANCH  46  60
BRANCH  47  71
ATOM     71  C   UNL A   1      41.092  32.104  32.397  1.00  0.00     0.023 A 
ATOM     72  C   UNL A   1      40.392  31.430  33.438  1.00  0.00     0.031 A 
ATOM     73  C   UNL A   1      40.949  33.498  32.326  1.00  0.00     0.131 A 
ATOM     74  C   UNL A   1      39.702  32.155  34.431  1.00  0.00     0.055 A 
ATOM     75  C   UNL A   1      40.253  34.214  33.313  1.00  0.00     0.041 A 
ATOM     76  F   UNL A   1      41.602  34.204  31.393  1.00  0.00    -0.206 F 
ATOM     77  C   UNL A   1      39.665  33.551  34.391  1.00  0.00     0.022 A 
BRANCH  74  78
ATOM     78  S   UNL A   1      39.127  31.312  35.956  1.00  0.00     0.124 S 
ATOM     79  O   UNL A   1      38.371  30.186  35.424  1.00  0.00    -0.237 OA
ATOM     80  O   UNL A   1      40.372  30.982  36.641  1.00  0.00    -0.237 OA
ATOM     81  O   UNL A   1      38.335  32.343  36.628  1.00  0.00    -0.744 OA
ENDBRANCH  74  78
ENDBRANCH  47  71
BRANCH  59  82
ATOM     82  C   UNL A   1      45.390  26.172  32.657  1.00  0.00     0.023 A 
ATOM     83  C   UNL A   1      44.701  25.153  33.314  1.00  0.00     0.031 A 
ATOM     84  C   UNL A   1      46.805  26.062  32.674  1.00  0.00     0.131 A 
ATOM     85  C   UNL A   1      45.379  24.154  34.021  1.00  0.00     0.055 A 
ATOM     86  C   UNL A   1      47.479  25.005  33.286  1.00  0.00     0.041 A 
ATOM     87  F   UNL A   1      47.606  26.954  32.077  1.00  0.00    -0.206 F 
ATOM     88  C   UNL A   1      46.766  24.050  33.988  1.00  0.00     0.022 A 
BRANCH  85  89
ATOM     89  S   UNL A   1      44.384  23.055  35.048  1.00  0.00     0.124 S 
ATOM     90  O   UNL A   1      43.079  23.141  34.397  1.00  0.00    -0.237 OA
ATOM     91  O   UNL A   1      45.076  21.778  34.907  1.00  0.00    -0.237 OA
ATOM     92  O   UNL A   1      44.459  23.664  36.374  1.00  0.00    -0.744 OA
ENDBRANCH  85  89
ENDBRANCH  59  82
ENDBRANCH  33  34
ENDBRANCH  26  28
ENDBRANCH  25  26
ENDBRANCH  24  25
ENDBRANCH   1  24
TORSDOF 19
ENDMDL
MODEL 3
REMARK VINA RESULT:     -12.3      3.351      9.195
REMARK SMILES Cc1ccc(/C=C2/SC(=O)N(CC(=O)OCCOCCOC(=O)c3ccc(-c4c5nc(c(-c6cc(S(=O)(=O)[O-])ccc6F)c6ccc([nH]6)c(-c6cc(S(=O)(=O)[O-])ccc6F)c6nc(c(-c7cc(S(=O)(=O)[O-])ccc7F)c7ccc4[nH]7)C=C6)C=C5)cc3)C2=O)cc1
REMARK SMILES IDX 19 1 18 2 17 3 16 4 15 5 13 6 14 7 12 8 11 9 6 10 7 11 8 12
REMARK SMILES IDX 87 13 9 14 88 15 10 16 5 17 1 18 2 19 3 20 90 21 4 22 89 23
REMARK SMILES IDX 20 24 21 25 22 26 23 27 24 28 25 29 86 30 26 31 85 32 27 33
REMARK SMILES IDX 28 34 29 35 79 36 30 37 84 38 78 39 80 40 31 41 83 42 77 43
REMARK SMILES IDX 76 44 32 46 64 47 44 48 63 49 45 50 48 51 62 52 81 53 46 54
REMARK SMILES IDX 47 55 61 57 82 58 49 59 33 60 34 61 42 62 35 63 41 64 43 65
REMARK SMILES IDX 40 66 36 67 37 68 38 69 39 70 65 71 66 72 74 73 67 74 73 75
REMARK SMILES IDX 75 76 72 77 68 78 69 79 70 80 71 81 50 82 51 83 59 84 52 85
REMARK SMILES IDX 58 86 60 87 57 88 53 89 54 90 55 91 56 92
REMARK H PARENT 80 45 48 56
REMARK Flexibility Score: inf
ROOT
ATOM      1  C   UNL A   1      37.281  20.986  25.013  1.00  0.00     0.202 C 
ENDROOT
BRANCH   1   2
ATOM      2  O   UNL A   1      35.928  20.978  25.376  1.00  0.00    -0.374 OA
BRANCH   2   3
ATOM      3  C   UNL A   1      35.423  22.100  26.093  1.00  0.00     0.202 C 
BRANCH   3   4
ATOM      4  C   UNL A   1      34.252  21.520  26.824  1.00  0.00     0.261 C 
BRANCH   4   5
ATOM      5  O   UNL A   1      33.057  22.220  26.448  1.00  0.00    -0.462 OA
BRANCH   5   6
ATOM      6  C   UNL A   1      32.102  21.620  25.688  1.00  0.00     0.326 C 
ATOM      7  O   UNL A   1      32.104  20.455  25.322  1.00  0.00    -0.250 OA
BRANCH   6   8
ATOM      8  C   UNL A   1      31.039  22.633  25.277  1.00  0.00     0.252 C 
BRANCH   8   9
ATOM      9  N   UNL A   1      31.645  23.526  24.302  1.00  0.00    -0.257 N 
ATOM     10  C   UNL A   1      33.500  26.611  23.715  1.00  0.00     0.029 C 
ATOM     11  C   UNL A   1      32.845  25.438  23.640  1.00  0.00     0.083 C 
ATOM     12  S   UNL A   1      33.097  24.310  22.347  1.00  0.00    -0.022 SA
ATOM     13  C   UNL A   1      31.885  24.843  24.619  1.00  0.00     0.268 C 
ATOM     14  C   UNL A   1      32.106  23.074  23.103  1.00  0.00     0.294 C 
ATOM     15  O   UNL A   1      31.374  25.437  25.555  1.00  0.00    -0.268 OA
ATOM     16  O   UNL A   1      31.802  22.016  22.555  1.00  0.00    -0.261 OA
BRANCH  10  17
ATOM     17  C   UNL A   1      33.407  27.605  24.794  1.00  0.00    -0.024 A 
ATOM     18  C   UNL A   1      33.704  30.924  27.517  1.00  0.00     0.044 C 
ATOM     19  C   UNL A   1      33.478  29.710  26.665  1.00  0.00    -0.051 A 
ATOM     20  C   UNL A   1      34.186  28.530  26.900  1.00  0.00     0.004 A 
ATOM     21  C   UNL A   1      32.589  29.751  25.587  1.00  0.00     0.004 A 
ATOM     22  C   UNL A   1      34.141  27.481  25.976  1.00  0.00     0.008 A 
ATOM     23  C   UNL A   1      32.575  28.716  24.640  1.00  0.00     0.008 A 
ENDBRANCH  10  17
ENDBRANCH   8   9
ENDBRANCH   6   8
ENDBRANCH   5   6
ENDBRANCH   4   5
ENDBRANCH   3   4
ENDBRANCH   2   3
ENDBRANCH   1   2
BRANCH   1  24
ATOM     24  C   UNL A   1      38.009  22.281  25.376  1.00  0.00     0.261 C 
BRANCH  24  25
ATOM     25  O   UNL A   1      38.864  22.221  26.530  1.00  0.00    -0.460 OA
BRANCH  25  26
ATOM     26  C   UNL A   1      40.045  22.889  26.430  1.00  0.00     0.338 C 
ATOM     27  O   UNL A   1      41.131  22.367  26.251  1.00  0.00    -0.246 OA
BRANCH  26  28
ATOM     28  C   UNL A   1      39.803  24.327  26.710  1.00  0.00     0.060 A 
ATOM     29  C   UNL A   1      40.490  25.326  25.999  1.00  0.00     0.016 A 
ATOM     30  C   UNL A   1      39.178  24.621  27.914  1.00  0.00     0.016 A 
ATOM     31  C   UNL A   1      40.693  26.576  26.594  1.00  0.00     0.010 A 
ATOM     32  C   UNL A   1      39.601  25.737  28.579  1.00  0.00     0.010 A 
ATOM     33  C   UNL A   1      40.321  26.741  27.923  1.00  0.00    -0.014 A 
BRANCH  33  34
ATOM     34  C   UNL A   1      40.528  27.911  28.768  1.00  0.00     0.031 A 
ATOM     35  C   UNL A   1      39.486  28.968  28.672  1.00  0.00     0.074 A 
ATOM     36  C   UNL A   1      41.424  27.903  29.786  1.00  0.00     0.049 A 
ATOM     37  N   UNL A   1      39.621  30.151  29.147  1.00  0.00    -0.248 NA
ATOM     38  C   UNL A   1      38.190  28.799  28.001  1.00  0.00     0.031 C 
ATOM     39  C   UNL A   1      41.412  28.709  31.006  1.00  0.00     0.029 A 
ATOM     40  N   UNL A   1      42.583  27.134  29.958  1.00  0.00    -0.354 N 
ATOM     41  C   UNL A   1      38.366  30.713  29.214  1.00  0.00     0.074 A 
ATOM     42  C   UNL A   1      37.535  29.897  28.378  1.00  0.00     0.031 C 
ATOM     43  C   UNL A   1      42.622  28.645  31.597  1.00  0.00     0.029 A 
ATOM     44  C   UNL A   1      43.492  27.893  30.707  1.00  0.00     0.049 A 
ATOM     45  H   UNL A   1      42.732  26.223  29.612  1.00  0.00     0.167 HD
ATOM     46  C   UNL A   1      38.153  31.703  30.121  1.00  0.00     0.034 A 
ATOM     47  C   UNL A   1      44.693  28.263  30.189  1.00  0.00     0.034 A 
ATOM     48  C   UNL A   1      39.391  31.978  30.860  1.00  0.00     0.049 A 
ATOM     49  C   UNL A   1      44.710  29.767  30.115  1.00  0.00     0.074 A 
ATOM     50  C   UNL A   1      39.819  31.677  32.142  1.00  0.00     0.029 A 
ATOM     51  N   UNL A   1      40.526  32.353  30.151  1.00  0.00    -0.354 N 
ATOM     52  N   UNL A   1      43.615  30.480  30.068  1.00  0.00    -0.248 NA
ATOM     53  C   UNL A   1      45.906  30.589  30.225  1.00  0.00     0.031 C 
ATOM     54  C   UNL A   1      41.232  31.858  32.184  1.00  0.00     0.029 A 
ATOM     55  C   UNL A   1      41.655  32.282  30.934  1.00  0.00     0.049 A 
ATOM     56  H   UNL A   1      40.523  32.634  29.207  1.00  0.00     0.167 HD
ATOM     57  C   UNL A   1      43.912  31.794  30.264  1.00  0.00     0.074 A 
ATOM     58  C   UNL A   1      45.366  31.821  30.307  1.00  0.00     0.031 C 
ATOM     59  C   UNL A   1      42.934  32.740  30.407  1.00  0.00     0.034 A 
BRANCH  46  60
ATOM     60  C   UNL A   1      36.805  32.240  30.547  1.00  0.00     0.023 A 
ATOM     61  C   UNL A   1      36.110  33.068  29.642  1.00  0.00     0.031 A 
ATOM     62  C   UNL A   1      36.143  32.010  31.770  1.00  0.00     0.131 A 
ATOM     63  C   UNL A   1      34.887  33.673  29.978  1.00  0.00     0.055 A 
ATOM     64  C   UNL A   1      34.944  32.645  32.124  1.00  0.00     0.041 A 
ATOM     65  F   UNL A   1      36.576  31.115  32.664  1.00  0.00    -0.206 F 
ATOM     66  C   UNL A   1      34.309  33.487  31.227  1.00  0.00     0.022 A 
BRANCH  63  67
ATOM     67  S   UNL A   1      34.051  34.681  28.729  1.00  0.00     0.124 S 
ATOM     68  O   UNL A   1      34.237  36.031  29.252  1.00  0.00    -0.237 OA
ATOM     69  O   UNL A   1      34.790  34.350  27.516  1.00  0.00    -0.237 OA
ATOM     70  O   UNL A   1      32.674  34.189  28.764  1.00  0.00    -0.744 OA
ENDBRANCH  63  67
ENDBRANCH  46  60
BRANCH  47  71
ATOM     71  C   UNL A   1      45.228  27.252  29.217  1.00  0.00     0.023 A 
ATOM     72  C   UNL A   1      45.322  27.633  27.849  1.00  0.00     0.031 A 
ATOM     73  C   UNL A   1      46.057  26.206  29.649  1.00  0.00     0.131 A 
ATOM     74  C   UNL A   1      46.307  27.073  27.009  1.00  0.00     0.055 A 
ATOM     75  C   UNL A   1      47.030  25.645  28.806  1.00  0.00     0.041 A 
ATOM     76  F   UNL A   1      46.047  25.813  30.931  1.00  0.00    -0.206 F 
ATOM     77  C   UNL A   1      47.188  26.105  27.498  1.00  0.00     0.022 A 
BRANCH  74  78
ATOM     78  S   UNL A   1      46.663  27.827  25.374  1.00  0.00     0.124 S 
ATOM     79  O   UNL A   1      48.100  28.058  25.443  1.00  0.00    -0.237 OA
ATOM     80  O   UNL A   1      46.222  26.801  24.435  1.00  0.00    -0.237 OA
ATOM     81  O   UNL A   1      45.830  29.030  25.374  1.00  0.00    -0.744 OA
ENDBRANCH  74  78
ENDBRANCH  47  71
BRANCH  59  82
ATOM     82  C   UNL A   1      43.105  34.209  30.120  1.00  0.00     0.023 A 
ATOM     83  C   UNL A   1      43.030  34.725  28.827  1.00  0.00     0.031 A 
ATOM     84  C   UNL A   1      43.224  35.172  31.156  1.00  0.00     0.131 A 
ATOM     85  C   UNL A   1      43.165  36.097  28.581  1.00  0.00     0.055 A 
ATOM     86  C   UNL A   1      43.249  36.546  30.919  1.00  0.00     0.041 A 
ATOM     87  F   UNL A   1      43.295  34.835  32.450  1.00  0.00    -0.206 F 
ATOM     88  C   UNL A   1      43.243  37.019  29.619  1.00  0.00     0.022 A 
BRANCH  85  89
ATOM     89  S   UNL A   1      43.322  36.611  26.860  1.00  0.00     0.124 S 
ATOM     90  O   UNL A   1      42.607  35.544  26.164  1.00  0.00    -0.237 OA
ATOM     91  O   UNL A   1      42.664  37.914  26.859  1.00  0.00    -0.237 OA
ATOM     92  O   UNL A   1      44.766  36.639  26.640  1.00  0.00    -0.744 OA
ENDBRANCH  85  89
ENDBRANCH  59  82
ENDBRANCH  33  34
ENDBRANCH  26  28
ENDBRANCH  25  26
ENDBRANCH  24  25
ENDBRANCH   1  24
TORSDOF 19
ENDMDL
