MODEL 1
REMARK VINA RESULT:     -12.1      0.000      0.000
REMARK SMILES CC[NH+]1CCC2(CC1)OC[C@@H](C(=O)OCCOCCOC(=O)c1ccc(-c3c4nc(c(-c5cc(S(=O)(=O)[O-])ccc5F)c5ccc([nH]5)c(-c5cc(S(=O)(=O)[O-])ccc5F)c5nc(c(-c6cc(S(=O)(=O)[O-])ccc6F)c6ccc3[nH]6)C=C5)C=C4)cc1)N2C(=O)c1ccc(Cl)c([N+](=O)[O-])c1
REMARK SMILES IDX 17 1 16 2 15 3 14 4 12 5 13 6 11 7 3 8 4 9 8 10 5 12 7 13
REMARK SMILES IDX 6 14 9 15 86 16 10 17 2 18 1 19 87 20 88 21 89 22 90 23
REMARK SMILES IDX 98 24 91 25 94 26 92 27 93 28 95 29 96 30 97 31 18 32 19 33
REMARK SMILES IDX 20 34 21 35 22 36 23 37 24 38 85 39 25 40 84 41 26 42 27 43
REMARK SMILES IDX 28 44 78 45 29 46 83 47 77 48 79 49 30 50 82 51 76 52 75 53
REMARK SMILES IDX 31 55 63 56 43 57 62 58 44 59 47 60 61 61 80 62 45 63 46 64
REMARK SMILES IDX 60 66 81 67 48 68 32 69 33 70 41 71 34 72 40 73 42 74 39 75
REMARK SMILES IDX 35 76 36 77 37 78 38 79 64 80 65 81 73 82 66 83 72 84 74 85
REMARK SMILES IDX 71 86 67 87 68 88 69 89 70 90 49 91 50 92 58 93 51 94 57 95
REMARK SMILES IDX 59 96 56 97 52 98 53 99 54 100 55 101
REMARK H PARENT 3 11 79 54 47 65
REMARK Flexibility Score: inf
ROOT
ATOM      1  O   UNL A   1      34.650  20.029  24.782  1.00  0.00    -0.374 OA
ENDROOT
BRANCH   1   2
ATOM      2  C   UNL A   1      33.357  20.619  24.868  1.00  0.00     0.202 C 
BRANCH   2   3
ATOM      3  C   UNL A   1      32.778  21.280  23.609  1.00  0.00     0.261 C 
BRANCH   3   4
ATOM      4  O   UNL A   1      32.577  22.709  23.683  1.00  0.00    -0.462 OA
BRANCH   4   5
ATOM      5  C   UNL A   1      33.613  23.442  23.196  1.00  0.00     0.331 C 
ATOM      6  O   UNL A   1      34.437  23.018  22.384  1.00  0.00    -0.250 OA
BRANCH   5   7
ATOM      7  C   UNL A   1      33.791  24.834  23.809  1.00  0.00     0.224 C 
ATOM      8  N   UNL A   1      32.162  29.310  26.096  1.00  0.00    -0.335 N 
ATOM      9  C   UNL A   1      33.232  29.195  25.114  1.00  0.00     0.267 C 
ATOM     10  C   UNL A   1      31.389  28.097  26.342  1.00  0.00     0.267 C 
ATOM     11  H   UNL A   1      31.461  29.895  25.642  1.00  0.00     0.348 HD
ATOM     12  C   UNL A   1      34.001  27.887  25.060  1.00  0.00     0.120 C 
ATOM     13  C   UNL A   1      32.164  26.795  26.418  1.00  0.00     0.120 C 
ATOM     14  C   UNL A   1      33.193  26.602  25.313  1.00  0.00     0.155 C 
ATOM     15  O   UNL A   1      34.208  25.743  25.930  1.00  0.00    -0.352 OA
ATOM     16  N   UNL A   1      32.781  25.853  24.094  1.00  0.00    -0.293 N 
ATOM     17  C   UNL A   1      34.314  24.533  25.195  1.00  0.00     0.200 C 
BRANCH   8  18
ATOM     18  C   UNL A   1      32.563  30.055  27.290  1.00  0.00     0.258 C 
ATOM     19  C   UNL A   1      33.942  30.700  27.160  1.00  0.00     0.071 C 
ENDBRANCH   8  18
BRANCH  16  20
ATOM     20  C   UNL A   1      32.004  26.259  23.017  1.00  0.00     0.257 C 
ATOM     21  O   UNL A   1      32.416  26.236  21.860  1.00  0.00    -0.269 OA
BRANCH  20  22
ATOM     22  C   UNL A   1      30.647  26.797  23.157  1.00  0.00     0.047 A 
ATOM     23  C   UNL A   1      29.644  26.109  23.843  1.00  0.00     0.016 A 
ATOM     24  C   UNL A   1      30.336  27.955  22.445  1.00  0.00     0.101 A 
ATOM     25  C   UNL A   1      28.355  26.665  23.912  1.00  0.00     0.028 A 
ATOM     26  C   UNL A   1      29.073  28.550  22.592  1.00  0.00     0.288 A 
ATOM     27  C   UNL A   1      28.067  27.905  23.317  1.00  0.00     0.118 A 
ATOM     28  Cl  UNL A   1      26.454  28.496  23.486  1.00  0.00    -0.077 Cl
BRANCH  26  29
ATOM     29  N   UNL A   1      28.905  29.887  22.025  1.00  0.00     0.064 N 
ATOM     30  O   UNL A   1      29.875  30.654  22.014  1.00  0.00    -0.258 OA
ATOM     31  O   UNL A   1      27.807  30.141  21.506  1.00  0.00    -0.258 OA
ENDBRANCH  26  29
ENDBRANCH  20  22
ENDBRANCH  16  20
ENDBRANCH   5   7
ENDBRANCH   4   5
ENDBRANCH   3   4
ENDBRANCH   2   3
ENDBRANCH   1   2
BRANCH   1  32
ATOM     32  C   UNL A   1      35.768  20.889  25.011  1.00  0.00     0.202 C 
BRANCH  32  33
ATOM     33  C   UNL A   1      37.159  20.236  25.013  1.00  0.00     0.261 C 
BRANCH  33  34
ATOM     34  O   UNL A   1      38.227  21.207  25.033  1.00  0.00    -0.460 OA
BRANCH  34  35
ATOM     35  C   UNL A   1      39.194  20.967  25.949  1.00  0.00     0.338 C 
ATOM     36  O   UNL A   1      39.752  19.898  26.172  1.00  0.00    -0.246 OA
BRANCH  35  37
ATOM     37  C   UNL A   1      39.649  22.236  26.545  1.00  0.00     0.060 A 
ATOM     38  C   UNL A   1      39.057  23.419  26.088  1.00  0.00     0.016 A 
ATOM     39  C   UNL A   1      40.691  22.278  27.474  1.00  0.00     0.016 A 
ATOM     40  C   UNL A   1      39.526  24.654  26.536  1.00  0.00     0.010 A 
ATOM     41  C   UNL A   1      41.165  23.522  27.916  1.00  0.00     0.010 A 
ATOM     42  C   UNL A   1      40.604  24.717  27.430  1.00  0.00    -0.014 A 
BRANCH  42  43
ATOM     43  C   UNL A   1      41.210  26.040  27.743  1.00  0.00     0.031 A 
ATOM     44  C   UNL A   1      42.570  26.377  27.190  1.00  0.00     0.074 A 
ATOM     45  C   UNL A   1      40.536  26.951  28.473  1.00  0.00     0.049 A 
ATOM     46  N   UNL A   1      43.263  27.479  27.314  1.00  0.00    -0.248 NA
ATOM     47  C   UNL A   1      43.233  25.334  26.391  1.00  0.00     0.031 C 
ATOM     48  C   UNL A   1      39.202  26.758  29.038  1.00  0.00     0.029 A 
ATOM     49  N   UNL A   1      40.884  28.222  28.861  1.00  0.00    -0.354 N 
ATOM     50  C   UNL A   1      44.443  27.267  26.609  1.00  0.00     0.074 A 
ATOM     51  C   UNL A   1      44.384  25.919  26.087  1.00  0.00     0.031 C 
ATOM     52  C   UNL A   1      38.847  27.869  29.709  1.00  0.00     0.029 A 
ATOM     53  C   UNL A   1      39.939  28.840  29.647  1.00  0.00     0.049 A 
ATOM     54  H   UNL A   1      41.732  28.650  28.602  1.00  0.00     0.167 HD
ATOM     55  C   UNL A   1      45.476  28.121  26.406  1.00  0.00     0.034 A 
ATOM     56  C   UNL A   1      39.958  30.042  30.263  1.00  0.00     0.034 A 
ATOM     57  C   UNL A   1      45.527  29.467  26.919  1.00  0.00     0.049 A 
ATOM     58  C   UNL A   1      41.161  30.941  30.084  1.00  0.00     0.074 A 
ATOM     59  C   UNL A   1      46.499  30.431  26.708  1.00  0.00     0.029 A 
ATOM     60  N   UNL A   1      44.582  30.036  27.761  1.00  0.00    -0.354 N 
ATOM     61  N   UNL A   1      42.242  30.745  29.364  1.00  0.00    -0.248 NA
ATOM     62  C   UNL A   1      41.143  32.227  30.797  1.00  0.00     0.031 C 
ATOM     63  C   UNL A   1      46.180  31.552  27.482  1.00  0.00     0.029 A 
ATOM     64  C   UNL A   1      44.974  31.317  28.120  1.00  0.00     0.049 A 
ATOM     65  H   UNL A   1      43.754  29.594  28.059  1.00  0.00     0.167 HD
ATOM     66  C   UNL A   1      43.016  31.893  29.521  1.00  0.00     0.074 A 
ATOM     67  C   UNL A   1      42.270  32.784  30.385  1.00  0.00     0.031 C 
ATOM     68  C   UNL A   1      44.232  32.189  28.997  1.00  0.00     0.034 A 
BRANCH  55  69
ATOM     69  C   UNL A   1      46.664  27.615  25.630  1.00  0.00     0.023 A 
ATOM     70  C   UNL A   1      46.872  27.957  24.283  1.00  0.00     0.031 A 
ATOM     71  C   UNL A   1      47.617  26.796  26.262  1.00  0.00     0.131 A 
ATOM     72  C   UNL A   1      47.989  27.451  23.601  1.00  0.00     0.055 A 
ATOM     73  C   UNL A   1      48.755  26.345  25.594  1.00  0.00     0.041 A 
ATOM     74  F   UNL A   1      47.455  26.426  27.542  1.00  0.00    -0.206 F 
ATOM     75  C   UNL A   1      48.943  26.667  24.253  1.00  0.00     0.022 A 
BRANCH  72  76
ATOM     76  S   UNL A   1      48.138  27.766  21.821  1.00  0.00     0.124 S 
ATOM     77  O   UNL A   1      49.283  28.674  21.779  1.00  0.00    -0.237 OA
ATOM     78  O   UNL A   1      48.363  26.430  21.281  1.00  0.00    -0.237 OA
ATOM     79  O   UNL A   1      46.856  28.373  21.472  1.00  0.00    -0.744 OA
ENDBRANCH  72  76
ENDBRANCH  55  69
BRANCH  56  80
ATOM     80  C   UNL A   1      38.841  30.459  31.159  1.00  0.00     0.023 A 
ATOM     81  C   UNL A   1      37.757  31.208  30.675  1.00  0.00     0.031 A 
ATOM     82  C   UNL A   1      38.897  30.198  32.541  1.00  0.00     0.131 A 
ATOM     83  C   UNL A   1      36.807  31.722  31.572  1.00  0.00     0.055 A 
ATOM     84  C   UNL A   1      37.918  30.664  33.421  1.00  0.00     0.041 A 
ATOM     85  F   UNL A   1      39.915  29.492  33.058  1.00  0.00    -0.206 F 
ATOM     86  C   UNL A   1      36.874  31.446  32.940  1.00  0.00     0.022 A 
BRANCH  83  87
ATOM     87  S   UNL A   1      35.544  32.864  30.942  1.00  0.00     0.124 S 
ATOM     88  O   UNL A   1      35.650  32.658  29.502  1.00  0.00    -0.237 OA
ATOM     89  O   UNL A   1      34.333  32.351  31.576  1.00  0.00    -0.237 OA
ATOM     90  O   UNL A   1      35.994  34.168  31.423  1.00  0.00    -0.744 OA
ENDBRANCH  83  87
ENDBRANCH  56  80
BRANCH  68  91
ATOM     91  C   UNL A   1      44.816  33.540  29.328  1.00  0.00     0.023 A 
ATOM     92  C   UNL A   1      44.607  34.654  28.497  1.00  0.00     0.031 A 
ATOM     93  C   UNL A   1      45.599  33.713  30.482  1.00  0.00     0.131 A 
ATOM     94  C   UNL A   1      45.214  35.881  28.806  1.00  0.00     0.055 A 
ATOM     95  C   UNL A   1      46.156  34.949  30.815  1.00  0.00     0.041 A 
ATOM     96  F   UNL A   1      45.833  32.682  31.311  1.00  0.00    -0.206 F 
ATOM     97  C   UNL A   1      45.975  36.039  29.967  1.00  0.00     0.022 A 
BRANCH  94  98
ATOM     98  S   UNL A   1      45.062  37.250  27.626  1.00  0.00     0.124 S 
ATOM     99  O   UNL A   1      43.682  37.109  27.173  1.00  0.00    -0.237 OA
ATOM    100  O   UNL A   1      45.342  38.414  28.460  1.00  0.00    -0.237 OA
ATOM    101  O   UNL A   1      46.079  36.951  26.619  1.00  0.00    -0.744 OA
ENDBRANCH  94  98
ENDBRANCH  68  91
ENDBRANCH  42  43
ENDBRANCH  35  37
ENDBRANCH  34  35
ENDBRANCH  33  34
ENDBRANCH  32  33
ENDBRANCH   1  32
TORSDOF 21
ENDMDL
MODEL 2
REMARK VINA RESULT:     -11.7      2.047      2.279
REMARK SMILES CC[NH+]1CCC2(CC1)OC[C@@H](C(=O)OCCOCCOC(=O)c1ccc(-c3c4nc(c(-c5cc(S(=O)(=O)[O-])ccc5F)c5ccc([nH]5)c(-c5cc(S(=O)(=O)[O-])ccc5F)c5nc(c(-c6cc(S(=O)(=O)[O-])ccc6F)c6ccc3[nH]6)C=C5)C=C4)cc1)N2C(=O)c1ccc(Cl)c([N+](=O)[O-])c1
REMARK SMILES IDX 17 1 16 2 15 3 14 4 12 5 13 6 11 7 3 8 4 9 8 10 5 12 7 13
REMARK SMILES IDX 6 14 9 15 86 16 10 17 2 18 1 19 87 20 88 21 89 22 90 23
REMARK SMILES IDX 98 24 91 25 94 26 92 27 93 28 95 29 96 30 97 31 18 32 19 33
REMARK SMILES IDX 20 34 21 35 22 36 23 37 24 38 85 39 25 40 84 41 26 42 27 43
REMARK SMILES IDX 28 44 78 45 29 46 83 47 77 48 79 49 30 50 82 51 76 52 75 53
REMARK SMILES IDX 31 55 63 56 43 57 62 58 44 59 47 60 61 61 80 62 45 63 46 64
REMARK SMILES IDX 60 66 81 67 48 68 32 69 33 70 41 71 34 72 40 73 42 74 39 75
REMARK SMILES IDX 35 76 36 77 37 78 38 79 64 80 65 81 73 82 66 83 72 84 74 85
REMARK SMILES IDX 71 86 67 87 68 88 69 89 70 90 49 91 50 92 58 93 51 94 57 95
REMARK SMILES IDX 59 96 56 97 52 98 53 99 54 100 55 101
REMARK H PARENT 3 11 79 54 47 65
REMARK Flexibility Score: inf
ROOT
ATOM      1  O   UNL A   1      34.801  19.880  24.922  1.00  0.00    -0.374 OA
ENDROOT
BRANCH   1   2
ATOM      2  C   UNL A   1      33.486  20.425  24.906  1.00  0.00     0.202 C 
BRANCH   2   3
ATOM      3  C   UNL A   1      33.038  21.201  23.659  1.00  0.00     0.261 C 
BRANCH   3   4
ATOM      4  O   UNL A   1      32.820  22.617  23.843  1.00  0.00    -0.462 OA
BRANCH   4   5
ATOM      5  C   UNL A   1      33.770  23.405  23.274  1.00  0.00     0.331 C 
ATOM      6  O   UNL A   1      34.557  23.021  22.408  1.00  0.00    -0.250 OA
BRANCH   5   7
ATOM      7  C   UNL A   1      33.907  24.814  23.859  1.00  0.00     0.224 C 
ATOM      8  N   UNL A   1      32.144  29.279  26.065  1.00  0.00    -0.335 N 
ATOM      9  C   UNL A   1      33.214  29.180  25.080  1.00  0.00     0.267 C 
ATOM     10  C   UNL A   1      31.411  28.048  26.338  1.00  0.00     0.267 C 
ATOM     11  H   UNL A   1      31.423  29.833  25.603  1.00  0.00     0.348 HD
ATOM     12  C   UNL A   1      34.024  27.896  25.049  1.00  0.00     0.120 C 
ATOM     13  C   UNL A   1      32.227  26.772  26.436  1.00  0.00     0.120 C 
ATOM     14  C   UNL A   1      33.258  26.591  25.330  1.00  0.00     0.155 C 
ATOM     15  O   UNL A   1      34.302  25.777  25.960  1.00  0.00    -0.352 OA
ATOM     16  N   UNL A   1      32.865  25.806  24.128  1.00  0.00    -0.293 N 
ATOM     17  C   UNL A   1      34.444  24.556  25.248  1.00  0.00     0.200 C 
BRANCH   8  18
ATOM     18  C   UNL A   1      32.526  30.060  27.243  1.00  0.00     0.258 C 
ATOM     19  C   UNL A   1      32.557  31.565  26.981  1.00  0.00     0.071 C 
ENDBRANCH   8  18
BRANCH  16  20
ATOM     20  C   UNL A   1      32.072  26.165  23.047  1.00  0.00     0.257 C 
ATOM     21  O   UNL A   1      32.458  26.071  21.884  1.00  0.00    -0.269 OA
BRANCH  20  22
ATOM     22  C   UNL A   1      30.728  26.734  23.186  1.00  0.00     0.047 A 
ATOM     23  C   UNL A   1      29.671  26.013  23.744  1.00  0.00     0.016 A 
ATOM     24  C   UNL A   1      30.489  27.974  22.594  1.00  0.00     0.101 A 
ATOM     25  C   UNL A   1      28.399  26.605  23.818  1.00  0.00     0.028 A 
ATOM     26  C   UNL A   1      29.240  28.597  22.750  1.00  0.00     0.288 A 
ATOM     27  C   UNL A   1      28.180  27.914  23.352  1.00  0.00     0.118 A 
ATOM     28  Cl  UNL A   1      26.580  28.542  23.514  1.00  0.00    -0.077 Cl
BRANCH  26  29
ATOM     29  N   UNL A   1      29.142  29.993  22.329  1.00  0.00     0.064 N 
ATOM     30  O   UNL A   1      29.081  30.872  23.197  1.00  0.00    -0.258 OA
ATOM     31  O   UNL A   1      29.213  30.217  21.111  1.00  0.00    -0.258 OA
ENDBRANCH  26  29
ENDBRANCH  20  22
ENDBRANCH  16  20
ENDBRANCH   5   7
ENDBRANCH   4   5
ENDBRANCH   3   4
ENDBRANCH   2   3
ENDBRANCH   1   2
BRANCH   1  32
ATOM     32  C   UNL A   1      35.885  20.809  24.875  1.00  0.00     0.202 C 
BRANCH  32  33
ATOM     33  C   UNL A   1      37.295  20.245  25.106  1.00  0.00     0.261 C 
BRANCH  33  34
ATOM     34  O   UNL A   1      38.303  21.277  25.160  1.00  0.00    -0.460 OA
BRANCH  34  35
ATOM     35  C   UNL A   1      39.342  21.012  25.987  1.00  0.00     0.338 C 
ATOM     36  O   UNL A   1      39.955  19.956  26.088  1.00  0.00    -0.246 OA
BRANCH  35  37
ATOM     37  C   UNL A   1      39.787  22.252  26.647  1.00  0.00     0.060 A 
ATOM     38  C   UNL A   1      39.261  23.463  26.182  1.00  0.00     0.016 A 
ATOM     39  C   UNL A   1      40.761  22.242  27.648  1.00  0.00     0.016 A 
ATOM     40  C   UNL A   1      39.730  24.672  26.695  1.00  0.00     0.010 A 
ATOM     41  C   UNL A   1      41.236  23.460  28.156  1.00  0.00     0.010 A 
ATOM     42  C   UNL A   1      40.743  24.683  27.664  1.00  0.00    -0.014 A 
BRANCH  42  43
ATOM     43  C   UNL A   1      41.361  25.979  28.055  1.00  0.00     0.031 A 
ATOM     44  C   UNL A   1      42.772  26.282  27.624  1.00  0.00     0.074 A 
ATOM     45  C   UNL A   1      40.656  26.898  28.744  1.00  0.00     0.049 A 
ATOM     46  N   UNL A   1      43.485  27.359  27.829  1.00  0.00    -0.248 NA
ATOM     47  C   UNL A   1      43.468  25.234  26.863  1.00  0.00     0.031 C 
ATOM     48  C   UNL A   1      39.273  26.738  29.191  1.00  0.00     0.029 A 
ATOM     49  N   UNL A   1      41.009  28.150  29.187  1.00  0.00    -0.354 N 
ATOM     50  C   UNL A   1      44.714  27.122  27.222  1.00  0.00     0.074 A 
ATOM     51  C   UNL A   1      44.658  25.786  26.668  1.00  0.00     0.031 C 
ATOM     52  C   UNL A   1      38.897  27.847  29.854  1.00  0.00     0.029 A 
ATOM     53  C   UNL A   1      40.019  28.783  29.904  1.00  0.00     0.049 A 
ATOM     54  H   UNL A   1      41.887  28.555  29.009  1.00  0.00     0.167 HD
ATOM     55  C   UNL A   1      45.786  27.946  27.124  1.00  0.00     0.034 A 
ATOM     56  C   UNL A   1      40.024  29.972  30.544  1.00  0.00     0.034 A 
ATOM     57  C   UNL A   1      45.835  29.280  27.668  1.00  0.00     0.049 A 
ATOM     58  C   UNL A   1      41.264  30.836  30.486  1.00  0.00     0.074 A 
ATOM     59  C   UNL A   1      46.850  30.216  27.559  1.00  0.00     0.029 A 
ATOM     60  N   UNL A   1      44.840  29.864  28.439  1.00  0.00    -0.354 N 
ATOM     61  N   UNL A   1      42.395  30.618  29.855  1.00  0.00    -0.248 NA
ATOM     62  C   UNL A   1      41.225  32.108  31.222  1.00  0.00     0.031 C 
ATOM     63  C   UNL A   1      46.501  31.332  28.327  1.00  0.00     0.029 A 
ATOM     64  C   UNL A   1      45.238  31.124  28.856  1.00  0.00     0.049 A 
ATOM     65  H   UNL A   1      43.976  29.443  28.658  1.00  0.00     0.167 HD
ATOM     66  C   UNL A   1      43.188  31.738  30.100  1.00  0.00     0.074 A 
ATOM     67  C   UNL A   1      42.400  32.636  30.917  1.00  0.00     0.031 C 
ATOM     68  C   UNL A   1      44.453  32.003  29.686  1.00  0.00     0.034 A 
BRANCH  55  69
ATOM     69  C   UNL A   1      47.019  27.416  26.440  1.00  0.00     0.023 A 
ATOM     70  C   UNL A   1      47.976  26.649  27.123  1.00  0.00     0.031 A 
ATOM     71  C   UNL A   1      47.221  27.665  25.070  1.00  0.00     0.131 A 
ATOM     72  C   UNL A   1      49.113  26.187  26.443  1.00  0.00     0.055 A 
ATOM     73  C   UNL A   1      48.324  27.153  24.386  1.00  0.00     0.041 A 
ATOM     74  F   UNL A   1      46.346  28.409  24.376  1.00  0.00    -0.206 F 
ATOM     75  C   UNL A   1      49.282  26.415  25.075  1.00  0.00     0.022 A 
BRANCH  72  76
ATOM     76  S   UNL A   1      50.414  25.350  27.389  1.00  0.00     0.124 S 
ATOM     77  O   UNL A   1      49.690  24.203  27.933  1.00  0.00    -0.237 OA
ATOM     78  O   UNL A   1      51.408  25.049  26.364  1.00  0.00    -0.237 OA
ATOM     79  O   UNL A   1      50.818  26.349  28.375  1.00  0.00    -0.744 OA
ENDBRANCH  72  76
ENDBRANCH  55  69
BRANCH  56  80
ATOM     80  C   UNL A   1      38.848  30.409  31.352  1.00  0.00     0.023 A 
ATOM     81  C   UNL A   1      37.757  31.064  30.760  1.00  0.00     0.031 A 
ATOM     82  C   UNL A   1      38.849  30.265  32.752  1.00  0.00     0.131 A 
ATOM     83  C   UNL A   1      36.744  31.605  31.568  1.00  0.00     0.055 A 
ATOM     84  C   UNL A   1      37.810  30.754  33.546  1.00  0.00     0.041 A 
ATOM     85  F   UNL A   1      39.870  29.651  33.371  1.00  0.00    -0.206 F 
ATOM     86  C   UNL A   1      36.758  31.445  32.956  1.00  0.00     0.022 A 
BRANCH  83  87
ATOM     87  S   UNL A   1      35.465  32.631  30.789  1.00  0.00     0.124 S 
ATOM     88  O   UNL A   1      35.229  31.914  29.541  1.00  0.00    -0.237 OA
ATOM     89  O   UNL A   1      34.391  32.572  31.777  1.00  0.00    -0.237 OA
ATOM     90  O   UNL A   1      36.112  33.933  30.650  1.00  0.00    -0.744 OA
ENDBRANCH  83  87
ENDBRANCH  56  80
BRANCH  68  91
ATOM     91  C   UNL A   1      45.047  33.328  30.093  1.00  0.00     0.023 A 
ATOM     92  C   UNL A   1      45.821  33.460  31.259  1.00  0.00     0.031 A 
ATOM     93  C   UNL A   1      44.829  34.476  29.310  1.00  0.00     0.131 A 
ATOM     94  C   UNL A   1      46.308  34.721  31.637  1.00  0.00     0.055 A 
ATOM     95  C   UNL A   1      45.362  35.718  29.661  1.00  0.00     0.041 A 
ATOM     96  F   UNL A   1      44.096  34.408  28.187  1.00  0.00    -0.206 F 
ATOM     97  C   UNL A   1      46.096  35.847  30.837  1.00  0.00     0.022 A 
BRANCH  94  98
ATOM     98  S   UNL A   1      47.158  34.885  33.231  1.00  0.00     0.124 S 
ATOM     99  O   UNL A   1      46.040  34.967  34.164  1.00  0.00    -0.237 OA
ATOM    100  O   UNL A   1      47.950  33.661  33.291  1.00  0.00    -0.237 OA
ATOM    101  O   UNL A   1      47.933  36.116  33.081  1.00  0.00    -0.744 OA
ENDBRANCH  94  98
ENDBRANCH  68  91
ENDBRANCH  42  43
ENDBRANCH  35  37
ENDBRANCH  34  35
ENDBRANCH  33  34
ENDBRANCH  32  33
ENDBRANCH   1  32
TORSDOF 21
ENDMDL
MODEL 3
REMARK VINA RESULT:     -11.6      1.610      7.237
REMARK SMILES CC[NH+]1CCC2(CC1)OC[C@@H](C(=O)OCCOCCOC(=O)c1ccc(-c3c4nc(c(-c5cc(S(=O)(=O)[O-])ccc5F)c5ccc([nH]5)c(-c5cc(S(=O)(=O)[O-])ccc5F)c5nc(c(-c6cc(S(=O)(=O)[O-])ccc6F)c6ccc3[nH]6)C=C5)C=C4)cc1)N2C(=O)c1ccc(Cl)c([N+](=O)[O-])c1
REMARK SMILES IDX 17 1 16 2 15 3 14 4 12 5 13 6 11 7 3 8 4 9 8 10 5 12 7 13
REMARK SMILES IDX 6 14 9 15 86 16 10 17 2 18 1 19 87 20 88 21 89 22 90 23
REMARK SMILES IDX 98 24 91 25 94 26 92 27 93 28 95 29 96 30 97 31 18 32 19 33
REMARK SMILES IDX 20 34 21 35 22 36 23 37 24 38 85 39 25 40 84 41 26 42 27 43
REMARK SMILES IDX 28 44 78 45 29 46 83 47 77 48 79 49 30 50 82 51 76 52 75 53
REMARK SMILES IDX 31 55 63 56 43 57 62 58 44 59 47 60 61 61 80 62 45 63 46 64
REMARK SMILES IDX 60 66 81 67 48 68 32 69 33 70 41 71 34 72 40 73 42 74 39 75
REMARK SMILES IDX 35 76 36 77 37 78 38 79 64 80 65 81 73 82 66 83 72 84 74 85
REMARK SMILES IDX 71 86 67 87 68 88 69 89 70 90 49 91 50 92 58 93 51 94 57 95
REMARK SMILES IDX 59 96 56 97 52 98 53 99 54 100 55 101
REMARK H PARENT 3 11 79 54 47 65
REMARK Flexibility Score: inf
ROOT
ATOM      1  O   UNL A   1      34.795  19.905  24.954  1.00  0.00    -0.374 OA
ENDROOT
BRANCH   1   2
ATOM      2  C   UNL A   1      33.509  20.515  24.990  1.00  0.00     0.202 C 
BRANCH   2   3
ATOM      3  C   UNL A   1      33.020  21.251  23.734  1.00  0.00     0.261 C 
BRANCH   3   4
ATOM      4  O   UNL A   1      32.793  22.669  23.883  1.00  0.00    -0.462 OA
BRANCH   4   5
ATOM      5  C   UNL A   1      33.751  23.449  23.316  1.00  0.00     0.331 C 
ATOM      6  O   UNL A   1      34.564  23.047  22.483  1.00  0.00    -0.250 OA
BRANCH   5   7
ATOM      7  C   UNL A   1      33.861  24.875  23.864  1.00  0.00     0.224 C 
ATOM      8  N   UNL A   1      32.019  29.354  25.976  1.00  0.00    -0.335 N 
ATOM      9  C   UNL A   1      33.079  29.254  24.981  1.00  0.00     0.267 C 
ATOM     10  C   UNL A   1      31.319  28.113  26.290  1.00  0.00     0.267 C 
ATOM     11  H   UNL A   1      31.279  29.878  25.508  1.00  0.00     0.348 HD
ATOM     12  C   UNL A   1      33.919  27.989  24.973  1.00  0.00     0.120 C 
ATOM     13  C   UNL A   1      32.166  26.860  26.410  1.00  0.00     0.120 C 
ATOM     14  C   UNL A   1      33.188  26.674  25.297  1.00  0.00     0.155 C 
ATOM     15  O   UNL A   1      34.258  25.901  25.934  1.00  0.00    -0.352 OA
ATOM     16  N   UNL A   1      32.800  25.849  24.120  1.00  0.00    -0.293 N 
ATOM     17  C   UNL A   1      34.421  24.666  25.252  1.00  0.00     0.200 C 
BRANCH   8  18
ATOM     18  C   UNL A   1      32.396  30.174  27.129  1.00  0.00     0.258 C 
ATOM     19  C   UNL A   1      32.255  31.672  26.871  1.00  0.00     0.071 C 
ENDBRANCH   8  18
BRANCH  16  20
ATOM     20  C   UNL A   1      31.985  26.162  23.040  1.00  0.00     0.257 C 
ATOM     21  O   UNL A   1      32.346  26.010  21.875  1.00  0.00    -0.269 OA
BRANCH  20  22
ATOM     22  C   UNL A   1      30.647  26.744  23.180  1.00  0.00     0.047 A 
ATOM     23  C   UNL A   1      29.601  26.059  23.800  1.00  0.00     0.016 A 
ATOM     24  C   UNL A   1      30.400  27.953  22.530  1.00  0.00     0.101 A 
ATOM     25  C   UNL A   1      28.333  26.661  23.872  1.00  0.00     0.028 A 
ATOM     26  C   UNL A   1      29.157  28.590  22.681  1.00  0.00     0.288 A 
ATOM     27  C   UNL A   1      28.109  27.945  23.343  1.00  0.00     0.118 A 
ATOM     28  Cl  UNL A   1      26.516  28.590  23.509  1.00  0.00    -0.077 Cl
BRANCH  26  29
ATOM     29  N   UNL A   1      29.056  29.962  22.190  1.00  0.00     0.064 N 
ATOM     30  O   UNL A   1      28.671  30.150  21.030  1.00  0.00    -0.258 OA
ATOM     31  O   UNL A   1      29.284  30.867  23.005  1.00  0.00    -0.258 OA
ENDBRANCH  26  29
ENDBRANCH  20  22
ENDBRANCH  16  20
ENDBRANCH   5   7
ENDBRANCH   4   5
ENDBRANCH   3   4
ENDBRANCH   2   3
ENDBRANCH   1   2
BRANCH   1  32
ATOM     32  C   UNL A   1      35.919  20.776  24.819  1.00  0.00     0.202 C 
BRANCH  32  33
ATOM     33  C   UNL A   1      37.304  20.174  25.100  1.00  0.00     0.261 C 
BRANCH  33  34
ATOM     34  O   UNL A   1      38.328  21.181  25.241  1.00  0.00    -0.460 OA
BRANCH  34  35
ATOM     35  C   UNL A   1      39.247  20.924  26.202  1.00  0.00     0.338 C 
ATOM     36  O   UNL A   1      39.700  19.829  26.517  1.00  0.00    -0.246 OA
BRANCH  35  37
ATOM     37  C   UNL A   1      39.799  22.188  26.720  1.00  0.00     0.060 A 
ATOM     38  C   UNL A   1      39.313  23.383  26.177  1.00  0.00     0.016 A 
ATOM     39  C   UNL A   1      40.831  22.207  27.661  1.00  0.00     0.016 A 
ATOM     40  C   UNL A   1      39.878  24.602  26.552  1.00  0.00     0.010 A 
ATOM     41  C   UNL A   1      41.403  23.434  28.029  1.00  0.00     0.010 A 
ATOM     42  C   UNL A   1      40.947  24.636  27.457  1.00  0.00    -0.014 A 
BRANCH  42  43
ATOM     43  C   UNL A   1      41.658  25.922  27.693  1.00  0.00     0.031 A 
ATOM     44  C   UNL A   1      40.925  27.060  28.353  1.00  0.00     0.074 A 
ATOM     45  C   UNL A   1      42.959  26.059  27.366  1.00  0.00     0.049 A 
ATOM     46  N   UNL A   1      41.363  28.248  28.678  1.00  0.00    -0.248 NA
ATOM     47  C   UNL A   1      39.513  26.825  28.692  1.00  0.00     0.031 C 
ATOM     48  C   UNL A   1      43.788  25.024  26.752  1.00  0.00     0.029 A 
ATOM     49  N   UNL A   1      43.809  27.129  27.509  1.00  0.00    -0.354 N 
ATOM     50  C   UNL A   1      40.285  28.905  29.262  1.00  0.00     0.074 A 
ATOM     51  C   UNL A   1      39.163  27.992  29.217  1.00  0.00     0.031 C 
ATOM     52  C   UNL A   1      45.027  25.512  26.561  1.00  0.00     0.029 A 
ATOM     53  C   UNL A   1      45.072  26.903  27.012  1.00  0.00     0.049 A 
ATOM     54  H   UNL A   1      43.540  27.979  27.926  1.00  0.00     0.167 HD
ATOM     55  C   UNL A   1      40.237  30.150  29.796  1.00  0.00     0.034 A 
ATOM     56  C   UNL A   1      46.138  27.726  26.914  1.00  0.00     0.034 A 
ATOM     57  C   UNL A   1      41.359  31.053  29.849  1.00  0.00     0.049 A 
ATOM     58  C   UNL A   1      46.029  29.138  27.446  1.00  0.00     0.074 A 
ATOM     59  C   UNL A   1      41.426  32.307  30.433  1.00  0.00     0.029 A 
ATOM     60  N   UNL A   1      42.602  30.813  29.282  1.00  0.00    -0.354 N 
ATOM     61  N   UNL A   1      45.017  29.720  28.048  1.00  0.00    -0.248 NA
ATOM     62  C   UNL A   1      47.209  30.001  27.290  1.00  0.00     0.031 C 
ATOM     63  C   UNL A   1      42.683  32.854  30.153  1.00  0.00     0.029 A 
ATOM     64  C   UNL A   1      43.425  31.915  29.456  1.00  0.00     0.049 A 
ATOM     65  H   UNL A   1      42.862  29.981  28.823  1.00  0.00     0.167 HD
ATOM     66  C   UNL A   1      45.452  31.006  28.362  1.00  0.00     0.074 A 
ATOM     67  C   UNL A   1      46.821  31.108  27.903  1.00  0.00     0.031 C 
ATOM     68  C   UNL A   1      44.782  32.014  28.977  1.00  0.00     0.034 A 
BRANCH  55  69
ATOM     69  C   UNL A   1      38.914  30.634  30.331  1.00  0.00     0.023 A 
ATOM     70  C   UNL A   1      37.990  31.315  29.522  1.00  0.00     0.031 A 
ATOM     71  C   UNL A   1      38.566  30.382  31.670  1.00  0.00     0.131 A 
ATOM     72  C   UNL A   1      36.775  31.754  30.070  1.00  0.00     0.055 A 
ATOM     73  C   UNL A   1      37.332  30.770  32.193  1.00  0.00     0.041 A 
ATOM     74  F   UNL A   1      39.421  29.752  32.490  1.00  0.00    -0.206 F 
ATOM     75  C   UNL A   1      36.431  31.467  31.393  1.00  0.00     0.022 A 
BRANCH  72  76
ATOM     76  S   UNL A   1      35.681  32.781  29.052  1.00  0.00     0.124 S 
ATOM     77  O   UNL A   1      35.732  32.082  27.769  1.00  0.00    -0.237 OA
ATOM     78  O   UNL A   1      34.414  32.703  29.770  1.00  0.00    -0.237 OA
ATOM     79  O   UNL A   1      36.327  34.091  29.066  1.00  0.00    -0.744 OA
ENDBRANCH  72  76
ENDBRANCH  55  69
BRANCH  56  80
ATOM     80  C   UNL A   1      47.389  27.280  26.235  1.00  0.00     0.023 A 
ATOM     81  C   UNL A   1      48.416  26.637  26.944  1.00  0.00     0.031 A 
ATOM     82  C   UNL A   1      47.616  27.584  24.880  1.00  0.00     0.131 A 
ATOM     83  C   UNL A   1      49.643  26.375  26.314  1.00  0.00     0.055 A 
ATOM     84  C   UNL A   1      48.817  27.270  24.243  1.00  0.00     0.041 A 
ATOM     85  F   UNL A   1      46.670  28.203  24.155  1.00  0.00    -0.206 F 
ATOM     86  C   UNL A   1      49.847  26.678  24.966  1.00  0.00     0.022 A 
BRANCH  83  87
ATOM     87  S   UNL A   1      51.019  25.744  27.317  1.00  0.00     0.124 S 
ATOM     88  O   UNL A   1      51.680  24.844  26.379  1.00  0.00    -0.237 OA
ATOM     89  O   UNL A   1      51.738  26.971  27.645  1.00  0.00    -0.237 OA
ATOM     90  O   UNL A   1      50.349  25.095  28.441  1.00  0.00    -0.744 OA
ENDBRANCH  83  87
ENDBRANCH  56  80
BRANCH  68  91
ATOM     91  C   UNL A   1      45.533  33.301  29.208  1.00  0.00     0.023 A 
ATOM     92  C   UNL A   1      45.455  34.370  28.299  1.00  0.00     0.031 A 
ATOM     93  C   UNL A   1      46.345  33.457  30.345  1.00  0.00     0.131 A 
ATOM     94  C   UNL A   1      46.214  35.530  28.516  1.00  0.00     0.055 A 
ATOM     95  C   UNL A   1      47.056  34.635  30.585  1.00  0.00     0.041 A 
ATOM     96  F   UNL A   1      46.458  32.467  31.245  1.00  0.00    -0.206 F 
ATOM     97  C   UNL A   1      47.003  35.675  29.661  1.00  0.00     0.022 A 
BRANCH  94  98
ATOM     98  S   UNL A   1      46.220  36.820  27.241  1.00  0.00     0.124 S 
ATOM     99  O   UNL A   1      47.361  37.638  27.641  1.00  0.00    -0.237 OA
ATOM    100  O   UNL A   1      46.389  36.047  26.015  1.00  0.00    -0.237 OA
ATOM    101  O   UNL A   1      44.914  37.460  27.393  1.00  0.00    -0.744 OA
ENDBRANCH  94  98
ENDBRANCH  68  91
ENDBRANCH  42  43
ENDBRANCH  35  37
ENDBRANCH  34  35
ENDBRANCH  33  34
ENDBRANCH  32  33
ENDBRANCH   1  32
TORSDOF 21
ENDMDL
