MODEL 1
REMARK VINA RESULT:     -10.3      0.000      0.000
REMARK SMILES CC[C@@H](NC(=O)c1cscc1C)C(=O)OCCOCCOC(=O)c1ccc(-c2c3nc(c(-c4cc(S(=O)(=O)[O-])ccc4F)c4ccc([nH]4)c(-c4cc(S(=O)(=O)[O-])ccc4F)c4nc(c(-c5cc(S(=O)(=O)[O-])ccc5F)c5ccc2[nH]5)C=C4)C=C3)cc1
REMARK SMILES IDX 19 1 18 2 17 3 16 4 15 5 13 6 14 7 3 8 2 9 1 10 4 11 5 12
REMARK SMILES IDX 6 14 7 15 8 16 11 17 9 18 10 19 12 20 20 21 21 22 22 23
REMARK SMILES IDX 23 24 24 25 25 26 86 27 26 28 85 29 27 30 28 31 29 32 79 33
REMARK SMILES IDX 30 34 84 35 78 36 80 37 31 38 83 39 77 40 76 41 32 43 64 44
REMARK SMILES IDX 44 45 63 46 45 47 48 48 62 49 81 50 46 51 47 52 61 54 82 55
REMARK SMILES IDX 49 56 33 57 34 58 42 59 35 60 41 61 43 62 40 63 36 64 37 65
REMARK SMILES IDX 38 66 39 67 65 68 66 69 74 70 67 71 73 72 75 73 72 74 68 75
REMARK SMILES IDX 69 76 70 77 71 78 50 79 51 80 59 81 52 82 58 83 60 84 57 85
REMARK SMILES IDX 53 86 54 87 55 88 56 89
REMARK H PARENT 4 13 80 42 48 53
REMARK Flexibility Score: inf
ROOT
ATOM      1  C   UNL A   1      36.264  19.942  24.882  1.00  0.00     0.202 C 
ENDROOT
BRANCH   1   2
ATOM      2  O   UNL A   1      35.571  20.856  25.730  1.00  0.00    -0.374 OA
BRANCH   2   3
ATOM      3  C   UNL A   1      34.154  20.695  25.803  1.00  0.00     0.202 C 
BRANCH   3   4
ATOM      4  C   UNL A   1      33.345  21.991  25.716  1.00  0.00     0.261 C 
BRANCH   4   5
ATOM      5  O   UNL A   1      34.052  23.129  26.243  1.00  0.00    -0.462 OA
BRANCH   5   6
ATOM      6  C   UNL A   1      33.686  24.338  25.741  1.00  0.00     0.328 C 
ATOM      7  O   UNL A   1      32.834  25.079  26.220  1.00  0.00    -0.250 OA
BRANCH   6   8
ATOM      8  C   UNL A   1      34.559  24.763  24.553  1.00  0.00     0.192 C 
BRANCH   8   9
ATOM      9  C   UNL A   1      35.931  24.077  24.733  1.00  0.00     0.033 C 
ATOM     10  C   UNL A   1      36.404  23.322  23.500  1.00  0.00     0.007 C 
ENDBRANCH   8   9
BRANCH   8  11
ATOM     11  N   UNL A   1      34.026  24.456  23.221  1.00  0.00    -0.339 N 
ATOM     12  C   UNL A   1      33.298  25.251  22.371  1.00  0.00     0.253 C 
ATOM     13  H   UNL A   1      34.217  23.549  22.889  1.00  0.00     0.164 HD
ATOM     14  O   UNL A   1      33.263  24.959  21.178  1.00  0.00    -0.269 OA
BRANCH  12  15
ATOM     15  C   UNL A   1      32.490  26.334  22.919  1.00  0.00     0.053 A 
ATOM     16  C   UNL A   1      32.869  27.663  22.937  1.00  0.00     0.079 A 
ATOM     17  C   UNL A   1      31.162  26.161  23.474  1.00  0.00    -0.028 A 
ATOM     18  S   UNL A   1      31.704  28.675  23.675  1.00  0.00    -0.151 S 
ATOM     19  C   UNL A   1      30.649  27.360  23.937  1.00  0.00     0.069 A 
ATOM     20  C   UNL A   1      30.425  24.862  23.561  1.00  0.00     0.046 C 
ENDBRANCH  12  15
ENDBRANCH   8  11
ENDBRANCH   6   8
ENDBRANCH   5   6
ENDBRANCH   4   5
ENDBRANCH   3   4
ENDBRANCH   2   3
ENDBRANCH   1   2
BRANCH   1  21
ATOM     21  C   UNL A   1      37.790  20.029  24.942  1.00  0.00     0.261 C 
BRANCH  21  22
ATOM     22  O   UNL A   1      38.207  21.190  25.683  1.00  0.00    -0.460 OA
BRANCH  22  23
ATOM     23  C   UNL A   1      39.470  21.122  26.165  1.00  0.00     0.338 C 
ATOM     24  O   UNL A   1      40.288  20.237  25.948  1.00  0.00    -0.246 OA
BRANCH  23  25
ATOM     25  C   UNL A   1      39.821  22.376  26.861  1.00  0.00     0.060 A 
ATOM     26  C   UNL A   1      39.104  23.525  26.504  1.00  0.00     0.016 A 
ATOM     27  C   UNL A   1      40.860  22.452  27.794  1.00  0.00     0.016 A 
ATOM     28  C   UNL A   1      39.470  24.766  27.015  1.00  0.00     0.010 A 
ATOM     29  C   UNL A   1      41.231  23.703  28.304  1.00  0.00     0.010 A 
ATOM     30  C   UNL A   1      40.569  24.868  27.877  1.00  0.00    -0.014 A 
BRANCH  30  31
ATOM     31  C   UNL A   1      41.140  26.209  28.155  1.00  0.00     0.031 A 
ATOM     32  C   UNL A   1      42.543  26.498  27.690  1.00  0.00     0.074 A 
ATOM     33  C   UNL A   1      40.410  27.166  28.752  1.00  0.00     0.049 A 
ATOM     34  N   UNL A   1      43.261  27.582  27.831  1.00  0.00    -0.248 NA
ATOM     35  C   UNL A   1      43.226  25.413  26.967  1.00  0.00     0.031 C 
ATOM     36  C   UNL A   1      39.024  27.017  29.195  1.00  0.00     0.029 A 
ATOM     37  N   UNL A   1      40.734  28.455  29.091  1.00  0.00    -0.354 N 
ATOM     38  C   UNL A   1      44.479  27.311  27.216  1.00  0.00     0.074 A 
ATOM     39  C   UNL A   1      44.416  25.946  26.740  1.00  0.00     0.031 C 
ATOM     40  C   UNL A   1      38.621  28.169  29.757  1.00  0.00     0.029 A 
ATOM     41  C   UNL A   1      39.728  29.124  29.747  1.00  0.00     0.049 A 
ATOM     42  H   UNL A   1      41.606  28.863  28.883  1.00  0.00     0.167 HD
ATOM     43  C   UNL A   1      45.548  28.130  27.054  1.00  0.00     0.034 A 
ATOM     44  C   UNL A   1      39.715  30.355  30.298  1.00  0.00     0.034 A 
ATOM     45  C   UNL A   1      45.599  29.484  27.547  1.00  0.00     0.049 A 
ATOM     46  C   UNL A   1      40.948  31.218  30.186  1.00  0.00     0.074 A 
ATOM     47  C   UNL A   1      46.627  30.404  27.441  1.00  0.00     0.029 A 
ATOM     48  N   UNL A   1      44.579  30.111  28.252  1.00  0.00    -0.354 N 
ATOM     49  N   UNL A   1      42.096  30.951  29.605  1.00  0.00    -0.248 NA
ATOM     50  C   UNL A   1      40.882  32.552  30.797  1.00  0.00     0.031 C 
ATOM     51  C   UNL A   1      46.257  31.558  28.139  1.00  0.00     0.029 A 
ATOM     52  C   UNL A   1      44.966  31.392  28.614  1.00  0.00     0.049 A 
ATOM     53  H   UNL A   1      43.707  29.705  28.462  1.00  0.00     0.167 HD
ATOM     54  C   UNL A   1      42.875  32.096  29.756  1.00  0.00     0.074 A 
ATOM     55  C   UNL A   1      42.061  33.059  30.470  1.00  0.00     0.031 C 
ATOM     56  C   UNL A   1      44.145  32.334  29.339  1.00  0.00     0.034 A 
BRANCH  43  57
ATOM     57  C   UNL A   1      46.760  27.554  26.362  1.00  0.00     0.023 A 
ATOM     58  C   UNL A   1      47.085  27.887  25.035  1.00  0.00     0.031 A 
ATOM     59  C   UNL A   1      47.581  26.627  27.027  1.00  0.00     0.131 A 
ATOM     60  C   UNL A   1      48.155  27.244  24.394  1.00  0.00     0.055 A 
ATOM     61  C   UNL A   1      48.692  26.050  26.410  1.00  0.00     0.041 A 
ATOM     62  F   UNL A   1      47.306  26.251  28.287  1.00  0.00    -0.206 F 
ATOM     63  C   UNL A   1      48.976  26.346  25.080  1.00  0.00     0.022 A 
BRANCH  60  64
ATOM     64  S   UNL A   1      48.372  27.488  22.609  1.00  0.00     0.124 S 
ATOM     65  O   UNL A   1      49.633  28.224  22.565  1.00  0.00    -0.237 OA
ATOM     66  O   UNL A   1      48.412  26.120  22.106  1.00  0.00    -0.237 OA
ATOM     67  O   UNL A   1      47.194  28.262  22.224  1.00  0.00    -0.744 OA
ENDBRANCH  60  64
ENDBRANCH  43  57
BRANCH  44  68
ATOM     68  C   UNL A   1      38.516  30.833  31.046  1.00  0.00     0.023 A 
ATOM     69  C   UNL A   1      37.442  31.450  30.388  1.00  0.00     0.031 A 
ATOM     70  C   UNL A   1      38.458  30.726  32.448  1.00  0.00     0.131 A 
ATOM     71  C   UNL A   1      36.374  31.975  31.135  1.00  0.00     0.055 A 
ATOM     72  C   UNL A   1      37.371  31.202  33.181  1.00  0.00     0.041 A 
ATOM     73  F   UNL A   1      39.461  30.146  33.127  1.00  0.00    -0.206 F 
ATOM     74  C   UNL A   1      36.325  31.844  32.525  1.00  0.00     0.022 A 
BRANCH  71  75
ATOM     75  S   UNL A   1      35.082  32.907  30.267  1.00  0.00     0.124 S 
ATOM     76  O   UNL A   1      35.838  34.035  29.734  1.00  0.00    -0.237 OA
ATOM     77  O   UNL A   1      34.609  31.931  29.291  1.00  0.00    -0.237 OA
ATOM     78  O   UNL A   1      34.131  33.238  31.327  1.00  0.00    -0.744 OA
ENDBRANCH  71  75
ENDBRANCH  44  68
BRANCH  56  79
ATOM     79  C   UNL A   1      44.711  33.708  29.608  1.00  0.00     0.023 A 
ATOM     80  C   UNL A   1      44.577  34.759  28.685  1.00  0.00     0.031 A 
ATOM     81  C   UNL A   1      45.402  33.963  30.807  1.00  0.00     0.131 A 
ATOM     82  C   UNL A   1      45.170  36.002  28.951  1.00  0.00     0.055 A 
ATOM     83  C   UNL A   1      45.940  35.219  31.091  1.00  0.00     0.041 A 
ATOM     84  F   UNL A   1      45.561  32.996  31.723  1.00  0.00    -0.206 F 
ATOM     85  C   UNL A   1      45.837  36.244  30.155  1.00  0.00     0.022 A 
BRANCH  82  86
ATOM     86  S   UNL A   1      45.138  37.278  27.661  1.00  0.00     0.124 S 
ATOM     87  O   UNL A   1      43.745  37.239  27.229  1.00  0.00    -0.237 OA
ATOM     88  O   UNL A   1      45.545  38.473  28.393  1.00  0.00    -0.237 OA
ATOM     89  O   UNL A   1      46.106  36.796  26.677  1.00  0.00    -0.744 OA
ENDBRANCH  82  86
ENDBRANCH  56  79
ENDBRANCH  30  31
ENDBRANCH  23  25
ENDBRANCH  22  23
ENDBRANCH  21  22
ENDBRANCH   1  21
TORSDOF 20
ENDMDL
MODEL 2
REMARK VINA RESULT:     -10.3      4.969     10.389
REMARK SMILES CC[C@@H](NC(=O)c1cscc1C)C(=O)OCCOCCOC(=O)c1ccc(-c2c3nc(c(-c4cc(S(=O)(=O)[O-])ccc4F)c4ccc([nH]4)c(-c4cc(S(=O)(=O)[O-])ccc4F)c4nc(c(-c5cc(S(=O)(=O)[O-])ccc5F)c5ccc2[nH]5)C=C4)C=C3)cc1
REMARK SMILES IDX 19 1 18 2 17 3 16 4 15 5 13 6 14 7 3 8 2 9 1 10 4 11 5 12
REMARK SMILES IDX 6 14 7 15 8 16 11 17 9 18 10 19 12 20 20 21 21 22 22 23
REMARK SMILES IDX 23 24 24 25 25 26 86 27 26 28 85 29 27 30 28 31 29 32 79 33
REMARK SMILES IDX 30 34 84 35 78 36 80 37 31 38 83 39 77 40 76 41 32 43 64 44
REMARK SMILES IDX 44 45 63 46 45 47 48 48 62 49 81 50 46 51 47 52 61 54 82 55
REMARK SMILES IDX 49 56 33 57 34 58 42 59 35 60 41 61 43 62 40 63 36 64 37 65
REMARK SMILES IDX 38 66 39 67 65 68 66 69 74 70 67 71 73 72 75 73 72 74 68 75
REMARK SMILES IDX 69 76 70 77 71 78 50 79 51 80 59 81 52 82 58 83 60 84 57 85
REMARK SMILES IDX 53 86 54 87 55 88 56 89
REMARK H PARENT 4 13 80 42 48 53
REMARK Flexibility Score: inf
ROOT
ATOM      1  C   UNL A   1      30.803  31.558  26.161  1.00  0.00     0.202 C 
ENDROOT
BRANCH   1   2
ATOM      2  O   UNL A   1      31.405  30.594  25.299  1.00  0.00    -0.374 OA
BRANCH   2   3
ATOM      3  C   UNL A   1      30.597  30.127  24.218  1.00  0.00     0.202 C 
BRANCH   3   4
ATOM      4  C   UNL A   1      31.171  28.939  23.442  1.00  0.00     0.261 C 
BRANCH   4   5
ATOM      5  O   UNL A   1      32.052  28.124  24.237  1.00  0.00    -0.462 OA
BRANCH   5   6
ATOM      6  C   UNL A   1      31.513  26.980  24.734  1.00  0.00     0.328 C 
ATOM      7  O   UNL A   1      30.551  26.383  24.263  1.00  0.00    -0.250 OA
BRANCH   6   8
ATOM      8  C   UNL A   1      32.328  26.414  25.904  1.00  0.00     0.192 C 
BRANCH   8   9
ATOM      9  C   UNL A   1      32.713  27.606  26.807  1.00  0.00     0.033 C 
ATOM     10  C   UNL A   1      31.551  28.162  27.615  1.00  0.00     0.007 C 
ENDBRANCH   8   9
BRANCH   8  11
ATOM     11  N   UNL A   1      31.665  25.381  26.709  1.00  0.00    -0.339 N 
ATOM     12  C   UNL A   1      31.828  24.018  26.678  1.00  0.00     0.253 C 
ATOM     13  H   UNL A   1      31.010  25.713  27.364  1.00  0.00     0.164 HD
ATOM     14  O   UNL A   1      31.475  23.362  27.656  1.00  0.00    -0.269 OA
BRANCH  12  15
ATOM     15  C   UNL A   1      32.289  23.378  25.452  1.00  0.00     0.053 A 
ATOM     16  C   UNL A   1      31.460  22.942  24.436  1.00  0.00     0.079 A 
ATOM     17  C   UNL A   1      33.683  23.158  25.121  1.00  0.00    -0.028 A 
ATOM     18  S   UNL A   1      32.317  22.210  23.149  1.00  0.00    -0.151 S 
ATOM     19  C   UNL A   1      33.816  22.509  23.906  1.00  0.00     0.069 A 
ATOM     20  C   UNL A   1      34.846  23.556  25.974  1.00  0.00     0.046 C 
ENDBRANCH  12  15
ENDBRANCH   8  11
ENDBRANCH   6   8
ENDBRANCH   5   6
ENDBRANCH   4   5
ENDBRANCH   3   4
ENDBRANCH   2   3
ENDBRANCH   1   2
BRANCH   1  21
ATOM     21  C   UNL A   1      31.691  32.749  26.526  1.00  0.00     0.261 C 
BRANCH  21  22
ATOM     22  O   UNL A   1      32.577  32.413  27.610  1.00  0.00    -0.460 OA
BRANCH  22  23
ATOM     23  C   UNL A   1      33.517  33.350  27.874  1.00  0.00     0.338 C 
ATOM     24  O   UNL A   1      33.329  34.550  28.030  1.00  0.00    -0.246 OA
BRANCH  23  25
ATOM     25  C   UNL A   1      34.819  32.707  28.143  1.00  0.00     0.060 A 
ATOM     26  C   UNL A   1      34.815  31.322  28.346  1.00  0.00     0.016 A 
ATOM     27  C   UNL A   1      36.007  33.436  28.256  1.00  0.00     0.016 A 
ATOM     28  C   UNL A   1      35.979  30.668  28.739  1.00  0.00     0.010 A 
ATOM     29  C   UNL A   1      37.177  32.778  28.657  1.00  0.00     0.010 A 
ATOM     30  C   UNL A   1      37.153  31.402  28.947  1.00  0.00    -0.014 A 
BRANCH  30  31
ATOM     31  C   UNL A   1      38.282  30.760  29.665  1.00  0.00     0.031 A 
ATOM     32  C   UNL A   1      38.519  31.133  31.104  1.00  0.00     0.074 A 
ATOM     33  C   UNL A   1      39.041  29.824  29.070  1.00  0.00     0.049 A 
ATOM     34  N   UNL A   1      39.447  30.724  31.929  1.00  0.00    -0.248 NA
ATOM     35  C   UNL A   1      37.578  32.102  31.689  1.00  0.00     0.031 C 
ATOM     36  C   UNL A   1      38.869  29.343  27.700  1.00  0.00     0.029 A 
ATOM     37  N   UNL A   1      40.112  29.109  29.545  1.00  0.00    -0.354 N 
ATOM     38  C   UNL A   1      39.203  31.383  33.129  1.00  0.00     0.074 A 
ATOM     39  C   UNL A   1      38.067  32.252  32.910  1.00  0.00     0.031 C 
ATOM     40  C   UNL A   1      39.810  28.419  27.441  1.00  0.00     0.029 A 
ATOM     41  C   UNL A   1      40.672  28.268  28.613  1.00  0.00     0.049 A 
ATOM     42  H   UNL A   1      40.447  29.191  30.468  1.00  0.00     0.167 HD
ATOM     43  C   UNL A   1      39.861  31.267  34.310  1.00  0.00     0.034 A 
ATOM     44  C   UNL A   1      41.769  27.488  28.691  1.00  0.00     0.034 A 
ATOM     45  C   UNL A   1      41.001  30.406  34.508  1.00  0.00     0.049 A 
ATOM     46  C   UNL A   1      42.542  27.442  29.987  1.00  0.00     0.074 A 
ATOM     47  C   UNL A   1      41.745  30.209  35.658  1.00  0.00     0.029 A 
ATOM     48  N   UNL A   1      41.572  29.606  33.526  1.00  0.00    -0.354 N 
ATOM     49  N   UNL A   1      42.304  28.072  31.115  1.00  0.00    -0.248 NA
ATOM     50  C   UNL A   1      43.725  26.573  30.024  1.00  0.00     0.031 C 
ATOM     51  C   UNL A   1      42.803  29.346  35.354  1.00  0.00     0.029 A 
ATOM     52  C   UNL A   1      42.676  28.940  34.035  1.00  0.00     0.049 A 
ATOM     53  H   UNL A   1      41.240  29.524  32.603  1.00  0.00     0.167 HD
ATOM     54  C   UNL A   1      43.292  27.652  32.002  1.00  0.00     0.074 A 
ATOM     55  C   UNL A   1      44.119  26.704  31.282  1.00  0.00     0.031 C 
ATOM     56  C   UNL A   1      43.497  28.009  33.297  1.00  0.00     0.034 A 
BRANCH  43  57
ATOM     57  C   UNL A   1      39.388  32.135  35.452  1.00  0.00     0.023 A 
ATOM     58  C   UNL A   1      39.797  33.474  35.584  1.00  0.00     0.031 A 
ATOM     59  C   UNL A   1      38.548  31.603  36.445  1.00  0.00     0.131 A 
ATOM     60  C   UNL A   1      39.425  34.211  36.719  1.00  0.00     0.055 A 
ATOM     61  C   UNL A   1      38.117  32.366  37.532  1.00  0.00     0.041 A 
ATOM     62  F   UNL A   1      38.146  30.323  36.387  1.00  0.00    -0.206 F 
ATOM     63  C   UNL A   1      38.567  33.674  37.681  1.00  0.00     0.022 A 
BRANCH  60  64
ATOM     64  S   UNL A   1      40.194  35.831  36.993  1.00  0.00     0.124 S 
ATOM     65  O   UNL A   1      41.614  35.495  36.941  1.00  0.00    -0.237 OA
ATOM     66  O   UNL A   1      39.681  36.617  35.876  1.00  0.00    -0.237 OA
ATOM     67  O   UNL A   1      39.702  36.225  38.311  1.00  0.00    -0.744 OA
ENDBRANCH  60  64
ENDBRANCH  43  57
BRANCH  44  68
ATOM     68  C   UNL A   1      42.236  26.722  27.499  1.00  0.00     0.023 A 
ATOM     69  C   UNL A   1      41.954  25.356  27.352  1.00  0.00     0.031 A 
ATOM     70  C   UNL A   1      43.024  27.344  26.513  1.00  0.00     0.131 A 
ATOM     71  C   UNL A   1      42.492  24.645  26.266  1.00  0.00     0.055 A 
ATOM     72  C   UNL A   1      43.513  26.645  25.409  1.00  0.00     0.041 A 
ATOM     73  F   UNL A   1      43.325  28.649  26.607  1.00  0.00    -0.206 F 
ATOM     74  C   UNL A   1      43.258  25.282  25.287  1.00  0.00     0.022 A 
BRANCH  71  75
ATOM     75  S   UNL A   1      42.242  22.849  26.193  1.00  0.00     0.124 S 
ATOM     76  O   UNL A   1      43.027  22.394  27.335  1.00  0.00    -0.237 OA
ATOM     77  O   UNL A   1      40.793  22.741  26.325  1.00  0.00    -0.237 OA
ATOM     78  O   UNL A   1      42.776  22.484  24.882  1.00  0.00    -0.744 OA
ENDBRANCH  71  75
ENDBRANCH  44  68
BRANCH  56  79
ATOM     79  C   UNL A   1      44.636  27.335  34.024  1.00  0.00     0.023 A 
ATOM     80  C   UNL A   1      44.516  26.036  34.547  1.00  0.00     0.031 A 
ATOM     81  C   UNL A   1      45.856  28.011  34.202  1.00  0.00     0.131 A 
ATOM     82  C   UNL A   1      45.580  25.472  35.268  1.00  0.00     0.055 A 
ATOM     83  C   UNL A   1      46.931  27.422  34.870  1.00  0.00     0.041 A 
ATOM     84  F   UNL A   1      46.025  29.254  33.725  1.00  0.00    -0.206 F 
ATOM     85  C   UNL A   1      46.792  26.151  35.419  1.00  0.00     0.022 A 
BRANCH  82  86
ATOM     86  S   UNL A   1      45.328  23.872  36.086  1.00  0.00     0.124 S 
ATOM     87  O   UNL A   1      43.878  23.722  36.019  1.00  0.00    -0.237 OA
ATOM     88  O   UNL A   1      46.102  22.966  35.245  1.00  0.00    -0.237 OA
ATOM     89  O   UNL A   1      45.869  24.084  37.428  1.00  0.00    -0.744 OA
ENDBRANCH  82  86
ENDBRANCH  56  79
ENDBRANCH  30  31
ENDBRANCH  23  25
ENDBRANCH  22  23
ENDBRANCH  21  22
ENDBRANCH   1  21
TORSDOF 20
ENDMDL
MODEL 3
REMARK VINA RESULT:     -10.2      1.191      7.820
REMARK SMILES CC[C@@H](NC(=O)c1cscc1C)C(=O)OCCOCCOC(=O)c1ccc(-c2c3nc(c(-c4cc(S(=O)(=O)[O-])ccc4F)c4ccc([nH]4)c(-c4cc(S(=O)(=O)[O-])ccc4F)c4nc(c(-c5cc(S(=O)(=O)[O-])ccc5F)c5ccc2[nH]5)C=C4)C=C3)cc1
REMARK SMILES IDX 19 1 18 2 17 3 16 4 15 5 13 6 14 7 3 8 2 9 1 10 4 11 5 12
REMARK SMILES IDX 6 14 7 15 8 16 11 17 9 18 10 19 12 20 20 21 21 22 22 23
REMARK SMILES IDX 23 24 24 25 25 26 86 27 26 28 85 29 27 30 28 31 29 32 79 33
REMARK SMILES IDX 30 34 84 35 78 36 80 37 31 38 83 39 77 40 76 41 32 43 64 44
REMARK SMILES IDX 44 45 63 46 45 47 48 48 62 49 81 50 46 51 47 52 61 54 82 55
REMARK SMILES IDX 49 56 33 57 34 58 42 59 35 60 41 61 43 62 40 63 36 64 37 65
REMARK SMILES IDX 38 66 39 67 65 68 66 69 74 70 67 71 73 72 75 73 72 74 68 75
REMARK SMILES IDX 69 76 70 77 71 78 50 79 51 80 59 81 52 82 58 83 60 84 57 85
REMARK SMILES IDX 53 86 54 87 55 88 56 89
REMARK H PARENT 4 13 80 42 48 53
REMARK Flexibility Score: inf
ROOT
ATOM      1  C   UNL A   1      36.381  20.026  24.865  1.00  0.00     0.202 C 
ENDROOT
BRANCH   1   2
ATOM      2  O   UNL A   1      35.999  21.339  24.459  1.00  0.00    -0.374 OA
BRANCH   2   3
ATOM      3  C   UNL A   1      34.910  21.925  25.171  1.00  0.00     0.202 C 
BRANCH   3   4
ATOM      4  C   UNL A   1      35.288  22.639  26.471  1.00  0.00     0.261 C 
BRANCH   4   5
ATOM      5  O   UNL A   1      34.268  23.545  26.930  1.00  0.00    -0.462 OA
BRANCH   5   6
ATOM      6  C   UNL A   1      33.082  22.975  27.272  1.00  0.00     0.328 C 
ATOM      7  O   UNL A   1      32.909  22.195  28.203  1.00  0.00    -0.250 OA
BRANCH   6   8
ATOM      8  C   UNL A   1      31.913  23.520  26.440  1.00  0.00     0.192 C 
BRANCH   8   9
ATOM      9  C   UNL A   1      30.793  22.459  26.484  1.00  0.00     0.033 C 
ATOM     10  C   UNL A   1      29.552  22.910  27.240  1.00  0.00     0.007 C 
ENDBRANCH   8   9
BRANCH   8  11
ATOM     11  N   UNL A   1      31.378  24.820  26.859  1.00  0.00    -0.339 N 
ATOM     12  C   UNL A   1      31.113  25.936  26.104  1.00  0.00     0.253 C 
ATOM     13  H   UNL A   1      31.179  24.904  27.819  1.00  0.00     0.164 HD
ATOM     14  O   UNL A   1      30.338  26.778  26.550  1.00  0.00    -0.269 OA
BRANCH  12  15
ATOM     15  C   UNL A   1      31.850  26.153  24.864  1.00  0.00     0.053 A 
ATOM     16  C   UNL A   1      32.995  26.920  24.757  1.00  0.00     0.079 A 
ATOM     17  C   UNL A   1      31.501  25.554  23.591  1.00  0.00    -0.028 A 
ATOM     18  S   UNL A   1      33.596  26.994  23.158  1.00  0.00    -0.151 S 
ATOM     19  C   UNL A   1      32.365  25.959  22.589  1.00  0.00     0.069 A 
ATOM     20  C   UNL A   1      30.350  24.625  23.361  1.00  0.00     0.046 C 
ENDBRANCH  12  15
ENDBRANCH   8  11
ENDBRANCH   6   8
ENDBRANCH   5   6
ENDBRANCH   4   5
ENDBRANCH   3   4
ENDBRANCH   2   3
ENDBRANCH   1   2
BRANCH   1  21
ATOM     21  C   UNL A   1      37.887  19.806  25.026  1.00  0.00     0.261 C 
BRANCH  21  22
ATOM     22  O   UNL A   1      38.538  21.021  25.443  1.00  0.00    -0.460 OA
BRANCH  22  23
ATOM     23  C   UNL A   1      39.642  20.830  26.202  1.00  0.00     0.338 C 
ATOM     24  O   UNL A   1      40.323  19.815  26.260  1.00  0.00    -0.246 OA
BRANCH  23  25
ATOM     25  C   UNL A   1      40.050  22.098  26.839  1.00  0.00     0.060 A 
ATOM     26  C   UNL A   1      39.441  23.270  26.373  1.00  0.00     0.016 A 
ATOM     27  C   UNL A   1      41.042  22.160  27.823  1.00  0.00     0.016 A 
ATOM     28  C   UNL A   1      39.873  24.512  26.827  1.00  0.00     0.010 A 
ATOM     29  C   UNL A   1      41.479  23.410  28.276  1.00  0.00     0.010 A 
ATOM     30  C   UNL A   1      40.930  24.590  27.742  1.00  0.00    -0.014 A 
BRANCH  30  31
ATOM     31  C   UNL A   1      41.585  25.901  27.970  1.00  0.00     0.031 A 
ATOM     32  C   UNL A   1      40.812  26.971  28.696  1.00  0.00     0.074 A 
ATOM     33  C   UNL A   1      42.858  26.118  27.595  1.00  0.00     0.049 A 
ATOM     34  N   UNL A   1      41.162  28.194  28.995  1.00  0.00    -0.248 NA
ATOM     35  C   UNL A   1      39.459  26.605  29.144  1.00  0.00     0.031 C 
ATOM     36  C   UNL A   1      43.720  25.138  26.935  1.00  0.00     0.029 A 
ATOM     37  N   UNL A   1      43.647  27.234  27.715  1.00  0.00    -0.354 N 
ATOM     38  C   UNL A   1      40.075  28.745  29.665  1.00  0.00     0.074 A 
ATOM     39  C   UNL A   1      39.039  27.735  29.689  1.00  0.00     0.031 C 
ATOM     40  C   UNL A   1      44.917  25.702  26.699  1.00  0.00     0.029 A 
ATOM     41  C   UNL A   1      44.895  27.091  27.157  1.00  0.00     0.049 A 
ATOM     42  H   UNL A   1      43.346  28.060  28.159  1.00  0.00     0.167 HD
ATOM     43  C   UNL A   1      39.956  29.977  30.220  1.00  0.00     0.034 A 
ATOM     44  C   UNL A   1      45.892  27.987  27.012  1.00  0.00     0.034 A 
ATOM     45  C   UNL A   1      40.994  30.977  30.175  1.00  0.00     0.049 A 
ATOM     46  C   UNL A   1      45.705  29.383  27.556  1.00  0.00     0.074 A 
ATOM     47  C   UNL A   1      40.983  32.257  30.702  1.00  0.00     0.029 A 
ATOM     48  N   UNL A   1      42.227  30.814  29.558  1.00  0.00    -0.354 N 
ATOM     49  N   UNL A   1      44.671  29.894  28.185  1.00  0.00    -0.248 NA
ATOM     50  C   UNL A   1      46.821  30.320  27.378  1.00  0.00     0.031 C 
ATOM     51  C   UNL A   1      42.179  32.889  30.343  1.00  0.00     0.029 A 
ATOM     52  C   UNL A   1      42.972  31.979  29.661  1.00  0.00     0.049 A 
ATOM     53  H   UNL A   1      42.529  29.990  29.111  1.00  0.00     0.167 HD
ATOM     54  C   UNL A   1      45.027  31.203  28.502  1.00  0.00     0.074 A 
ATOM     55  C   UNL A   1      46.375  31.396  28.007  1.00  0.00     0.031 C 
ATOM     56  C   UNL A   1      44.310  32.158  29.149  1.00  0.00     0.034 A 
BRANCH  43  57
ATOM     57  C   UNL A   1      38.635  30.318  30.869  1.00  0.00     0.023 A 
ATOM     58  C   UNL A   1      37.620  30.997  30.172  1.00  0.00     0.031 A 
ATOM     59  C   UNL A   1      38.404  29.993  32.217  1.00  0.00     0.131 A 
ATOM     60  C   UNL A   1      36.454  31.392  30.845  1.00  0.00     0.055 A 
ATOM     61  C   UNL A   1      37.208  30.320  32.858  1.00  0.00     0.041 A 
ATOM     62  F   UNL A   1      39.346  29.367  32.941  1.00  0.00    -0.206 F 
ATOM     63  C   UNL A   1      36.230  31.036  32.177  1.00  0.00     0.022 A 
BRANCH  60  64
ATOM     64  S   UNL A   1      35.296  32.502  29.996  1.00  0.00     0.124 S 
ATOM     65  O   UNL A   1      34.225  32.621  30.983  1.00  0.00    -0.237 OA
ATOM     66  O   UNL A   1      36.103  33.698  29.782  1.00  0.00    -0.237 OA
ATOM     67  O   UNL A   1      34.939  31.765  28.786  1.00  0.00    -0.744 OA
ENDBRANCH  60  64
ENDBRANCH  43  57
BRANCH  44  68
ATOM     68  C   UNL A   1      47.139  27.616  26.282  1.00  0.00     0.023 A 
ATOM     69  C   UNL A   1      47.278  27.850  24.906  1.00  0.00     0.031 A 
ATOM     70  C   UNL A   1      48.194  26.967  26.951  1.00  0.00     0.131 A 
ATOM     71  C   UNL A   1      48.427  27.401  24.233  1.00  0.00     0.055 A 
ATOM     72  C   UNL A   1      49.355  26.570  26.288  1.00  0.00     0.041 A 
ATOM     73  F   UNL A   1      48.111  26.717  28.268  1.00  0.00    -0.206 F 
ATOM     74  C   UNL A   1      49.471  26.774  24.917  1.00  0.00     0.022 A 
BRANCH  71  75
ATOM     75  S   UNL A   1      48.502  27.577  22.429  1.00  0.00     0.124 S 
ATOM     76  O   UNL A   1      47.259  28.285  22.148  1.00  0.00    -0.237 OA
ATOM     77  O   UNL A   1      49.732  28.341  22.251  1.00  0.00    -0.237 OA
ATOM     78  O   UNL A   1      48.554  26.195  21.955  1.00  0.00    -0.744 OA
ENDBRANCH  71  75
ENDBRANCH  44  68
BRANCH  56  79
ATOM     79  C   UNL A   1      44.993  33.482  29.394  1.00  0.00     0.023 A 
ATOM     80  C   UNL A   1      44.867  34.558  28.499  1.00  0.00     0.031 A 
ATOM     81  C   UNL A   1      45.790  33.663  30.540  1.00  0.00     0.131 A 
ATOM     82  C   UNL A   1      45.568  35.750  28.736  1.00  0.00     0.055 A 
ATOM     83  C   UNL A   1      46.438  34.871  30.800  1.00  0.00     0.041 A 
ATOM     84  F   UNL A   1      45.947  32.669  31.427  1.00  0.00    -0.206 F 
ATOM     85  C   UNL A   1      46.340  35.919  29.889  1.00  0.00     0.022 A 
BRANCH  82  86
ATOM     86  S   UNL A   1      45.531  37.050  27.471  1.00  0.00     0.124 S 
ATOM     87  O   UNL A   1      46.517  36.566  26.510  1.00  0.00    -0.237 OA
ATOM     88  O   UNL A   1      44.141  37.016  27.029  1.00  0.00    -0.237 OA
ATOM     89  O   UNL A   1      45.918  38.254  28.204  1.00  0.00    -0.744 OA
ENDBRANCH  82  86
ENDBRANCH  56  79
ENDBRANCH  30  31
ENDBRANCH  23  25
ENDBRANCH  22  23
ENDBRANCH  21  22
ENDBRANCH   1  21
TORSDOF 20
ENDMDL
