MODEL 1
REMARK VINA RESULT:     -11.5      0.000      0.000
REMARK SMILES CS(=O)(=O)c1ccc(-c2cc(Cl)cnc2-c2ccc(C(=O)OCCOCCOC(=O)c3ccc(-c4c5nc(c(-c6cc(S(=O)(=O)[O-])ccc6F)c6ccc([nH]6)c(-c6cc(S(=O)(=O)[O-])ccc6F)c6nc(c(-c7cc(S(=O)(=O)[O-])ccc7F)c7ccc4[nH]7)C=C6)C=C5)cc3)nc2)cc1
REMARK SMILES IDX 25 1 24 2 23 3 22 4 20 5 21 6 19 7 16 8 17 9 95 10 18 11
REMARK SMILES IDX 94 12 15 13 9 14 10 15 11 16 14 17 12 18 13 19 8 20 5 21
REMARK SMILES IDX 6 22 97 23 7 24 96 25 2 26 1 27 3 28 4 29 26 30 27 31 28 32
REMARK SMILES IDX 29 33 30 34 31 35 32 36 93 37 33 38 92 39 34 40 35 41 36 42
REMARK SMILES IDX 86 43 37 44 91 45 85 46 87 47 38 48 90 49 84 50 83 51 39 53
REMARK SMILES IDX 71 54 51 55 70 56 52 57 55 58 69 59 88 60 53 61 54 62 68 64
REMARK SMILES IDX 89 65 56 66 40 67 41 68 49 69 42 70 48 71 50 72 47 73 43 74
REMARK SMILES IDX 44 75 45 76 46 77 72 78 73 79 81 80 74 81 80 82 82 83 79 84
REMARK SMILES IDX 75 85 76 86 77 87 78 88 57 89 58 90 66 91 59 92 65 93 67 94
REMARK SMILES IDX 64 95 60 96 61 97 62 98 63 99
REMARK H PARENT 87 52 55 63
REMARK Flexibility Score: inf
ROOT
ATOM      1  O   UNL A   1      30.933  28.890  24.562  1.00  0.00    -0.374 OA
ENDROOT
BRANCH   1   2
ATOM      2  C   UNL A   1      30.763  28.901  23.144  1.00  0.00     0.202 C 
BRANCH   2   3
ATOM      3  C   UNL A   1      30.760  27.539  22.446  1.00  0.00     0.261 C 
BRANCH   3   4
ATOM      4  O   UNL A   1      31.814  26.708  22.955  1.00  0.00    -0.459 OA
BRANCH   4   5
ATOM      5  C   UNL A   1      31.406  25.699  23.764  1.00  0.00     0.356 C 
ATOM      6  O   UNL A   1      30.261  25.474  24.126  1.00  0.00    -0.244 OA
BRANCH   5   7
ATOM      7  C   UNL A   1      32.565  24.817  24.083  1.00  0.00     0.148 A 
ATOM      8  C   UNL A   1      34.836  23.499  24.881  1.00  0.00     0.019 A 
ATOM      9  C   UNL A   1      34.605  23.720  23.515  1.00  0.00     0.014 A 
ATOM     10  C   UNL A   1      33.813  23.839  25.762  1.00  0.00     0.122 A 
ATOM     11  C   UNL A   1      33.454  24.393  23.104  1.00  0.00     0.037 A 
ATOM     12  N   UNL A   1      32.700  24.507  25.401  1.00  0.00    -0.249 NA
BRANCH   8  13
ATOM     13  C   UNL A   1      36.163  23.179  25.414  1.00  0.00     0.080 A 
ATOM     14  C   UNL A   1      36.620  21.839  25.474  1.00  0.00     0.010 A 
ATOM     15  C   UNL A   1      37.934  21.627  25.913  1.00  0.00     0.033 A 
ATOM     16  C   UNL A   1      38.733  22.714  26.252  1.00  0.00     0.060 A 
ATOM     17  N   UNL A   1      36.937  24.249  25.730  1.00  0.00    -0.254 NA
ATOM     18  Cl  UNL A   1      40.352  22.476  26.769  1.00  0.00    -0.083 Cl
ATOM     19  C   UNL A   1      38.200  23.988  26.149  1.00  0.00     0.132 A 
BRANCH  14  20
ATOM     20  C   UNL A   1      35.769  20.699  25.079  1.00  0.00    -0.016 A 
ATOM     21  C   UNL A   1      34.152  18.453  24.577  1.00  0.00     0.067 A 
ATOM     22  C   UNL A   1      33.554  19.678  24.864  1.00  0.00     0.021 A 
ATOM     23  C   UNL A   1      35.545  18.342  24.518  1.00  0.00     0.021 A 
ATOM     24  C   UNL A   1      34.364  20.795  25.099  1.00  0.00     0.010 A 
ATOM     25  C   UNL A   1      36.346  19.459  24.763  1.00  0.00     0.010 A 
BRANCH  21  26
ATOM     26  S   UNL A   1      33.182  16.990  24.285  1.00  0.00     0.175 S 
ATOM     27  C   UNL A   1      33.884  15.694  25.267  1.00  0.00     0.163 C 
ATOM     28  O   UNL A   1      33.391  16.634  22.895  1.00  0.00    -0.224 OA
ATOM     29  O   UNL A   1      31.857  17.283  24.797  1.00  0.00    -0.224 OA
ENDBRANCH  21  26
ENDBRANCH  14  20
ENDBRANCH   8  13
ENDBRANCH   5   7
ENDBRANCH   4   5
ENDBRANCH   3   4
ENDBRANCH   2   3
ENDBRANCH   1   2
BRANCH   1  30
ATOM     30  C   UNL A   1      31.588  30.008  25.163  1.00  0.00     0.202 C 
BRANCH  30  31
ATOM     31  C   UNL A   1      33.005  29.789  25.708  1.00  0.00     0.261 C 
BRANCH  31  32
ATOM     32  O   UNL A   1      33.123  30.116  27.104  1.00  0.00    -0.460 OA
BRANCH  32  33
ATOM     33  C   UNL A   1      33.733  31.298  27.361  1.00  0.00     0.338 C 
ATOM     34  O   UNL A   1      33.243  32.416  27.260  1.00  0.00    -0.246 OA
BRANCH  33  35
ATOM     35  C   UNL A   1      35.049  31.056  27.979  1.00  0.00     0.060 A 
ATOM     36  C   UNL A   1      35.328  29.765  28.447  1.00  0.00     0.016 A 
ATOM     37  C   UNL A   1      35.972  32.089  28.151  1.00  0.00     0.016 A 
ATOM     38  C   UNL A   1      36.523  29.506  29.116  1.00  0.00     0.010 A 
ATOM     39  C   UNL A   1      37.165  31.829  28.833  1.00  0.00     0.010 A 
ATOM     40  C   UNL A   1      37.436  30.544  29.340  1.00  0.00    -0.014 A 
BRANCH  40  41
ATOM     41  C   UNL A   1      38.614  30.331  30.218  1.00  0.00     0.031 A 
ATOM     42  C   UNL A   1      39.717  29.426  29.746  1.00  0.00     0.074 A 
ATOM     43  C   UNL A   1      38.692  30.927  31.423  1.00  0.00     0.049 A 
ATOM     44  N   UNL A   1      40.772  28.997  30.389  1.00  0.00    -0.248 NA
ATOM     45  C   UNL A   1      39.608  28.934  28.365  1.00  0.00     0.031 C 
ATOM     46  C   UNL A   1      37.711  31.867  31.963  1.00  0.00     0.029 A 
ATOM     47  N   UNL A   1      39.632  30.813  32.416  1.00  0.00    -0.354 N 
ATOM     48  C   UNL A   1      41.448  28.171  29.495  1.00  0.00     0.074 A 
ATOM     49  C   UNL A   1      40.663  28.139  28.279  1.00  0.00     0.031 C 
ATOM     50  C   UNL A   1      38.092  32.230  33.200  1.00  0.00     0.029 A 
ATOM     51  C   UNL A   1      39.314  31.510  33.558  1.00  0.00     0.049 A 
ATOM     52  H   UNL A   1      40.456  30.283  32.319  1.00  0.00     0.167 HD
ATOM     53  C   UNL A   1      42.616  27.507  29.676  1.00  0.00     0.034 A 
ATOM     54  C   UNL A   1      39.916  31.533  34.765  1.00  0.00     0.034 A 
ATOM     55  C   UNL A   1      43.378  27.546  30.900  1.00  0.00     0.049 A 
ATOM     56  C   UNL A   1      41.164  30.707  34.977  1.00  0.00     0.074 A 
ATOM     57  C   UNL A   1      44.581  26.923  31.187  1.00  0.00     0.029 A 
ATOM     58  N   UNL A   1      43.006  28.234  32.049  1.00  0.00    -0.354 N 
ATOM     59  N   UNL A   1      41.793  29.927  34.128  1.00  0.00    -0.248 NA
ATOM     60  C   UNL A   1      41.784  30.769  36.308  1.00  0.00     0.031 C 
ATOM     61  C   UNL A   1      44.894  27.169  32.528  1.00  0.00     0.029 A 
ATOM     62  C   UNL A   1      43.935  28.020  33.055  1.00  0.00     0.049 A 
ATOM     63  H   UNL A   1      42.200  28.791  32.135  1.00  0.00     0.167 HD
ATOM     64  C   UNL A   1      42.904  29.437  34.812  1.00  0.00     0.074 A 
ATOM     65  C   UNL A   1      42.860  30.013  36.140  1.00  0.00     0.031 C 
ATOM     66  C   UNL A   1      43.879  28.599  34.377  1.00  0.00     0.034 A 
BRANCH  53  67
ATOM     67  C   UNL A   1      43.106  26.639  28.541  1.00  0.00     0.023 A 
ATOM     68  C   UNL A   1      44.165  27.035  27.706  1.00  0.00     0.031 A 
ATOM     69  C   UNL A   1      42.483  25.407  28.274  1.00  0.00     0.131 A 
ATOM     70  C   UNL A   1      44.522  26.241  26.605  1.00  0.00     0.055 A 
ATOM     71  C   UNL A   1      42.897  24.583  27.227  1.00  0.00     0.041 A 
ATOM     72  F   UNL A   1      41.449  24.987  29.021  1.00  0.00    -0.206 F 
ATOM     73  C   UNL A   1      43.914  25.005  26.375  1.00  0.00     0.022 A 
BRANCH  70  74
ATOM     74  S   UNL A   1      45.691  26.916  25.393  1.00  0.00     0.124 S 
ATOM     75  O   UNL A   1      46.077  25.717  24.655  1.00  0.00    -0.237 OA
ATOM     76  O   UNL A   1      44.872  27.880  24.667  1.00  0.00    -0.237 OA
ATOM     77  O   UNL A   1      46.748  27.494  26.223  1.00  0.00    -0.744 OA
ENDBRANCH  70  74
ENDBRANCH  53  67
BRANCH  54  78
ATOM     78  C   UNL A   1      39.330  32.321  35.886  1.00  0.00     0.023 A 
ATOM     79  C   UNL A   1      39.732  33.643  36.133  1.00  0.00     0.031 A 
ATOM     80  C   UNL A   1      38.391  31.744  36.762  1.00  0.00     0.131 A 
ATOM     81  C   UNL A   1      39.235  34.327  37.253  1.00  0.00     0.055 A 
ATOM     82  C   UNL A   1      37.857  32.450  37.841  1.00  0.00     0.041 A 
ATOM     83  F   UNL A   1      37.973  30.482  36.574  1.00  0.00    -0.206 F 
ATOM     84  C   UNL A   1      38.289  33.746  38.100  1.00  0.00     0.022 A 
BRANCH  81  85
ATOM     85  S   UNL A   1      39.914  35.965  37.640  1.00  0.00     0.124 S 
ATOM     86  O   UNL A   1      39.708  36.675  36.382  1.00  0.00    -0.237 OA
ATOM     87  O   UNL A   1      39.076  36.383  38.758  1.00  0.00    -0.237 OA
ATOM     88  O   UNL A   1      41.307  35.684  37.979  1.00  0.00    -0.744 OA
ENDBRANCH  81  85
ENDBRANCH  54  78
BRANCH  66  89
ATOM     89  C   UNL A   1      45.018  28.304  35.326  1.00  0.00     0.023 A 
ATOM     90  C   UNL A   1      44.987  27.218  36.216  1.00  0.00     0.031 A 
ATOM     91  C   UNL A   1      46.161  29.124  35.322  1.00  0.00     0.131 A 
ATOM     92  C   UNL A   1      46.062  27.004  37.095  1.00  0.00     0.055 A 
ATOM     93  C   UNL A   1      47.251  28.873  36.156  1.00  0.00     0.041 A 
ATOM     94  F   UNL A   1      46.244  30.178  34.494  1.00  0.00    -0.206 F 
ATOM     95  C   UNL A   1      47.201  27.814  37.056  1.00  0.00     0.022 A 
BRANCH  92  96
ATOM     96  S   UNL A   1      45.924  25.696  38.345  1.00  0.00     0.124 S 
ATOM     97  O   UNL A   1      45.496  26.446  39.522  1.00  0.00    -0.237 OA
ATOM     98  O   UNL A   1      44.927  24.807  37.758  1.00  0.00    -0.237 OA
ATOM     99  O   UNL A   1      47.277  25.147  38.418  1.00  0.00    -0.744 OA
ENDBRANCH  92  96
ENDBRANCH  66  89
ENDBRANCH  40  41
ENDBRANCH  33  35
ENDBRANCH  32  33
ENDBRANCH  31  32
ENDBRANCH  30  31
ENDBRANCH   1  30
TORSDOF 20
ENDMDL
MODEL 2
REMARK VINA RESULT:     -11.4      2.805      3.663
REMARK SMILES CS(=O)(=O)c1ccc(-c2cc(Cl)cnc2-c2ccc(C(=O)OCCOCCOC(=O)c3ccc(-c4c5nc(c(-c6cc(S(=O)(=O)[O-])ccc6F)c6ccc([nH]6)c(-c6cc(S(=O)(=O)[O-])ccc6F)c6nc(c(-c7cc(S(=O)(=O)[O-])ccc7F)c7ccc4[nH]7)C=C6)C=C5)cc3)nc2)cc1
REMARK SMILES IDX 25 1 24 2 23 3 22 4 20 5 21 6 19 7 16 8 17 9 95 10 18 11
REMARK SMILES IDX 94 12 15 13 9 14 10 15 11 16 14 17 12 18 13 19 8 20 5 21
REMARK SMILES IDX 6 22 97 23 7 24 96 25 2 26 1 27 3 28 4 29 26 30 27 31 28 32
REMARK SMILES IDX 29 33 30 34 31 35 32 36 93 37 33 38 92 39 34 40 35 41 36 42
REMARK SMILES IDX 86 43 37 44 91 45 85 46 87 47 38 48 90 49 84 50 83 51 39 53
REMARK SMILES IDX 71 54 51 55 70 56 52 57 55 58 69 59 88 60 53 61 54 62 68 64
REMARK SMILES IDX 89 65 56 66 40 67 41 68 49 69 42 70 48 71 50 72 47 73 43 74
REMARK SMILES IDX 44 75 45 76 46 77 72 78 73 79 81 80 74 81 80 82 82 83 79 84
REMARK SMILES IDX 75 85 76 86 77 87 78 88 57 89 58 90 66 91 59 92 65 93 67 94
REMARK SMILES IDX 64 95 60 96 61 97 62 98 63 99
REMARK H PARENT 87 52 55 63
REMARK Flexibility Score: inf
ROOT
ATOM      1  O   UNL A   1      32.211  27.587  25.107  1.00  0.00    -0.374 OA
ENDROOT
BRANCH   1   2
ATOM      2  C   UNL A   1      33.051  28.262  24.170  1.00  0.00     0.202 C 
BRANCH   2   3
ATOM      3  C   UNL A   1      32.843  27.919  22.693  1.00  0.00     0.261 C 
BRANCH   3   4
ATOM      4  O   UNL A   1      31.674  27.101  22.526  1.00  0.00    -0.459 OA
BRANCH   4   5
ATOM      5  C   UNL A   1      31.829  26.049  21.683  1.00  0.00     0.356 C 
ATOM      6  O   UNL A   1      31.675  26.059  20.471  1.00  0.00    -0.244 OA
BRANCH   5   7
ATOM      7  C   UNL A   1      32.323  24.868  22.446  1.00  0.00     0.148 A 
ATOM      8  C   UNL A   1      33.119  22.479  23.537  1.00  0.00     0.019 A 
ATOM      9  C   UNL A   1      32.132  23.241  24.179  1.00  0.00     0.014 A 
ATOM     10  C   UNL A   1      33.753  23.055  22.439  1.00  0.00     0.122 A 
ATOM     11  C   UNL A   1      31.721  24.454  23.627  1.00  0.00     0.037 A 
ATOM     12  N   UNL A   1      33.368  24.214  21.869  1.00  0.00    -0.249 NA
BRANCH   8  13
ATOM     13  C   UNL A   1      33.315  21.052  23.808  1.00  0.00     0.080 A 
ATOM     14  C   UNL A   1      34.447  20.596  24.527  1.00  0.00     0.010 A 
ATOM     15  C   UNL A   1      34.513  19.227  24.823  1.00  0.00     0.033 A 
ATOM     16  C   UNL A   1      33.482  18.384  24.425  1.00  0.00     0.060 A 
ATOM     17  N   UNL A   1      32.295  20.241  23.425  1.00  0.00    -0.254 NA
ATOM     18  Cl  UNL A   1      33.533  16.709  24.797  1.00  0.00    -0.083 Cl
ATOM     19  C   UNL A   1      32.409  18.926  23.735  1.00  0.00     0.132 A 
BRANCH  14  20
ATOM     20  C   UNL A   1      35.518  21.511  24.972  1.00  0.00    -0.016 A 
ATOM     21  C   UNL A   1      37.608  23.082  26.009  1.00  0.00     0.067 A 
ATOM     22  C   UNL A   1      37.879  22.157  25.003  1.00  0.00     0.021 A 
ATOM     23  C   UNL A   1      36.304  23.244  26.487  1.00  0.00     0.021 A 
ATOM     24  C   UNL A   1      36.833  21.388  24.481  1.00  0.00     0.010 A 
ATOM     25  C   UNL A   1      35.266  22.467  25.967  1.00  0.00     0.010 A 
BRANCH  21  26
ATOM     26  S   UNL A   1      38.894  24.079  26.727  1.00  0.00     0.175 S 
ATOM     27  C   UNL A   1      40.090  22.970  27.418  1.00  0.00     0.163 C 
ATOM     28  O   UNL A   1      38.286  24.792  27.833  1.00  0.00    -0.224 OA
ATOM     29  O   UNL A   1      39.514  24.786  25.623  1.00  0.00    -0.224 OA
ENDBRANCH  21  26
ENDBRANCH  14  20
ENDBRANCH   8  13
ENDBRANCH   5   7
ENDBRANCH   4   5
ENDBRANCH   3   4
ENDBRANCH   2   3
ENDBRANCH   1   2
BRANCH   1  30
ATOM     30  C   UNL A   1      31.508  28.381  26.064  1.00  0.00     0.202 C 
BRANCH  30  31
ATOM     31  C   UNL A   1      31.928  29.849  26.210  1.00  0.00     0.261 C 
BRANCH  31  32
ATOM     32  O   UNL A   1      32.739  30.085  27.375  1.00  0.00    -0.460 OA
BRANCH  32  33
ATOM     33  C   UNL A   1      33.385  31.276  27.385  1.00  0.00     0.338 C 
ATOM     34  O   UNL A   1      32.894  32.380  27.185  1.00  0.00    -0.246 OA
BRANCH  33  35
ATOM     35  C   UNL A   1      34.763  31.091  27.870  1.00  0.00     0.060 A 
ATOM     36  C   UNL A   1      35.135  29.819  28.328  1.00  0.00     0.016 A 
ATOM     37  C   UNL A   1      35.662  32.158  27.931  1.00  0.00     0.016 A 
ATOM     38  C   UNL A   1      36.400  29.615  28.877  1.00  0.00     0.010 A 
ATOM     39  C   UNL A   1      36.926  31.953  28.493  1.00  0.00     0.010 A 
ATOM     40  C   UNL A   1      37.293  30.688  28.990  1.00  0.00    -0.014 A 
BRANCH  40  41
ATOM     41  C   UNL A   1      38.560  30.532  29.747  1.00  0.00     0.031 A 
ATOM     42  C   UNL A   1      39.655  29.684  29.164  1.00  0.00     0.074 A 
ATOM     43  C   UNL A   1      38.727  31.129  30.942  1.00  0.00     0.049 A 
ATOM     44  N   UNL A   1      40.788  29.307  29.697  1.00  0.00    -0.248 NA
ATOM     45  C   UNL A   1      39.435  29.189  27.797  1.00  0.00     0.031 C 
ATOM     46  C   UNL A   1      37.758  32.019  31.581  1.00  0.00     0.029 A 
ATOM     47  N   UNL A   1      39.765  31.061  31.838  1.00  0.00    -0.354 N 
ATOM     48  C   UNL A   1      41.413  28.517  28.736  1.00  0.00     0.074 A 
ATOM     49  C   UNL A   1      40.515  28.447  27.603  1.00  0.00     0.031 C 
ATOM     50  C   UNL A   1      38.241  32.398  32.778  1.00  0.00     0.029 A 
ATOM     51  C   UNL A   1      39.526  31.740  33.010  1.00  0.00     0.049 A 
ATOM     52  H   UNL A   1      40.600  30.573  31.658  1.00  0.00     0.167 HD
ATOM     53  C   UNL A   1      42.625  27.912  28.798  1.00  0.00     0.034 A 
ATOM     54  C   UNL A   1      40.242  31.791  34.152  1.00  0.00     0.034 A 
ATOM     55  C   UNL A   1      43.501  27.986  29.942  1.00  0.00     0.049 A 
ATOM     56  C   UNL A   1      41.543  31.028  34.236  1.00  0.00     0.074 A 
ATOM     57  C   UNL A   1      44.755  27.424  30.105  1.00  0.00     0.029 A 
ATOM     58  N   UNL A   1      43.209  28.653  31.125  1.00  0.00    -0.354 N 
ATOM     59  N   UNL A   1      42.123  30.281  33.324  1.00  0.00    -0.248 NA
ATOM     60  C   UNL A   1      42.287  31.118  35.500  1.00  0.00     0.031 C 
ATOM     61  C   UNL A   1      45.185  27.684  31.411  1.00  0.00     0.029 A 
ATOM     62  C   UNL A   1      44.242  28.485  32.035  1.00  0.00     0.049 A 
ATOM     63  H   UNL A   1      42.389  29.170  31.294  1.00  0.00     0.167 HD
ATOM     64  C   UNL A   1      43.319  29.846  33.893  1.00  0.00     0.074 A 
ATOM     65  C   UNL A   1      43.377  30.417  35.222  1.00  0.00     0.031 C 
ATOM     66  C   UNL A   1      44.287  29.058  33.360  1.00  0.00     0.034 A 
BRANCH  53  67
ATOM     67  C   UNL A   1      43.043  27.071  27.615  1.00  0.00     0.023 A 
ATOM     68  C   UNL A   1      43.092  25.667  27.681  1.00  0.00     0.031 A 
ATOM     69  C   UNL A   1      43.424  27.686  26.409  1.00  0.00     0.131 A 
ATOM     70  C   UNL A   1      43.579  24.932  26.589  1.00  0.00     0.055 A 
ATOM     71  C   UNL A   1      43.829  26.944  25.299  1.00  0.00     0.041 A 
ATOM     72  F   UNL A   1      43.422  29.024  26.293  1.00  0.00    -0.206 F 
ATOM     73  C   UNL A   1      43.922  25.558  25.389  1.00  0.00     0.022 A 
BRANCH  70  74
ATOM     74  S   UNL A   1      43.897  23.160  26.811  1.00  0.00     0.124 S 
ATOM     75  O   UNL A   1      43.121  22.582  25.718  1.00  0.00    -0.237 OA
ATOM     76  O   UNL A   1      45.347  23.080  26.679  1.00  0.00    -0.237 OA
ATOM     77  O   UNL A   1      43.375  22.884  28.150  1.00  0.00    -0.744 OA
ENDBRANCH  70  74
ENDBRANCH  53  67
BRANCH  54  78
ATOM     78  C   UNL A   1      39.730  32.547  35.330  1.00  0.00     0.023 A 
ATOM     79  C   UNL A   1      38.999  31.907  36.343  1.00  0.00     0.031 A 
ATOM     80  C   UNL A   1      39.921  33.938  35.436  1.00  0.00     0.131 A 
ATOM     81  C   UNL A   1      38.446  32.660  37.390  1.00  0.00     0.055 A 
ATOM     82  C   UNL A   1      39.418  34.674  36.510  1.00  0.00     0.041 A 
ATOM     83  F   UNL A   1      40.610  34.602  34.493  1.00  0.00    -0.206 F 
ATOM     84  C   UNL A   1      38.663  34.037  37.489  1.00  0.00     0.022 A 
BRANCH  81  85
ATOM     85  S   UNL A   1      37.359  31.826  38.578  1.00  0.00     0.124 S 
ATOM     86  O   UNL A   1      37.168  30.527  37.943  1.00  0.00    -0.237 OA
ATOM     87  O   UNL A   1      38.173  31.834  39.790  1.00  0.00    -0.237 OA
ATOM     88  O   UNL A   1      36.177  32.683  38.619  1.00  0.00    -0.744 OA
ENDBRANCH  81  85
ENDBRANCH  54  78
BRANCH  66  89
ATOM     89  C   UNL A   1      45.527  28.819  34.191  1.00  0.00     0.023 A 
ATOM     90  C   UNL A   1      45.668  27.690  35.014  1.00  0.00     0.031 A 
ATOM     91  C   UNL A   1      46.590  29.739  34.140  1.00  0.00     0.131 A 
ATOM     92  C   UNL A   1      46.831  27.529  35.785  1.00  0.00     0.055 A 
ATOM     93  C   UNL A   1      47.768  29.544  34.863  1.00  0.00     0.041 A 
ATOM     94  F   UNL A   1      46.508  30.837  33.372  1.00  0.00    -0.206 F 
ATOM     95  C   UNL A   1      47.889  28.440  35.700  1.00  0.00     0.022 A 
BRANCH  92  96
ATOM     96  S   UNL A   1      46.918  26.151  36.962  1.00  0.00     0.124 S 
ATOM     97  O   UNL A   1      48.092  25.423  36.490  1.00  0.00    -0.237 OA
ATOM     98  O   UNL A   1      47.066  26.840  38.240  1.00  0.00    -0.237 OA
ATOM     99  O   UNL A   1      45.643  25.459  36.776  1.00  0.00    -0.744 OA
ENDBRANCH  92  96
ENDBRANCH  66  89
ENDBRANCH  40  41
ENDBRANCH  33  35
ENDBRANCH  32  33
ENDBRANCH  31  32
ENDBRANCH  30  31
ENDBRANCH   1  30
TORSDOF 20
ENDMDL
MODEL 3
REMARK VINA RESULT:     -11.4      8.007     10.371
REMARK SMILES CS(=O)(=O)c1ccc(-c2cc(Cl)cnc2-c2ccc(C(=O)OCCOCCOC(=O)c3ccc(-c4c5nc(c(-c6cc(S(=O)(=O)[O-])ccc6F)c6ccc([nH]6)c(-c6cc(S(=O)(=O)[O-])ccc6F)c6nc(c(-c7cc(S(=O)(=O)[O-])ccc7F)c7ccc4[nH]7)C=C6)C=C5)cc3)nc2)cc1
REMARK SMILES IDX 25 1 24 2 23 3 22 4 20 5 21 6 19 7 16 8 17 9 95 10 18 11
REMARK SMILES IDX 94 12 15 13 9 14 10 15 11 16 14 17 12 18 13 19 8 20 5 21
REMARK SMILES IDX 6 22 97 23 7 24 96 25 2 26 1 27 3 28 4 29 26 30 27 31 28 32
REMARK SMILES IDX 29 33 30 34 31 35 32 36 93 37 33 38 92 39 34 40 35 41 36 42
REMARK SMILES IDX 86 43 37 44 91 45 85 46 87 47 38 48 90 49 84 50 83 51 39 53
REMARK SMILES IDX 71 54 51 55 70 56 52 57 55 58 69 59 88 60 53 61 54 62 68 64
REMARK SMILES IDX 89 65 56 66 40 67 41 68 49 69 42 70 48 71 50 72 47 73 43 74
REMARK SMILES IDX 44 75 45 76 46 77 72 78 73 79 81 80 74 81 80 82 82 83 79 84
REMARK SMILES IDX 75 85 76 86 77 87 78 88 57 89 58 90 66 91 59 92 65 93 67 94
REMARK SMILES IDX 64 95 60 96 61 97 62 98 63 99
REMARK H PARENT 87 52 55 63
REMARK Flexibility Score: inf
ROOT
ATOM      1  O   UNL A   1      34.323  32.685  29.897  1.00  0.00    -0.374 OA
ENDROOT
BRANCH   1   2
ATOM      2  C   UNL A   1      34.221  32.866  28.484  1.00  0.00     0.202 C 
BRANCH   2   3
ATOM      3  C   UNL A   1      34.588  31.663  27.612  1.00  0.00     0.261 C 
BRANCH   3   4
ATOM      4  O   UNL A   1      33.784  30.524  27.958  1.00  0.00    -0.459 OA
BRANCH   4   5
ATOM      5  C   UNL A   1      32.737  30.291  27.128  1.00  0.00     0.356 C 
ATOM      6  O   UNL A   1      32.010  31.131  26.620  1.00  0.00    -0.244 OA
BRANCH   5   7
ATOM      7  C   UNL A   1      32.652  28.832  26.831  1.00  0.00     0.148 A 
ATOM      8  C   UNL A   1      32.487  26.255  25.904  1.00  0.00     0.019 A 
ATOM      9  C   UNL A   1      31.472  26.762  26.730  1.00  0.00     0.014 A 
ATOM     10  C   UNL A   1      33.611  27.054  25.715  1.00  0.00     0.122 A 
ATOM     11  C   UNL A   1      31.549  28.073  27.200  1.00  0.00     0.037 A 
ATOM     12  N   UNL A   1      33.709  28.329  26.138  1.00  0.00    -0.249 NA
BRANCH   8  13
ATOM     13  C   UNL A   1      32.297  25.074  25.057  1.00  0.00     0.080 A 
ATOM     14  C   UNL A   1      31.446  25.119  23.925  1.00  0.00     0.010 A 
ATOM     15  C   UNL A   1      31.389  23.975  23.117  1.00  0.00     0.033 A 
ATOM     16  C   UNL A   1      32.165  22.866  23.435  1.00  0.00     0.060 A 
ATOM     17  N   UNL A   1      33.068  24.001  25.371  1.00  0.00    -0.254 NA
ATOM     18  Cl  UNL A   1      32.127  21.464  22.445  1.00  0.00    -0.083 Cl
ATOM     19  C   UNL A   1      32.976  22.922  24.557  1.00  0.00     0.132 A 
BRANCH  14  20
ATOM     20  C   UNL A   1      30.654  26.318  23.583  1.00  0.00    -0.016 A 
ATOM     21  C   UNL A   1      29.195  28.687  23.172  1.00  0.00     0.067 A 
ATOM     22  C   UNL A   1      30.545  28.645  22.829  1.00  0.00     0.021 A 
ATOM     23  C   UNL A   1      28.563  27.556  23.698  1.00  0.00     0.021 A 
ATOM     24  C   UNL A   1      31.262  27.459  23.023  1.00  0.00     0.010 A 
ATOM     25  C   UNL A   1      29.288  26.379  23.897  1.00  0.00     0.010 A 
BRANCH  21  26
ATOM     26  S   UNL A   1      28.230  30.168  22.967  1.00  0.00     0.175 S 
ATOM     27  C   UNL A   1      28.093  30.465  21.227  1.00  0.00     0.163 C 
ATOM     28  O   UNL A   1      29.020  31.249  23.523  1.00  0.00    -0.224 OA
ATOM     29  O   UNL A   1      26.910  29.856  23.481  1.00  0.00    -0.224 OA
ENDBRANCH  21  26
ENDBRANCH  14  20
ENDBRANCH   8  13
ENDBRANCH   5   7
ENDBRANCH   4   5
ENDBRANCH   3   4
ENDBRANCH   2   3
ENDBRANCH   1   2
BRANCH   1  30
ATOM     30  C   UNL A   1      34.284  33.850  30.722  1.00  0.00     0.202 C 
BRANCH  30  31
ATOM     31  C   UNL A   1      35.434  34.053  31.716  1.00  0.00     0.261 C 
BRANCH  31  32
ATOM     32  O   UNL A   1      36.687  34.338  31.069  1.00  0.00    -0.460 OA
BRANCH  32  33
ATOM     33  C   UNL A   1      37.717  33.544  31.451  1.00  0.00     0.338 C 
ATOM     34  O   UNL A   1      37.641  32.481  32.056  1.00  0.00    -0.246 OA
BRANCH  33  35
ATOM     35  C   UNL A   1      38.974  34.041  30.866  1.00  0.00     0.060 A 
ATOM     36  C   UNL A   1      38.994  34.325  29.493  1.00  0.00     0.016 A 
ATOM     37  C   UNL A   1      40.132  34.173  31.635  1.00  0.00     0.016 A 
ATOM     38  C   UNL A   1      40.182  34.715  28.876  1.00  0.00     0.010 A 
ATOM     39  C   UNL A   1      41.325  34.553  31.011  1.00  0.00     0.010 A 
ATOM     40  C   UNL A   1      41.361  34.802  29.626  1.00  0.00    -0.014 A 
BRANCH  40  41
ATOM     41  C   UNL A   1      42.665  35.021  28.950  1.00  0.00     0.031 A 
ATOM     42  C   UNL A   1      43.631  33.875  28.847  1.00  0.00     0.074 A 
ATOM     43  C   UNL A   1      42.985  36.228  28.446  1.00  0.00     0.049 A 
ATOM     44  N   UNL A   1      44.865  33.865  28.415  1.00  0.00    -0.248 NA
ATOM     45  C   UNL A   1      43.138  32.566  29.300  1.00  0.00     0.031 C 
ATOM     46  C   UNL A   1      42.108  37.397  28.438  1.00  0.00     0.029 A 
ATOM     47  N   UNL A   1      44.145  36.672  27.861  1.00  0.00    -0.354 N 
ATOM     48  C   UNL A   1      45.304  32.551  28.558  1.00  0.00     0.074 A 
ATOM     49  C   UNL A   1      44.210  31.806  29.145  1.00  0.00     0.031 C 
ATOM     50  C   UNL A   1      42.769  38.433  27.892  1.00  0.00     0.029 A 
ATOM     51  C   UNL A   1      44.130  38.014  27.560  1.00  0.00     0.049 A 
ATOM     52  H   UNL A   1      44.913  36.085  27.675  1.00  0.00     0.167 HD
ATOM     53  C   UNL A   1      46.507  32.021  28.225  1.00  0.00     0.034 A 
ATOM     54  C   UNL A   1      45.113  38.818  27.107  1.00  0.00     0.034 A 
ATOM     55  C   UNL A   1      47.588  32.785  27.650  1.00  0.00     0.049 A 
ATOM     56  C   UNL A   1      46.477  38.228  26.836  1.00  0.00     0.074 A 
ATOM     57  C   UNL A   1      48.842  32.346  27.262  1.00  0.00     0.029 A 
ATOM     58  N   UNL A   1      47.549  34.150  27.393  1.00  0.00    -0.354 N 
ATOM     59  N   UNL A   1      46.884  36.987  26.977  1.00  0.00    -0.248 NA
ATOM     60  C   UNL A   1      47.513  39.145  26.340  1.00  0.00     0.031 C 
ATOM     61  C   UNL A   1      49.585  33.456  26.846  1.00  0.00     0.029 A 
ATOM     62  C   UNL A   1      48.768  34.575  26.887  1.00  0.00     0.049 A 
ATOM     63  H   UNL A   1      46.770  34.731  27.547  1.00  0.00     0.167 HD
ATOM     64  C   UNL A   1      48.210  36.969  26.550  1.00  0.00     0.074 A 
ATOM     65  C   UNL A   1      48.533  38.321  26.144  1.00  0.00     0.031 C 
ATOM     66  C   UNL A   1      49.078  35.927  26.487  1.00  0.00     0.034 A 
BRANCH  53  67
ATOM     67  C   UNL A   1      46.731  30.559  28.532  1.00  0.00     0.023 A 
ATOM     68  C   UNL A   1      46.326  29.544  27.648  1.00  0.00     0.031 A 
ATOM     69  C   UNL A   1      47.337  30.176  29.741  1.00  0.00     0.131 A 
ATOM     70  C   UNL A   1      46.467  28.197  28.017  1.00  0.00     0.055 A 
ATOM     71  C   UNL A   1      47.549  28.835  30.067  1.00  0.00     0.041 A 
ATOM     72  F   UNL A   1      47.722  31.098  30.637  1.00  0.00    -0.206 F 
ATOM     73  C   UNL A   1      47.100  27.835  29.208  1.00  0.00     0.022 A 
BRANCH  70  74
ATOM     74  S   UNL A   1      45.678  26.930  26.986  1.00  0.00     0.124 S 
ATOM     75  O   UNL A   1      46.598  25.807  27.144  1.00  0.00    -0.237 OA
ATOM     76  O   UNL A   1      44.371  26.780  27.616  1.00  0.00    -0.237 OA
ATOM     77  O   UNL A   1      45.665  27.533  25.654  1.00  0.00    -0.744 OA
ENDBRANCH  70  74
ENDBRANCH  53  67
BRANCH  54  78
ATOM     78  C   UNL A   1      44.870  40.278  26.926  1.00  0.00     0.023 A 
ATOM     79  C   UNL A   1      44.364  40.787  25.720  1.00  0.00     0.031 A 
ATOM     80  C   UNL A   1      45.191  41.196  27.944  1.00  0.00     0.131 A 
ATOM     81  C   UNL A   1      44.237  42.173  25.543  1.00  0.00     0.055 A 
ATOM     82  C   UNL A   1      45.008  42.571  27.784  1.00  0.00     0.041 A 
ATOM     83  F   UNL A   1      45.681  40.765  29.117  1.00  0.00    -0.206 F 
ATOM     84  C   UNL A   1      44.541  43.068  26.572  1.00  0.00     0.022 A 
BRANCH  81  85
ATOM     85  S   UNL A   1      43.751  42.798  23.911  1.00  0.00     0.124 S 
ATOM     86  O   UNL A   1      42.624  41.931  23.586  1.00  0.00    -0.237 OA
ATOM     87  O   UNL A   1      43.426  44.190  24.205  1.00  0.00    -0.237 OA
ATOM     88  O   UNL A   1      44.949  42.598  23.099  1.00  0.00    -0.744 OA
ENDBRANCH  81  85
ENDBRANCH  54  78
BRANCH  66  89
ATOM     89  C   UNL A   1      50.443  36.193  25.896  1.00  0.00     0.023 A 
ATOM     90  C   UNL A   1      51.583  36.375  26.698  1.00  0.00     0.031 A 
ATOM     91  C   UNL A   1      50.601  36.250  24.499  1.00  0.00     0.131 A 
ATOM     92  C   UNL A   1      52.823  36.645  26.097  1.00  0.00     0.055 A 
ATOM     93  C   UNL A   1      51.847  36.460  23.906  1.00  0.00     0.041 A 
ATOM     94  F   UNL A   1      49.546  36.086  23.684  1.00  0.00    -0.206 F 
ATOM     95  C   UNL A   1      52.965  36.669  24.706  1.00  0.00     0.022 A 
BRANCH  92  96
ATOM     96  S   UNL A   1      54.242  37.038  27.157  1.00  0.00     0.124 S 
ATOM     97  O   UNL A   1      55.157  35.941  26.859  1.00  0.00    -0.237 OA
ATOM     98  O   UNL A   1      54.643  38.354  26.667  1.00  0.00    -0.237 OA
ATOM     99  O   UNL A   1      53.678  37.026  28.506  1.00  0.00    -0.744 OA
ENDBRANCH  92  96
ENDBRANCH  66  89
ENDBRANCH  40  41
ENDBRANCH  33  35
ENDBRANCH  32  33
ENDBRANCH  31  32
ENDBRANCH  30  31
ENDBRANCH   1  30
TORSDOF 20
ENDMDL
