MODEL 1
REMARK VINA RESULT:     -11.9      0.000      0.000
REMARK SMILES C[C@H]1[C@@H](C(=O)OCCOCCOC(=O)c2ccc(-c3c4nc(c(-c5cc(S(=O)(=O)[O-])ccc5F)c5ccc([nH]5)c(-c5cc(S(=O)(=O)[O-])ccc5F)c5nc(c(-c6cc(S(=O)(=O)[O-])ccc6F)c6ccc3[nH]6)C=C5)C=C4)cc2)CCN1S(=O)(=O)c1c[nH]c2ncccc12
REMARK SMILES IDX 10 1 9 2 8 3 7 4 6 5 4 6 5 7 3 8 1 9 2 10 80 11 78 12 79 13
REMARK SMILES IDX 81 14 82 15 83 16 84 17 85 18 92 19 86 20 87 21 91 22 88 24
REMARK SMILES IDX 90 25 89 26 11 27 12 28 13 29 14 30 15 31 16 32 77 33 17 34
REMARK SMILES IDX 76 35 18 36 19 37 20 38 70 39 21 40 75 41 69 42 71 43 22 44
REMARK SMILES IDX 74 45 68 46 67 47 23 49 55 50 35 51 54 52 36 53 39 54 53 55
REMARK SMILES IDX 72 56 37 57 38 58 52 60 73 61 40 62 24 63 25 64 33 65 26 66
REMARK SMILES IDX 32 67 34 68 31 69 27 70 28 71 29 72 30 73 56 74 57 75 65 76
REMARK SMILES IDX 58 77 64 78 66 79 63 80 59 81 60 82 61 83 62 84 41 85 42 86
REMARK SMILES IDX 50 87 43 88 49 89 51 90 48 91 44 92 45 93 46 94 47 95
REMARK H PARENT 86 23 71 48 39 59
REMARK Flexibility Score: inf
ROOT
ATOM      1  C   UNL A   1      30.832  31.329  25.646  1.00  0.00     0.202 C 
ENDROOT
BRANCH   1   2
ATOM      2  O   UNL A   1      31.557  30.122  25.422  1.00  0.00    -0.374 OA
BRANCH   2   3
ATOM      3  C   UNL A   1      31.098  29.290  24.351  1.00  0.00     0.202 C 
BRANCH   3   4
ATOM      4  C   UNL A   1      32.109  29.080  23.220  1.00  0.00     0.261 C 
BRANCH   4   5
ATOM      5  O   UNL A   1      33.225  28.302  23.700  1.00  0.00    -0.463 OA
BRANCH   5   6
ATOM      6  C   UNL A   1      33.453  27.121  23.093  1.00  0.00     0.310 C 
ATOM      7  O   UNL A   1      33.915  27.000  21.963  1.00  0.00    -0.252 OA
BRANCH   6   8
ATOM      8  C   UNL A   1      33.142  25.911  23.956  1.00  0.00     0.118 C 
ATOM      9  C   UNL A   1      30.536  25.872  23.364  1.00  0.00     0.027 C 
ATOM     10  C   UNL A   1      31.762  25.224  23.996  1.00  0.00     0.084 C 
ATOM     11  N   UNL A   1      31.438  25.013  25.446  1.00  0.00    -0.194 NA
ATOM     12  C   UNL A   1      33.506  26.196  25.417  1.00  0.00     0.034 C 
ATOM     13  C   UNL A   1      32.242  25.978  26.224  1.00  0.00     0.104 C 
BRANCH  11  14
ATOM     14  S   UNL A   1      31.478  23.421  26.044  1.00  0.00     0.245 S 
ATOM     15  O   UNL A   1      30.792  23.418  27.318  1.00  0.00    -0.207 OA
ATOM     16  O   UNL A   1      31.067  22.541  24.970  1.00  0.00    -0.207 OA
BRANCH  14  17
ATOM     17  C   UNL A   1      33.103  22.963  26.428  1.00  0.00     0.109 A 
ATOM     18  C   UNL A   1      33.574  22.678  27.702  1.00  0.00     0.106 A 
ATOM     19  C   UNL A   1      34.175  22.725  25.514  1.00  0.00     0.039 A 
ATOM     20  N   UNL A   1      34.889  22.313  27.596  1.00  0.00    -0.345 N 
ATOM     21  C   UNL A   1      35.256  22.299  26.282  1.00  0.00     0.138 A 
ATOM     22  C   UNL A   1      34.384  22.783  24.122  1.00  0.00     0.015 A 
ATOM     23  H   UNL A   1      35.480  22.095  28.353  1.00  0.00     0.168 HD
ATOM     24  N   UNL A   1      36.473  21.916  25.858  1.00  0.00    -0.239 NA
ATOM     25  C   UNL A   1      35.632  22.395  23.627  1.00  0.00     0.021 A 
ATOM     26  C   UNL A   1      36.610  21.979  24.517  1.00  0.00     0.113 A 
ENDBRANCH  14  17
ENDBRANCH  11  14
ENDBRANCH   6   8
ENDBRANCH   5   6
ENDBRANCH   4   5
ENDBRANCH   3   4
ENDBRANCH   2   3
ENDBRANCH   1   2
BRANCH   1  27
ATOM     27  C   UNL A   1      31.433  32.311  26.657  1.00  0.00     0.261 C 
BRANCH  27  28
ATOM     28  O   UNL A   1      32.676  31.824  27.183  1.00  0.00    -0.460 OA
BRANCH  28  29
ATOM     29  C   UNL A   1      33.446  32.791  27.737  1.00  0.00     0.338 C 
ATOM     30  O   UNL A   1      33.067  33.877  28.144  1.00  0.00    -0.246 OA
BRANCH  29  31
ATOM     31  C   UNL A   1      34.812  32.286  27.974  1.00  0.00     0.060 A 
ATOM     32  C   UNL A   1      34.940  30.907  28.177  1.00  0.00     0.016 A 
ATOM     33  C   UNL A   1      35.929  33.123  28.065  1.00  0.00     0.016 A 
ATOM     34  C   UNL A   1      36.158  30.374  28.575  1.00  0.00     0.010 A 
ATOM     35  C   UNL A   1      37.158  32.582  28.457  1.00  0.00     0.010 A 
ATOM     36  C   UNL A   1      37.260  31.215  28.774  1.00  0.00    -0.014 A 
BRANCH  36  37
ATOM     37  C   UNL A   1      38.430  30.672  29.507  1.00  0.00     0.031 A 
ATOM     38  C   UNL A   1      38.629  31.066  30.947  1.00  0.00     0.074 A 
ATOM     39  C   UNL A   1      39.231  29.757  28.932  1.00  0.00     0.049 A 
ATOM     40  N   UNL A   1      39.525  30.655  31.806  1.00  0.00    -0.248 NA
ATOM     41  C   UNL A   1      37.688  32.059  31.490  1.00  0.00     0.031 C 
ATOM     42  C   UNL A   1      39.102  29.269  27.559  1.00  0.00     0.029 A 
ATOM     43  N   UNL A   1      40.298  29.059  29.438  1.00  0.00    -0.354 N 
ATOM     44  C   UNL A   1      39.255  31.335  32.991  1.00  0.00     0.074 A 
ATOM     45  C   UNL A   1      38.148  32.226  32.720  1.00  0.00     0.031 C 
ATOM     46  C   UNL A   1      40.044  28.337  27.337  1.00  0.00     0.029 A 
ATOM     47  C   UNL A   1      40.863  28.187  28.537  1.00  0.00     0.049 A 
ATOM     48  H   UNL A   1      40.626  29.171  30.359  1.00  0.00     0.167 HD
ATOM     49  C   UNL A   1      39.863  31.214  34.197  1.00  0.00     0.034 A 
ATOM     50  C   UNL A   1      41.927  27.368  28.667  1.00  0.00     0.034 A 
ATOM     51  C   UNL A   1      40.971  30.324  34.444  1.00  0.00     0.049 A 
ATOM     52  C   UNL A   1      42.635  27.306  29.999  1.00  0.00     0.074 A 
ATOM     53  C   UNL A   1      41.662  30.114  35.624  1.00  0.00     0.029 A 
ATOM     54  N   UNL A   1      41.559  29.501  33.490  1.00  0.00    -0.354 N 
ATOM     55  N   UNL A   1      42.363  27.946  31.114  1.00  0.00    -0.248 NA
ATOM     56  C   UNL A   1      43.782  26.395  30.094  1.00  0.00     0.031 C 
ATOM     57  C   UNL A   1      42.714  29.229  35.366  1.00  0.00     0.029 A 
ATOM     58  C   UNL A   1      42.625  28.811  34.047  1.00  0.00     0.049 A 
ATOM     59  H   UNL A   1      41.262  29.421  32.555  1.00  0.00     0.167 HD
ATOM     60  C   UNL A   1      43.287  27.487  32.051  1.00  0.00     0.074 A 
ATOM     61  C   UNL A   1      44.103  26.501  31.374  1.00  0.00     0.031 C 
ATOM     62  C   UNL A   1      43.443  27.841  33.354  1.00  0.00     0.034 A 
BRANCH  49  63
ATOM     63  C   UNL A   1      39.374  32.106  35.315  1.00  0.00     0.023 A 
ATOM     64  C   UNL A   1      39.829  33.428  35.468  1.00  0.00     0.031 A 
ATOM     65  C   UNL A   1      38.462  31.613  36.266  1.00  0.00     0.131 A 
ATOM     66  C   UNL A   1      39.431  34.183  36.582  1.00  0.00     0.055 A 
ATOM     67  C   UNL A   1      38.003  32.399  37.325  1.00  0.00     0.041 A 
ATOM     68  F   UNL A   1      38.012  30.350  36.191  1.00  0.00    -0.206 F 
ATOM     69  C   UNL A   1      38.499  33.686  37.497  1.00  0.00     0.022 A 
BRANCH  66  70
ATOM     70  S   UNL A   1      40.263  35.763  36.905  1.00  0.00     0.124 S 
ATOM     71  O   UNL A   1      39.694  36.614  35.863  1.00  0.00    -0.237 OA
ATOM     72  O   UNL A   1      39.851  36.062  38.272  1.00  0.00    -0.237 OA
ATOM     73  O   UNL A   1      41.679  35.445  36.735  1.00  0.00    -0.744 OA
ENDBRANCH  66  70
ENDBRANCH  49  63
BRANCH  50  74
ATOM     74  C   UNL A   1      42.407  26.563  27.507  1.00  0.00     0.023 A 
ATOM     75  C   UNL A   1      42.014  25.226  27.331  1.00  0.00     0.031 A 
ATOM     76  C   UNL A   1      43.318  27.107  26.583  1.00  0.00     0.131 A 
ATOM     77  C   UNL A   1      42.568  24.465  26.290  1.00  0.00     0.055 A 
ATOM     78  C   UNL A   1      43.821  26.364  25.515  1.00  0.00     0.041 A 
ATOM     79  F   UNL A   1      43.729  28.380  26.703  1.00  0.00    -0.206 F 
ATOM     80  C   UNL A   1      43.458  25.028  25.372  1.00  0.00     0.022 A 
BRANCH  77  81
ATOM     81  S   UNL A   1      42.184  22.694  26.208  1.00  0.00     0.124 S 
ATOM     82  O   UNL A   1      42.869  22.186  27.390  1.00  0.00    -0.237 OA
ATOM     83  O   UNL A   1      40.726  22.699  26.263  1.00  0.00    -0.237 OA
ATOM     84  O   UNL A   1      42.755  22.282  24.928  1.00  0.00    -0.744 OA
ENDBRANCH  77  81
ENDBRANCH  50  74
BRANCH  62  85
ATOM     85  C   UNL A   1      44.515  27.117  34.137  1.00  0.00     0.023 A 
ATOM     86  C   UNL A   1      44.328  25.809  34.617  1.00  0.00     0.031 A 
ATOM     87  C   UNL A   1      45.730  27.760  34.435  1.00  0.00     0.131 A 
ATOM     88  C   UNL A   1      45.302  25.218  35.436  1.00  0.00     0.055 A 
ATOM     89  C   UNL A   1      46.728  27.137  35.185  1.00  0.00     0.041 A 
ATOM     90  F   UNL A   1      45.966  29.011  34.006  1.00  0.00    -0.206 F 
ATOM     91  C   UNL A   1      46.509  25.866  35.707  1.00  0.00     0.022 A 
BRANCH  88  92
ATOM     92  S   UNL A   1      44.911  23.647  36.253  1.00  0.00     0.124 S 
ATOM     93  O   UNL A   1      45.966  22.772  35.749  1.00  0.00    -0.237 OA
ATOM     94  O   UNL A   1      44.999  24.001  37.666  1.00  0.00    -0.237 OA
ATOM     95  O   UNL A   1      43.565  23.337  35.773  1.00  0.00    -0.744 OA
ENDBRANCH  88  92
ENDBRANCH  62  85
ENDBRANCH  36  37
ENDBRANCH  29  31
ENDBRANCH  28  29
ENDBRANCH  27  28
ENDBRANCH   1  27
TORSDOF 19
ENDMDL
MODEL 2
REMARK VINA RESULT:     -11.8      1.622      7.575
REMARK SMILES C[C@H]1[C@@H](C(=O)OCCOCCOC(=O)c2ccc(-c3c4nc(c(-c5cc(S(=O)(=O)[O-])ccc5F)c5ccc([nH]5)c(-c5cc(S(=O)(=O)[O-])ccc5F)c5nc(c(-c6cc(S(=O)(=O)[O-])ccc6F)c6ccc3[nH]6)C=C5)C=C4)cc2)CCN1S(=O)(=O)c1c[nH]c2ncccc12
REMARK SMILES IDX 10 1 9 2 8 3 7 4 6 5 4 6 5 7 3 8 1 9 2 10 80 11 78 12 79 13
REMARK SMILES IDX 81 14 82 15 83 16 84 17 85 18 92 19 86 20 87 21 91 22 88 24
REMARK SMILES IDX 90 25 89 26 11 27 12 28 13 29 14 30 15 31 16 32 77 33 17 34
REMARK SMILES IDX 76 35 18 36 19 37 20 38 70 39 21 40 75 41 69 42 71 43 22 44
REMARK SMILES IDX 74 45 68 46 67 47 23 49 55 50 35 51 54 52 36 53 39 54 53 55
REMARK SMILES IDX 72 56 37 57 38 58 52 60 73 61 40 62 24 63 25 64 33 65 26 66
REMARK SMILES IDX 32 67 34 68 31 69 27 70 28 71 29 72 30 73 56 74 57 75 65 76
REMARK SMILES IDX 58 77 64 78 66 79 63 80 59 81 60 82 61 83 62 84 41 85 42 86
REMARK SMILES IDX 50 87 43 88 49 89 51 90 48 91 44 92 45 93 46 94 47 95
REMARK H PARENT 86 23 71 48 39 59
REMARK Flexibility Score: inf
ROOT
ATOM      1  C   UNL A   1      31.027  30.682  25.306  1.00  0.00     0.202 C 
ENDROOT
BRANCH   1   2
ATOM      2  O   UNL A   1      31.892  29.563  25.125  1.00  0.00    -0.374 OA
BRANCH   2   3
ATOM      3  C   UNL A   1      31.850  28.923  23.846  1.00  0.00     0.202 C 
BRANCH   3   4
ATOM      4  C   UNL A   1      33.191  28.872  23.108  1.00  0.00     0.261 C 
BRANCH   4   5
ATOM      5  O   UNL A   1      33.952  27.732  23.554  1.00  0.00    -0.463 OA
BRANCH   5   6
ATOM      6  C   UNL A   1      33.639  26.537  23.015  1.00  0.00     0.310 C 
ATOM      7  O   UNL A   1      33.666  26.291  21.814  1.00  0.00    -0.252 OA
BRANCH   6   8
ATOM      8  C   UNL A   1      33.296  25.467  24.037  1.00  0.00     0.118 C 
ATOM      9  C   UNL A   1      30.816  25.067  23.125  1.00  0.00     0.027 C 
ATOM     10  C   UNL A   1      31.981  24.663  24.021  1.00  0.00     0.084 C 
ATOM     11  N   UNL A   1      31.464  24.672  25.430  1.00  0.00    -0.194 NA
ATOM     12  C   UNL A   1      33.419  26.034  25.456  1.00  0.00     0.034 C 
ATOM     13  C   UNL A   1      32.071  25.831  26.116  1.00  0.00     0.104 C 
BRANCH  11  14
ATOM     14  S   UNL A   1      31.536  23.218  26.309  1.00  0.00     0.245 S 
ATOM     15  O   UNL A   1      32.016  23.537  27.637  1.00  0.00    -0.207 OA
ATOM     16  O   UNL A   1      30.278  22.526  26.114  1.00  0.00    -0.207 OA
BRANCH  14  17
ATOM     17  C   UNL A   1      32.751  22.175  25.651  1.00  0.00     0.109 A 
ATOM     18  C   UNL A   1      32.506  21.067  24.852  1.00  0.00     0.106 A 
ATOM     19  C   UNL A   1      34.168  22.329  25.745  1.00  0.00     0.039 A 
ATOM     20  N   UNL A   1      33.712  20.529  24.492  1.00  0.00    -0.345 N 
ATOM     21  C   UNL A   1      34.723  21.299  24.989  1.00  0.00     0.138 A 
ATOM     22  C   UNL A   1      35.077  23.220  26.347  1.00  0.00     0.015 A 
ATOM     23  H   UNL A   1      33.832  19.712  23.957  1.00  0.00     0.168 HD
ATOM     24  N   UNL A   1      36.024  21.059  24.745  1.00  0.00    -0.239 NA
ATOM     25  C   UNL A   1      36.442  23.018  26.126  1.00  0.00     0.021 A 
ATOM     26  C   UNL A   1      36.846  21.953  25.336  1.00  0.00     0.113 A 
ENDBRANCH  14  17
ENDBRANCH  11  14
ENDBRANCH   6   8
ENDBRANCH   5   6
ENDBRANCH   4   5
ENDBRANCH   3   4
ENDBRANCH   2   3
ENDBRANCH   1   2
BRANCH   1  27
ATOM     27  C   UNL A   1      31.403  31.667  26.417  1.00  0.00     0.261 C 
BRANCH  27  28
ATOM     28  O   UNL A   1      32.589  31.248  27.107  1.00  0.00    -0.460 OA
BRANCH  28  29
ATOM     29  C   UNL A   1      33.382  32.276  27.494  1.00  0.00     0.338 C 
ATOM     30  O   UNL A   1      33.045  33.439  27.639  1.00  0.00    -0.246 OA
BRANCH  29  31
ATOM     31  C   UNL A   1      34.703  31.772  27.919  1.00  0.00     0.060 A 
ATOM     32  C   UNL A   1      34.791  30.400  28.184  1.00  0.00     0.016 A 
ATOM     33  C   UNL A   1      35.807  32.606  28.121  1.00  0.00     0.016 A 
ATOM     34  C   UNL A   1      35.944  29.875  28.751  1.00  0.00     0.010 A 
ATOM     35  C   UNL A   1      36.973  32.073  28.683  1.00  0.00     0.010 A 
ATOM     36  C   UNL A   1      37.020  30.718  29.057  1.00  0.00    -0.014 A 
BRANCH  36  37
ATOM     37  C   UNL A   1      38.084  30.195  29.950  1.00  0.00     0.031 A 
ATOM     38  C   UNL A   1      39.076  29.208  29.393  1.00  0.00     0.074 A 
ATOM     39  C   UNL A   1      38.229  30.681  31.196  1.00  0.00     0.049 A 
ATOM     40  N   UNL A   1      40.133  28.683  29.956  1.00  0.00    -0.248 NA
ATOM     41  C   UNL A   1      38.843  28.753  28.013  1.00  0.00     0.031 C 
ATOM     42  C   UNL A   1      37.354  31.674  31.820  1.00  0.00     0.029 A 
ATOM     43  N   UNL A   1      39.179  30.422  32.152  1.00  0.00    -0.354 N 
ATOM     44  C   UNL A   1      40.692  27.839  29.001  1.00  0.00     0.074 A 
ATOM     45  C   UNL A   1      39.824  27.880  27.845  1.00  0.00     0.031 C 
ATOM     46  C   UNL A   1      37.818  31.951  33.050  1.00  0.00     0.029 A 
ATOM     47  C   UNL A   1      39.000  31.134  33.314  1.00  0.00     0.049 A 
ATOM     48  H   UNL A   1      39.918  29.787  32.017  1.00  0.00     0.167 HD
ATOM     49  C   UNL A   1      41.833  27.110  29.075  1.00  0.00     0.034 A 
ATOM     50  C   UNL A   1      39.707  31.120  34.463  1.00  0.00     0.034 A 
ATOM     51  C   UNL A   1      42.683  27.077  30.241  1.00  0.00     0.049 A 
ATOM     52  C   UNL A   1      40.933  30.243  34.548  1.00  0.00     0.074 A 
ATOM     53  C   UNL A   1      43.863  26.380  30.429  1.00  0.00     0.029 A 
ATOM     54  N   UNL A   1      42.436  27.763  31.425  1.00  0.00    -0.354 N 
ATOM     55  N   UNL A   1      41.456  29.458  33.634  1.00  0.00    -0.248 NA
ATOM     56  C   UNL A   1      41.673  30.267  35.815  1.00  0.00     0.031 C 
ATOM     57  C   UNL A   1      44.286  26.580  31.748  1.00  0.00     0.029 A 
ATOM     58  C   UNL A   1      43.422  27.477  32.357  1.00  0.00     0.049 A 
ATOM     59  H   UNL A   1      41.672  28.363  31.580  1.00  0.00     0.167 HD
ATOM     60  C   UNL A   1      42.608  28.922  34.207  1.00  0.00     0.074 A 
ATOM     61  C   UNL A   1      42.710  29.493  35.534  1.00  0.00     0.031 C 
ATOM     62  C   UNL A   1      43.503  28.042  33.684  1.00  0.00     0.034 A 
BRANCH  49  63
ATOM     63  C   UNL A   1      42.191  26.253  27.883  1.00  0.00     0.023 A 
ATOM     64  C   UNL A   1      41.684  24.950  27.721  1.00  0.00     0.031 A 
ATOM     65  C   UNL A   1      43.082  26.735  26.906  1.00  0.00     0.131 A 
ATOM     66  C   UNL A   1      42.128  24.152  26.656  1.00  0.00     0.055 A 
ATOM     67  C   UNL A   1      43.452  25.965  25.802  1.00  0.00     0.041 A 
ATOM     68  F   UNL A   1      43.621  27.959  27.018  1.00  0.00    -0.206 F 
ATOM     69  C   UNL A   1      42.987  24.661  25.679  1.00  0.00     0.022 A 
BRANCH  66  70
ATOM     70  S   UNL A   1      41.688  22.391  26.647  1.00  0.00     0.124 S 
ATOM     71  O   UNL A   1      40.231  22.451  26.727  1.00  0.00    -0.237 OA
ATOM     72  O   UNL A   1      42.241  21.935  25.376  1.00  0.00    -0.237 OA
ATOM     73  O   UNL A   1      42.350  21.867  27.840  1.00  0.00    -0.744 OA
ENDBRANCH  66  70
ENDBRANCH  49  63
BRANCH  50  74
ATOM     74  C   UNL A   1      39.266  31.935  35.632  1.00  0.00     0.023 A 
ATOM     75  C   UNL A   1      38.544  31.363  36.692  1.00  0.00     0.031 A 
ATOM     76  C   UNL A   1      39.514  33.319  35.676  1.00  0.00     0.131 A 
ATOM     77  C   UNL A   1      38.052  32.179  37.723  1.00  0.00     0.055 A 
ATOM     78  C   UNL A   1      39.074  34.117  36.733  1.00  0.00     0.041 A 
ATOM     79  F   UNL A   1      40.199  33.919  34.688  1.00  0.00    -0.206 F 
ATOM     80  C   UNL A   1      38.324  33.549  37.759  1.00  0.00     0.022 A 
BRANCH  77  81
ATOM     81  S   UNL A   1      36.966  31.439  38.973  1.00  0.00     0.124 S 
ATOM     82  O   UNL A   1      37.775  31.560  40.179  1.00  0.00    -0.237 OA
ATOM     83  O   UNL A   1      35.791  32.301  38.899  1.00  0.00    -0.237 OA
ATOM     84  O   UNL A   1      36.767  30.076  38.487  1.00  0.00    -0.744 OA
ENDBRANCH  77  81
ENDBRANCH  50  74
BRANCH  62  85
ATOM     85  C   UNL A   1      44.695  27.686  34.545  1.00  0.00     0.023 A 
ATOM     86  C   UNL A   1      44.665  26.605  35.443  1.00  0.00     0.031 A 
ATOM     87  C   UNL A   1      45.866  28.463  34.488  1.00  0.00     0.131 A 
ATOM     88  C   UNL A   1      45.750  26.380  36.303  1.00  0.00     0.055 A 
ATOM     89  C   UNL A   1      46.972  28.187  35.292  1.00  0.00     0.041 A 
ATOM     90  F   UNL A   1      45.953  29.511  33.652  1.00  0.00    -0.206 F 
ATOM     91  C   UNL A   1      46.911  27.152  36.221  1.00  0.00     0.022 A 
BRANCH  88  92
ATOM     92  S   UNL A   1      45.568  25.152  37.626  1.00  0.00     0.124 S 
ATOM     93  O   UNL A   1      45.863  23.906  36.924  1.00  0.00    -0.237 OA
ATOM     94  O   UNL A   1      46.567  25.588  38.596  1.00  0.00    -0.237 OA
ATOM     95  O   UNL A   1      44.178  25.311  38.052  1.00  0.00    -0.744 OA
ENDBRANCH  88  92
ENDBRANCH  62  85
ENDBRANCH  36  37
ENDBRANCH  29  31
ENDBRANCH  28  29
ENDBRANCH  27  28
ENDBRANCH   1  27
TORSDOF 19
ENDMDL
MODEL 3
REMARK VINA RESULT:     -11.6      4.565     10.253
REMARK SMILES C[C@H]1[C@@H](C(=O)OCCOCCOC(=O)c2ccc(-c3c4nc(c(-c5cc(S(=O)(=O)[O-])ccc5F)c5ccc([nH]5)c(-c5cc(S(=O)(=O)[O-])ccc5F)c5nc(c(-c6cc(S(=O)(=O)[O-])ccc6F)c6ccc3[nH]6)C=C5)C=C4)cc2)CCN1S(=O)(=O)c1c[nH]c2ncccc12
REMARK SMILES IDX 10 1 9 2 8 3 7 4 6 5 4 6 5 7 3 8 1 9 2 10 80 11 78 12 79 13
REMARK SMILES IDX 81 14 82 15 83 16 84 17 85 18 92 19 86 20 87 21 91 22 88 24
REMARK SMILES IDX 90 25 89 26 11 27 12 28 13 29 14 30 15 31 16 32 77 33 17 34
REMARK SMILES IDX 76 35 18 36 19 37 20 38 70 39 21 40 75 41 69 42 71 43 22 44
REMARK SMILES IDX 74 45 68 46 67 47 23 49 55 50 35 51 54 52 36 53 39 54 53 55
REMARK SMILES IDX 72 56 37 57 38 58 52 60 73 61 40 62 24 63 25 64 33 65 26 66
REMARK SMILES IDX 32 67 34 68 31 69 27 70 28 71 29 72 30 73 56 74 57 75 65 76
REMARK SMILES IDX 58 77 64 78 66 79 63 80 59 81 60 82 61 83 62 84 41 85 42 86
REMARK SMILES IDX 50 87 43 88 49 89 51 90 48 91 44 92 45 93 46 94 47 95
REMARK H PARENT 86 23 71 48 39 59
REMARK Flexibility Score: inf
ROOT
ATOM      1  C   UNL A   1      35.951  20.976  25.506  1.00  0.00     0.202 C 
ENDROOT
BRANCH   1   2
ATOM      2  O   UNL A   1      34.854  20.925  24.597  1.00  0.00    -0.374 OA
BRANCH   2   3
ATOM      3  C   UNL A   1      34.029  19.756  24.657  1.00  0.00     0.202 C 
BRANCH   3   4
ATOM      4  C   UNL A   1      32.546  20.001  24.361  1.00  0.00     0.261 C 
BRANCH   4   5
ATOM      5  O   UNL A   1      32.359  21.349  23.884  1.00  0.00    -0.463 OA
BRANCH   5   6
ATOM      6  C   UNL A   1      31.816  22.233  24.745  1.00  0.00     0.310 C 
ATOM      7  O   UNL A   1      31.454  21.959  25.884  1.00  0.00    -0.252 OA
BRANCH   6   8
ATOM      8  C   UNL A   1      31.735  23.651  24.206  1.00  0.00     0.118 C 
ATOM      9  C   UNL A   1      34.347  24.146  24.471  1.00  0.00     0.027 C 
ATOM     10  C   UNL A   1      32.969  24.539  23.953  1.00  0.00     0.084 C 
ATOM     11  N   UNL A   1      32.653  25.881  24.546  1.00  0.00    -0.194 NA
ATOM     12  C   UNL A   1      30.789  24.492  25.071  1.00  0.00     0.034 C 
ATOM     13  C   UNL A   1      31.596  25.678  25.557  1.00  0.00     0.104 C 
BRANCH  11  14
ATOM     14  S   UNL A   1      32.365  27.171  23.476  1.00  0.00     0.245 S 
ATOM     15  O   UNL A   1      33.595  27.422  22.756  1.00  0.00    -0.207 OA
ATOM     16  O   UNL A   1      31.130  26.889  22.773  1.00  0.00    -0.207 OA
BRANCH  14  17
ATOM     17  C   UNL A   1      32.077  28.633  24.359  1.00  0.00     0.109 A 
ATOM     18  C   UNL A   1      30.973  29.458  24.202  1.00  0.00     0.106 A 
ATOM     19  C   UNL A   1      32.861  29.168  25.427  1.00  0.00     0.039 A 
ATOM     20  N   UNL A   1      31.077  30.483  25.102  1.00  0.00    -0.345 N 
ATOM     21  C   UNL A   1      32.188  30.303  25.874  1.00  0.00     0.138 A 
ATOM     22  C   UNL A   1      34.048  28.838  26.109  1.00  0.00     0.015 A 
ATOM     23  H   UNL A   1      30.448  31.236  25.181  1.00  0.00     0.168 HD
ATOM     24  N   UNL A   1      32.521  31.116  26.893  1.00  0.00    -0.239 NA
ATOM     25  C   UNL A   1      34.441  29.650  27.177  1.00  0.00     0.021 A 
ATOM     26  C   UNL A   1      33.658  30.742  27.517  1.00  0.00     0.113 A 
ENDBRANCH  14  17
ENDBRANCH  11  14
ENDBRANCH   6   8
ENDBRANCH   5   6
ENDBRANCH   4   5
ENDBRANCH   3   4
ENDBRANCH   2   3
ENDBRANCH   1   2
BRANCH   1  27
ATOM     27  C   UNL A   1      37.287  20.423  24.999  1.00  0.00     0.261 C 
BRANCH  27  28
ATOM     28  O   UNL A   1      38.327  21.407  25.088  1.00  0.00    -0.460 OA
BRANCH  28  29
ATOM     29  C   UNL A   1      39.322  21.067  25.942  1.00  0.00     0.338 C 
ATOM     30  O   UNL A   1      39.925  20.007  25.970  1.00  0.00    -0.246 OA
BRANCH  29  31
ATOM     31  C   UNL A   1      39.736  22.239  26.739  1.00  0.00     0.060 A 
ATOM     32  C   UNL A   1      39.106  23.452  26.436  1.00  0.00     0.016 A 
ATOM     33  C   UNL A   1      40.749  22.186  27.702  1.00  0.00     0.016 A 
ATOM     34  C   UNL A   1      39.555  24.631  27.015  1.00  0.00     0.010 A 
ATOM     35  C   UNL A   1      41.194  23.375  28.291  1.00  0.00     0.010 A 
ATOM     36  C   UNL A   1      40.639  24.608  27.901  1.00  0.00    -0.014 A 
BRANCH  36  37
ATOM     37  C   UNL A   1      41.296  25.896  28.236  1.00  0.00     0.031 A 
ATOM     38  C   UNL A   1      42.683  26.158  27.711  1.00  0.00     0.074 A 
ATOM     39  C   UNL A   1      40.621  26.854  28.895  1.00  0.00     0.049 A 
ATOM     40  N   UNL A   1      43.417  27.236  27.803  1.00  0.00    -0.248 NA
ATOM     41  C   UNL A   1      43.329  25.053  26.984  1.00  0.00     0.031 C 
ATOM     42  C   UNL A   1      39.257  26.724  29.407  1.00  0.00     0.029 A 
ATOM     43  N   UNL A   1      40.984  28.135  29.227  1.00  0.00    -0.354 N 
ATOM     44  C   UNL A   1      44.608  26.942  27.145  1.00  0.00     0.074 A 
ATOM     45  C   UNL A   1      44.518  25.565  26.710  1.00  0.00     0.031 C 
ATOM     46  C   UNL A   1      38.892  27.886  29.975  1.00  0.00     0.029 A 
ATOM     47  C   UNL A   1      40.005  28.829  29.898  1.00  0.00     0.049 A 
ATOM     48  H   UNL A   1      41.862  28.520  29.005  1.00  0.00     0.167 HD
ATOM     49  C   UNL A   1      45.671  27.751  26.911  1.00  0.00     0.034 A 
ATOM     50  C   UNL A   1      40.012  30.081  30.400  1.00  0.00     0.034 A 
ATOM     51  C   UNL A   1      45.744  29.120  27.360  1.00  0.00     0.049 A 
ATOM     52  C   UNL A   1      41.237  30.938  30.191  1.00  0.00     0.074 A 
ATOM     53  C   UNL A   1      46.766  30.035  27.177  1.00  0.00     0.029 A 
ATOM     54  N   UNL A   1      44.758  29.771  28.093  1.00  0.00    -0.354 N 
ATOM     55  N   UNL A   1      42.352  30.651  29.558  1.00  0.00    -0.248 NA
ATOM     56  C   UNL A   1      41.194  32.295  30.749  1.00  0.00     0.031 C 
ATOM     57  C   UNL A   1      46.435  31.207  27.865  1.00  0.00     0.029 A 
ATOM     58  C   UNL A   1      45.164  31.061  28.399  1.00  0.00     0.049 A 
ATOM     59  H   UNL A   1      43.897  29.374  28.357  1.00  0.00     0.167 HD
ATOM     60  C   UNL A   1      43.129  31.807  29.613  1.00  0.00     0.074 A 
ATOM     61  C   UNL A   1      42.342  32.797  30.321  1.00  0.00     0.031 C 
ATOM     62  C   UNL A   1      44.375  32.034  29.120  1.00  0.00     0.034 A 
BRANCH  49  63
ATOM     63  C   UNL A   1      46.854  27.153  26.185  1.00  0.00     0.023 A 
ATOM     64  C   UNL A   1      47.886  26.481  26.865  1.00  0.00     0.031 A 
ATOM     65  C   UNL A   1      46.969  27.286  24.789  1.00  0.00     0.131 A 
ATOM     66  C   UNL A   1      49.017  26.037  26.163  1.00  0.00     0.055 A 
ATOM     67  C   UNL A   1      48.056  26.766  24.085  1.00  0.00     0.041 A 
ATOM     68  F   UNL A   1      46.031  27.940  24.086  1.00  0.00    -0.206 F 
ATOM     69  C   UNL A   1      49.096  26.150  24.773  1.00  0.00     0.022 A 
BRANCH  66  70
ATOM     70  S   UNL A   1      50.451  25.450  27.107  1.00  0.00     0.124 S 
ATOM     71  O   UNL A   1      51.421  25.200  26.044  1.00  0.00    -0.237 OA
ATOM     72  O   UNL A   1      50.737  26.581  27.982  1.00  0.00    -0.237 OA
ATOM     73  O   UNL A   1      49.952  24.251  27.778  1.00  0.00    -0.744 OA
ENDBRANCH  66  70
ENDBRANCH  49  63
BRANCH  50  74
ATOM     74  C   UNL A   1      38.841  30.594  31.169  1.00  0.00     0.023 A 
ATOM     75  C   UNL A   1      37.861  31.396  30.561  1.00  0.00     0.031 A 
ATOM     76  C   UNL A   1      38.716  30.333  32.545  1.00  0.00     0.131 A 
ATOM     77  C   UNL A   1      36.831  31.950  31.338  1.00  0.00     0.055 A 
ATOM     78  C   UNL A   1      37.658  30.838  33.302  1.00  0.00     0.041 A 
ATOM     79  F   UNL A   1      39.625  29.573  33.179  1.00  0.00    -0.206 F 
ATOM     80  C   UNL A   1      36.715  31.665  32.700  1.00  0.00     0.022 A 
BRANCH  77  81
ATOM     81  S   UNL A   1      35.696  33.132  30.560  1.00  0.00     0.124 S 
ATOM     82  O   UNL A   1      34.422  32.431  30.664  1.00  0.00    -0.237 OA
ATOM     83  O   UNL A   1      35.855  34.307  31.410  1.00  0.00    -0.237 OA
ATOM     84  O   UNL A   1      36.225  33.269  29.204  1.00  0.00    -0.744 OA
ENDBRANCH  77  81
ENDBRANCH  50  74
BRANCH  62  85
ATOM     85  C   UNL A   1      44.938  33.426  29.296  1.00  0.00     0.023 A 
ATOM     86  C   UNL A   1      44.903  34.377  28.261  1.00  0.00     0.031 A 
ATOM     87  C   UNL A   1      45.550  33.795  30.508  1.00  0.00     0.131 A 
ATOM     88  C   UNL A   1      45.538  35.617  28.428  1.00  0.00     0.055 A 
ATOM     89  C   UNL A   1      46.112  35.058  30.694  1.00  0.00     0.041 A 
ATOM     90  F   UNL A   1      45.617  32.928  31.532  1.00  0.00    -0.206 F 
ATOM     91  C   UNL A   1      46.126  35.971  29.644  1.00  0.00     0.022 A 
BRANCH  88  92
ATOM     92  S   UNL A   1      45.705  36.706  26.987  1.00  0.00     0.124 S 
ATOM     93  O   UNL A   1      44.419  37.398  26.980  1.00  0.00    -0.237 OA
ATOM     94  O   UNL A   1      46.863  37.519  27.343  1.00  0.00    -0.237 OA
ATOM     95  O   UNL A   1      45.916  35.778  25.878  1.00  0.00    -0.744 OA
ENDBRANCH  88  92
ENDBRANCH  62  85
ENDBRANCH  36  37
ENDBRANCH  29  31
ENDBRANCH  28  29
ENDBRANCH  27  28
ENDBRANCH   1  27
TORSDOF 19
ENDMDL
