MODEL 1
REMARK VINA RESULT:     -10.9      0.000      0.000
REMARK SMILES Cc1cc(CC(=O)C(=O)OCCOCCOC(=O)c2ccc(-c3c4nc(c(-c5cc(S(=O)(=O)[O-])ccc5F)c5ccc([nH]5)c(-c5cc(S(=O)(=O)[O-])ccc5F)c5nc(c(-c6cc(S(=O)(=O)[O-])ccc6F)c6ccc3[nH]6)C=C5)C=C4)cc2)cc2cn[nH]c12
REMARK SMILES IDX 14 1 13 2 12 3 11 4 10 5 8 6 9 7 6 8 7 9 5 10 4 11 1 12 2 13
REMARK SMILES IDX 3 14 87 15 83 16 86 17 82 18 84 19 85 20 15 22 16 23 17 24
REMARK SMILES IDX 18 25 19 26 20 27 81 28 21 29 80 30 22 31 23 32 24 33 74 34
REMARK SMILES IDX 25 35 79 36 73 37 75 38 26 39 78 40 72 41 71 42 27 44 59 45
REMARK SMILES IDX 39 46 58 47 40 48 43 49 57 50 76 51 41 52 42 53 56 55 77 56
REMARK SMILES IDX 44 57 28 58 29 59 37 60 30 61 36 62 38 63 35 64 31 65 32 66
REMARK SMILES IDX 33 67 34 68 60 69 61 70 69 71 62 72 68 73 70 74 67 75 63 76
REMARK SMILES IDX 64 77 65 78 66 79 45 80 46 81 54 82 47 83 53 84 55 85 52 86
REMARK SMILES IDX 48 87 49 88 50 89 51 90
REMARK H PARENT 86 21 75 43 43 54
REMARK Flexibility Score: inf
ROOT
ATOM      1  C   UNL A   1      31.812  29.720  25.978  1.00  0.00     0.202 C 
ENDROOT
BRANCH   1   2
ATOM      2  O   UNL A   1      32.660  29.639  24.839  1.00  0.00    -0.374 OA
BRANCH   2   3
ATOM      3  C   UNL A   1      32.160  29.178  23.581  1.00  0.00     0.202 C 
BRANCH   3   4
ATOM      4  C   UNL A   1      31.557  27.777  23.502  1.00  0.00     0.261 C 
BRANCH   4   5
ATOM      5  O   UNL A   1      32.574  26.766  23.479  1.00  0.00    -0.457 OA
BRANCH   5   6
ATOM      6  C   UNL A   1      33.264  26.694  22.323  1.00  0.00     0.375 C 
ATOM      7  O   UNL A   1      34.099  27.491  21.928  1.00  0.00    -0.243 OA
BRANCH   6   8
ATOM      8  C   UNL A   1      32.948  25.374  21.603  1.00  0.00     0.244 C 
ATOM      9  O   UNL A   1      33.079  25.304  20.385  1.00  0.00    -0.286 OA
BRANCH   8  10
ATOM     10  C   UNL A   1      32.375  24.236  22.436  1.00  0.00     0.124 C 
BRANCH  10  11
ATOM     11  C   UNL A   1      33.303  23.745  23.523  1.00  0.00    -0.039 A 
ATOM     12  C   UNL A   1      36.836  22.302  23.811  1.00  0.00     0.047 C 
ATOM     13  C   UNL A   1      35.442  22.717  24.181  1.00  0.00    -0.025 A 
ATOM     14  C   UNL A   1      34.626  23.370  23.234  1.00  0.00     0.009 A 
ATOM     15  C   UNL A   1      34.840  22.445  25.422  1.00  0.00     0.068 A 
ATOM     16  C   UNL A   1      33.553  22.850  25.752  1.00  0.00     0.020 A 
ATOM     17  N   UNL A   1      35.279  21.757  26.524  1.00  0.00    -0.278 N 
ATOM     18  C   UNL A   1      32.788  23.559  24.817  1.00  0.00     0.016 A 
ATOM     19  C   UNL A   1      33.333  22.342  27.050  1.00  0.00     0.143 A 
ATOM     20  N   UNL A   1      34.392  21.689  27.534  1.00  0.00    -0.183 NA
ATOM     21  H   UNL A   1      36.173  21.347  26.573  1.00  0.00     0.190 HD
ENDBRANCH  10  11
ENDBRANCH   8  10
ENDBRANCH   6   8
ENDBRANCH   5   6
ENDBRANCH   4   5
ENDBRANCH   3   4
ENDBRANCH   2   3
ENDBRANCH   1   2
BRANCH   1  22
ATOM     22  C   UNL A   1      31.656  31.034  26.734  1.00  0.00     0.261 C 
BRANCH  22  23
ATOM     23  O   UNL A   1      32.876  31.497  27.281  1.00  0.00    -0.460 OA
BRANCH  23  24
ATOM     24  C   UNL A   1      32.798  32.787  27.671  1.00  0.00     0.338 C 
ATOM     25  O   UNL A   1      31.946  33.603  27.334  1.00  0.00    -0.246 OA
BRANCH  24  26
ATOM     26  C   UNL A   1      33.960  33.135  28.482  1.00  0.00     0.060 A 
ATOM     27  C   UNL A   1      34.949  33.845  27.802  1.00  0.00     0.016 A 
ATOM     28  C   UNL A   1      34.219  32.390  29.641  1.00  0.00     0.016 A 
ATOM     29  C   UNL A   1      36.252  33.537  28.089  1.00  0.00     0.010 A 
ATOM     30  C   UNL A   1      35.525  32.079  29.922  1.00  0.00     0.010 A 
ATOM     31  C   UNL A   1      36.507  32.570  29.069  1.00  0.00    -0.014 A 
BRANCH  31  32
ATOM     32  C   UNL A   1      37.880  32.161  29.235  1.00  0.00     0.031 A 
ATOM     33  C   UNL A   1      38.068  30.759  28.828  1.00  0.00     0.074 A 
ATOM     34  C   UNL A   1      38.836  32.984  29.699  1.00  0.00     0.049 A 
ATOM     35  N   UNL A   1      38.123  29.730  29.604  1.00  0.00    -0.248 NA
ATOM     36  C   UNL A   1      37.891  30.442  27.403  1.00  0.00     0.031 C 
ATOM     37  C   UNL A   1      38.790  34.439  29.867  1.00  0.00     0.029 A 
ATOM     38  N   UNL A   1      40.110  32.677  30.048  1.00  0.00    -0.354 N 
ATOM     39  C   UNL A   1      38.241  28.645  28.748  1.00  0.00     0.074 A 
ATOM     40  C   UNL A   1      37.839  29.111  27.446  1.00  0.00     0.031 C 
ATOM     41  C   UNL A   1      40.048  34.903  30.056  1.00  0.00     0.029 A 
ATOM     42  C   UNL A   1      40.954  33.771  30.169  1.00  0.00     0.049 A 
ATOM     43  H   UNL A   1      40.412  31.753  30.205  1.00  0.00     0.167 HD
ATOM     44  C   UNL A   1      38.952  27.543  29.110  1.00  0.00     0.034 A 
ATOM     45  C   UNL A   1      42.306  33.723  30.262  1.00  0.00     0.034 A 
ATOM     46  C   UNL A   1      39.232  27.550  30.521  1.00  0.00     0.049 A 
ATOM     47  C   UNL A   1      42.675  32.351  30.688  1.00  0.00     0.074 A 
ATOM     48  C   UNL A   1      38.482  27.440  31.671  1.00  0.00     0.029 A 
ATOM     49  N   UNL A   1      40.438  28.101  30.881  1.00  0.00    -0.354 N 
ATOM     50  N   UNL A   1      42.406  31.865  31.869  1.00  0.00    -0.248 NA
ATOM     51  C   UNL A   1      42.947  31.362  29.654  1.00  0.00     0.031 C 
ATOM     52  C   UNL A   1      39.135  28.266  32.628  1.00  0.00     0.029 A 
ATOM     53  C   UNL A   1      40.285  28.805  32.044  1.00  0.00     0.049 A 
ATOM     54  H   UNL A   1      41.281  28.005  30.382  1.00  0.00     0.167 HD
ATOM     55  C   UNL A   1      42.030  30.553  31.625  1.00  0.00     0.074 A 
ATOM     56  C   UNL A   1      42.506  30.264  30.275  1.00  0.00     0.031 C 
ATOM     57  C   UNL A   1      41.112  29.935  32.424  1.00  0.00     0.034 A 
BRANCH  44  58
ATOM     58  C   UNL A   1      39.760  26.732  28.131  1.00  0.00     0.023 A 
ATOM     59  C   UNL A   1      40.845  27.268  27.410  1.00  0.00     0.031 A 
ATOM     60  C   UNL A   1      39.619  25.334  28.079  1.00  0.00     0.131 A 
ATOM     61  C   UNL A   1      41.708  26.462  26.664  1.00  0.00     0.055 A 
ATOM     62  C   UNL A   1      40.523  24.516  27.388  1.00  0.00     0.041 A 
ATOM     63  F   UNL A   1      38.634  24.716  28.749  1.00  0.00    -0.206 F 
ATOM     64  C   UNL A   1      41.574  25.080  26.673  1.00  0.00     0.022 A 
BRANCH  61  65
ATOM     65  S   UNL A   1      43.047  27.216  25.699  1.00  0.00     0.124 S 
ATOM     66  O   UNL A   1      43.813  26.047  25.281  1.00  0.00    -0.237 OA
ATOM     67  O   UNL A   1      42.300  27.897  24.645  1.00  0.00    -0.237 OA
ATOM     68  O   UNL A   1      43.706  28.099  26.658  1.00  0.00    -0.744 OA
ENDBRANCH  61  65
ENDBRANCH  44  58
BRANCH  45  69
ATOM     69  C   UNL A   1      43.259  34.583  29.520  1.00  0.00     0.023 A 
ATOM     70  C   UNL A   1      43.530  34.314  28.166  1.00  0.00     0.031 A 
ATOM     71  C   UNL A   1      44.142  35.444  30.195  1.00  0.00     0.131 A 
ATOM     72  C   UNL A   1      44.668  34.844  27.545  1.00  0.00     0.055 A 
ATOM     73  C   UNL A   1      45.274  35.985  29.569  1.00  0.00     0.041 A 
ATOM     74  F   UNL A   1      43.964  35.717  31.496  1.00  0.00    -0.206 F 
ATOM     75  C   UNL A   1      45.549  35.672  28.241  1.00  0.00     0.022 A 
BRANCH  72  76
ATOM     76  S   UNL A   1      45.062  34.394  25.833  1.00  0.00     0.124 S 
ATOM     77  O   UNL A   1      43.755  34.478  25.183  1.00  0.00    -0.237 OA
ATOM     78  O   UNL A   1      46.016  35.432  25.463  1.00  0.00    -0.237 OA
ATOM     79  O   UNL A   1      45.603  33.043  25.951  1.00  0.00    -0.744 OA
ENDBRANCH  72  76
ENDBRANCH  45  69
BRANCH  57  80
ATOM     80  C   UNL A   1      40.773  30.582  33.745  1.00  0.00     0.023 A 
ATOM     81  C   UNL A   1      39.831  31.620  33.706  1.00  0.00     0.031 A 
ATOM     82  C   UNL A   1      41.476  30.375  34.946  1.00  0.00     0.131 A 
ATOM     83  C   UNL A   1      39.651  32.451  34.814  1.00  0.00     0.055 A 
ATOM     84  C   UNL A   1      41.245  31.168  36.076  1.00  0.00     0.041 A 
ATOM     85  F   UNL A   1      42.454  29.465  35.037  1.00  0.00    -0.206 F 
ATOM     86  C   UNL A   1      40.343  32.225  36.008  1.00  0.00     0.022 A 
BRANCH  83  87
ATOM     87  S   UNL A   1      38.618  33.929  34.675  1.00  0.00     0.124 S 
ATOM     88  O   UNL A   1      38.944  34.411  33.335  1.00  0.00    -0.237 OA
ATOM     89  O   UNL A   1      37.274  33.379  34.834  1.00  0.00    -0.237 OA
ATOM     90  O   UNL A   1      39.069  34.783  35.770  1.00  0.00    -0.744 OA
ENDBRANCH  83  87
ENDBRANCH  57  80
ENDBRANCH  31  32
ENDBRANCH  24  26
ENDBRANCH  23  24
ENDBRANCH  22  23
ENDBRANCH   1  22
TORSDOF 19
ENDMDL
MODEL 2
REMARK VINA RESULT:     -10.9      3.434      7.662
REMARK SMILES Cc1cc(CC(=O)C(=O)OCCOCCOC(=O)c2ccc(-c3c4nc(c(-c5cc(S(=O)(=O)[O-])ccc5F)c5ccc([nH]5)c(-c5cc(S(=O)(=O)[O-])ccc5F)c5nc(c(-c6cc(S(=O)(=O)[O-])ccc6F)c6ccc3[nH]6)C=C5)C=C4)cc2)cc2cn[nH]c12
REMARK SMILES IDX 14 1 13 2 12 3 11 4 10 5 8 6 9 7 6 8 7 9 5 10 4 11 1 12 2 13
REMARK SMILES IDX 3 14 87 15 83 16 86 17 82 18 84 19 85 20 15 22 16 23 17 24
REMARK SMILES IDX 18 25 19 26 20 27 81 28 21 29 80 30 22 31 23 32 24 33 74 34
REMARK SMILES IDX 25 35 79 36 73 37 75 38 26 39 78 40 72 41 71 42 27 44 59 45
REMARK SMILES IDX 39 46 58 47 40 48 43 49 57 50 76 51 41 52 42 53 56 55 77 56
REMARK SMILES IDX 44 57 28 58 29 59 37 60 30 61 36 62 38 63 35 64 31 65 32 66
REMARK SMILES IDX 33 67 34 68 60 69 61 70 69 71 62 72 68 73 70 74 67 75 63 76
REMARK SMILES IDX 64 77 65 78 66 79 45 80 46 81 54 82 47 83 53 84 55 85 52 86
REMARK SMILES IDX 48 87 49 88 50 89 51 90
REMARK H PARENT 86 21 75 43 43 54
REMARK Flexibility Score: inf
ROOT
ATOM      1  C   UNL A   1      37.629  21.433  25.301  1.00  0.00     0.202 C 
ENDROOT
BRANCH   1   2
ATOM      2  O   UNL A   1      37.210  22.257  24.220  1.00  0.00    -0.374 OA
BRANCH   2   3
ATOM      3  C   UNL A   1      36.193  23.245  24.400  1.00  0.00     0.202 C 
BRANCH   3   4
ATOM      4  C   UNL A   1      34.845  23.041  23.713  1.00  0.00     0.261 C 
BRANCH   4   5
ATOM      5  O   UNL A   1      33.887  24.024  24.130  1.00  0.00    -0.457 OA
BRANCH   5   6
ATOM      6  C   UNL A   1      33.041  23.607  25.092  1.00  0.00     0.375 C 
ATOM      7  O   UNL A   1      33.342  23.283  26.230  1.00  0.00    -0.243 OA
BRANCH   6   8
ATOM      8  C   UNL A   1      31.589  23.712  24.600  1.00  0.00     0.244 C 
ATOM      9  O   UNL A   1      31.297  23.291  23.486  1.00  0.00    -0.286 OA
BRANCH   8  10
ATOM     10  C   UNL A   1      30.595  24.445  25.490  1.00  0.00     0.124 C 
BRANCH  10  11
ATOM     11  C   UNL A   1      30.586  25.943  25.295  1.00  0.00    -0.039 A 
ATOM     12  C   UNL A   1      29.517  28.457  22.614  1.00  0.00     0.047 C 
ATOM     13  C   UNL A   1      30.146  27.892  23.854  1.00  0.00    -0.025 A 
ATOM     14  C   UNL A   1      29.987  26.524  24.165  1.00  0.00     0.009 A 
ATOM     15  C   UNL A   1      30.960  28.627  24.733  1.00  0.00     0.068 A 
ATOM     16  C   UNL A   1      31.522  28.090  25.885  1.00  0.00     0.020 A 
ATOM     17  N   UNL A   1      31.409  29.922  24.701  1.00  0.00    -0.278 N 
ATOM     18  C   UNL A   1      31.291  26.747  26.207  1.00  0.00     0.016 A 
ATOM     19  C   UNL A   1      32.285  29.139  26.440  1.00  0.00     0.143 A 
ATOM     20  N   UNL A   1      32.205  30.266  25.730  1.00  0.00    -0.183 NA
ATOM     21  H   UNL A   1      31.169  30.550  23.982  1.00  0.00     0.190 HD
ENDBRANCH  10  11
ENDBRANCH   8  10
ENDBRANCH   6   8
ENDBRANCH   5   6
ENDBRANCH   4   5
ENDBRANCH   3   4
ENDBRANCH   2   3
ENDBRANCH   1   2
BRANCH   1  22
ATOM     22  C   UNL A   1      39.039  21.557  25.868  1.00  0.00     0.261 C 
BRANCH  22  23
ATOM     23  O   UNL A   1      39.194  22.690  26.701  1.00  0.00    -0.460 OA
BRANCH  23  24
ATOM     24  C   UNL A   1      40.383  22.687  27.341  1.00  0.00     0.338 C 
ATOM     25  O   UNL A   1      40.854  21.768  28.004  1.00  0.00    -0.246 OA
BRANCH  24  26
ATOM     26  C   UNL A   1      41.008  24.002  27.239  1.00  0.00     0.060 A 
ATOM     27  C   UNL A   1      41.872  24.315  28.289  1.00  0.00     0.016 A 
ATOM     28  C   UNL A   1      40.396  24.978  26.440  1.00  0.00     0.016 A 
ATOM     29  C   UNL A   1      41.859  25.604  28.748  1.00  0.00     0.010 A 
ATOM     30  C   UNL A   1      40.380  26.267  26.907  1.00  0.00     0.010 A 
ATOM     31  C   UNL A   1      41.019  26.529  28.114  1.00  0.00    -0.014 A 
BRANCH  31  32
ATOM     32  C   UNL A   1      40.916  27.833  28.720  1.00  0.00     0.031 A 
ATOM     33  C   UNL A   1      41.948  28.742  28.197  1.00  0.00     0.074 A 
ATOM     34  C   UNL A   1      39.982  28.142  29.636  1.00  0.00     0.049 A 
ATOM     35  N   UNL A   1      43.067  29.047  28.761  1.00  0.00    -0.248 NA
ATOM     36  C   UNL A   1      41.854  29.125  26.779  1.00  0.00     0.031 C 
ATOM     37  C   UNL A   1      38.777  27.393  30.003  1.00  0.00     0.029 A 
ATOM     38  N   UNL A   1      39.883  29.267  30.387  1.00  0.00    -0.354 N 
ATOM     39  C   UNL A   1      43.711  29.875  27.853  1.00  0.00     0.074 A 
ATOM     40  C   UNL A   1      43.052  29.676  26.587  1.00  0.00     0.031 C 
ATOM     41  C   UNL A   1      37.960  28.197  30.725  1.00  0.00     0.029 A 
ATOM     42  C   UNL A   1      38.648  29.449  30.991  1.00  0.00     0.049 A 
ATOM     43  H   UNL A   1      40.628  29.901  30.497  1.00  0.00     0.167 HD
ATOM     44  C   UNL A   1      44.522  30.881  28.276  1.00  0.00     0.034 A 
ATOM     45  C   UNL A   1      38.215  30.592  31.579  1.00  0.00     0.034 A 
ATOM     46  C   UNL A   1      44.845  30.732  29.670  1.00  0.00     0.049 A 
ATOM     47  C   UNL A   1      39.410  31.415  31.889  1.00  0.00     0.074 A 
ATOM     48  C   UNL A   1      45.574  29.834  30.418  1.00  0.00     0.029 A 
ATOM     49  N   UNL A   1      44.024  31.405  30.543  1.00  0.00    -0.354 N 
ATOM     50  N   UNL A   1      40.298  31.088  32.787  1.00  0.00    -0.248 NA
ATOM     51  C   UNL A   1      39.856  32.377  30.891  1.00  0.00     0.031 C 
ATOM     52  C   UNL A   1      44.902  29.750  31.669  1.00  0.00     0.029 A 
ATOM     53  C   UNL A   1      43.822  30.638  31.658  1.00  0.00     0.049 A 
ATOM     54  H   UNL A   1      43.641  32.299  30.390  1.00  0.00     0.167 HD
ATOM     55  C   UNL A   1      41.512  31.434  32.213  1.00  0.00     0.074 A 
ATOM     56  C   UNL A   1      41.173  32.335  31.116  1.00  0.00     0.031 C 
ATOM     57  C   UNL A   1      42.641  30.720  32.496  1.00  0.00     0.034 A 
BRANCH  44  58
ATOM     58  C   UNL A   1      44.630  32.203  27.560  1.00  0.00     0.023 A 
ATOM     59  C   UNL A   1      43.808  33.305  27.866  1.00  0.00     0.031 A 
ATOM     60  C   UNL A   1      45.726  32.468  26.721  1.00  0.00     0.131 A 
ATOM     61  C   UNL A   1      44.050  34.577  27.342  1.00  0.00     0.055 A 
ATOM     62  C   UNL A   1      46.012  33.757  26.249  1.00  0.00     0.041 A 
ATOM     63  F   UNL A   1      46.589  31.496  26.385  1.00  0.00    -0.206 F 
ATOM     64  C   UNL A   1      45.170  34.819  26.557  1.00  0.00     0.022 A 
BRANCH  61  65
ATOM     65  S   UNL A   1      42.916  35.944  27.715  1.00  0.00     0.124 S 
ATOM     66  O   UNL A   1      42.621  36.461  26.383  1.00  0.00    -0.237 OA
ATOM     67  O   UNL A   1      41.823  35.242  28.382  1.00  0.00    -0.237 OA
ATOM     68  O   UNL A   1      43.706  36.818  28.577  1.00  0.00    -0.744 OA
ENDBRANCH  61  65
ENDBRANCH  44  58
BRANCH  45  69
ATOM     69  C   UNL A   1      36.879  31.210  31.400  1.00  0.00     0.023 A 
ATOM     70  C   UNL A   1      36.395  31.458  30.102  1.00  0.00     0.031 A 
ATOM     71  C   UNL A   1      36.222  31.849  32.465  1.00  0.00     0.131 A 
ATOM     72  C   UNL A   1      35.340  32.355  29.892  1.00  0.00     0.055 A 
ATOM     73  C   UNL A   1      35.156  32.736  32.256  1.00  0.00     0.041 A 
ATOM     74  F   UNL A   1      36.650  31.684  33.726  1.00  0.00    -0.206 F 
ATOM     75  C   UNL A   1      34.722  33.004  30.961  1.00  0.00     0.022 A 
BRANCH  72  76
ATOM     76  S   UNL A   1      34.808  32.751  28.204  1.00  0.00     0.124 S 
ATOM     77  O   UNL A   1      33.590  33.526  28.437  1.00  0.00    -0.237 OA
ATOM     78  O   UNL A   1      35.948  33.507  27.701  1.00  0.00    -0.237 OA
ATOM     79  O   UNL A   1      34.594  31.440  27.597  1.00  0.00    -0.744 OA
ENDBRANCH  72  76
ENDBRANCH  45  69
BRANCH  57  80
ATOM     80  C   UNL A   1      42.607  29.779  33.676  1.00  0.00     0.023 A 
ATOM     81  C   UNL A   1      43.134  30.271  34.879  1.00  0.00     0.031 A 
ATOM     82  C   UNL A   1      42.298  28.408  33.604  1.00  0.00     0.131 A 
ATOM     83  C   UNL A   1      43.393  29.402  35.942  1.00  0.00     0.055 A 
ATOM     84  C   UNL A   1      42.497  27.554  34.694  1.00  0.00     0.041 A 
ATOM     85  F   UNL A   1      41.877  27.844  32.465  1.00  0.00    -0.206 F 
ATOM     86  C   UNL A   1      43.066  28.046  35.865  1.00  0.00     0.022 A 
BRANCH  83  87
ATOM     87  S   UNL A   1      44.294  29.998  37.394  1.00  0.00     0.124 S 
ATOM     88  O   UNL A   1      44.523  28.767  38.144  1.00  0.00    -0.237 OA
ATOM     89  O   UNL A   1      45.483  30.596  36.791  1.00  0.00    -0.237 OA
ATOM     90  O   UNL A   1      43.375  30.946  38.018  1.00  0.00    -0.744 OA
ENDBRANCH  83  87
ENDBRANCH  57  80
ENDBRANCH  31  32
ENDBRANCH  24  26
ENDBRANCH  23  24
ENDBRANCH  22  23
ENDBRANCH   1  22
TORSDOF 19
ENDMDL
MODEL 3
REMARK VINA RESULT:     -10.8      4.212      8.134
REMARK SMILES Cc1cc(CC(=O)C(=O)OCCOCCOC(=O)c2ccc(-c3c4nc(c(-c5cc(S(=O)(=O)[O-])ccc5F)c5ccc([nH]5)c(-c5cc(S(=O)(=O)[O-])ccc5F)c5nc(c(-c6cc(S(=O)(=O)[O-])ccc6F)c6ccc3[nH]6)C=C5)C=C4)cc2)cc2cn[nH]c12
REMARK SMILES IDX 14 1 13 2 12 3 11 4 10 5 8 6 9 7 6 8 7 9 5 10 4 11 1 12 2 13
REMARK SMILES IDX 3 14 87 15 83 16 86 17 82 18 84 19 85 20 15 22 16 23 17 24
REMARK SMILES IDX 18 25 19 26 20 27 81 28 21 29 80 30 22 31 23 32 24 33 74 34
REMARK SMILES IDX 25 35 79 36 73 37 75 38 26 39 78 40 72 41 71 42 27 44 59 45
REMARK SMILES IDX 39 46 58 47 40 48 43 49 57 50 76 51 41 52 42 53 56 55 77 56
REMARK SMILES IDX 44 57 28 58 29 59 37 60 30 61 36 62 38 63 35 64 31 65 32 66
REMARK SMILES IDX 33 67 34 68 60 69 61 70 69 71 62 72 68 73 70 74 67 75 63 76
REMARK SMILES IDX 64 77 65 78 66 79 45 80 46 81 54 82 47 83 53 84 55 85 52 86
REMARK SMILES IDX 48 87 49 88 50 89 51 90
REMARK H PARENT 86 21 75 43 43 54
REMARK Flexibility Score: inf
ROOT
ATOM      1  C   UNL A   1      33.778  32.477  27.960  1.00  0.00     0.202 C 
ENDROOT
BRANCH   1   2
ATOM      2  O   UNL A   1      33.736  31.059  27.869  1.00  0.00    -0.374 OA
BRANCH   2   3
ATOM      3  C   UNL A   1      33.014  30.411  26.819  1.00  0.00     0.202 C 
BRANCH   3   4
ATOM      4  C   UNL A   1      33.680  29.255  26.077  1.00  0.00     0.261 C 
BRANCH   4   5
ATOM      5  O   UNL A   1      32.712  28.327  25.568  1.00  0.00    -0.457 OA
BRANCH   5   6
ATOM      6  C   UNL A   1      33.239  27.268  24.923  1.00  0.00     0.375 C 
ATOM      7  O   UNL A   1      33.857  26.345  25.430  1.00  0.00    -0.243 OA
BRANCH   6   8
ATOM      8  C   UNL A   1      32.844  27.305  23.438  1.00  0.00     0.244 C 
ATOM      9  O   UNL A   1      32.947  26.289  22.759  1.00  0.00    -0.286 OA
BRANCH   8  10
ATOM     10  C   UNL A   1      32.443  28.651  22.850  1.00  0.00     0.124 C 
BRANCH  10  11
ATOM     11  C   UNL A   1      30.961  28.791  22.597  1.00  0.00    -0.039 A 
ATOM     12  C   UNL A   1      28.555  31.384  21.133  1.00  0.00     0.047 C 
ATOM     13  C   UNL A   1      29.057  30.161  21.845  1.00  0.00    -0.025 A 
ATOM     14  C   UNL A   1      30.443  29.903  21.912  1.00  0.00     0.009 A 
ATOM     15  C   UNL A   1      28.232  29.250  22.527  1.00  0.00     0.068 A 
ATOM     16  C   UNL A   1      28.713  28.115  23.168  1.00  0.00     0.020 A 
ATOM     17  N   UNL A   1      26.881  29.231  22.759  1.00  0.00    -0.278 N 
ATOM     18  C   UNL A   1      30.088  27.844  23.160  1.00  0.00     0.016 A 
ATOM     19  C   UNL A   1      27.576  27.516  23.750  1.00  0.00     0.143 A 
ATOM     20  N   UNL A   1      26.450  28.184  23.487  1.00  0.00    -0.183 NA
ATOM     21  H   UNL A   1      26.273  29.928  22.419  1.00  0.00     0.190 HD
ENDBRANCH  10  11
ENDBRANCH   8  10
ENDBRANCH   6   8
ENDBRANCH   5   6
ENDBRANCH   4   5
ENDBRANCH   3   4
ENDBRANCH   2   3
ENDBRANCH   1   2
BRANCH   1  22
ATOM     22  C   UNL A   1      34.153  33.158  29.273  1.00  0.00     0.261 C 
BRANCH  22  23
ATOM     23  O   UNL A   1      35.552  33.283  29.441  1.00  0.00    -0.460 OA
BRANCH  23  24
ATOM     24  C   UNL A   1      36.089  32.197  30.036  1.00  0.00     0.338 C 
ATOM     25  O   UNL A   1      35.679  31.640  31.049  1.00  0.00    -0.246 OA
BRANCH  24  26
ATOM     26  C   UNL A   1      37.330  31.822  29.365  1.00  0.00     0.060 A 
ATOM     27  C   UNL A   1      37.241  30.670  28.585  1.00  0.00     0.016 A 
ATOM     28  C   UNL A   1      38.544  32.303  29.877  1.00  0.00     0.016 A 
ATOM     29  C   UNL A   1      38.313  29.819  28.599  1.00  0.00     0.010 A 
ATOM     30  C   UNL A   1      39.614  31.445  29.894  1.00  0.00     0.010 A 
ATOM     31  C   UNL A   1      39.438  30.176  29.353  1.00  0.00    -0.014 A 
BRANCH  31  32
ATOM     32  C   UNL A   1      40.482  29.189  29.469  1.00  0.00     0.031 A 
ATOM     33  C   UNL A   1      40.726  28.840  30.878  1.00  0.00     0.074 A 
ATOM     34  C   UNL A   1      41.122  28.674  28.405  1.00  0.00     0.049 A 
ATOM     35  N   UNL A   1      41.669  29.293  31.633  1.00  0.00    -0.248 NA
ATOM     36  C   UNL A   1      39.650  28.140  31.595  1.00  0.00     0.031 C 
ATOM     37  C   UNL A   1      40.761  28.765  26.987  1.00  0.00     0.029 A 
ATOM     38  N   UNL A   1      42.216  27.872  28.391  1.00  0.00    -0.354 N 
ATOM     39  C   UNL A   1      41.435  28.721  32.876  1.00  0.00     0.074 A 
ATOM     40  C   UNL A   1      40.074  28.250  32.854  1.00  0.00     0.031 C 
ATOM     41  C   UNL A   1      41.481  27.855  26.289  1.00  0.00     0.029 A 
ATOM     42  C   UNL A   1      42.446  27.234  27.182  1.00  0.00     0.049 A 
ATOM     43  H   UNL A   1      42.799  27.754  29.175  1.00  0.00     0.167 HD
ATOM     44  C   UNL A   1      42.465  28.404  33.705  1.00  0.00     0.034 A 
ATOM     45  C   UNL A   1      43.309  26.207  26.980  1.00  0.00     0.034 A 
ATOM     46  C   UNL A   1      43.689  29.022  33.268  1.00  0.00     0.049 A 
ATOM     47  C   UNL A   1      44.277  26.211  28.104  1.00  0.00     0.074 A 
ATOM     48  C   UNL A   1      44.159  30.314  33.184  1.00  0.00     0.029 A 
ATOM     49  N   UNL A   1      44.480  28.254  32.449  1.00  0.00    -0.354 N 
ATOM     50  N   UNL A   1      45.166  27.147  28.287  1.00  0.00    -0.248 NA
ATOM     51  C   UNL A   1      43.966  25.407  29.277  1.00  0.00     0.031 C 
ATOM     52  C   UNL A   1      44.996  30.337  32.033  1.00  0.00     0.029 A 
ATOM     53  C   UNL A   1      45.046  29.049  31.490  1.00  0.00     0.049 A 
ATOM     54  H   UNL A   1      44.619  27.283  32.537  1.00  0.00     0.167 HD
ATOM     55  C   UNL A   1      45.181  27.344  29.660  1.00  0.00     0.074 A 
ATOM     56  C   UNL A   1      44.528  26.166  30.222  1.00  0.00     0.031 C 
ATOM     57  C   UNL A   1      45.451  28.578  30.180  1.00  0.00     0.034 A 
BRANCH  44  58
ATOM     58  C   UNL A   1      42.448  27.197  34.607  1.00  0.00     0.023 A 
ATOM     59  C   UNL A   1      43.187  26.030  34.332  1.00  0.00     0.031 A 
ATOM     60  C   UNL A   1      41.885  27.279  35.893  1.00  0.00     0.131 A 
ATOM     61  C   UNL A   1      43.324  25.003  35.269  1.00  0.00     0.055 A 
ATOM     62  C   UNL A   1      42.079  26.282  36.859  1.00  0.00     0.041 A 
ATOM     63  F   UNL A   1      41.182  28.358  36.270  1.00  0.00    -0.206 F 
ATOM     64  C   UNL A   1      42.800  25.135  36.548  1.00  0.00     0.022 A 
BRANCH  61  65
ATOM     65  S   UNL A   1      44.229  23.491  34.833  1.00  0.00     0.124 S 
ATOM     66  O   UNL A   1      45.346  24.022  34.060  1.00  0.00    -0.237 OA
ATOM     67  O   UNL A   1      44.562  22.960  36.152  1.00  0.00    -0.237 OA
ATOM     68  O   UNL A   1      43.249  22.710  34.083  1.00  0.00    -0.744 OA
ENDBRANCH  61  65
ENDBRANCH  44  58
BRANCH  45  69
ATOM     69  C   UNL A   1      43.026  24.972  26.209  1.00  0.00     0.023 A 
ATOM     70  C   UNL A   1      41.977  24.126  26.611  1.00  0.00     0.031 A 
ATOM     71  C   UNL A   1      43.961  24.451  25.297  1.00  0.00     0.131 A 
ATOM     72  C   UNL A   1      41.914  22.802  26.159  1.00  0.00     0.055 A 
ATOM     73  C   UNL A   1      43.889  23.130  24.835  1.00  0.00     0.041 A 
ATOM     74  F   UNL A   1      45.006  25.191  24.896  1.00  0.00    -0.206 F 
ATOM     75  C   UNL A   1      42.869  22.293  25.279  1.00  0.00     0.022 A 
BRANCH  72  76
ATOM     76  S   UNL A   1      40.620  21.692  26.780  1.00  0.00     0.124 S 
ATOM     77  O   UNL A   1      40.831  20.491  25.975  1.00  0.00    -0.237 OA
ATOM     78  O   UNL A   1      40.976  21.577  28.188  1.00  0.00    -0.237 OA
ATOM     79  O   UNL A   1      39.384  22.414  26.491  1.00  0.00    -0.744 OA
ENDBRANCH  72  76
ENDBRANCH  45  69
BRANCH  57  80
ATOM     80  C   UNL A   1      46.048  29.618  29.263  1.00  0.00     0.023 A 
ATOM     81  C   UNL A   1      45.139  30.408  28.544  1.00  0.00     0.031 A 
ATOM     82  C   UNL A   1      47.410  29.702  28.920  1.00  0.00     0.131 A 
ATOM     83  C   UNL A   1      45.582  31.203  27.484  1.00  0.00     0.055 A 
ATOM     84  C   UNL A   1      47.858  30.550  27.901  1.00  0.00     0.041 A 
ATOM     85  F   UNL A   1      48.327  28.915  29.496  1.00  0.00    -0.206 F 
ATOM     86  C   UNL A   1      46.940  31.292  27.164  1.00  0.00     0.022 A 
BRANCH  83  87
ATOM     87  S   UNL A   1      44.380  32.026  26.412  1.00  0.00     0.124 S 
ATOM     88  O   UNL A   1      43.937  33.143  27.241  1.00  0.00    -0.237 OA
ATOM     89  O   UNL A   1      45.198  32.389  25.257  1.00  0.00    -0.237 OA
ATOM     90  O   UNL A   1      43.370  31.002  26.157  1.00  0.00    -0.744 OA
ENDBRANCH  83  87
ENDBRANCH  57  80
ENDBRANCH  31  32
ENDBRANCH  24  26
ENDBRANCH  23  24
ENDBRANCH  22  23
ENDBRANCH   1  22
TORSDOF 19
ENDMDL
