MODEL 1
REMARK VINA RESULT:     -10.4      0.000      0.000
REMARK SMILES Cc1ccc(C)c([C@H]([NH3+])CCCCC(=O)OCCOCCOC(=O)c2ccc(-c3c4nc(c(-c5cc(S(=O)(=O)[O-])ccc5F)c5ccc([nH]5)c(-c5cc(S(=O)(=O)[O-])ccc5F)c5nc(c(-c6cc(S(=O)(=O)[O-])ccc6F)c6ccc3[nH]6)C=C5)C=C4)cc2)c1
REMARK SMILES IDX 18 1 17 2 16 3 14 4 15 5 13 6 12 7 11 8 10 9 8 10 7 11 1 12
REMARK SMILES IDX 2 13 3 14 88 15 4 16 5 17 6 18 9 19 19 23 20 24 21 25 22 26
REMARK SMILES IDX 23 27 24 28 25 29 26 30 87 31 27 32 86 33 28 34 29 35 30 36
REMARK SMILES IDX 80 37 31 38 85 39 79 40 81 41 32 42 84 43 78 44 77 45 33 47
REMARK SMILES IDX 65 48 45 49 64 50 46 51 49 52 63 53 82 54 47 55 48 56 62 58
REMARK SMILES IDX 83 59 50 60 34 61 35 62 43 63 36 64 42 65 44 66 41 67 37 68
REMARK SMILES IDX 38 69 39 70 40 71 66 72 67 73 75 74 68 75 74 76 76 77 73 78
REMARK SMILES IDX 69 79 70 80 71 81 72 82 51 83 52 84 60 85 53 86 59 87 61 88
REMARK SMILES IDX 58 89 54 90 55 91 56 92 57 93
REMARK H PARENT 9 20 9 21 9 22 81 46 49 57
REMARK Flexibility Score: inf
ROOT
ATOM      1  C   UNL A   1      43.222  41.307  26.130  1.00  0.00     0.202 C 
ENDROOT
BRANCH   1   2
ATOM      2  C   UNL A   1      42.193  41.493  25.019  1.00  0.00     0.261 C 
BRANCH   2   3
ATOM      3  O   UNL A   1      42.814  41.770  23.754  1.00  0.00    -0.463 OA
BRANCH   3   4
ATOM      4  C   UNL A   1      43.367  42.963  23.403  1.00  0.00     0.305 C 
ATOM      5  O   UNL A   1      44.469  43.396  23.612  1.00  0.00    -0.252 OA
BRANCH   4   6
ATOM      6  C   UNL A   1      42.344  43.727  22.617  1.00  0.00     0.123 C 
BRANCH   6   7
ATOM      7  C   UNL A   1      41.746  42.791  21.576  1.00  0.00     0.012 C 
BRANCH   7   8
ATOM      8  C   UNL A   1      42.486  42.757  20.227  1.00  0.00     0.007 C 
BRANCH   8   9
ATOM      9  C   UNL A   1      43.387  43.967  19.919  1.00  0.00     0.070 C 
BRANCH   9  10
ATOM     10  C   UNL A   1      43.810  44.037  18.453  1.00  0.00     0.212 C 
BRANCH  10  11
ATOM     11  C   UNL A   1      43.489  45.370  17.812  1.00  0.00     0.012 A 
ATOM     12  C   UNL A   1      45.465  48.323  16.405  1.00  0.00     0.044 C 
ATOM     13  C   UNL A   1      44.330  47.478  16.886  1.00  0.00    -0.051 A 
ATOM     14  C   UNL A   1      43.023  47.947  16.791  1.00  0.00     0.004 A 
ATOM     15  C   UNL A   1      44.552  46.196  17.395  1.00  0.00     0.013 A 
ATOM     16  C   UNL A   1      41.957  47.124  17.146  1.00  0.00     0.004 A 
ATOM     17  C   UNL A   1      42.166  45.821  17.623  1.00  0.00    -0.042 A 
ATOM     18  C   UNL A   1      40.948  44.940  17.757  1.00  0.00     0.045 C 
ENDBRANCH  10  11
BRANCH  10  19
ATOM     19  N   UNL A   1      43.189  42.921  17.711  1.00  0.00    -0.351 N 
ATOM     20  H   UNL A   1      43.874  42.178  17.579  1.00  0.00     0.345 HD
ATOM     21  H   UNL A   1      42.867  43.253  16.802  1.00  0.00     0.345 HD
ATOM     22  H   UNL A   1      42.395  42.560  18.241  1.00  0.00     0.345 HD
ENDBRANCH  10  19
ENDBRANCH   9  10
ENDBRANCH   8   9
ENDBRANCH   7   8
ENDBRANCH   6   7
ENDBRANCH   4   6
ENDBRANCH   3   4
ENDBRANCH   2   3
ENDBRANCH   1   2
BRANCH   1  23
ATOM     23  O   UNL A   1      44.083  40.273  25.723  1.00  0.00    -0.374 OA
BRANCH  23  24
ATOM     24  C   UNL A   1      45.456  40.315  26.047  1.00  0.00     0.202 C 
BRANCH  24  25
ATOM     25  C   UNL A   1      45.832  39.055  26.819  1.00  0.00     0.261 C 
BRANCH  25  26
ATOM     26  O   UNL A   1      44.885  38.771  27.879  1.00  0.00    -0.460 OA
BRANCH  26  27
ATOM     27  C   UNL A   1      45.330  37.883  28.818  1.00  0.00     0.338 C 
ATOM     28  O   UNL A   1      46.486  37.823  29.208  1.00  0.00    -0.246 OA
BRANCH  27  29
ATOM     29  C   UNL A   1      44.257  36.888  29.141  1.00  0.00     0.060 A 
ATOM     30  C   UNL A   1      43.984  36.601  30.489  1.00  0.00     0.016 A 
ATOM     31  C   UNL A   1      43.815  36.012  28.142  1.00  0.00     0.016 A 
ATOM     32  C   UNL A   1      43.400  35.373  30.830  1.00  0.00     0.010 A 
ATOM     33  C   UNL A   1      43.328  34.758  28.496  1.00  0.00     0.010 A 
ATOM     34  C   UNL A   1      43.156  34.405  29.842  1.00  0.00    -0.014 A 
BRANCH  34  35
ATOM     35  C   UNL A   1      42.313  33.227  30.127  1.00  0.00     0.031 A 
ATOM     36  C   UNL A   1      40.969  33.695  30.484  1.00  0.00     0.074 A 
ATOM     37  C   UNL A   1      42.518  31.895  30.016  1.00  0.00     0.049 A 
ATOM     38  N   UNL A   1      40.490  33.672  31.681  1.00  0.00    -0.248 NA
ATOM     39  C   UNL A   1      40.186  34.480  29.520  1.00  0.00     0.031 C 
ATOM     40  C   UNL A   1      43.752  31.188  29.743  1.00  0.00     0.029 A 
ATOM     41  N   UNL A   1      41.616  30.855  30.047  1.00  0.00    -0.354 N 
ATOM     42  C   UNL A   1      39.224  34.196  31.550  1.00  0.00     0.074 A 
ATOM     43  C   UNL A   1      39.204  34.919  30.308  1.00  0.00     0.031 C 
ATOM     44  C   UNL A   1      43.516  29.934  29.302  1.00  0.00     0.029 A 
ATOM     45  C   UNL A   1      42.100  29.672  29.485  1.00  0.00     0.049 A 
ATOM     46  H   UNL A   1      40.712  30.939  30.429  1.00  0.00     0.167 HD
ATOM     47  C   UNL A   1      38.209  33.699  32.294  1.00  0.00     0.034 A 
ATOM     48  C   UNL A   1      41.491  28.468  29.328  1.00  0.00     0.034 A 
ATOM     49  C   UNL A   1      38.691  32.932  33.420  1.00  0.00     0.049 A 
ATOM     50  C   UNL A   1      40.525  28.357  30.440  1.00  0.00     0.074 A 
ATOM     51  C   UNL A   1      39.525  33.203  34.487  1.00  0.00     0.029 A 
ATOM     52  N   UNL A   1      38.608  31.562  33.327  1.00  0.00    -0.354 N 
ATOM     53  N   UNL A   1      40.886  28.271  31.694  1.00  0.00    -0.248 NA
ATOM     54  C   UNL A   1      39.150  28.771  30.217  1.00  0.00     0.031 C 
ATOM     55  C   UNL A   1      40.203  31.984  34.766  1.00  0.00     0.029 A 
ATOM     56  C   UNL A   1      39.723  31.001  33.898  1.00  0.00     0.049 A 
ATOM     57  H   UNL A   1      37.867  31.062  32.914  1.00  0.00     0.167 HD
ATOM     58  C   UNL A   1      39.960  29.045  32.373  1.00  0.00     0.074 A 
ATOM     59  C   UNL A   1      38.849  29.205  31.444  1.00  0.00     0.031 C 
ATOM     60  C   UNL A   1      40.296  29.722  33.509  1.00  0.00     0.034 A 
BRANCH  47  61
ATOM     61  C   UNL A   1      36.810  33.594  31.768  1.00  0.00     0.023 A 
ATOM     62  C   UNL A   1      36.621  32.867  30.589  1.00  0.00     0.031 A 
ATOM     63  C   UNL A   1      35.710  34.367  32.215  1.00  0.00     0.131 A 
ATOM     64  C   UNL A   1      35.404  32.946  29.897  1.00  0.00     0.055 A 
ATOM     65  C   UNL A   1      34.474  34.369  31.574  1.00  0.00     0.041 A 
ATOM     66  F   UNL A   1      35.800  35.242  33.226  1.00  0.00    -0.206 F 
ATOM     67  C   UNL A   1      34.321  33.671  30.393  1.00  0.00     0.022 A 
BRANCH  64  68
ATOM     68  S   UNL A   1      35.322  32.221  28.245  1.00  0.00     0.124 S 
ATOM     69  O   UNL A   1      35.382  33.409  27.400  1.00  0.00    -0.237 OA
ATOM     70  O   UNL A   1      36.501  31.361  28.235  1.00  0.00    -0.237 OA
ATOM     71  O   UNL A   1      34.040  31.522  28.248  1.00  0.00    -0.744 OA
ENDBRANCH  64  68
ENDBRANCH  47  61
BRANCH  48  72
ATOM     72  C   UNL A   1      41.611  27.516  28.184  1.00  0.00     0.023 A 
ATOM     73  C   UNL A   1      41.929  26.149  28.341  1.00  0.00     0.031 A 
ATOM     74  C   UNL A   1      41.170  27.911  26.898  1.00  0.00     0.131 A 
ATOM     75  C   UNL A   1      41.796  25.249  27.254  1.00  0.00     0.055 A 
ATOM     76  C   UNL A   1      41.035  27.018  25.830  1.00  0.00     0.041 A 
ATOM     77  F   UNL A   1      40.777  29.171  26.659  1.00  0.00    -0.206 F 
ATOM     78  C   UNL A   1      41.338  25.678  26.006  1.00  0.00     0.022 A 
BRANCH  75  79
ATOM     79  S   UNL A   1      42.110  23.465  27.475  1.00  0.00     0.124 S 
ATOM     80  O   UNL A   1      43.120  23.461  28.527  1.00  0.00    -0.237 OA
ATOM     81  O   UNL A   1      40.794  22.952  27.836  1.00  0.00    -0.237 OA
ATOM     82  O   UNL A   1      42.590  23.038  26.160  1.00  0.00    -0.744 OA
ENDBRANCH  75  79
ENDBRANCH  48  72
BRANCH  60  83
ATOM     83  C   UNL A   1      41.466  29.237  34.336  1.00  0.00     0.023 A 
ATOM     84  C   UNL A   1      41.432  28.168  35.247  1.00  0.00     0.031 A 
ATOM     85  C   UNL A   1      42.718  29.820  34.054  1.00  0.00     0.131 A 
ATOM     86  C   UNL A   1      42.632  27.719  35.837  1.00  0.00     0.055 A 
ATOM     87  C   UNL A   1      43.905  29.349  34.612  1.00  0.00     0.041 A 
ATOM     88  F   UNL A   1      42.810  30.839  33.183  1.00  0.00    -0.206 F 
ATOM     89  C   UNL A   1      43.866  28.290  35.508  1.00  0.00     0.022 A 
BRANCH  86  90
ATOM     90  S   UNL A   1      42.591  26.401  37.082  1.00  0.00     0.124 S 
ATOM     91  O   UNL A   1      41.246  26.559  37.620  1.00  0.00    -0.237 OA
ATOM     92  O   UNL A   1      42.841  25.196  36.294  1.00  0.00    -0.237 OA
ATOM     93  O   UNL A   1      43.670  26.763  38.003  1.00  0.00    -0.744 OA
ENDBRANCH  86  90
ENDBRANCH  60  83
ENDBRANCH  34  35
ENDBRANCH  27  29
ENDBRANCH  26  27
ENDBRANCH  25  26
ENDBRANCH  24  25
ENDBRANCH  23  24
ENDBRANCH   1  23
TORSDOF 23
ENDMDL
MODEL 2
REMARK VINA RESULT:      -9.9      9.752     16.833
REMARK SMILES Cc1ccc(C)c([C@H]([NH3+])CCCCC(=O)OCCOCCOC(=O)c2ccc(-c3c4nc(c(-c5cc(S(=O)(=O)[O-])ccc5F)c5ccc([nH]5)c(-c5cc(S(=O)(=O)[O-])ccc5F)c5nc(c(-c6cc(S(=O)(=O)[O-])ccc6F)c6ccc3[nH]6)C=C5)C=C4)cc2)c1
REMARK SMILES IDX 18 1 17 2 16 3 14 4 15 5 13 6 12 7 11 8 10 9 8 10 7 11 1 12
REMARK SMILES IDX 2 13 3 14 88 15 4 16 5 17 6 18 9 19 19 23 20 24 21 25 22 26
REMARK SMILES IDX 23 27 24 28 25 29 26 30 87 31 27 32 86 33 28 34 29 35 30 36
REMARK SMILES IDX 80 37 31 38 85 39 79 40 81 41 32 42 84 43 78 44 77 45 33 47
REMARK SMILES IDX 65 48 45 49 64 50 46 51 49 52 63 53 82 54 47 55 48 56 62 58
REMARK SMILES IDX 83 59 50 60 34 61 35 62 43 63 36 64 42 65 44 66 41 67 37 68
REMARK SMILES IDX 38 69 39 70 40 71 66 72 67 73 75 74 68 75 74 76 76 77 73 78
REMARK SMILES IDX 69 79 70 80 71 81 72 82 51 83 52 84 60 85 53 86 59 87 61 88
REMARK SMILES IDX 58 89 54 90 55 91 56 92 57 93
REMARK H PARENT 9 20 9 21 9 22 81 46 49 57
REMARK Flexibility Score: inf
ROOT
ATOM      1  C   UNL A   1      46.602  20.436  39.188  1.00  0.00     0.202 C 
ENDROOT
BRANCH   1   2
ATOM      2  C   UNL A   1      47.842  19.552  39.092  1.00  0.00     0.261 C 
BRANCH   2   3
ATOM      3  O   UNL A   1      48.590  19.807  37.893  1.00  0.00    -0.463 OA
BRANCH   3   4
ATOM      4  C   UNL A   1      49.752  20.513  37.836  1.00  0.00     0.305 C 
ATOM      5  O   UNL A   1      49.934  21.686  37.643  1.00  0.00    -0.252 OA
BRANCH   4   6
ATOM      6  C   UNL A   1      50.879  19.563  38.107  1.00  0.00     0.123 C 
BRANCH   6   7
ATOM      7  C   UNL A   1      51.236  18.864  36.803  1.00  0.00     0.012 C 
BRANCH   7   8
ATOM      8  C   UNL A   1      52.422  19.478  36.036  1.00  0.00     0.007 C 
BRANCH   8   9
ATOM      9  C   UNL A   1      52.268  19.559  34.506  1.00  0.00     0.070 C 
BRANCH   9  10
ATOM     10  C   UNL A   1      52.258  20.995  33.984  1.00  0.00     0.212 C 
BRANCH  10  11
ATOM     11  C   UNL A   1      50.950  21.708  34.251  1.00  0.00     0.012 A 
ATOM     12  C   UNL A   1      47.255  20.752  34.445  1.00  0.00     0.044 C 
ATOM     13  C   UNL A   1      48.508  21.567  34.397  1.00  0.00    -0.051 A 
ATOM     14  C   UNL A   1      48.445  22.950  34.539  1.00  0.00     0.004 A 
ATOM     15  C   UNL A   1      49.757  20.958  34.254  1.00  0.00     0.013 A 
ATOM     16  C   UNL A   1      49.617  23.701  34.593  1.00  0.00     0.004 A 
ATOM     17  C   UNL A   1      50.879  23.097  34.489  1.00  0.00    -0.042 A 
ATOM     18  C   UNL A   1      52.078  23.962  34.792  1.00  0.00     0.045 C 
ENDBRANCH  10  11
BRANCH  10  19
ATOM     19  N   UNL A   1      52.586  20.993  32.543  1.00  0.00    -0.351 N 
ATOM     20  H   UNL A   1      53.394  21.592  32.379  1.00  0.00     0.345 HD
ATOM     21  H   UNL A   1      51.789  21.343  32.013  1.00  0.00     0.345 HD
ATOM     22  H   UNL A   1      52.801  20.042  32.245  1.00  0.00     0.345 HD
ENDBRANCH  10  19
ENDBRANCH   9  10
ENDBRANCH   8   9
ENDBRANCH   7   8
ENDBRANCH   6   7
ENDBRANCH   4   6
ENDBRANCH   3   4
ENDBRANCH   2   3
ENDBRANCH   1   2
BRANCH   1  23
ATOM     23  O   UNL A   1      46.985  21.612  39.855  1.00  0.00    -0.374 OA
BRANCH  23  24
ATOM     24  C   UNL A   1      46.928  22.859  39.197  1.00  0.00     0.202 C 
BRANCH  24  25
ATOM     25  C   UNL A   1      45.701  22.897  38.293  1.00  0.00     0.261 C 
BRANCH  25  26
ATOM     26  O   UNL A   1      46.035  23.334  36.951  1.00  0.00    -0.460 OA
BRANCH  26  27
ATOM     27  C   UNL A   1      45.775  24.652  36.699  1.00  0.00     0.338 C 
ATOM     28  O   UNL A   1      45.784  25.526  37.552  1.00  0.00    -0.246 OA
BRANCH  27  29
ATOM     29  C   UNL A   1      45.291  24.826  35.291  1.00  0.00     0.060 A 
ATOM     30  C   UNL A   1      45.067  23.682  34.508  1.00  0.00     0.016 A 
ATOM     31  C   UNL A   1      45.422  26.076  34.674  1.00  0.00     0.016 A 
ATOM     32  C   UNL A   1      45.120  23.779  33.110  1.00  0.00     0.010 A 
ATOM     33  C   UNL A   1      45.571  26.145  33.292  1.00  0.00     0.010 A 
ATOM     34  C   UNL A   1      45.467  24.994  32.497  1.00  0.00    -0.014 A 
BRANCH  34  35
ATOM     35  C   UNL A   1      45.275  25.194  31.047  1.00  0.00     0.031 A 
ATOM     36  C   UNL A   1      46.323  26.100  30.561  1.00  0.00     0.074 A 
ATOM     37  C   UNL A   1      44.436  24.643  30.140  1.00  0.00     0.049 A 
ATOM     38  N   UNL A   1      46.117  27.328  30.226  1.00  0.00    -0.248 NA
ATOM     39  C   UNL A   1      47.736  25.724  30.694  1.00  0.00     0.031 C 
ATOM     40  C   UNL A   1      43.295  23.782  30.369  1.00  0.00     0.029 A 
ATOM     41  N   UNL A   1      44.474  24.675  28.765  1.00  0.00    -0.354 N 
ATOM     42  C   UNL A   1      47.357  27.786  29.840  1.00  0.00     0.074 A 
ATOM     43  C   UNL A   1      48.323  26.886  30.407  1.00  0.00     0.031 C 
ATOM     44  C   UNL A   1      42.955  23.104  29.252  1.00  0.00     0.029 A 
ATOM     45  C   UNL A   1      43.721  23.669  28.156  1.00  0.00     0.049 A 
ATOM     46  H   UNL A   1      44.986  25.345  28.257  1.00  0.00     0.167 HD
ATOM     47  C   UNL A   1      47.463  28.651  28.805  1.00  0.00     0.034 A 
ATOM     48  C   UNL A   1      43.545  23.386  26.839  1.00  0.00     0.034 A 
ATOM     49  C   UNL A   1      46.199  29.279  28.495  1.00  0.00     0.049 A 
ATOM     50  C   UNL A   1      43.670  24.676  26.131  1.00  0.00     0.074 A 
ATOM     51  C   UNL A   1      45.294  30.034  29.215  1.00  0.00     0.029 A 
ATOM     52  N   UNL A   1      45.533  28.830  27.378  1.00  0.00    -0.354 N 
ATOM     53  N   UNL A   1      42.815  25.655  26.272  1.00  0.00    -0.248 NA
ATOM     54  C   UNL A   1      44.965  25.056  25.592  1.00  0.00     0.031 C 
ATOM     55  C   UNL A   1      44.014  29.708  28.689  1.00  0.00     0.029 A 
ATOM     56  C   UNL A   1      44.184  28.807  27.635  1.00  0.00     0.049 A 
ATOM     57  H   UNL A   1      45.955  28.565  26.530  1.00  0.00     0.167 HD
ATOM     58  C   UNL A   1      43.598  26.798  26.284  1.00  0.00     0.074 A 
ATOM     59  C   UNL A   1      44.877  26.382  25.723  1.00  0.00     0.031 C 
ATOM     60  C   UNL A   1      43.239  27.898  27.005  1.00  0.00     0.034 A 
BRANCH  47  61
ATOM     61  C   UNL A   1      48.619  28.619  27.852  1.00  0.00     0.023 A 
ATOM     62  C   UNL A   1      48.386  28.090  26.579  1.00  0.00     0.031 A 
ATOM     63  C   UNL A   1      49.973  28.842  28.204  1.00  0.00     0.131 A 
ATOM     64  C   UNL A   1      49.461  27.780  25.734  1.00  0.00     0.055 A 
ATOM     65  C   UNL A   1      51.031  28.620  27.326  1.00  0.00     0.041 A 
ATOM     66  F   UNL A   1      50.355  29.180  29.443  1.00  0.00    -0.206 F 
ATOM     67  C   UNL A   1      50.779  28.064  26.087  1.00  0.00     0.022 A 
BRANCH  64  68
ATOM     68  S   UNL A   1      49.113  26.840  24.232  1.00  0.00     0.124 S 
ATOM     69  O   UNL A   1      48.408  25.681  24.769  1.00  0.00    -0.237 OA
ATOM     70  O   UNL A   1      48.310  27.785  23.464  1.00  0.00    -0.237 OA
ATOM     71  O   UNL A   1      50.442  26.566  23.692  1.00  0.00    -0.744 OA
ENDBRANCH  64  68
ENDBRANCH  47  61
BRANCH  48  72
ATOM     72  C   UNL A   1      43.434  22.046  26.190  1.00  0.00     0.023 A 
ATOM     73  C   UNL A   1      44.523  21.381  25.588  1.00  0.00     0.031 A 
ATOM     74  C   UNL A   1      42.256  21.281  26.369  1.00  0.00     0.131 A 
ATOM     75  C   UNL A   1      44.414  20.020  25.204  1.00  0.00     0.055 A 
ATOM     76  C   UNL A   1      42.154  19.937  25.993  1.00  0.00     0.041 A 
ATOM     77  F   UNL A   1      41.185  21.795  26.993  1.00  0.00    -0.206 F 
ATOM     78  C   UNL A   1      43.239  19.296  25.416  1.00  0.00     0.022 A 
BRANCH  75  79
ATOM     79  S   UNL A   1      45.849  19.127  24.516  1.00  0.00     0.124 S 
ATOM     80  O   UNL A   1      45.950  17.978  25.409  1.00  0.00    -0.237 OA
ATOM     81  O   UNL A   1      45.428  18.852  23.148  1.00  0.00    -0.237 OA
ATOM     82  O   UNL A   1      46.941  20.095  24.634  1.00  0.00    -0.744 OA
ENDBRANCH  75  79
ENDBRANCH  48  72
BRANCH  60  83
ATOM     83  C   UNL A   1      41.782  28.108  27.352  1.00  0.00     0.023 A 
ATOM     84  C   UNL A   1      41.185  27.801  28.586  1.00  0.00     0.031 A 
ATOM     85  C   UNL A   1      41.004  28.801  26.402  1.00  0.00     0.131 A 
ATOM     86  C   UNL A   1      39.852  28.191  28.830  1.00  0.00     0.055 A 
ATOM     87  C   UNL A   1      39.700  29.216  26.662  1.00  0.00     0.041 A 
ATOM     88  F   UNL A   1      41.527  29.128  25.208  1.00  0.00    -0.206 F 
ATOM     89  C   UNL A   1      39.117  28.913  27.884  1.00  0.00     0.022 A 
BRANCH  86  90
ATOM     90  S   UNL A   1      39.041  27.723  30.384  1.00  0.00     0.124 S 
ATOM     91  O   UNL A   1      37.814  28.508  30.313  1.00  0.00    -0.237 OA
ATOM     92  O   UNL A   1      38.897  26.275  30.257  1.00  0.00    -0.237 OA
ATOM     93  O   UNL A   1      39.990  28.155  31.412  1.00  0.00    -0.744 OA
ENDBRANCH  86  90
ENDBRANCH  60  83
ENDBRANCH  34  35
ENDBRANCH  27  29
ENDBRANCH  26  27
ENDBRANCH  25  26
ENDBRANCH  24  25
ENDBRANCH  23  24
ENDBRANCH   1  23
TORSDOF 23
ENDMDL
MODEL 3
REMARK VINA RESULT:      -9.8      6.497     11.915
REMARK SMILES Cc1ccc(C)c([C@H]([NH3+])CCCCC(=O)OCCOCCOC(=O)c2ccc(-c3c4nc(c(-c5cc(S(=O)(=O)[O-])ccc5F)c5ccc([nH]5)c(-c5cc(S(=O)(=O)[O-])ccc5F)c5nc(c(-c6cc(S(=O)(=O)[O-])ccc6F)c6ccc3[nH]6)C=C5)C=C4)cc2)c1
REMARK SMILES IDX 18 1 17 2 16 3 14 4 15 5 13 6 12 7 11 8 10 9 8 10 7 11 1 12
REMARK SMILES IDX 2 13 3 14 88 15 4 16 5 17 6 18 9 19 19 23 20 24 21 25 22 26
REMARK SMILES IDX 23 27 24 28 25 29 26 30 87 31 27 32 86 33 28 34 29 35 30 36
REMARK SMILES IDX 80 37 31 38 85 39 79 40 81 41 32 42 84 43 78 44 77 45 33 47
REMARK SMILES IDX 65 48 45 49 64 50 46 51 49 52 63 53 82 54 47 55 48 56 62 58
REMARK SMILES IDX 83 59 50 60 34 61 35 62 43 63 36 64 42 65 44 66 41 67 37 68
REMARK SMILES IDX 38 69 39 70 40 71 66 72 67 73 75 74 68 75 74 76 76 77 73 78
REMARK SMILES IDX 69 79 70 80 71 81 72 82 51 83 52 84 60 85 53 86 59 87 61 88
REMARK SMILES IDX 58 89 54 90 55 91 56 92 57 93
REMARK H PARENT 9 20 9 21 9 22 81 46 49 57
REMARK Flexibility Score: inf
ROOT
ATOM      1  C   UNL A   1      34.853  33.086  31.282  1.00  0.00     0.202 C 
ENDROOT
BRANCH   1   2
ATOM      2  C   UNL A   1      35.444  32.039  32.222  1.00  0.00     0.261 C 
BRANCH   2   3
ATOM      3  O   UNL A   1      35.258  32.391  33.602  1.00  0.00    -0.463 OA
BRANCH   3   4
ATOM      4  C   UNL A   1      36.094  33.189  34.321  1.00  0.00     0.305 C 
ATOM      5  O   UNL A   1      35.850  33.960  35.212  1.00  0.00    -0.252 OA
BRANCH   4   6
ATOM      6  C   UNL A   1      37.492  32.934  33.844  1.00  0.00     0.123 C 
BRANCH   6   7
ATOM      7  C   UNL A   1      38.253  34.252  33.873  1.00  0.00     0.012 C 
BRANCH   7   8
ATOM      8  C   UNL A   1      39.029  34.587  32.586  1.00  0.00     0.007 C 
BRANCH   8   9
ATOM      9  C   UNL A   1      38.241  34.462  31.269  1.00  0.00     0.070 C 
BRANCH   9  10
ATOM     10  C   UNL A   1      38.931  33.562  30.245  1.00  0.00     0.212 C 
BRANCH  10  11
ATOM     11  C   UNL A   1      40.357  33.981  29.962  1.00  0.00     0.012 A 
ATOM     12  C   UNL A   1      42.100  36.675  27.887  1.00  0.00     0.044 C 
ATOM     13  C   UNL A   1      41.874  35.470  28.741  1.00  0.00    -0.051 A 
ATOM     14  C   UNL A   1      42.959  34.731  29.207  1.00  0.00     0.004 A 
ATOM     15  C   UNL A   1      40.585  35.089  29.122  1.00  0.00     0.013 A 
ATOM     16  C   UNL A   1      42.756  33.668  30.083  1.00  0.00     0.004 A 
ATOM     17  C   UNL A   1      41.469  33.300  30.501  1.00  0.00    -0.042 A 
ATOM     18  C   UNL A   1      41.377  32.293  31.622  1.00  0.00     0.045 C 
ENDBRANCH  10  11
BRANCH  10  19
ATOM     19  N   UNL A   1      38.125  33.523  29.008  1.00  0.00    -0.351 N 
ATOM     20  H   UNL A   1      38.726  33.717  28.206  1.00  0.00     0.345 HD
ATOM     21  H   UNL A   1      37.389  34.226  29.059  1.00  0.00     0.345 HD
ATOM     22  H   UNL A   1      37.707  32.599  28.903  1.00  0.00     0.345 HD
ENDBRANCH  10  19
ENDBRANCH   9  10
ENDBRANCH   8   9
ENDBRANCH   7   8
ENDBRANCH   6   7
ENDBRANCH   4   6
ENDBRANCH   3   4
ENDBRANCH   2   3
ENDBRANCH   1   2
BRANCH   1  23
ATOM     23  O   UNL A   1      35.336  32.800  29.994  1.00  0.00    -0.374 OA
BRANCH  23  24
ATOM     24  C   UNL A   1      34.444  32.649  28.912  1.00  0.00     0.202 C 
BRANCH  24  25
ATOM     25  C   UNL A   1      34.740  31.338  28.191  1.00  0.00     0.261 C 
BRANCH  25  26
ATOM     26  O   UNL A   1      35.758  30.566  28.878  1.00  0.00    -0.460 OA
BRANCH  26  27
ATOM     27  C   UNL A   1      36.232  29.494  28.174  1.00  0.00     0.338 C 
ATOM     28  O   UNL A   1      35.522  28.708  27.566  1.00  0.00    -0.246 OA
BRANCH  27  29
ATOM     29  C   UNL A   1      37.700  29.319  28.420  1.00  0.00     0.060 A 
ATOM     30  C   UNL A   1      38.609  29.851  27.492  1.00  0.00     0.016 A 
ATOM     31  C   UNL A   1      38.127  28.345  29.331  1.00  0.00     0.016 A 
ATOM     32  C   UNL A   1      39.895  29.302  27.391  1.00  0.00     0.010 A 
ATOM     33  C   UNL A   1      39.369  27.741  29.157  1.00  0.00     0.010 A 
ATOM     34  C   UNL A   1      40.250  28.181  28.158  1.00  0.00    -0.014 A 
BRANCH  34  35
ATOM     35  C   UNL A   1      41.658  27.750  28.267  1.00  0.00     0.031 A 
ATOM     36  C   UNL A   1      41.823  26.508  27.504  1.00  0.00     0.074 A 
ATOM     37  C   UNL A   1      42.758  28.316  28.812  1.00  0.00     0.049 A 
ATOM     38  N   UNL A   1      41.973  25.345  28.040  1.00  0.00    -0.248 NA
ATOM     39  C   UNL A   1      41.547  26.491  26.062  1.00  0.00     0.031 C 
ATOM     40  C   UNL A   1      42.850  29.491  29.654  1.00  0.00     0.029 A 
ATOM     41  N   UNL A   1      44.088  27.994  28.659  1.00  0.00    -0.354 N 
ATOM     42  C   UNL A   1      42.088  24.489  26.968  1.00  0.00     0.074 A 
ATOM     43  C   UNL A   1      41.543  25.179  25.831  1.00  0.00     0.031 C 
ATOM     44  C   UNL A   1      44.103  29.993  29.668  1.00  0.00     0.029 A 
ATOM     45  C   UNL A   1      44.963  29.024  29.012  1.00  0.00     0.049 A 
ATOM     46  H   UNL A   1      44.394  27.118  28.330  1.00  0.00     0.167 HD
ATOM     47  C   UNL A   1      42.936  23.436  27.035  1.00  0.00     0.034 A 
ATOM     48  C   UNL A   1      46.320  29.069  28.971  1.00  0.00     0.034 A 
ATOM     49  C   UNL A   1      43.319  23.138  28.396  1.00  0.00     0.049 A 
ATOM     50  C   UNL A   1      46.774  27.679  29.179  1.00  0.00     0.074 A 
ATOM     51  C   UNL A   1      42.625  22.830  29.550  1.00  0.00     0.029 A 
ATOM     52  N   UNL A   1      44.582  23.517  28.788  1.00  0.00    -0.354 N 
ATOM     53  N   UNL A   1      46.598  27.029  30.300  1.00  0.00    -0.248 NA
ATOM     54  C   UNL A   1      47.043  26.849  28.016  1.00  0.00     0.031 C 
ATOM     55  C   UNL A   1      43.383  23.388  30.616  1.00  0.00     0.029 A 
ATOM     56  C   UNL A   1      44.537  23.968  30.084  1.00  0.00     0.049 A 
ATOM     57  H   UNL A   1      45.391  23.473  28.229  1.00  0.00     0.167 HD
ATOM     58  C   UNL A   1      46.278  25.741  29.906  1.00  0.00     0.074 A 
ATOM     59  C   UNL A   1      46.705  25.657  28.514  1.00  0.00     0.031 C 
ATOM     60  C   UNL A   1      45.443  24.957  30.647  1.00  0.00     0.034 A 
BRANCH  47  61
ATOM     61  C   UNL A   1      43.698  22.947  25.841  1.00  0.00     0.023 A 
ATOM     62  C   UNL A   1      43.672  21.573  25.582  1.00  0.00     0.031 A 
ATOM     63  C   UNL A   1      44.637  23.710  25.105  1.00  0.00     0.131 A 
ATOM     64  C   UNL A   1      44.563  21.011  24.658  1.00  0.00     0.055 A 
ATOM     65  C   UNL A   1      45.455  23.161  24.121  1.00  0.00     0.041 A 
ATOM     66  F   UNL A   1      44.893  24.999  25.368  1.00  0.00    -0.206 F 
ATOM     67  C   UNL A   1      45.437  21.797  23.907  1.00  0.00     0.022 A 
BRANCH  64  68
ATOM     68  S   UNL A   1      44.677  19.210  24.580  1.00  0.00     0.124 S 
ATOM     69  O   UNL A   1      45.803  18.950  25.472  1.00  0.00    -0.237 OA
ATOM     70  O   UNL A   1      43.363  18.805  25.064  1.00  0.00    -0.237 OA
ATOM     71  O   UNL A   1      44.930  18.951  23.165  1.00  0.00    -0.744 OA
ENDBRANCH  64  68
ENDBRANCH  47  61
BRANCH  48  72
ATOM     72  C   UNL A   1      47.194  30.224  28.611  1.00  0.00     0.023 A 
ATOM     73  C   UNL A   1      46.843  31.194  27.647  1.00  0.00     0.031 A 
ATOM     74  C   UNL A   1      48.324  30.519  29.411  1.00  0.00     0.131 A 
ATOM     75  C   UNL A   1      47.596  32.388  27.518  1.00  0.00     0.055 A 
ATOM     76  C   UNL A   1      49.061  31.702  29.284  1.00  0.00     0.041 A 
ATOM     77  F   UNL A   1      48.703  29.698  30.402  1.00  0.00    -0.206 F 
ATOM     78  C   UNL A   1      48.693  32.649  28.342  1.00  0.00     0.022 A 
BRANCH  75  79
ATOM     79  S   UNL A   1      47.089  33.689  26.343  1.00  0.00     0.124 S 
ATOM     80  O   UNL A   1      48.223  33.734  25.429  1.00  0.00    -0.237 OA
ATOM     81  O   UNL A   1      45.840  33.163  25.805  1.00  0.00    -0.237 OA
ATOM     82  O   UNL A   1      46.935  34.872  27.192  1.00  0.00    -0.744 OA
ENDBRANCH  75  79
ENDBRANCH  48  72
BRANCH  60  83
ATOM     83  C   UNL A   1      45.287  25.239  32.124  1.00  0.00     0.023 A 
ATOM     84  C   UNL A   1      46.127  24.752  33.140  1.00  0.00     0.031 A 
ATOM     85  C   UNL A   1      44.304  26.183  32.482  1.00  0.00     0.131 A 
ATOM     86  C   UNL A   1      45.963  25.218  34.461  1.00  0.00     0.055 A 
ATOM     87  C   UNL A   1      44.170  26.667  33.782  1.00  0.00     0.041 A 
ATOM     88  F   UNL A   1      43.480  26.690  31.550  1.00  0.00    -0.206 F 
ATOM     89  C   UNL A   1      45.005  26.186  34.780  1.00  0.00     0.022 A 
BRANCH  86  90
ATOM     90  S   UNL A   1      46.980  24.531  35.797  1.00  0.00     0.124 S 
ATOM     91  O   UNL A   1      46.770  25.518  36.850  1.00  0.00    -0.237 OA
ATOM     92  O   UNL A   1      46.393  23.212  36.013  1.00  0.00    -0.237 OA
ATOM     93  O   UNL A   1      48.329  24.515  35.229  1.00  0.00    -0.744 OA
ENDBRANCH  86  90
ENDBRANCH  60  83
ENDBRANCH  34  35
ENDBRANCH  27  29
ENDBRANCH  26  27
ENDBRANCH  25  26
ENDBRANCH  24  25
ENDBRANCH  23  24
ENDBRANCH   1  23
TORSDOF 23
ENDMDL
