MODEL 1
REMARK VINA RESULT:     -10.3      0.000      0.000
REMARK SMILES CC(C)[C@@H](NC(=O)[C@@](C)([NH3+])C(F)(F)F)C(=O)OCCOCCOC(=O)c1ccc(-c2c3nc(c(-c4cc(S(=O)(=O)[O-])ccc4F)c4ccc([nH]4)c(-c4cc(S(=O)(=O)[O-])ccc4F)c4nc(c(-c5cc(S(=O)(=O)[O-])ccc5F)c5ccc2[nH]5)C=C4)C=C3)cc1
REMARK SMILES IDX 20 1 19 2 18 3 17 4 15 5 16 6 4 7 2 8 1 9 3 10 5 11 6 12
REMARK SMILES IDX 7 14 8 15 9 16 10 17 11 21 12 22 13 23 14 24 21 25 22 26
REMARK SMILES IDX 23 27 24 28 25 29 26 30 27 31 88 32 28 33 87 34 29 35 30 36
REMARK SMILES IDX 31 37 81 38 32 39 86 40 80 41 82 42 33 43 85 44 79 45 78 46
REMARK SMILES IDX 34 48 66 49 46 50 65 51 47 52 50 53 64 54 83 55 48 56 49 57
REMARK SMILES IDX 63 59 84 60 51 61 35 62 36 63 44 64 37 65 43 66 45 67 42 68
REMARK SMILES IDX 38 69 39 70 40 71 41 72 67 73 68 74 76 75 69 76 75 77 77 78
REMARK SMILES IDX 74 79 70 80 71 81 72 82 73 83 52 84 53 85 61 86 54 87 60 88
REMARK SMILES IDX 62 89 59 90 55 91 56 92 57 93 58 94
REMARK H PARENT 5 13 10 18 10 19 10 20 82 47 50 58
REMARK Flexibility Score: inf
ROOT
ATOM      1  O   UNL A   1      38.043  21.225  24.586  1.00  0.00    -0.374 OA
ENDROOT
BRANCH   1   2
ATOM      2  C   UNL A   1      36.892  22.034  24.382  1.00  0.00     0.202 C 
BRANCH   2   3
ATOM      3  C   UNL A   1      36.767  23.253  25.294  1.00  0.00     0.261 C 
BRANCH   3   4
ATOM      4  O   UNL A   1      35.468  23.883  25.295  1.00  0.00    -0.462 OA
BRANCH   4   5
ATOM      5  C   UNL A   1      34.518  23.255  26.039  1.00  0.00     0.328 C 
ATOM      6  O   UNL A   1      34.656  22.973  27.227  1.00  0.00    -0.250 OA
BRANCH   5   7
ATOM      7  C   UNL A   1      33.324  22.712  25.236  1.00  0.00     0.195 C 
BRANCH   7   8
ATOM      8  C   UNL A   1      33.457  21.462  24.328  1.00  0.00     0.017 C 
ATOM      9  C   UNL A   1      33.923  20.250  25.160  1.00  0.00     0.010 C 
ATOM     10  C   UNL A   1      32.138  21.068  23.659  1.00  0.00     0.010 C 
ENDBRANCH   7   8
BRANCH   7  11
ATOM     11  N   UNL A   1      32.042  22.741  25.986  1.00  0.00    -0.337 N 
ATOM     12  C   UNL A   1      31.045  23.646  26.229  1.00  0.00     0.291 C 
ATOM     13  H   UNL A   1      31.862  21.878  26.426  1.00  0.00     0.164 HD
ATOM     14  O   UNL A   1      30.394  23.411  27.252  1.00  0.00    -0.267 OA
BRANCH  12  15
ATOM     15  C   UNL A   1      30.687  24.810  25.278  1.00  0.00     0.267 C 
ATOM     16  C   UNL A   1      30.680  24.366  23.810  1.00  0.00     0.100 C 
BRANCH  15  17
ATOM     17  N   UNL A   1      29.365  25.384  25.691  1.00  0.00    -0.337 N 
ATOM     18  H   UNL A   1      29.139  26.179  25.092  1.00  0.00     0.345 HD
ATOM     19  H   UNL A   1      29.418  25.695  26.661  1.00  0.00     0.345 HD
ATOM     20  H   UNL A   1      28.641  24.672  25.600  1.00  0.00     0.345 HD
ENDBRANCH  15  17
BRANCH  15  21
ATOM     21  C   UNL A   1      31.800  25.896  25.413  1.00  0.00     0.453 C 
ATOM     22  F   UNL A   1      31.330  27.157  25.285  1.00  0.00    -0.164 F 
ATOM     23  F   UNL A   1      32.476  25.808  26.581  1.00  0.00    -0.164 F 
ATOM     24  F   UNL A   1      32.720  25.724  24.421  1.00  0.00    -0.164 F 
ENDBRANCH  15  21
ENDBRANCH  12  15
ENDBRANCH   7  11
ENDBRANCH   5   7
ENDBRANCH   4   5
ENDBRANCH   3   4
ENDBRANCH   2   3
ENDBRANCH   1   2
BRANCH   1  25
ATOM     25  C   UNL A   1      37.826  19.918  25.118  1.00  0.00     0.202 C 
BRANCH  25  26
ATOM     26  C   UNL A   1      39.046  19.240  25.758  1.00  0.00     0.261 C 
BRANCH  26  27
ATOM     27  O   UNL A   1      40.227  20.073  25.717  1.00  0.00    -0.460 OA
BRANCH  27  28
ATOM     28  C   UNL A   1      40.864  20.214  26.903  1.00  0.00     0.338 C 
ATOM     29  O   UNL A   1      41.445  19.333  27.530  1.00  0.00    -0.246 OA
BRANCH  28  30
ATOM     30  C   UNL A   1      40.900  21.623  27.328  1.00  0.00     0.060 A 
ATOM     31  C   UNL A   1      40.278  22.581  26.516  1.00  0.00     0.016 A 
ATOM     32  C   UNL A   1      41.688  22.019  28.410  1.00  0.00     0.016 A 
ATOM     33  C   UNL A   1      40.483  23.942  26.757  1.00  0.00     0.010 A 
ATOM     34  C   UNL A   1      41.897  23.386  28.644  1.00  0.00     0.010 A 
ATOM     35  C   UNL A   1      41.327  24.354  27.797  1.00  0.00    -0.014 A 
BRANCH  35  36
ATOM     36  C   UNL A   1      41.735  25.781  27.914  1.00  0.00     0.031 A 
ATOM     37  C   UNL A   1      43.063  26.216  27.352  1.00  0.00     0.074 A 
ATOM     38  C   UNL A   1      40.932  26.684  28.503  1.00  0.00     0.049 A 
ATOM     39  N   UNL A   1      43.649  27.385  27.413  1.00  0.00    -0.248 NA
ATOM     40  C   UNL A   1      43.828  25.195  26.623  1.00  0.00     0.031 C 
ATOM     41  C   UNL A   1      39.597  26.411  29.029  1.00  0.00     0.029 A 
ATOM     42  N   UNL A   1      41.131  28.018  28.764  1.00  0.00    -0.354 N 
ATOM     43  C   UNL A   1      44.852  27.244  26.728  1.00  0.00     0.074 A 
ATOM     44  C   UNL A   1      44.925  25.864  26.295  1.00  0.00     0.031 C 
ATOM     45  C   UNL A   1      39.102  27.539  29.566  1.00  0.00     0.029 A 
ATOM     46  C   UNL A   1      40.101  28.602  29.463  1.00  0.00     0.049 A 
ATOM     47  H   UNL A   1      41.935  28.509  28.480  1.00  0.00     0.167 HD
ATOM     48  C   UNL A   1      45.802  28.180  26.472  1.00  0.00     0.034 A 
ATOM     49  C   UNL A   1      39.992  29.838  29.991  1.00  0.00     0.034 A 
ATOM     50  C   UNL A   1      45.731  29.548  26.923  1.00  0.00     0.049 A 
ATOM     51  C   UNL A   1      41.129  30.817  29.833  1.00  0.00     0.074 A 
ATOM     52  C   UNL A   1      46.622  30.583  26.691  1.00  0.00     0.029 A 
ATOM     53  N   UNL A   1      44.722  30.070  27.722  1.00  0.00    -0.354 N 
ATOM     54  N   UNL A   1      42.261  30.671  29.185  1.00  0.00    -0.248 NA
ATOM     55  C   UNL A   1      40.978  32.122  30.493  1.00  0.00     0.031 C 
ATOM     56  C   UNL A   1      46.191  31.706  27.408  1.00  0.00     0.029 A 
ATOM     57  C   UNL A   1      44.996  31.394  28.033  1.00  0.00     0.049 A 
ATOM     58  H   UNL A   1      43.927  29.574  28.022  1.00  0.00     0.167 HD
ATOM     59  C   UNL A   1      42.947  31.873  29.343  1.00  0.00     0.074 A 
ATOM     60  C   UNL A   1      42.100  32.735  30.141  1.00  0.00     0.031 C 
ATOM     61  C   UNL A   1      44.163  32.235  28.860  1.00  0.00     0.034 A 
BRANCH  48  62
ATOM     62  C   UNL A   1      47.024  27.729  25.710  1.00  0.00     0.023 A 
ATOM     63  C   UNL A   1      47.199  28.033  24.349  1.00  0.00     0.031 A 
ATOM     64  C   UNL A   1      48.012  26.957  26.346  1.00  0.00     0.131 A 
ATOM     65  C   UNL A   1      48.295  27.505  23.650  1.00  0.00     0.055 A 
ATOM     66  C   UNL A   1      49.139  26.497  25.662  1.00  0.00     0.041 A 
ATOM     67  F   UNL A   1      47.889  26.620  27.640  1.00  0.00    -0.206 F 
ATOM     68  C   UNL A   1      49.278  26.757  24.302  1.00  0.00     0.022 A 
BRANCH  65  69
ATOM     69  S   UNL A   1      48.340  27.685  21.845  1.00  0.00     0.124 S 
ATOM     70  O   UNL A   1      49.436  28.634  21.668  1.00  0.00    -0.237 OA
ATOM     71  O   UNL A   1      48.596  26.321  21.399  1.00  0.00    -0.237 OA
ATOM     72  O   UNL A   1      47.014  28.209  21.520  1.00  0.00    -0.744 OA
ENDBRANCH  65  69
ENDBRANCH  48  62
BRANCH  49  73
ATOM     73  C   UNL A   1      38.786  30.209  30.784  1.00  0.00     0.023 A 
ATOM     74  C   UNL A   1      37.741  30.948  30.211  1.00  0.00     0.031 A 
ATOM     75  C   UNL A   1      38.688  29.867  32.145  1.00  0.00     0.131 A 
ATOM     76  C   UNL A   1      36.653  31.348  31.004  1.00  0.00     0.055 A 
ATOM     77  C   UNL A   1      37.585  30.227  32.918  1.00  0.00     0.041 A 
ATOM     78  F   UNL A   1      39.667  29.166  32.740  1.00  0.00    -0.206 F 
ATOM     79  C   UNL A   1      36.561  30.980  32.349  1.00  0.00     0.022 A 
BRANCH  76  80
ATOM     80  S   UNL A   1      35.384  32.412  30.264  1.00  0.00     0.124 S 
ATOM     81  O   UNL A   1      36.129  33.643  30.030  1.00  0.00    -0.237 OA
ATOM     82  O   UNL A   1      35.007  31.653  29.076  1.00  0.00    -0.237 OA
ATOM     83  O   UNL A   1      34.358  32.491  31.302  1.00  0.00    -0.744 OA
ENDBRANCH  76  80
ENDBRANCH  49  73
BRANCH  61  84
ATOM     84  C   UNL A   1      44.638  33.633  29.170  1.00  0.00     0.023 A 
ATOM     85  C   UNL A   1      44.172  34.746  28.448  1.00  0.00     0.031 A 
ATOM     86  C   UNL A   1      45.568  33.855  30.202  1.00  0.00     0.131 A 
ATOM     87  C   UNL A   1      44.666  36.026  28.742  1.00  0.00     0.055 A 
ATOM     88  C   UNL A   1      46.020  35.136  30.520  1.00  0.00     0.041 A 
ATOM     89  F   UNL A   1      46.046  32.827  30.921  1.00  0.00    -0.206 F 
ATOM     90  C   UNL A   1      45.576  36.229  29.784  1.00  0.00     0.022 A 
BRANCH  87  91
ATOM     91  S   UNL A   1      44.146  37.425  27.710  1.00  0.00     0.124 S 
ATOM     92  O   UNL A   1      43.422  38.255  28.667  1.00  0.00    -0.237 OA
ATOM     93  O   UNL A   1      45.420  37.958  27.238  1.00  0.00    -0.237 OA
ATOM     94  O   UNL A   1      43.318  36.801  26.678  1.00  0.00    -0.744 OA
ENDBRANCH  87  91
ENDBRANCH  61  84
ENDBRANCH  35  36
ENDBRANCH  28  30
ENDBRANCH  27  28
ENDBRANCH  26  27
ENDBRANCH  25  26
ENDBRANCH   1  25
TORSDOF 22
ENDMDL
MODEL 2
REMARK VINA RESULT:     -10.2      1.573      7.845
REMARK SMILES CC(C)[C@@H](NC(=O)[C@@](C)([NH3+])C(F)(F)F)C(=O)OCCOCCOC(=O)c1ccc(-c2c3nc(c(-c4cc(S(=O)(=O)[O-])ccc4F)c4ccc([nH]4)c(-c4cc(S(=O)(=O)[O-])ccc4F)c4nc(c(-c5cc(S(=O)(=O)[O-])ccc5F)c5ccc2[nH]5)C=C4)C=C3)cc1
REMARK SMILES IDX 20 1 19 2 18 3 17 4 15 5 16 6 4 7 2 8 1 9 3 10 5 11 6 12
REMARK SMILES IDX 7 14 8 15 9 16 10 17 11 21 12 22 13 23 14 24 21 25 22 26
REMARK SMILES IDX 23 27 24 28 25 29 26 30 27 31 88 32 28 33 87 34 29 35 30 36
REMARK SMILES IDX 31 37 81 38 32 39 86 40 80 41 82 42 33 43 85 44 79 45 78 46
REMARK SMILES IDX 34 48 66 49 46 50 65 51 47 52 50 53 64 54 83 55 48 56 49 57
REMARK SMILES IDX 63 59 84 60 51 61 35 62 36 63 44 64 37 65 43 66 45 67 42 68
REMARK SMILES IDX 38 69 39 70 40 71 41 72 67 73 68 74 76 75 69 76 75 77 77 78
REMARK SMILES IDX 74 79 70 80 71 81 72 82 73 83 52 84 53 85 61 86 54 87 60 88
REMARK SMILES IDX 62 89 59 90 55 91 56 92 57 93 58 94
REMARK H PARENT 5 13 10 18 10 19 10 20 82 47 50 58
REMARK Flexibility Score: inf
ROOT
ATOM      1  O   UNL A   1      35.307  21.580  25.611  1.00  0.00    -0.374 OA
ENDROOT
BRANCH   1   2
ATOM      2  C   UNL A   1      34.147  21.341  26.399  1.00  0.00     0.202 C 
BRANCH   2   3
ATOM      3  C   UNL A   1      32.863  22.006  25.909  1.00  0.00     0.261 C 
BRANCH   3   4
ATOM      4  O   UNL A   1      32.945  23.437  25.733  1.00  0.00    -0.462 OA
BRANCH   4   5
ATOM      5  C   UNL A   1      31.948  24.153  26.317  1.00  0.00     0.328 C 
ATOM      6  O   UNL A   1      31.243  23.726  27.230  1.00  0.00    -0.250 OA
BRANCH   5   7
ATOM      7  C   UNL A   1      31.601  25.474  25.609  1.00  0.00     0.195 C 
BRANCH   7   8
ATOM      8  C   UNL A   1      30.779  25.500  24.295  1.00  0.00     0.017 C 
ATOM      9  C   UNL A   1      30.528  24.060  23.799  1.00  0.00     0.010 C 
ATOM     10  C   UNL A   1      29.410  26.163  24.460  1.00  0.00     0.010 C 
ENDBRANCH   7   8
BRANCH   7  11
ATOM     11  N   UNL A   1      31.223  26.566  26.543  1.00  0.00    -0.337 N 
ATOM     12  C   UNL A   1      31.817  27.679  27.073  1.00  0.00     0.291 C 
ATOM     13  H   UNL A   1      30.299  26.461  26.865  1.00  0.00     0.164 HD
ATOM     14  O   UNL A   1      31.311  28.057  28.135  1.00  0.00    -0.267 OA
BRANCH  12  15
ATOM     15  C   UNL A   1      32.954  28.462  26.380  1.00  0.00     0.267 C 
ATOM     16  C   UNL A   1      33.804  29.247  27.387  1.00  0.00     0.100 C 
BRANCH  15  17
ATOM     17  N   UNL A   1      33.785  27.505  25.580  1.00  0.00    -0.337 N 
ATOM     18  H   UNL A   1      33.641  27.681  24.585  1.00  0.00     0.345 HD
ATOM     19  H   UNL A   1      33.507  26.548  25.799  1.00  0.00     0.345 HD
ATOM     20  H   UNL A   1      34.770  27.634  25.809  1.00  0.00     0.345 HD
ENDBRANCH  15  17
BRANCH  15  21
ATOM     21  C   UNL A   1      32.298  29.514  25.430  1.00  0.00     0.453 C 
ATOM     22  F   UNL A   1      32.191  30.740  25.988  1.00  0.00    -0.164 F 
ATOM     23  F   UNL A   1      32.954  29.635  24.254  1.00  0.00    -0.164 F 
ATOM     24  F   UNL A   1      31.030  29.116  25.126  1.00  0.00    -0.164 F 
ENDBRANCH  15  21
ENDBRANCH  12  15
ENDBRANCH   7  11
ENDBRANCH   5   7
ENDBRANCH   4   5
ENDBRANCH   3   4
ENDBRANCH   2   3
ENDBRANCH   1   2
BRANCH   1  25
ATOM     25  C   UNL A   1      35.921  20.441  25.008  1.00  0.00     0.202 C 
BRANCH  25  26
ATOM     26  C   UNL A   1      37.456  20.435  24.990  1.00  0.00     0.261 C 
BRANCH  26  27
ATOM     27  O   UNL A   1      38.021  21.660  25.511  1.00  0.00    -0.460 OA
BRANCH  27  28
ATOM     28  C   UNL A   1      39.208  21.514  26.145  1.00  0.00     0.338 C 
ATOM     29  O   UNL A   1      39.955  20.542  26.082  1.00  0.00    -0.246 OA
BRANCH  28  30
ATOM     30  C   UNL A   1      39.592  22.746  26.854  1.00  0.00     0.060 A 
ATOM     31  C   UNL A   1      39.056  23.963  26.414  1.00  0.00     0.016 A 
ATOM     32  C   UNL A   1      40.603  22.726  27.816  1.00  0.00     0.016 A 
ATOM     33  C   UNL A   1      39.565  25.170  26.902  1.00  0.00     0.010 A 
ATOM     34  C   UNL A   1      41.116  23.938  28.299  1.00  0.00     0.010 A 
ATOM     35  C   UNL A   1      40.628  25.167  27.817  1.00  0.00    -0.014 A 
BRANCH  35  36
ATOM     36  C   UNL A   1      41.326  26.435  28.161  1.00  0.00     0.031 A 
ATOM     37  C   UNL A   1      40.565  27.527  28.867  1.00  0.00     0.074 A 
ATOM     38  C   UNL A   1      42.624  26.614  27.861  1.00  0.00     0.049 A 
ATOM     39  N   UNL A   1      40.952  28.736  29.189  1.00  0.00    -0.248 NA
ATOM     40  C   UNL A   1      39.186  27.209  29.262  1.00  0.00     0.031 C 
ATOM     41  C   UNL A   1      43.493  25.617  27.239  1.00  0.00     0.029 A 
ATOM     42  N   UNL A   1      43.437  27.708  28.034  1.00  0.00    -0.354 N 
ATOM     43  C   UNL A   1      39.866  29.324  29.829  1.00  0.00     0.074 A 
ATOM     44  C   UNL A   1      38.794  28.350  29.813  1.00  0.00     0.031 C 
ATOM     45  C   UNL A   1      44.714  26.150  27.067  1.00  0.00     0.029 A 
ATOM     46  C   UNL A   1      44.703  27.540  27.524  1.00  0.00     0.049 A 
ATOM     47  H   UNL A   1      43.141  28.534  28.478  1.00  0.00     0.167 HD
ATOM     48  C   UNL A   1      39.773  30.557  30.390  1.00  0.00     0.034 A 
ATOM     49  C   UNL A   1      45.722  28.415  27.404  1.00  0.00     0.034 A 
ATOM     50  C   UNL A   1      40.838  31.530  30.385  1.00  0.00     0.049 A 
ATOM     51  C   UNL A   1      45.544  29.833  27.890  1.00  0.00     0.074 A 
ATOM     52  C   UNL A   1      40.859  32.793  30.953  1.00  0.00     0.029 A 
ATOM     53  N   UNL A   1      42.068  31.359  29.762  1.00  0.00    -0.354 N 
ATOM     54  N   UNL A   1      44.513  30.378  28.491  1.00  0.00    -0.248 NA
ATOM     55  C   UNL A   1      46.666  30.757  27.666  1.00  0.00     0.031 C 
ATOM     56  C   UNL A   1      42.067  33.412  30.610  1.00  0.00     0.029 A 
ATOM     57  C   UNL A   1      42.831  32.511  29.886  1.00  0.00     0.049 A 
ATOM     58  H   UNL A   1      42.356  30.540  29.300  1.00  0.00     0.167 HD
ATOM     59  C   UNL A   1      44.871  31.702  28.735  1.00  0.00     0.074 A 
ATOM     60  C   UNL A   1      46.214  31.871  28.222  1.00  0.00     0.031 C 
ATOM     61  C   UNL A   1      44.155  32.685  29.339  1.00  0.00     0.034 A 
BRANCH  48  62
ATOM     62  C   UNL A   1      38.449  30.935  31.007  1.00  0.00     0.023 A 
ATOM     63  C   UNL A   1      37.437  31.561  30.258  1.00  0.00     0.031 A 
ATOM     64  C   UNL A   1      38.207  30.697  32.371  1.00  0.00     0.131 A 
ATOM     65  C   UNL A   1      36.263  31.994  30.892  1.00  0.00     0.055 A 
ATOM     66  C   UNL A   1      37.006  31.063  32.981  1.00  0.00     0.041 A 
ATOM     67  F   UNL A   1      39.145  30.120  33.140  1.00  0.00    -0.206 F 
ATOM     68  C   UNL A   1      36.031  31.730  32.245  1.00  0.00     0.022 A 
BRANCH  65  69
ATOM     69  S   UNL A   1      35.108  33.037  29.961  1.00  0.00     0.124 S 
ATOM     70  O   UNL A   1      36.008  34.030  29.379  1.00  0.00    -0.237 OA
ATOM     71  O   UNL A   1      34.511  32.090  29.027  1.00  0.00    -0.237 OA
ATOM     72  O   UNL A   1      34.207  33.553  30.989  1.00  0.00    -0.744 OA
ENDBRANCH  65  69
ENDBRANCH  48  62
BRANCH  49  73
ATOM     73  C   UNL A   1      46.987  28.004  26.733  1.00  0.00     0.023 A 
ATOM     74  C   UNL A   1      47.109  28.037  25.336  1.00  0.00     0.031 A 
ATOM     75  C   UNL A   1      48.075  27.526  27.483  1.00  0.00     0.131 A 
ATOM     76  C   UNL A   1      48.287  27.571  24.729  1.00  0.00     0.055 A 
ATOM     77  C   UNL A   1      49.260  27.106  26.879  1.00  0.00     0.041 A 
ATOM     78  F   UNL A   1      48.003  27.468  28.823  1.00  0.00    -0.206 F 
ATOM     79  C   UNL A   1      49.367  27.119  25.491  1.00  0.00     0.022 A 
BRANCH  76  80
ATOM     80  S   UNL A   1      48.362  27.506  22.918  1.00  0.00     0.124 S 
ATOM     81  O   UNL A   1      48.279  26.071  22.668  1.00  0.00    -0.237 OA
ATOM     82  O   UNL A   1      47.194  28.292  22.537  1.00  0.00    -0.237 OA
ATOM     83  O   UNL A   1      49.652  28.120  22.608  1.00  0.00    -0.744 OA
ENDBRANCH  76  80
ENDBRANCH  49  73
BRANCH  61  84
ATOM     84  C   UNL A   1      44.826  34.028  29.493  1.00  0.00     0.023 A 
ATOM     85  C   UNL A   1      44.825  34.974  28.453  1.00  0.00     0.031 A 
ATOM     86  C   UNL A   1      45.473  34.364  30.695  1.00  0.00     0.131 A 
ATOM     87  C   UNL A   1      45.492  36.198  28.623  1.00  0.00     0.055 A 
ATOM     88  C   UNL A   1      46.094  35.600  30.874  1.00  0.00     0.041 A 
ATOM     89  F   UNL A   1      45.504  33.496  31.719  1.00  0.00    -0.206 F 
ATOM     90  C   UNL A   1      46.114  36.522  29.832  1.00  0.00     0.022 A 
BRANCH  87  91
ATOM     91  S   UNL A   1      45.585  37.346  27.221  1.00  0.00     0.124 S 
ATOM     92  O   UNL A   1      46.253  36.534  26.209  1.00  0.00    -0.237 OA
ATOM     93  O   UNL A   1      44.179  37.650  26.969  1.00  0.00    -0.237 OA
ATOM     94  O   UNL A   1      46.373  38.461  27.742  1.00  0.00    -0.744 OA
ENDBRANCH  87  91
ENDBRANCH  61  84
ENDBRANCH  35  36
ENDBRANCH  28  30
ENDBRANCH  27  28
ENDBRANCH  26  27
ENDBRANCH  25  26
ENDBRANCH   1  25
TORSDOF 22
ENDMDL
MODEL 3
REMARK VINA RESULT:     -10.2      1.540      7.827
REMARK SMILES CC(C)[C@@H](NC(=O)[C@@](C)([NH3+])C(F)(F)F)C(=O)OCCOCCOC(=O)c1ccc(-c2c3nc(c(-c4cc(S(=O)(=O)[O-])ccc4F)c4ccc([nH]4)c(-c4cc(S(=O)(=O)[O-])ccc4F)c4nc(c(-c5cc(S(=O)(=O)[O-])ccc5F)c5ccc2[nH]5)C=C4)C=C3)cc1
REMARK SMILES IDX 20 1 19 2 18 3 17 4 15 5 16 6 4 7 2 8 1 9 3 10 5 11 6 12
REMARK SMILES IDX 7 14 8 15 9 16 10 17 11 21 12 22 13 23 14 24 21 25 22 26
REMARK SMILES IDX 23 27 24 28 25 29 26 30 27 31 88 32 28 33 87 34 29 35 30 36
REMARK SMILES IDX 31 37 81 38 32 39 86 40 80 41 82 42 33 43 85 44 79 45 78 46
REMARK SMILES IDX 34 48 66 49 46 50 65 51 47 52 50 53 64 54 83 55 48 56 49 57
REMARK SMILES IDX 63 59 84 60 51 61 35 62 36 63 44 64 37 65 43 66 45 67 42 68
REMARK SMILES IDX 38 69 39 70 40 71 41 72 67 73 68 74 76 75 69 76 75 77 77 78
REMARK SMILES IDX 74 79 70 80 71 81 72 82 73 83 52 84 53 85 61 86 54 87 60 88
REMARK SMILES IDX 62 89 59 90 55 91 56 92 57 93 58 94
REMARK H PARENT 5 13 10 18 10 19 10 20 82 47 50 58
REMARK Flexibility Score: inf
ROOT
ATOM      1  O   UNL A   1      35.036  21.374  26.481  1.00  0.00    -0.374 OA
ENDROOT
BRANCH   1   2
ATOM      2  C   UNL A   1      33.679  21.413  26.904  1.00  0.00     0.202 C 
BRANCH   2   3
ATOM      3  C   UNL A   1      33.218  22.722  27.540  1.00  0.00     0.261 C 
BRANCH   3   4
ATOM      4  O   UNL A   1      31.962  23.233  27.044  1.00  0.00    -0.462 OA
BRANCH   4   5
ATOM      5  C   UNL A   1      31.867  23.324  25.690  1.00  0.00     0.328 C 
ATOM      6  O   UNL A   1      31.174  22.578  25.001  1.00  0.00    -0.250 OA
BRANCH   5   7
ATOM      7  C   UNL A   1      32.866  24.294  25.037  1.00  0.00     0.195 C 
BRANCH   7   8
ATOM      8  C   UNL A   1      33.996  24.970  25.856  1.00  0.00     0.017 C 
ATOM      9  C   UNL A   1      35.366  24.683  25.206  1.00  0.00     0.010 C 
ATOM     10  C   UNL A   1      33.847  26.491  25.935  1.00  0.00     0.010 C 
ENDBRANCH   7   8
BRANCH   7  11
ATOM     11  N   UNL A   1      33.317  23.862  23.688  1.00  0.00    -0.337 N 
ATOM     12  C   UNL A   1      33.082  24.227  22.390  1.00  0.00     0.291 C 
ATOM     13  H   UNL A   1      33.954  23.114  23.744  1.00  0.00     0.164 HD
ATOM     14  O   UNL A   1      33.311  23.332  21.570  1.00  0.00    -0.267 OA
BRANCH  12  15
ATOM     15  C   UNL A   1      32.660  25.649  21.958  1.00  0.00     0.267 C 
ATOM     16  C   UNL A   1      33.645  26.713  22.456  1.00  0.00     0.100 C 
BRANCH  15  17
ATOM     17  N   UNL A   1      32.515  25.679  20.466  1.00  0.00    -0.337 N 
ATOM     18  H   UNL A   1      31.695  25.138  20.194  1.00  0.00     0.345 HD
ATOM     19  H   UNL A   1      33.347  25.275  20.036  1.00  0.00     0.345 HD
ATOM     20  H   UNL A   1      32.405  26.644  20.155  1.00  0.00     0.345 HD
ENDBRANCH  15  17
BRANCH  15  21
ATOM     21  C   UNL A   1      31.285  25.962  22.628  1.00  0.00     0.453 C 
ATOM     22  F   UNL A   1      31.405  26.477  23.872  1.00  0.00    -0.164 F 
ATOM     23  F   UNL A   1      30.523  26.800  21.889  1.00  0.00    -0.164 F 
ATOM     24  F   UNL A   1      30.573  24.806  22.757  1.00  0.00    -0.164 F 
ENDBRANCH  15  21
ENDBRANCH  12  15
ENDBRANCH   7  11
ENDBRANCH   5   7
ENDBRANCH   4   5
ENDBRANCH   3   4
ENDBRANCH   2   3
ENDBRANCH   1   2
BRANCH   1  25
ATOM     25  C   UNL A   1      35.301  20.757  25.221  1.00  0.00     0.202 C 
BRANCH  25  26
ATOM     26  C   UNL A   1      36.764  20.379  24.950  1.00  0.00     0.261 C 
BRANCH  26  27
ATOM     27  O   UNL A   1      37.664  21.497  25.122  1.00  0.00    -0.460 OA
BRANCH  27  28
ATOM     28  C   UNL A   1      38.795  21.215  25.812  1.00  0.00     0.338 C 
ATOM     29  O   UNL A   1      39.426  20.162  25.782  1.00  0.00    -0.246 OA
BRANCH  28  30
ATOM     30  C   UNL A   1      39.285  22.395  26.544  1.00  0.00     0.060 A 
ATOM     31  C   UNL A   1      38.779  23.654  26.194  1.00  0.00     0.016 A 
ATOM     32  C   UNL A   1      40.357  22.286  27.431  1.00  0.00     0.016 A 
ATOM     33  C   UNL A   1      39.378  24.813  26.695  1.00  0.00     0.010 A 
ATOM     34  C   UNL A   1      40.960  23.450  27.927  1.00  0.00     0.010 A 
ATOM     35  C   UNL A   1      40.499  24.721  27.533  1.00  0.00    -0.014 A 
BRANCH  35  36
ATOM     36  C   UNL A   1      41.280  25.939  27.880  1.00  0.00     0.031 A 
ATOM     37  C   UNL A   1      40.615  27.042  28.661  1.00  0.00     0.074 A 
ATOM     38  C   UNL A   1      42.568  26.063  27.516  1.00  0.00     0.049 A 
ATOM     39  N   UNL A   1      41.080  28.218  29.001  1.00  0.00    -0.248 NA
ATOM     40  C   UNL A   1      39.243  26.781  29.119  1.00  0.00     0.031 C 
ATOM     41  C   UNL A   1      43.350  25.046  26.816  1.00  0.00     0.029 A 
ATOM     42  N   UNL A   1      43.445  27.108  27.680  1.00  0.00    -0.354 N 
ATOM     43  C   UNL A   1      40.061  28.837  29.718  1.00  0.00     0.074 A 
ATOM     44  C   UNL A   1      38.941  27.919  29.727  1.00  0.00     0.031 C 
ATOM     45  C   UNL A   1      44.587  25.523  26.596  1.00  0.00     0.029 A 
ATOM     46  C   UNL A   1      44.672  26.894  27.097  1.00  0.00     0.049 A 
ATOM     47  H   UNL A   1      43.216  27.932  28.167  1.00  0.00     0.167 HD
ATOM     48  C   UNL A   1      40.062  30.053  30.322  1.00  0.00     0.034 A 
ATOM     49  C   UNL A   1      45.727  27.721  26.952  1.00  0.00     0.034 A 
ATOM     50  C   UNL A   1      41.175  30.970  30.292  1.00  0.00     0.049 A 
ATOM     51  C   UNL A   1      45.649  29.128  27.492  1.00  0.00     0.074 A 
ATOM     52  C   UNL A   1      41.291  32.210  30.899  1.00  0.00     0.029 A 
ATOM     53  N   UNL A   1      42.359  30.760  29.598  1.00  0.00    -0.354 N 
ATOM     54  N   UNL A   1      44.681  29.703  28.166  1.00  0.00    -0.248 NA
ATOM     55  C   UNL A   1      46.805  30.002  27.239  1.00  0.00     0.031 C 
ATOM     56  C   UNL A   1      42.510  32.779  30.511  1.00  0.00     0.029 A 
ATOM     57  C   UNL A   1      43.187  31.867  29.719  1.00  0.00     0.049 A 
ATOM     58  H   UNL A   1      42.580  29.944  29.094  1.00  0.00     0.167 HD
ATOM     59  C   UNL A   1      45.119  30.997  28.433  1.00  0.00     0.074 A 
ATOM     60  C   UNL A   1      46.441  31.117  27.854  1.00  0.00     0.031 C 
ATOM     61  C   UNL A   1      44.488  31.993  29.107  1.00  0.00     0.034 A 
BRANCH  48  62
ATOM     62  C   UNL A   1      38.793  30.475  31.021  1.00  0.00     0.023 A 
ATOM     63  C   UNL A   1      37.739  31.095  30.328  1.00  0.00     0.031 A 
ATOM     64  C   UNL A   1      38.649  30.285  32.407  1.00  0.00     0.131 A 
ATOM     65  C   UNL A   1      36.622  31.570  31.033  1.00  0.00     0.055 A 
ATOM     66  C   UNL A   1      37.503  30.692  33.091  1.00  0.00     0.041 A 
ATOM     67  F   UNL A   1      39.631  29.715  33.124  1.00  0.00    -0.206 F 
ATOM     68  C   UNL A   1      36.486  31.353  32.406  1.00  0.00     0.022 A 
BRANCH  65  69
ATOM     69  S   UNL A   1      35.419  32.605  30.154  1.00  0.00     0.124 S 
ATOM     70  O   UNL A   1      34.318  32.660  31.113  1.00  0.00    -0.237 OA
ATOM     71  O   UNL A   1      36.158  33.847  29.957  1.00  0.00    -0.237 OA
ATOM     72  O   UNL A   1      35.138  31.845  28.938  1.00  0.00    -0.744 OA
ENDBRANCH  65  69
ENDBRANCH  48  62
BRANCH  49  73
ATOM     73  C   UNL A   1      46.932  27.271  26.200  1.00  0.00     0.023 A 
ATOM     74  C   UNL A   1      47.152  27.674  24.875  1.00  0.00     0.031 A 
ATOM     75  C   UNL A   1      47.857  26.389  26.788  1.00  0.00     0.131 A 
ATOM     76  C   UNL A   1      48.257  27.172  24.168  1.00  0.00     0.055 A 
ATOM     77  C   UNL A   1      48.977  25.928  26.097  1.00  0.00     0.041 A 
ATOM     78  F   UNL A   1      47.685  25.969  28.051  1.00  0.00    -0.206 F 
ATOM     79  C   UNL A   1      49.178  26.313  24.774  1.00  0.00     0.022 A 
BRANCH  76  80
ATOM     80  S   UNL A   1      48.440  27.610  22.418  1.00  0.00     0.124 S 
ATOM     81  O   UNL A   1      47.200  28.335  22.162  1.00  0.00    -0.237 OA
ATOM     82  O   UNL A   1      49.660  28.411  22.431  1.00  0.00    -0.237 OA
ATOM     83  O   UNL A   1      48.555  26.315  21.751  1.00  0.00    -0.744 OA
ENDBRANCH  76  80
ENDBRANCH  49  73
BRANCH  61  84
ATOM     84  C   UNL A   1      45.235  33.294  29.268  1.00  0.00     0.023 A 
ATOM     85  C   UNL A   1      45.184  34.299  28.286  1.00  0.00     0.031 A 
ATOM     86  C   UNL A   1      46.007  33.532  30.420  1.00  0.00     0.131 A 
ATOM     87  C   UNL A   1      45.922  35.480  28.456  1.00  0.00     0.055 A 
ATOM     88  C   UNL A   1      46.701  34.727  30.605  1.00  0.00     0.041 A 
ATOM     89  F   UNL A   1      46.090  32.605  31.387  1.00  0.00    -0.206 F 
ATOM     90  C   UNL A   1      46.669  35.706  29.617  1.00  0.00     0.022 A 
BRANCH  87  91
ATOM     91  S   UNL A   1      45.941  36.703  27.116  1.00  0.00     0.124 S 
ATOM     92  O   UNL A   1      46.888  37.692  27.622  1.00  0.00    -0.237 OA
ATOM     93  O   UNL A   1      46.393  35.912  25.975  1.00  0.00    -0.237 OA
ATOM     94  O   UNL A   1      44.552  37.154  27.043  1.00  0.00    -0.744 OA
ENDBRANCH  87  91
ENDBRANCH  61  84
ENDBRANCH  35  36
ENDBRANCH  28  30
ENDBRANCH  27  28
ENDBRANCH  26  27
ENDBRANCH  25  26
ENDBRANCH   1  25
TORSDOF 22
ENDMDL
