MODEL 1
REMARK VINA RESULT:     -10.2      0.000      0.000
REMARK SMILES CCCCCCNC(=O)Oc1cccc(-c2ccc([C@H](C)C(=O)OCCOCCOC(=O)c3ccc(-c4c5nc(c(-c6cc(S(=O)(=O)[O-])ccc6F)c6ccc([nH]6)c(-c6cc(S(=O)(=O)[O-])ccc6F)c6nc(c(-c7cc(S(=O)(=O)[O-])ccc7F)c7ccc4[nH]7)C=C6)C=C5)cc3)cc2F)c1
REMARK SMILES IDX 24 1 22 2 23 3 20 4 21 5 19 6 16 7 17 8 97 9 18 10 96 11
REMARK SMILES IDX 98 12 15 13 11 14 12 15 99 16 13 17 14 18 10 19 8 20 7 21
REMARK SMILES IDX 9 23 6 24 5 25 4 26 3 27 2 28 1 29 25 30 26 31 27 32 28 33
REMARK SMILES IDX 29 34 30 35 31 36 32 37 33 38 34 39 95 40 35 41 94 42 36 43
REMARK SMILES IDX 37 44 38 45 88 46 39 47 93 48 87 49 89 50 40 51 92 52 86 53
REMARK SMILES IDX 85 54 41 56 73 57 53 58 72 59 54 60 57 61 71 62 90 63 55 64
REMARK SMILES IDX 56 65 70 67 91 68 58 69 42 70 43 71 51 72 44 73 50 74 52 75
REMARK SMILES IDX 49 76 45 77 46 78 47 79 48 80 74 81 75 82 83 83 76 84 82 85
REMARK SMILES IDX 84 86 81 87 77 88 78 89 79 90 80 91 59 92 60 93 68 94 61 95
REMARK SMILES IDX 67 96 69 97 66 98 62 99 63 100 64 101 65 102
REMARK H PARENT 7 22 89 55 57 66
REMARK Flexibility Score: inf
ROOT
ATOM      1  O   UNL A   1      28.654  31.379  24.062  1.00  0.00    -0.463 OA
ENDROOT
BRANCH   1   2
ATOM      2  C   UNL A   1      28.185  31.852  22.874  1.00  0.00     0.313 C 
ATOM      3  O   UNL A   1      28.092  33.037  22.572  1.00  0.00    -0.252 OA
BRANCH   2   4
ATOM      4  C   UNL A   1      27.725  30.730  21.950  1.00  0.00     0.126 C 
ATOM      5  C   UNL A   1      28.059  30.907  20.468  1.00  0.00     0.025 C 
BRANCH   4   6
ATOM      6  C   UNL A   1      28.242  29.414  22.478  1.00  0.00    -0.031 A 
ATOM      7  C   UNL A   1      29.258  27.075  23.650  1.00  0.00     0.018 A 
ATOM      8  C   UNL A   1      30.106  27.941  22.952  1.00  0.00     0.012 A 
ATOM      9  C   UNL A   1      27.892  27.379  23.716  1.00  0.00     0.131 A 
ATOM     10  C   UNL A   1      29.603  29.093  22.362  1.00  0.00     0.005 A 
ATOM     11  C   UNL A   1      27.382  28.537  23.143  1.00  0.00     0.044 A 
ATOM     12  F   UNL A   1      27.041  26.555  24.348  1.00  0.00    -0.206 F 
BRANCH   7  13
ATOM     13  C   UNL A   1      29.802  25.857  24.239  1.00  0.00    -0.012 A 
ATOM     14  C   UNL A   1      30.948  23.755  23.956  1.00  0.00     0.133 A 
ATOM     15  C   UNL A   1      30.995  23.566  25.334  1.00  0.00     0.047 A 
ATOM     16  C   UNL A   1      30.328  24.871  23.405  1.00  0.00     0.056 A 
ATOM     17  C   UNL A   1      30.452  24.535  26.175  1.00  0.00     0.004 A 
ATOM     18  C   UNL A   1      29.865  25.679  25.630  1.00  0.00     0.009 A 
BRANCH  14  19
ATOM     19  O   UNL A   1      31.457  22.745  23.133  1.00  0.00    -0.410 OA
BRANCH  19  20
ATOM     20  C   UNL A   1      32.428  21.923  23.681  1.00  0.00     0.412 C 
ATOM     21  N   UNL A   1      33.685  22.436  23.571  1.00  0.00    -0.321 N 
ATOM     22  H   UNL A   1      34.426  21.877  23.902  1.00  0.00     0.167 HD
ATOM     23  O   UNL A   1      32.243  20.840  24.234  1.00  0.00    -0.224 OA
BRANCH  21  24
ATOM     24  C   UNL A   1      34.036  23.724  23.015  1.00  0.00     0.119 C 
BRANCH  24  25
ATOM     25  C   UNL A   1      34.778  24.594  24.028  1.00  0.00     0.021 C 
BRANCH  25  26
ATOM     26  C   UNL A   1      33.877  25.287  25.055  1.00  0.00     0.002 C 
BRANCH  26  27
ATOM     27  C   UNL A   1      33.584  26.765  24.774  1.00  0.00    -0.000 C 
BRANCH  27  28
ATOM     28  C   UNL A   1      33.798  27.707  25.962  1.00  0.00    -0.003 C 
ATOM     29  C   UNL A   1      32.579  27.816  26.865  1.00  0.00     0.004 C 
ENDBRANCH  27  28
ENDBRANCH  26  27
ENDBRANCH  25  26
ENDBRANCH  24  25
ENDBRANCH  21  24
ENDBRANCH  19  20
ENDBRANCH  14  19
ENDBRANCH   7  13
ENDBRANCH   4   6
ENDBRANCH   2   4
ENDBRANCH   1   2
BRANCH   1  30
ATOM     30  C   UNL A   1      29.913  31.918  24.480  1.00  0.00     0.261 C 
BRANCH  30  31
ATOM     31  C   UNL A   1      30.823  30.865  25.118  1.00  0.00     0.202 C 
BRANCH  31  32
ATOM     32  O   UNL A   1      31.511  31.210  26.316  1.00  0.00    -0.374 OA
BRANCH  32  33
ATOM     33  C   UNL A   1      31.218  32.454  26.944  1.00  0.00     0.202 C 
BRANCH  33  34
ATOM     34  C   UNL A   1      32.374  33.389  27.329  1.00  0.00     0.261 C 
BRANCH  34  35
ATOM     35  O   UNL A   1      33.584  32.702  27.694  1.00  0.00    -0.460 OA
BRANCH  35  36
ATOM     36  C   UNL A   1      34.651  33.523  27.884  1.00  0.00     0.338 C 
ATOM     37  O   UNL A   1      34.645  34.742  27.879  1.00  0.00    -0.246 OA
BRANCH  36  38
ATOM     38  C   UNL A   1      35.839  32.749  28.288  1.00  0.00     0.060 A 
ATOM     39  C   UNL A   1      35.675  31.376  28.515  1.00  0.00     0.016 A 
ATOM     40  C   UNL A   1      37.052  33.377  28.573  1.00  0.00     0.016 A 
ATOM     41  C   UNL A   1      36.715  30.630  29.065  1.00  0.00     0.010 A 
ATOM     42  C   UNL A   1      38.091  32.626  29.134  1.00  0.00     0.010 A 
ATOM     43  C   UNL A   1      37.918  31.257  29.413  1.00  0.00    -0.014 A 
BRANCH  43  44
ATOM     44  C   UNL A   1      38.942  30.511  30.187  1.00  0.00     0.031 A 
ATOM     45  C   UNL A   1      39.148  30.842  31.641  1.00  0.00     0.074 A 
ATOM     46  C   UNL A   1      39.662  29.534  29.608  1.00  0.00     0.049 A 
ATOM     47  N   UNL A   1      40.039  30.382  32.480  1.00  0.00    -0.248 NA
ATOM     48  C   UNL A   1      38.225  31.828  32.223  1.00  0.00     0.031 C 
ATOM     49  C   UNL A   1      39.505  29.079  28.227  1.00  0.00     0.029 A 
ATOM     50  N   UNL A   1      40.675  28.753  30.105  1.00  0.00    -0.354 N 
ATOM     51  C   UNL A   1      39.794  31.028  33.688  1.00  0.00     0.074 A 
ATOM     52  C   UNL A   1      38.690  31.937  33.458  1.00  0.00     0.031 C 
ATOM     53  C   UNL A   1      40.401  28.107  27.984  1.00  0.00     0.029 A 
ATOM     54  C   UNL A   1      41.229  27.908  29.173  1.00  0.00     0.049 A 
ATOM     55  H   UNL A   1      40.977  28.795  31.041  1.00  0.00     0.167 HD
ATOM     56  C   UNL A   1      40.428  30.871  34.876  1.00  0.00     0.034 A 
ATOM     57  C   UNL A   1      42.304  27.098  29.255  1.00  0.00     0.034 A 
ATOM     58  C   UNL A   1      41.534  29.965  35.082  1.00  0.00     0.049 A 
ATOM     59  C   UNL A   1      43.069  27.027  30.556  1.00  0.00     0.074 A 
ATOM     60  C   UNL A   1      42.238  29.716  36.247  1.00  0.00     0.029 A 
ATOM     61  N   UNL A   1      42.108  29.172  34.096  1.00  0.00    -0.354 N 
ATOM     62  N   UNL A   1      42.830  27.643  31.691  1.00  0.00    -0.248 NA
ATOM     63  C   UNL A   1      44.248  26.151  30.587  1.00  0.00     0.031 C 
ATOM     64  C   UNL A   1      43.287  28.841  35.948  1.00  0.00     0.029 A 
ATOM     65  C   UNL A   1      43.184  28.469  34.617  1.00  0.00     0.049 A 
ATOM     66  H   UNL A   1      41.796  29.116  33.163  1.00  0.00     0.167 HD
ATOM     67  C   UNL A   1      43.811  27.202  32.577  1.00  0.00     0.074 A 
ATOM     68  C   UNL A   1      44.635  26.260  31.849  1.00  0.00     0.031 C 
ATOM     69  C   UNL A   1      44.007  27.540  33.878  1.00  0.00     0.034 A 
BRANCH  56  70
ATOM     70  C   UNL A   1      39.980  31.740  36.027  1.00  0.00     0.023 A 
ATOM     71  C   UNL A   1      40.747  32.827  36.481  1.00  0.00     0.031 A 
ATOM     72  C   UNL A   1      38.773  31.464  36.694  1.00  0.00     0.131 A 
ATOM     73  C   UNL A   1      40.334  33.552  37.610  1.00  0.00     0.055 A 
ATOM     74  C   UNL A   1      38.326  32.242  37.764  1.00  0.00     0.041 A 
ATOM     75  F   UNL A   1      38.009  30.424  36.322  1.00  0.00    -0.206 F 
ATOM     76  C   UNL A   1      39.116  33.285  38.237  1.00  0.00     0.022 A 
BRANCH  73  77
ATOM     77  S   UNL A   1      41.481  34.757  38.334  1.00  0.00     0.124 S 
ATOM     78  O   UNL A   1      41.561  34.293  39.717  1.00  0.00    -0.237 OA
ATOM     79  O   UNL A   1      42.682  34.573  37.528  1.00  0.00    -0.237 OA
ATOM     80  O   UNL A   1      40.796  36.036  38.151  1.00  0.00    -0.744 OA
ENDBRANCH  73  77
ENDBRANCH  56  70
BRANCH  57  81
ATOM     81  C   UNL A   1      42.764  26.330  28.062  1.00  0.00     0.023 A 
ATOM     82  C   UNL A   1      42.217  25.076  27.750  1.00  0.00     0.031 A 
ATOM     83  C   UNL A   1      43.802  26.816  27.246  1.00  0.00     0.131 A 
ATOM     84  C   UNL A   1      42.742  24.330  26.683  1.00  0.00     0.055 A 
ATOM     85  C   UNL A   1      44.279  26.097  26.148  1.00  0.00     0.041 A 
ATOM     86  F   UNL A   1      44.368  28.007  27.502  1.00  0.00    -0.206 F 
ATOM     87  C   UNL A   1      43.757  24.839  25.870  1.00  0.00     0.022 A 
BRANCH  84  88
ATOM     88  S   UNL A   1      42.141  22.636  26.432  1.00  0.00     0.124 S 
ATOM     89  O   UNL A   1      40.696  22.830  26.448  1.00  0.00    -0.237 OA
ATOM     90  O   UNL A   1      42.730  22.295  25.142  1.00  0.00    -0.237 OA
ATOM     91  O   UNL A   1      42.687  21.909  27.576  1.00  0.00    -0.744 OA
ENDBRANCH  84  88
ENDBRANCH  57  81
BRANCH  69  92
ATOM     92  C   UNL A   1      45.133  26.849  34.611  1.00  0.00     0.023 A 
ATOM     93  C   UNL A   1      46.425  27.400  34.681  1.00  0.00     0.031 A 
ATOM     94  C   UNL A   1      44.903  25.622  35.261  1.00  0.00     0.131 A 
ATOM     95  C   UNL A   1      47.447  26.705  35.345  1.00  0.00     0.055 A 
ATOM     96  C   UNL A   1      45.908  24.966  35.973  1.00  0.00     0.041 A 
ATOM     97  F   UNL A   1      43.690  25.046  35.224  1.00  0.00    -0.206 F 
ATOM     98  C   UNL A   1      47.191  25.501  36.009  1.00  0.00     0.022 A 
BRANCH  95  99
ATOM     99  S   UNL A   1      49.139  27.351  35.263  1.00  0.00     0.124 S 
ATOM    100  O   UNL A   1      49.904  26.278  35.889  1.00  0.00    -0.237 OA
ATOM    101  O   UNL A   1      49.340  27.523  33.827  1.00  0.00    -0.237 OA
ATOM    102  O   UNL A   1      49.070  28.593  36.031  1.00  0.00    -0.744 OA
ENDBRANCH  95  99
ENDBRANCH  69  92
ENDBRANCH  43  44
ENDBRANCH  36  38
ENDBRANCH  35  36
ENDBRANCH  34  35
ENDBRANCH  33  34
ENDBRANCH  32  33
ENDBRANCH  31  32
ENDBRANCH  30  31
ENDBRANCH   1  30
TORSDOF 26
ENDMDL
MODEL 2
REMARK VINA RESULT:     -10.0      2.344      3.444
REMARK SMILES CCCCCCNC(=O)Oc1cccc(-c2ccc([C@H](C)C(=O)OCCOCCOC(=O)c3ccc(-c4c5nc(c(-c6cc(S(=O)(=O)[O-])ccc6F)c6ccc([nH]6)c(-c6cc(S(=O)(=O)[O-])ccc6F)c6nc(c(-c7cc(S(=O)(=O)[O-])ccc7F)c7ccc4[nH]7)C=C6)C=C5)cc3)cc2F)c1
REMARK SMILES IDX 24 1 22 2 23 3 20 4 21 5 19 6 16 7 17 8 97 9 18 10 96 11
REMARK SMILES IDX 98 12 15 13 11 14 12 15 99 16 13 17 14 18 10 19 8 20 7 21
REMARK SMILES IDX 9 23 6 24 5 25 4 26 3 27 2 28 1 29 25 30 26 31 27 32 28 33
REMARK SMILES IDX 29 34 30 35 31 36 32 37 33 38 34 39 95 40 35 41 94 42 36 43
REMARK SMILES IDX 37 44 38 45 88 46 39 47 93 48 87 49 89 50 40 51 92 52 86 53
REMARK SMILES IDX 85 54 41 56 73 57 53 58 72 59 54 60 57 61 71 62 90 63 55 64
REMARK SMILES IDX 56 65 70 67 91 68 58 69 42 70 43 71 51 72 44 73 50 74 52 75
REMARK SMILES IDX 49 76 45 77 46 78 47 79 48 80 74 81 75 82 83 83 76 84 82 85
REMARK SMILES IDX 84 86 81 87 77 88 78 89 79 90 80 91 59 92 60 93 68 94 61 95
REMARK SMILES IDX 67 96 69 97 66 98 62 99 63 100 64 101 65 102
REMARK H PARENT 7 22 89 55 57 66
REMARK Flexibility Score: inf
ROOT
ATOM      1  O   UNL A   1      28.969  31.681  24.268  1.00  0.00    -0.463 OA
ENDROOT
BRANCH   1   2
ATOM      2  C   UNL A   1      28.569  32.073  23.026  1.00  0.00     0.313 C 
ATOM      3  O   UNL A   1      28.562  33.229  22.618  1.00  0.00    -0.252 OA
BRANCH   2   4
ATOM      4  C   UNL A   1      28.065  30.903  22.189  1.00  0.00     0.126 C 
ATOM      5  C   UNL A   1      27.909  31.171  20.692  1.00  0.00     0.025 C 
BRANCH   4   6
ATOM      6  C   UNL A   1      28.942  29.701  22.444  1.00  0.00    -0.031 A 
ATOM      7  C   UNL A   1      30.641  27.568  23.110  1.00  0.00     0.018 A 
ATOM      8  C   UNL A   1      31.131  28.663  22.390  1.00  0.00     0.012 A 
ATOM      9  C   UNL A   1      29.283  27.542  23.455  1.00  0.00     0.131 A 
ATOM     10  C   UNL A   1      30.288  29.714  22.050  1.00  0.00     0.005 A 
ATOM     11  C   UNL A   1      28.437  28.595  23.133  1.00  0.00     0.044 A 
ATOM     12  F   UNL A   1      28.768  26.493  24.115  1.00  0.00    -0.206 F 
BRANCH   7  13
ATOM     13  C   UNL A   1      31.535  26.463  23.433  1.00  0.00    -0.012 A 
ATOM     14  C   UNL A   1      31.838  24.120  23.918  1.00  0.00     0.133 A 
ATOM     15  C   UNL A   1      33.222  24.273  23.912  1.00  0.00     0.047 A 
ATOM     16  C   UNL A   1      30.996  25.208  23.716  1.00  0.00     0.056 A 
ATOM     17  C   UNL A   1      33.769  25.527  23.654  1.00  0.00     0.004 A 
ATOM     18  C   UNL A   1      32.930  26.616  23.407  1.00  0.00     0.009 A 
BRANCH  14  19
ATOM     19  O   UNL A   1      31.314  22.862  24.229  1.00  0.00    -0.410 OA
BRANCH  19  20
ATOM     20  C   UNL A   1      31.091  22.592  25.569  1.00  0.00     0.412 C 
ATOM     21  N   UNL A   1      31.947  21.661  26.074  1.00  0.00    -0.321 N 
ATOM     22  H   UNL A   1      31.811  21.392  27.012  1.00  0.00     0.167 HD
ATOM     23  O   UNL A   1      30.238  23.110  26.288  1.00  0.00    -0.224 OA
BRANCH  21  24
ATOM     24  C   UNL A   1      33.038  21.030  25.365  1.00  0.00     0.119 C 
BRANCH  24  25
ATOM     25  C   UNL A   1      32.549  19.890  24.474  1.00  0.00     0.021 C 
BRANCH  25  26
ATOM     26  C   UNL A   1      33.595  18.807  24.189  1.00  0.00     0.002 C 
BRANCH  26  27
ATOM     27  C   UNL A   1      33.060  17.545  23.504  1.00  0.00    -0.000 C 
BRANCH  27  28
ATOM     28  C   UNL A   1      33.750  16.241  23.915  1.00  0.00    -0.003 C 
ATOM     29  C   UNL A   1      33.154  15.620  25.169  1.00  0.00     0.004 C 
ENDBRANCH  27  28
ENDBRANCH  26  27
ENDBRANCH  25  26
ENDBRANCH  24  25
ENDBRANCH  21  24
ENDBRANCH  19  20
ENDBRANCH  14  19
ENDBRANCH   7  13
ENDBRANCH   4   6
ENDBRANCH   2   4
ENDBRANCH   1   2
BRANCH   1  30
ATOM     30  C   UNL A   1      30.158  32.314  24.754  1.00  0.00     0.261 C 
BRANCH  30  31
ATOM     31  C   UNL A   1      30.878  31.480  25.816  1.00  0.00     0.202 C 
BRANCH  31  32
ATOM     32  O   UNL A   1      31.154  30.114  25.523  1.00  0.00    -0.374 OA
BRANCH  32  33
ATOM     33  C   UNL A   1      32.209  29.461  26.223  1.00  0.00     0.202 C 
BRANCH  33  34
ATOM     34  C   UNL A   1      33.485  30.247  26.555  1.00  0.00     0.261 C 
BRANCH  34  35
ATOM     35  O   UNL A   1      33.458  30.889  27.843  1.00  0.00    -0.460 OA
BRANCH  35  36
ATOM     36  C   UNL A   1      34.503  31.731  28.064  1.00  0.00     0.338 C 
ATOM     37  O   UNL A   1      34.446  32.937  28.230  1.00  0.00    -0.246 OA
BRANCH  36  38
ATOM     38  C   UNL A   1      35.751  30.972  28.263  1.00  0.00     0.060 A 
ATOM     39  C   UNL A   1      35.662  29.728  28.902  1.00  0.00     0.016 A 
ATOM     40  C   UNL A   1      36.994  31.527  27.957  1.00  0.00     0.016 A 
ATOM     41  C   UNL A   1      36.820  29.049  29.274  1.00  0.00     0.010 A 
ATOM     42  C   UNL A   1      38.155  30.846  28.341  1.00  0.00     0.010 A 
ATOM     43  C   UNL A   1      38.074  29.621  29.029  1.00  0.00    -0.014 A 
BRANCH  43  44
ATOM     44  C   UNL A   1      39.294  29.001  29.608  1.00  0.00     0.031 A 
ATOM     45  C   UNL A   1      39.905  29.601  30.846  1.00  0.00     0.074 A 
ATOM     46  C   UNL A   1      39.834  27.902  29.053  1.00  0.00     0.049 A 
ATOM     47  N   UNL A   1      41.009  29.280  31.468  1.00  0.00    -0.248 NA
ATOM     48  C   UNL A   1      39.169  30.717  31.460  1.00  0.00     0.031 C 
ATOM     49  C   UNL A   1      39.293  27.192  27.894  1.00  0.00     0.029 A 
ATOM     50  N   UNL A   1      40.963  27.195  29.383  1.00  0.00    -0.354 N 
ATOM     51  C   UNL A   1      41.111  30.158  32.542  1.00  0.00     0.074 A 
ATOM     52  C   UNL A   1      39.970  31.047  32.463  1.00  0.00     0.031 C 
ATOM     53  C   UNL A   1      40.100  26.158  27.602  1.00  0.00     0.029 A 
ATOM     54  C   UNL A   1      41.240  26.163  28.518  1.00  0.00     0.049 A 
ATOM     55  H   UNL A   1      41.522  27.407  30.165  1.00  0.00     0.167 HD
ATOM     56  C   UNL A   1      42.064  30.213  33.504  1.00  0.00     0.034 A 
ATOM     57  C   UNL A   1      42.309  25.343  28.446  1.00  0.00     0.034 A 
ATOM     58  C   UNL A   1      43.199  29.322  33.559  1.00  0.00     0.049 A 
ATOM     59  C   UNL A   1      43.418  25.498  29.461  1.00  0.00     0.074 A 
ATOM     60  C   UNL A   1      44.215  29.279  34.498  1.00  0.00     0.029 A 
ATOM     61  N   UNL A   1      43.480  28.329  32.628  1.00  0.00    -0.354 N 
ATOM     62  N   UNL A   1      43.505  26.333  30.471  1.00  0.00    -0.248 NA
ATOM     63  C   UNL A   1      44.573  24.600  29.324  1.00  0.00     0.031 C 
ATOM     64  C   UNL A   1      45.150  28.321  34.090  1.00  0.00     0.029 A 
ATOM     65  C   UNL A   1      44.674  27.701  32.946  1.00  0.00     0.049 A 
ATOM     66  H   UNL A   1      42.913  28.105  31.855  1.00  0.00     0.167 HD
ATOM     67  C   UNL A   1      44.709  26.036  31.107  1.00  0.00     0.074 A 
ATOM     68  C   UNL A   1      45.305  24.939  30.374  1.00  0.00     0.031 C 
ATOM     69  C   UNL A   1      45.266  26.613  32.202  1.00  0.00     0.034 A 
BRANCH  56  70
ATOM     70  C   UNL A   1      41.951  31.306  34.539  1.00  0.00     0.023 A 
ATOM     71  C   UNL A   1      40.935  31.309  35.510  1.00  0.00     0.031 A 
ATOM     72  C   UNL A   1      42.867  32.375  34.542  1.00  0.00     0.131 A 
ATOM     73  C   UNL A   1      40.817  32.392  36.397  1.00  0.00     0.055 A 
ATOM     74  C   UNL A   1      42.794  33.406  35.481  1.00  0.00     0.041 A 
ATOM     75  F   UNL A   1      43.844  32.440  33.625  1.00  0.00    -0.206 F 
ATOM     76  C   UNL A   1      41.755  33.425  36.407  1.00  0.00     0.022 A 
BRANCH  73  77
ATOM     77  S   UNL A   1      39.337  32.500  37.440  1.00  0.00     0.124 S 
ATOM     78  O   UNL A   1      38.670  33.675  36.884  1.00  0.00    -0.237 OA
ATOM     79  O   UNL A   1      38.685  31.219  37.197  1.00  0.00    -0.237 OA
ATOM     80  O   UNL A   1      39.879  32.680  38.786  1.00  0.00    -0.744 OA
ENDBRANCH  73  77
ENDBRANCH  56  70
BRANCH  57  81
ATOM     81  C   UNL A   1      42.419  24.340  27.349  1.00  0.00     0.023 A 
ATOM     82  C   UNL A   1      41.873  23.053  27.483  1.00  0.00     0.031 A 
ATOM     83  C   UNL A   1      43.125  24.635  26.168  1.00  0.00     0.131 A 
ATOM     84  C   UNL A   1      42.083  22.096  26.477  1.00  0.00     0.055 A 
ATOM     85  C   UNL A   1      43.277  23.699  25.144  1.00  0.00     0.041 A 
ATOM     86  F   UNL A   1      43.673  25.847  25.988  1.00  0.00    -0.206 F 
ATOM     87  C   UNL A   1      42.766  22.415  25.302  1.00  0.00     0.022 A 
BRANCH  84  88
ATOM     88  S   UNL A   1      41.531  20.394  26.773  1.00  0.00     0.124 S 
ATOM     89  O   UNL A   1      41.657  19.807  25.443  1.00  0.00    -0.237 OA
ATOM     90  O   UNL A   1      42.490  19.934  27.771  1.00  0.00    -0.237 OA
ATOM     91  O   UNL A   1      40.162  20.559  27.256  1.00  0.00    -0.744 OA
ENDBRANCH  84  88
ENDBRANCH  57  81
BRANCH  69  92
ATOM     92  C   UNL A   1      46.570  26.036  32.703  1.00  0.00     0.023 A 
ATOM     93  C   UNL A   1      46.609  24.958  33.604  1.00  0.00     0.031 A 
ATOM     94  C   UNL A   1      47.794  26.573  32.261  1.00  0.00     0.131 A 
ATOM     95  C   UNL A   1      47.844  24.479  34.068  1.00  0.00     0.055 A 
ATOM     96  C   UNL A   1      49.019  26.051  32.678  1.00  0.00     0.041 A 
ATOM     97  F   UNL A   1      47.818  27.607  31.405  1.00  0.00    -0.206 F 
ATOM     98  C   UNL A   1      49.049  25.006  33.594  1.00  0.00     0.022 A 
BRANCH  95  99
ATOM     99  S   UNL A   1      47.858  23.210  35.364  1.00  0.00     0.124 S 
ATOM    100  O   UNL A   1      46.978  23.795  36.370  1.00  0.00    -0.237 OA
ATOM    101  O   UNL A   1      47.337  22.040  34.663  1.00  0.00    -0.237 OA
ATOM    102  O   UNL A   1      49.266  23.125  35.746  1.00  0.00    -0.744 OA
ENDBRANCH  95  99
ENDBRANCH  69  92
ENDBRANCH  43  44
ENDBRANCH  36  38
ENDBRANCH  35  36
ENDBRANCH  34  35
ENDBRANCH  33  34
ENDBRANCH  32  33
ENDBRANCH  31  32
ENDBRANCH  30  31
ENDBRANCH   1  30
TORSDOF 26
ENDMDL
MODEL 3
REMARK VINA RESULT:      -9.8      2.190      2.948
REMARK SMILES CCCCCCNC(=O)Oc1cccc(-c2ccc([C@H](C)C(=O)OCCOCCOC(=O)c3ccc(-c4c5nc(c(-c6cc(S(=O)(=O)[O-])ccc6F)c6ccc([nH]6)c(-c6cc(S(=O)(=O)[O-])ccc6F)c6nc(c(-c7cc(S(=O)(=O)[O-])ccc7F)c7ccc4[nH]7)C=C6)C=C5)cc3)cc2F)c1
REMARK SMILES IDX 24 1 22 2 23 3 20 4 21 5 19 6 16 7 17 8 97 9 18 10 96 11
REMARK SMILES IDX 98 12 15 13 11 14 12 15 99 16 13 17 14 18 10 19 8 20 7 21
REMARK SMILES IDX 9 23 6 24 5 25 4 26 3 27 2 28 1 29 25 30 26 31 27 32 28 33
REMARK SMILES IDX 29 34 30 35 31 36 32 37 33 38 34 39 95 40 35 41 94 42 36 43
REMARK SMILES IDX 37 44 38 45 88 46 39 47 93 48 87 49 89 50 40 51 92 52 86 53
REMARK SMILES IDX 85 54 41 56 73 57 53 58 72 59 54 60 57 61 71 62 90 63 55 64
REMARK SMILES IDX 56 65 70 67 91 68 58 69 42 70 43 71 51 72 44 73 50 74 52 75
REMARK SMILES IDX 49 76 45 77 46 78 47 79 48 80 74 81 75 82 83 83 76 84 82 85
REMARK SMILES IDX 84 86 81 87 77 88 78 89 79 90 80 91 59 92 60 93 68 94 61 95
REMARK SMILES IDX 67 96 69 97 66 98 62 99 63 100 64 101 65 102
REMARK H PARENT 7 22 89 55 57 66
REMARK Flexibility Score: inf
ROOT
ATOM      1  O   UNL A   1      29.668  31.267  24.576  1.00  0.00    -0.463 OA
ENDROOT
BRANCH   1   2
ATOM      2  C   UNL A   1      29.062  31.889  23.526  1.00  0.00     0.313 C 
ATOM      3  O   UNL A   1      29.076  33.097  23.316  1.00  0.00    -0.252 OA
BRANCH   2   4
ATOM      4  C   UNL A   1      28.299  30.909  22.641  1.00  0.00     0.126 C 
ATOM      5  C   UNL A   1      28.079  31.349  21.194  1.00  0.00     0.025 C 
BRANCH   4   6
ATOM      6  C   UNL A   1      28.968  29.558  22.710  1.00  0.00    -0.031 A 
ATOM      7  C   UNL A   1      30.298  27.108  23.039  1.00  0.00     0.018 A 
ATOM      8  C   UNL A   1      30.957  28.197  22.457  1.00  0.00     0.012 A 
ATOM      9  C   UNL A   1      28.957  27.256  23.415  1.00  0.00     0.131 A 
ATOM     10  C   UNL A   1      30.296  29.406  22.283  1.00  0.00     0.005 A 
ATOM     11  C   UNL A   1      28.293  28.466  23.260  1.00  0.00     0.044 A 
ATOM     12  F   UNL A   1      28.281  26.225  23.945  1.00  0.00    -0.206 F 
BRANCH   7  13
ATOM     13  C   UNL A   1      31.001  25.840  23.188  1.00  0.00    -0.012 A 
ATOM     14  C   UNL A   1      31.220  23.714  24.306  1.00  0.00     0.133 A 
ATOM     15  C   UNL A   1      32.222  23.324  23.422  1.00  0.00     0.047 A 
ATOM     16  C   UNL A   1      30.635  24.973  24.218  1.00  0.00     0.056 A 
ATOM     17  C   UNL A   1      32.610  24.193  22.404  1.00  0.00     0.004 A 
ATOM     18  C   UNL A   1      31.996  25.441  22.283  1.00  0.00     0.009 A 
BRANCH  14  19
ATOM     19  O   UNL A   1      30.883  22.845  25.348  1.00  0.00    -0.410 OA
BRANCH  19  20
ATOM     20  C   UNL A   1      30.813  23.391  26.619  1.00  0.00     0.412 C 
ATOM     21  N   UNL A   1      31.978  23.272  27.315  1.00  0.00    -0.321 N 
ATOM     22  H   UNL A   1      31.979  23.602  28.243  1.00  0.00     0.167 HD
ATOM     23  O   UNL A   1      29.839  23.949  27.123  1.00  0.00    -0.224 OA
BRANCH  21  24
ATOM     24  C   UNL A   1      33.215  22.710  26.820  1.00  0.00     0.119 C 
BRANCH  24  25
ATOM     25  C   UNL A   1      34.189  23.797  26.367  1.00  0.00     0.021 C 
BRANCH  25  26
ATOM     26  C   UNL A   1      35.649  23.344  26.267  1.00  0.00     0.002 C 
BRANCH  26  27
ATOM     27  C   UNL A   1      36.372  23.749  24.978  1.00  0.00    -0.000 C 
BRANCH  27  28
ATOM     28  C   UNL A   1      36.719  22.593  24.036  1.00  0.00    -0.003 C 
ATOM     29  C   UNL A   1      36.278  21.238  24.567  1.00  0.00     0.004 C 
ENDBRANCH  27  28
ENDBRANCH  26  27
ENDBRANCH  25  26
ENDBRANCH  24  25
ENDBRANCH  21  24
ENDBRANCH  19  20
ENDBRANCH  14  19
ENDBRANCH   7  13
ENDBRANCH   4   6
ENDBRANCH   2   4
ENDBRANCH   1   2
BRANCH   1  30
ATOM     30  C   UNL A   1      30.616  32.066  25.293  1.00  0.00     0.261 C 
BRANCH  30  31
ATOM     31  C   UNL A   1      31.234  31.324  26.481  1.00  0.00     0.202 C 
BRANCH  31  32
ATOM     32  O   UNL A   1      32.346  30.470  26.233  1.00  0.00    -0.374 OA
BRANCH  32  33
ATOM     33  C   UNL A   1      33.411  30.438  27.179  1.00  0.00     0.202 C 
BRANCH  33  34
ATOM     34  C   UNL A   1      34.099  31.752  27.575  1.00  0.00     0.261 C 
BRANCH  34  35
ATOM     35  O   UNL A   1      34.030  32.047  28.982  1.00  0.00    -0.460 OA
BRANCH  35  36
ATOM     36  C   UNL A   1      35.116  32.709  29.463  1.00  0.00     0.338 C 
ATOM     37  O   UNL A   1      35.137  33.833  29.934  1.00  0.00    -0.246 OA
BRANCH  36  38
ATOM     38  C   UNL A   1      36.289  31.816  29.516  1.00  0.00     0.060 A 
ATOM     39  C   UNL A   1      36.169  30.626  30.245  1.00  0.00     0.016 A 
ATOM     40  C   UNL A   1      37.518  32.203  28.983  1.00  0.00     0.016 A 
ATOM     41  C   UNL A   1      37.290  29.833  30.477  1.00  0.00     0.010 A 
ATOM     42  C   UNL A   1      38.645  31.408  29.226  1.00  0.00     0.010 A 
ATOM     43  C   UNL A   1      38.543  30.237  30.001  1.00  0.00    -0.014 A 
BRANCH  43  44
ATOM     44  C   UNL A   1      39.765  29.506  30.423  1.00  0.00     0.031 A 
ATOM     45  C   UNL A   1      40.511  29.969  31.646  1.00  0.00     0.074 A 
ATOM     46  C   UNL A   1      40.189  28.428  29.740  1.00  0.00     0.049 A 
ATOM     47  N   UNL A   1      41.640  29.537  32.144  1.00  0.00    -0.248 NA
ATOM     48  C   UNL A   1      39.898  31.070  32.405  1.00  0.00     0.031 C 
ATOM     49  C   UNL A   1      39.514  27.847  28.581  1.00  0.00     0.029 A 
ATOM     50  N   UNL A   1      41.296  27.636  29.917  1.00  0.00    -0.354 N 
ATOM     51  C   UNL A   1      41.883  30.318  33.270  1.00  0.00     0.074 A 
ATOM     52  C   UNL A   1      40.797  31.272  33.358  1.00  0.00     0.031 C 
ATOM     53  C   UNL A   1      40.228  26.797  28.143  1.00  0.00     0.029 A 
ATOM     54  C   UNL A   1      41.437  26.664  28.954  1.00  0.00     0.049 A 
ATOM     55  H   UNL A   1      41.929  27.752  30.662  1.00  0.00     0.167 HD
ATOM     56  C   UNL A   1      42.913  30.241  34.148  1.00  0.00     0.034 A 
ATOM     57  C   UNL A   1      42.444  25.795  28.728  1.00  0.00     0.034 A 
ATOM     58  C   UNL A   1      43.992  29.288  34.036  1.00  0.00     0.049 A 
ATOM     59  C   UNL A   1      43.640  25.805  29.652  1.00  0.00     0.074 A 
ATOM     60  C   UNL A   1      45.076  29.112  34.878  1.00  0.00     0.029 A 
ATOM     61  N   UNL A   1      44.134  28.361  33.011  1.00  0.00    -0.354 N 
ATOM     62  N   UNL A   1      43.860  26.549  30.712  1.00  0.00    -0.248 NA
ATOM     63  C   UNL A   1      44.722  24.859  29.348  1.00  0.00     0.031 C 
ATOM     64  C   UNL A   1      45.914  28.141  34.319  1.00  0.00     0.029 A 
ATOM     65  C   UNL A   1      45.309  27.643  33.176  1.00  0.00     0.049 A 
ATOM     66  H   UNL A   1      43.493  28.232  32.274  1.00  0.00     0.167 HD
ATOM     67  C   UNL A   1      45.091  26.135  31.217  1.00  0.00     0.074 A 
ATOM     68  C   UNL A   1      45.557  25.070  30.354  1.00  0.00     0.031 C 
ATOM     69  C   UNL A   1      45.770  26.589  32.302  1.00  0.00     0.034 A 
BRANCH  56  70
ATOM     70  C   UNL A   1      42.953  31.251  35.269  1.00  0.00     0.023 A 
ATOM     71  C   UNL A   1      43.532  32.521  35.107  1.00  0.00     0.031 A 
ATOM     72  C   UNL A   1      42.416  30.930  36.530  1.00  0.00     0.131 A 
ATOM     73  C   UNL A   1      43.624  33.394  36.203  1.00  0.00     0.055 A 
ATOM     74  C   UNL A   1      42.436  31.835  37.593  1.00  0.00     0.041 A 
ATOM     75  F   UNL A   1      41.871  29.724  36.754  1.00  0.00    -0.206 F 
ATOM     76  C   UNL A   1      43.056  33.071  37.436  1.00  0.00     0.022 A 
BRANCH  73  77
ATOM     77  S   UNL A   1      44.624  34.898  36.031  1.00  0.00     0.124 S 
ATOM     78  O   UNL A   1      45.862  34.507  36.701  1.00  0.00    -0.237 OA
ATOM     79  O   UNL A   1      44.704  35.060  34.584  1.00  0.00    -0.237 OA
ATOM     80  O   UNL A   1      43.839  35.914  36.731  1.00  0.00    -0.744 OA
ENDBRANCH  73  77
ENDBRANCH  56  70
BRANCH  57  81
ATOM     81  C   UNL A   1      42.402  24.880  27.552  1.00  0.00     0.023 A 
ATOM     82  C   UNL A   1      41.653  23.694  27.580  1.00  0.00     0.031 A 
ATOM     83  C   UNL A   1      43.160  25.152  26.398  1.00  0.00     0.131 A 
ATOM     84  C   UNL A   1      41.716  22.801  26.499  1.00  0.00     0.055 A 
ATOM     85  C   UNL A   1      43.171  24.291  25.300  1.00  0.00     0.041 A 
ATOM     86  F   UNL A   1      43.901  26.269  26.318  1.00  0.00    -0.206 F 
ATOM     87  C   UNL A   1      42.456  23.099  25.352  1.00  0.00     0.022 A 
BRANCH  84  88
ATOM     88  S   UNL A   1      40.891  21.193  26.654  1.00  0.00     0.124 S 
ATOM     89  O   UNL A   1      40.757  21.067  28.100  1.00  0.00    -0.237 OA
ATOM     90  O   UNL A   1      39.656  21.414  25.910  1.00  0.00    -0.237 OA
ATOM     91  O   UNL A   1      41.834  20.265  26.031  1.00  0.00    -0.744 OA
ENDBRANCH  84  88
ENDBRANCH  57  81
BRANCH  69  92
ATOM     92  C   UNL A   1      47.072  25.903  32.643  1.00  0.00     0.023 A 
ATOM     93  C   UNL A   1      47.142  24.870  33.595  1.00  0.00     0.031 A 
ATOM     94  C   UNL A   1      48.262  26.285  31.995  1.00  0.00     0.131 A 
ATOM     95  C   UNL A   1      48.381  24.286  33.903  1.00  0.00     0.055 A 
ATOM     96  C   UNL A   1      49.479  25.657  32.260  1.00  0.00     0.041 A 
ATOM     97  F   UNL A   1      48.256  27.269  31.081  1.00  0.00    -0.206 F 
ATOM     98  C   UNL A   1      49.546  24.659  33.227  1.00  0.00     0.022 A 
BRANCH  95  99
ATOM     99  S   UNL A   1      48.467  23.086  35.260  1.00  0.00     0.124 S 
ATOM    100  O   UNL A   1      49.750  22.439  35.012  1.00  0.00    -0.237 OA
ATOM    101  O   UNL A   1      48.402  23.942  36.441  1.00  0.00    -0.237 OA
ATOM    102  O   UNL A   1      47.294  22.240  35.045  1.00  0.00    -0.744 OA
ENDBRANCH  95  99
ENDBRANCH  69  92
ENDBRANCH  43  44
ENDBRANCH  36  38
ENDBRANCH  35  36
ENDBRANCH  34  35
ENDBRANCH  33  34
ENDBRANCH  32  33
ENDBRANCH  31  32
ENDBRANCH  30  31
ENDBRANCH   1  30
TORSDOF 26
ENDMDL
