MODEL 1
REMARK VINA RESULT:     -12.6      0.000      0.000
REMARK SMILES COc1cc([C@@H]2CC(=O)Nc3c(C(=O)OCCOCCOC(=O)c4ccc(-c5c6nc(c(-c7cc(S(=O)(=O)[O-])ccc7F)c7ccc([nH]7)c(-c7cc(S(=O)(=O)[O-])ccc7F)c7nc(c(-c8cc(S(=O)(=O)[O-])ccc8F)c8ccc5[nH]8)C=C7)C=C6)cc4)cn(-c4ccc(F)cc4)c32)c(OC)c2c1OCO2
REMARK SMILES IDX 19 1 18 2 17 3 16 4 15 5 13 6 14 7 12 8 6 9 7 10 96 11 8 12
REMARK SMILES IDX 11 13 88 14 9 15 10 16 87 17 5 19 3 20 4 21 101 22 100 23
REMARK SMILES IDX 102 24 97 25 104 26 103 27 2 28 1 29 98 30 99 31 89 32 90 33
REMARK SMILES IDX 95 34 91 35 94 36 92 37 93 38 20 39 21 40 22 41 23 42 24 43
REMARK SMILES IDX 25 44 86 45 26 46 85 47 27 48 28 49 29 50 79 51 30 52 84 53
REMARK SMILES IDX 78 54 80 55 31 56 83 57 77 58 76 59 32 61 64 62 44 63 63 64
REMARK SMILES IDX 45 65 48 66 62 67 81 68 46 69 47 70 61 72 82 73 49 74 33 75
REMARK SMILES IDX 34 76 42 77 35 78 41 79 43 80 40 81 36 82 37 83 38 84 39 85
REMARK SMILES IDX 65 86 66 87 74 88 67 89 73 90 75 91 72 92 68 93 69 94 70 95
REMARK SMILES IDX 71 96 50 97 51 98 59 99 52 100 58 101 60 102 57 103 53 104
REMARK SMILES IDX 54 105 55 106 56 107
REMARK H PARENT 10 18 80 60 48 71
REMARK Flexibility Score: inf
ROOT
ATOM      1  C   UNL A   1      34.765  30.212  27.299  1.00  0.00     0.202 C 
ENDROOT
BRANCH   1   2
ATOM      2  O   UNL A   1      33.551  29.471  27.371  1.00  0.00    -0.374 OA
BRANCH   2   3
ATOM      3  C   UNL A   1      32.587  29.577  26.324  1.00  0.00     0.202 C 
BRANCH   3   4
ATOM      4  C   UNL A   1      33.059  29.352  24.885  1.00  0.00     0.261 C 
BRANCH   4   5
ATOM      5  O   UNL A   1      33.566  28.027  24.653  1.00  0.00    -0.460 OA
BRANCH   5   6
ATOM      6  C   UNL A   1      32.608  27.055  24.599  1.00  0.00     0.341 C 
ATOM      7  O   UNL A   1      31.489  27.205  24.133  1.00  0.00    -0.246 OA
BRANCH   6   8
ATOM      8  C   UNL A   1      33.094  25.759  25.050  1.00  0.00     0.102 A 
ATOM      9  C   UNL A   1      32.982  22.279  26.356  1.00  0.00     0.082 C 
ATOM     10  C   UNL A   1      31.663  22.380  27.148  1.00  0.00     0.115 C 
ATOM     11  C   UNL A   1      33.319  23.617  25.763  1.00  0.00     0.055 A 
ATOM     12  C   UNL A   1      30.639  23.371  26.604  1.00  0.00     0.225 C 
ATOM     13  C   UNL A   1      32.425  24.657  25.628  1.00  0.00     0.078 A 
ATOM     14  N   UNL A   1      34.563  24.083  25.391  1.00  0.00    -0.317 N 
ATOM     15  O   UNL A   1      29.432  23.226  26.802  1.00  0.00    -0.275 OA
ATOM     16  N   UNL A   1      31.109  24.505  25.991  1.00  0.00    -0.324 N 
ATOM     17  C   UNL A   1      34.434  25.397  25.007  1.00  0.00     0.109 A 
ATOM     18  H   UNL A   1      30.479  25.239  25.804  1.00  0.00     0.170 HD
BRANCH   9  19
ATOM     19  C   UNL A   1      32.971  21.092  25.387  1.00  0.00     0.012 A 
ATOM     20  C   UNL A   1      33.332  18.664  25.127  1.00  0.00     0.165 A 
ATOM     21  C   UNL A   1      33.318  19.816  25.915  1.00  0.00     0.059 A 
ATOM     22  C   UNL A   1      32.899  18.782  23.823  1.00  0.00     0.211 A 
ATOM     23  C   UNL A   1      32.534  20.007  23.290  1.00  0.00     0.211 A 
ATOM     24  O   UNL A   1      32.748  17.766  22.926  1.00  0.00    -0.449 OA
ATOM     25  C   UNL A   1      32.584  21.184  24.032  1.00  0.00     0.168 A 
ATOM     26  O   UNL A   1      32.134  19.876  21.989  1.00  0.00    -0.449 OA
ATOM     27  C   UNL A   1      32.127  18.451  21.831  1.00  0.00     0.468 C 
BRANCH  20  28
ATOM     28  O   UNL A   1      33.718  17.515  25.753  1.00  0.00    -0.493 OA
ATOM     29  C   UNL A   1      32.742  16.476  25.749  1.00  0.00     0.278 C 
ENDBRANCH  20  28
BRANCH  25  30
ATOM     30  O   UNL A   1      32.298  22.435  23.573  1.00  0.00    -0.492 OA
ATOM     31  C   UNL A   1      32.896  22.867  22.360  1.00  0.00     0.278 C 
ENDBRANCH  25  30
ENDBRANCH   9  19
BRANCH  14  32
ATOM     32  C   UNL A   1      35.776  23.371  25.358  1.00  0.00     0.046 A 
ATOM     33  C   UNL A   1      35.903  22.291  24.480  1.00  0.00     0.029 A 
ATOM     34  C   UNL A   1      36.838  23.760  26.183  1.00  0.00     0.029 A 
ATOM     35  C   UNL A   1      37.074  21.539  24.485  1.00  0.00     0.041 A 
ATOM     36  C   UNL A   1      38.006  22.995  26.184  1.00  0.00     0.041 A 
ATOM     37  C   UNL A   1      38.108  21.887  25.346  1.00  0.00     0.123 A 
ATOM     38  F   UNL A   1      39.222  21.144  25.365  1.00  0.00    -0.207 F 
ENDBRANCH  14  32
ENDBRANCH   6   8
ENDBRANCH   5   6
ENDBRANCH   4   5
ENDBRANCH   3   4
ENDBRANCH   2   3
ENDBRANCH   1   2
BRANCH   1  39
ATOM     39  C   UNL A   1      35.213  31.008  28.512  1.00  0.00     0.261 C 
BRANCH  39  40
ATOM     40  O   UNL A   1      36.570  30.762  28.833  1.00  0.00    -0.460 OA
BRANCH  40  41
ATOM     41  C   UNL A   1      36.755  29.713  29.673  1.00  0.00     0.338 C 
ATOM     42  O   UNL A   1      36.286  29.570  30.783  1.00  0.00    -0.246 OA
BRANCH  41  43
ATOM     43  C   UNL A   1      37.765  28.835  29.074  1.00  0.00     0.060 A 
ATOM     44  C   UNL A   1      38.311  27.861  29.911  1.00  0.00     0.016 A 
ATOM     45  C   UNL A   1      38.381  29.226  27.876  1.00  0.00     0.016 A 
ATOM     46  C   UNL A   1      39.612  27.475  29.684  1.00  0.00     0.010 A 
ATOM     47  C   UNL A   1      39.686  28.868  27.672  1.00  0.00     0.010 A 
ATOM     48  C   UNL A   1      40.309  28.078  28.634  1.00  0.00    -0.014 A 
BRANCH  48  49
ATOM     49  C   UNL A   1      41.703  27.755  28.441  1.00  0.00     0.031 A 
ATOM     50  C   UNL A   1      41.850  26.461  27.746  1.00  0.00     0.074 A 
ATOM     51  C   UNL A   1      42.701  28.610  28.736  1.00  0.00     0.049 A 
ATOM     52  N   UNL A   1      42.137  25.325  28.286  1.00  0.00    -0.248 NA
ATOM     53  C   UNL A   1      41.338  26.353  26.367  1.00  0.00     0.031 C 
ATOM     54  C   UNL A   1      42.620  29.997  29.195  1.00  0.00     0.029 A 
ATOM     55  N   UNL A   1      44.038  28.423  28.597  1.00  0.00    -0.354 N 
ATOM     56  C   UNL A   1      42.129  24.422  27.234  1.00  0.00     0.074 A 
ATOM     57  C   UNL A   1      41.346  25.031  26.199  1.00  0.00     0.031 C 
ATOM     58  C   UNL A   1      43.836  30.583  29.069  1.00  0.00     0.029 A 
ATOM     59  C   UNL A   1      44.804  29.586  28.636  1.00  0.00     0.049 A 
ATOM     60  H   UNL A   1      44.437  27.531  28.476  1.00  0.00     0.167 HD
ATOM     61  C   UNL A   1      43.046  23.421  27.174  1.00  0.00     0.034 A 
ATOM     62  C   UNL A   1      46.112  29.702  28.262  1.00  0.00     0.034 A 
ATOM     63  C   UNL A   1      43.687  23.234  28.460  1.00  0.00     0.049 A 
ATOM     64  C   UNL A   1      46.683  28.325  28.313  1.00  0.00     0.074 A 
ATOM     65  C   UNL A   1      43.222  22.954  29.732  1.00  0.00     0.029 A 
ATOM     66  N   UNL A   1      44.948  23.766  28.633  1.00  0.00    -0.354 N 
ATOM     67  N   UNL A   1      46.821  27.660  29.431  1.00  0.00    -0.248 NA
ATOM     68  C   UNL A   1      46.575  27.497  27.117  1.00  0.00     0.031 C 
ATOM     69  C   UNL A   1      43.996  23.784  30.596  1.00  0.00     0.029 A 
ATOM     70  C   UNL A   1      44.960  24.443  29.830  1.00  0.00     0.049 A 
ATOM     71  H   UNL A   1      45.704  23.678  28.009  1.00  0.00     0.167 HD
ATOM     72  C   UNL A   1      46.378  26.376  29.146  1.00  0.00     0.074 A 
ATOM     73  C   UNL A   1      46.310  26.314  27.685  1.00  0.00     0.031 C 
ATOM     74  C   UNL A   1      45.809  25.590  30.110  1.00  0.00     0.034 A 
BRANCH  61  75
ATOM     75  C   UNL A   1      43.647  22.901  25.889  1.00  0.00     0.023 A 
ATOM     76  C   UNL A   1      43.721  21.505  25.745  1.00  0.00     0.031 A 
ATOM     77  C   UNL A   1      44.385  23.655  24.944  1.00  0.00     0.131 A 
ATOM     78  C   UNL A   1      44.563  20.925  24.784  1.00  0.00     0.055 A 
ATOM     79  C   UNL A   1      45.163  23.073  23.943  1.00  0.00     0.041 A 
ATOM     80  F   UNL A   1      44.484  24.988  24.982  1.00  0.00    -0.206 F 
ATOM     81  C   UNL A   1      45.282  21.698  23.877  1.00  0.00     0.022 A 
BRANCH  78  82
ATOM     82  S   UNL A   1      44.834  19.139  24.856  1.00  0.00     0.124 S 
ATOM     83  O   UNL A   1      44.894  18.795  23.441  1.00  0.00    -0.237 OA
ATOM     84  O   UNL A   1      46.090  19.058  25.594  1.00  0.00    -0.237 OA
ATOM     85  O   UNL A   1      43.658  18.648  25.570  1.00  0.00    -0.744 OA
ENDBRANCH  78  82
ENDBRANCH  61  75
BRANCH  62  86
ATOM     86  C   UNL A   1      46.747  30.833  27.512  1.00  0.00     0.023 A 
ATOM     87  C   UNL A   1      46.023  31.928  26.976  1.00  0.00     0.031 A 
ATOM     88  C   UNL A   1      48.155  30.966  27.523  1.00  0.00     0.131 A 
ATOM     89  C   UNL A   1      46.708  33.072  26.484  1.00  0.00     0.055 A 
ATOM     90  C   UNL A   1      48.821  32.095  27.042  1.00  0.00     0.041 A 
ATOM     91  F   UNL A   1      48.938  30.033  28.087  1.00  0.00    -0.206 F 
ATOM     92  C   UNL A   1      48.100  33.158  26.527  1.00  0.00     0.022 A 
BRANCH  89  93
ATOM     93  S   UNL A   1      45.796  34.521  25.841  1.00  0.00     0.124 S 
ATOM     94  O   UNL A   1      45.176  33.988  24.633  1.00  0.00    -0.237 OA
ATOM     95  O   UNL A   1      44.899  34.845  26.944  1.00  0.00    -0.237 OA
ATOM     96  O   UNL A   1      46.849  35.510  25.601  1.00  0.00    -0.744 OA
ENDBRANCH  89  93
ENDBRANCH  62  86
BRANCH  74  97
ATOM     97  C   UNL A   1      45.901  26.034  31.561  1.00  0.00     0.023 A 
ATOM     98  C   UNL A   1      44.836  26.574  32.323  1.00  0.00     0.031 A 
ATOM     99  C   UNL A   1      47.107  25.768  32.231  1.00  0.00     0.131 A 
ATOM    100  C   UNL A   1      45.015  26.833  33.700  1.00  0.00     0.055 A 
ATOM    101  C   UNL A   1      47.271  26.000  33.595  1.00  0.00     0.041 A 
ATOM    102  F   UNL A   1      48.148  25.234  31.570  1.00  0.00    -0.206 F 
ATOM    103  C   UNL A   1      46.226  26.540  34.334  1.00  0.00     0.022 A 
BRANCH 100 104
ATOM    104  S   UNL A   1      43.682  27.583  34.695  1.00  0.00     0.124 S 
ATOM    105  O   UNL A   1      42.725  28.039  33.693  1.00  0.00    -0.237 OA
ATOM    106  O   UNL A   1      43.248  26.468  35.533  1.00  0.00    -0.237 OA
ATOM    107  O   UNL A   1      44.363  28.657  35.421  1.00  0.00    -0.744 OA
ENDBRANCH 100 104
ENDBRANCH  74  97
ENDBRANCH  48  49
ENDBRANCH  41  43
ENDBRANCH  40  41
ENDBRANCH  39  40
ENDBRANCH   1  39
TORSDOF 21
ENDMDL
MODEL 2
REMARK VINA RESULT:     -12.3      3.833      8.779
REMARK SMILES COc1cc([C@@H]2CC(=O)Nc3c(C(=O)OCCOCCOC(=O)c4ccc(-c5c6nc(c(-c7cc(S(=O)(=O)[O-])ccc7F)c7ccc([nH]7)c(-c7cc(S(=O)(=O)[O-])ccc7F)c7nc(c(-c8cc(S(=O)(=O)[O-])ccc8F)c8ccc5[nH]8)C=C7)C=C6)cc4)cn(-c4ccc(F)cc4)c32)c(OC)c2c1OCO2
REMARK SMILES IDX 19 1 18 2 17 3 16 4 15 5 13 6 14 7 12 8 6 9 7 10 96 11 8 12
REMARK SMILES IDX 11 13 88 14 9 15 10 16 87 17 5 19 3 20 4 21 101 22 100 23
REMARK SMILES IDX 102 24 97 25 104 26 103 27 2 28 1 29 98 30 99 31 89 32 90 33
REMARK SMILES IDX 95 34 91 35 94 36 92 37 93 38 20 39 21 40 22 41 23 42 24 43
REMARK SMILES IDX 25 44 86 45 26 46 85 47 27 48 28 49 29 50 79 51 30 52 84 53
REMARK SMILES IDX 78 54 80 55 31 56 83 57 77 58 76 59 32 61 64 62 44 63 63 64
REMARK SMILES IDX 45 65 48 66 62 67 81 68 46 69 47 70 61 72 82 73 49 74 33 75
REMARK SMILES IDX 34 76 42 77 35 78 41 79 43 80 40 81 36 82 37 83 38 84 39 85
REMARK SMILES IDX 65 86 66 87 74 88 67 89 73 90 75 91 72 92 68 93 69 94 70 95
REMARK SMILES IDX 71 96 50 97 51 98 59 99 52 100 58 101 60 102 57 103 53 104
REMARK SMILES IDX 54 105 55 106 56 107
REMARK H PARENT 10 18 80 60 48 71
REMARK Flexibility Score: inf
ROOT
ATOM      1  C   UNL A   1      39.493  21.466  26.483  1.00  0.00     0.202 C 
ENDROOT
BRANCH   1   2
ATOM      2  O   UNL A   1      38.567  22.328  25.830  1.00  0.00    -0.374 OA
BRANCH   2   3
ATOM      3  C   UNL A   1      37.447  21.778  25.137  1.00  0.00     0.202 C 
BRANCH   3   4
ATOM      4  C   UNL A   1      36.592  22.720  24.286  1.00  0.00     0.261 C 
BRANCH   4   5
ATOM      5  O   UNL A   1      35.181  22.572  24.517  1.00  0.00    -0.460 OA
BRANCH   5   6
ATOM      6  C   UNL A   1      34.701  23.289  25.576  1.00  0.00     0.341 C 
ATOM      7  O   UNL A   1      34.711  22.908  26.737  1.00  0.00    -0.246 OA
BRANCH   6   8
ATOM      8  C   UNL A   1      34.275  24.629  25.202  1.00  0.00     0.102 A 
ATOM      9  C   UNL A   1      32.883  27.363  23.100  1.00  0.00     0.082 C 
ATOM     10  C   UNL A   1      33.225  26.775  21.715  1.00  0.00     0.115 C 
ATOM     11  C   UNL A   1      33.418  26.463  24.176  1.00  0.00     0.055 A 
ATOM     12  C   UNL A   1      33.262  25.253  21.634  1.00  0.00     0.225 C 
ATOM     13  C   UNL A   1      33.811  25.157  23.976  1.00  0.00     0.078 A 
ATOM     14  N   UNL A   1      33.736  26.802  25.475  1.00  0.00    -0.317 N 
ATOM     15  O   UNL A   1      33.041  24.657  20.579  1.00  0.00    -0.275 OA
ATOM     16  N   UNL A   1      33.678  24.563  22.745  1.00  0.00    -0.324 N 
ATOM     17  C   UNL A   1      34.301  25.704  26.081  1.00  0.00     0.109 A 
ATOM     18  H   UNL A   1      33.889  23.605  22.656  1.00  0.00     0.170 HD
BRANCH   9  19
ATOM     19  C   UNL A   1      31.401  27.739  23.205  1.00  0.00     0.012 A 
ATOM     20  C   UNL A   1      29.702  29.483  22.799  1.00  0.00     0.165 A 
ATOM     21  C   UNL A   1      31.025  29.037  22.759  1.00  0.00     0.059 A 
ATOM     22  C   UNL A   1      28.741  28.579  23.200  1.00  0.00     0.211 A 
ATOM     23  C   UNL A   1      29.077  27.303  23.618  1.00  0.00     0.211 A 
ATOM     24  O   UNL A   1      27.393  28.788  23.216  1.00  0.00    -0.449 OA
ATOM     25  C   UNL A   1      30.396  26.858  23.660  1.00  0.00     0.168 A 
ATOM     26  O   UNL A   1      27.961  26.589  23.958  1.00  0.00    -0.449 OA
ATOM     27  C   UNL A   1      26.913  27.480  23.553  1.00  0.00     0.468 C 
BRANCH  20  28
ATOM     28  O   UNL A   1      29.488  30.762  22.374  1.00  0.00    -0.493 OA
ATOM     29  C   UNL A   1      29.042  31.660  23.386  1.00  0.00     0.278 C 
ENDBRANCH  20  28
BRANCH  25  30
ATOM     30  O   UNL A   1      30.819  25.643  24.108  1.00  0.00    -0.492 OA
ATOM     31  C   UNL A   1      30.271  24.473  23.519  1.00  0.00     0.278 C 
ENDBRANCH  25  30
ENDBRANCH   9  19
BRANCH  14  32
ATOM     32  C   UNL A   1      33.511  28.029  26.126  1.00  0.00     0.046 A 
ATOM     33  C   UNL A   1      32.215  28.346  26.542  1.00  0.00     0.029 A 
ATOM     34  C   UNL A   1      34.580  28.901  26.364  1.00  0.00     0.029 A 
ATOM     35  C   UNL A   1      31.967  29.584  27.128  1.00  0.00     0.041 A 
ATOM     36  C   UNL A   1      34.320  30.143  26.947  1.00  0.00     0.041 A 
ATOM     37  C   UNL A   1      33.018  30.477  27.311  1.00  0.00     0.123 A 
ATOM     38  F   UNL A   1      32.769  31.676  27.852  1.00  0.00    -0.207 F 
ENDBRANCH  14  32
ENDBRANCH   6   8
ENDBRANCH   5   6
ENDBRANCH   4   5
ENDBRANCH   3   4
ENDBRANCH   2   3
ENDBRANCH   1   2
BRANCH   1  39
ATOM     39  C   UNL A   1      40.966  21.564  26.123  1.00  0.00     0.261 C 
BRANCH  39  40
ATOM     40  O   UNL A   1      41.378  22.908  25.953  1.00  0.00    -0.460 OA
BRANCH  40  41
ATOM     41  C   UNL A   1      42.398  23.278  26.768  1.00  0.00     0.338 C 
ATOM     42  O   UNL A   1      43.511  22.797  26.816  1.00  0.00    -0.246 OA
BRANCH  41  43
ATOM     43  C   UNL A   1      41.873  24.267  27.715  1.00  0.00     0.060 A 
ATOM     44  C   UNL A   1      40.801  25.042  27.268  1.00  0.00     0.016 A 
ATOM     45  C   UNL A   1      42.659  24.637  28.815  1.00  0.00     0.016 A 
ATOM     46  C   UNL A   1      40.688  26.322  27.756  1.00  0.00     0.010 A 
ATOM     47  C   UNL A   1      42.566  25.923  29.274  1.00  0.00     0.010 A 
ATOM     48  C   UNL A   1      41.647  26.774  28.666  1.00  0.00    -0.014 A 
BRANCH  48  49
ATOM     49  C   UNL A   1      41.598  28.145  29.115  1.00  0.00     0.031 A 
ATOM     50  C   UNL A   1      42.694  28.932  28.515  1.00  0.00     0.074 A 
ATOM     51  C   UNL A   1      40.591  28.636  29.861  1.00  0.00     0.049 A 
ATOM     52  N   UNL A   1      43.802  29.269  29.084  1.00  0.00    -0.248 NA
ATOM     53  C   UNL A   1      42.698  29.110  27.050  1.00  0.00     0.031 C 
ATOM     54  C   UNL A   1      39.353  27.980  30.285  1.00  0.00     0.029 A 
ATOM     55  N   UNL A   1      40.434  29.898  30.337  1.00  0.00    -0.354 N 
ATOM     56  C   UNL A   1      44.502  29.964  28.110  1.00  0.00     0.074 A 
ATOM     57  C   UNL A   1      43.937  29.560  26.856  1.00  0.00     0.031 C 
ATOM     58  C   UNL A   1      38.486  28.915  30.745  1.00  0.00     0.029 A 
ATOM     59  C   UNL A   1      39.145  30.212  30.762  1.00  0.00     0.049 A 
ATOM     60  H   UNL A   1      41.176  30.544  30.377  1.00  0.00     0.167 HD
ATOM     61  C   UNL A   1      45.237  31.060  28.436  1.00  0.00     0.034 A 
ATOM     62  C   UNL A   1      38.667  31.464  31.026  1.00  0.00     0.034 A 
ATOM     63  C   UNL A   1      45.470  31.115  29.864  1.00  0.00     0.049 A 
ATOM     64  C   UNL A   1      39.861  32.320  31.280  1.00  0.00     0.074 A 
ATOM     65  C   UNL A   1      46.050  30.253  30.776  1.00  0.00     0.029 A 
ATOM     66  N   UNL A   1      44.691  31.976  30.610  1.00  0.00    -0.354 N 
ATOM     67  N   UNL A   1      40.644  32.150  32.314  1.00  0.00    -0.248 NA
ATOM     68  C   UNL A   1      40.490  32.970  30.136  1.00  0.00     0.031 C 
ATOM     69  C   UNL A   1      45.211  30.317  31.927  1.00  0.00     0.029 A 
ATOM     70  C   UNL A   1      44.230  31.286  31.707  1.00  0.00     0.049 A 
ATOM     71  H   UNL A   1      44.498  32.917  30.394  1.00  0.00     0.167 HD
ATOM     72  C   UNL A   1      41.935  32.252  31.812  1.00  0.00     0.074 A 
ATOM     73  C   UNL A   1      41.777  32.834  30.477  1.00  0.00     0.031 C 
ATOM     74  C   UNL A   1      42.976  31.573  32.383  1.00  0.00     0.034 A 
BRANCH  61  75
ATOM     75  C   UNL A   1      45.389  32.270  27.544  1.00  0.00     0.023 A 
ATOM     76  C   UNL A   1      46.678  32.533  27.051  1.00  0.00     0.031 A 
ATOM     77  C   UNL A   1      44.444  33.312  27.377  1.00  0.00     0.131 A 
ATOM     78  C   UNL A   1      47.004  33.793  26.526  1.00  0.00     0.055 A 
ATOM     79  C   UNL A   1      44.755  34.538  26.787  1.00  0.00     0.041 A 
ATOM     80  F   UNL A   1      43.196  33.256  27.854  1.00  0.00    -0.206 F 
ATOM     81  C   UNL A   1      46.051  34.798  26.385  1.00  0.00     0.022 A 
BRANCH  78  82
ATOM     82  S   UNL A   1      48.744  34.152  26.191  1.00  0.00     0.124 S 
ATOM     83  O   UNL A   1      48.654  34.896  24.940  1.00  0.00    -0.237 OA
ATOM     84  O   UNL A   1      49.123  34.920  27.373  1.00  0.00    -0.237 OA
ATOM     85  O   UNL A   1      49.348  32.826  26.088  1.00  0.00    -0.744 OA
ENDBRANCH  78  82
ENDBRANCH  61  75
BRANCH  62  86
ATOM     86  C   UNL A   1      37.314  32.011  30.688  1.00  0.00     0.023 A 
ATOM     87  C   UNL A   1      36.476  32.673  31.620  1.00  0.00     0.031 A 
ATOM     88  C   UNL A   1      36.921  32.096  29.331  1.00  0.00     0.131 A 
ATOM     89  C   UNL A   1      35.316  33.366  31.180  1.00  0.00     0.055 A 
ATOM     90  C   UNL A   1      35.782  32.782  28.906  1.00  0.00     0.041 A 
ATOM     91  F   UNL A   1      37.684  31.584  28.353  1.00  0.00    -0.206 F 
ATOM     92  C   UNL A   1      34.978  33.428  29.827  1.00  0.00     0.022 A 
BRANCH  89  93
ATOM     93  S   UNL A   1      34.250  34.276  32.355  1.00  0.00     0.124 S 
ATOM     94  O   UNL A   1      35.206  35.142  33.036  1.00  0.00    -0.237 OA
ATOM     95  O   UNL A   1      33.294  34.933  31.471  1.00  0.00    -0.237 OA
ATOM     96  O   UNL A   1      33.680  33.219  33.191  1.00  0.00    -0.744 OA
ENDBRANCH  89  93
ENDBRANCH  62  86
BRANCH  74  97
ATOM     97  C   UNL A   1      42.759  30.909  33.733  1.00  0.00     0.023 A 
ATOM     98  C   UNL A   1      42.378  29.559  33.932  1.00  0.00     0.031 A 
ATOM     99  C   UNL A   1      43.088  31.664  34.872  1.00  0.00     0.131 A 
ATOM    100  C   UNL A   1      42.330  29.026  35.239  1.00  0.00     0.055 A 
ATOM    101  C   UNL A   1      43.065  31.126  36.157  1.00  0.00     0.041 A 
ATOM    102  F   UNL A   1      43.480  32.944  34.749  1.00  0.00    -0.206 F 
ATOM    103  C   UNL A   1      42.680  29.805  36.346  1.00  0.00     0.022 A 
BRANCH 100 104
ATOM    104  S   UNL A   1      41.787  27.309  35.532  1.00  0.00     0.124 S 
ATOM    105  O   UNL A   1      40.851  27.057  34.442  1.00  0.00    -0.237 OA
ATOM    106  O   UNL A   1      43.043  26.567  35.481  1.00  0.00    -0.237 OA
ATOM    107  O   UNL A   1      41.173  27.369  36.861  1.00  0.00    -0.744 OA
ENDBRANCH 100 104
ENDBRANCH  74  97
ENDBRANCH  48  49
ENDBRANCH  41  43
ENDBRANCH  40  41
ENDBRANCH  39  40
ENDBRANCH   1  39
TORSDOF 21
ENDMDL
MODEL 3
REMARK VINA RESULT:     -11.5      2.423      6.707
REMARK SMILES COc1cc([C@@H]2CC(=O)Nc3c(C(=O)OCCOCCOC(=O)c4ccc(-c5c6nc(c(-c7cc(S(=O)(=O)[O-])ccc7F)c7ccc([nH]7)c(-c7cc(S(=O)(=O)[O-])ccc7F)c7nc(c(-c8cc(S(=O)(=O)[O-])ccc8F)c8ccc5[nH]8)C=C7)C=C6)cc4)cn(-c4ccc(F)cc4)c32)c(OC)c2c1OCO2
REMARK SMILES IDX 19 1 18 2 17 3 16 4 15 5 13 6 14 7 12 8 6 9 7 10 96 11 8 12
REMARK SMILES IDX 11 13 88 14 9 15 10 16 87 17 5 19 3 20 4 21 101 22 100 23
REMARK SMILES IDX 102 24 97 25 104 26 103 27 2 28 1 29 98 30 99 31 89 32 90 33
REMARK SMILES IDX 95 34 91 35 94 36 92 37 93 38 20 39 21 40 22 41 23 42 24 43
REMARK SMILES IDX 25 44 86 45 26 46 85 47 27 48 28 49 29 50 79 51 30 52 84 53
REMARK SMILES IDX 78 54 80 55 31 56 83 57 77 58 76 59 32 61 64 62 44 63 63 64
REMARK SMILES IDX 45 65 48 66 62 67 81 68 46 69 47 70 61 72 82 73 49 74 33 75
REMARK SMILES IDX 34 76 42 77 35 78 41 79 43 80 40 81 36 82 37 83 38 84 39 85
REMARK SMILES IDX 65 86 66 87 74 88 67 89 73 90 75 91 72 92 68 93 69 94 70 95
REMARK SMILES IDX 71 96 50 97 51 98 59 99 52 100 58 101 60 102 57 103 53 104
REMARK SMILES IDX 54 105 55 106 56 107
REMARK H PARENT 10 18 80 60 48 71
REMARK Flexibility Score: inf
ROOT
ATOM      1  C   UNL A   1      33.944  29.877  27.040  1.00  0.00     0.202 C 
ENDROOT
BRANCH   1   2
ATOM      2  O   UNL A   1      32.726  29.190  27.305  1.00  0.00    -0.374 OA
BRANCH   2   3
ATOM      3  C   UNL A   1      31.747  29.051  26.276  1.00  0.00     0.202 C 
BRANCH   3   4
ATOM      4  C   UNL A   1      32.063  29.635  24.897  1.00  0.00     0.261 C 
BRANCH   4   5
ATOM      5  O   UNL A   1      33.080  28.905  24.190  1.00  0.00    -0.460 OA
BRANCH   5   6
ATOM      6  C   UNL A   1      32.632  27.783  23.552  1.00  0.00     0.341 C 
ATOM      7  O   UNL A   1      32.032  27.780  22.487  1.00  0.00    -0.246 OA
BRANCH   6   8
ATOM      8  C   UNL A   1      33.049  26.555  24.212  1.00  0.00     0.102 A 
ATOM      9  C   UNL A   1      32.759  23.378  26.122  1.00  0.00     0.082 C 
ATOM     10  C   UNL A   1      31.485  23.713  26.923  1.00  0.00     0.115 C 
ATOM     11  C   UNL A   1      33.160  24.561  25.289  1.00  0.00     0.055 A 
ATOM     12  C   UNL A   1      30.508  24.665  26.242  1.00  0.00     0.225 C 
ATOM     13  C   UNL A   1      32.332  25.624  24.997  1.00  0.00     0.078 A 
ATOM     14  N   UNL A   1      34.415  24.861  24.803  1.00  0.00    -0.317 N 
ATOM     15  O   UNL A   1      29.303  24.647  26.499  1.00  0.00    -0.275 OA
ATOM     16  N   UNL A   1      31.026  25.636  25.422  1.00  0.00    -0.324 N 
ATOM     17  C   UNL A   1      34.358  26.093  24.193  1.00  0.00     0.109 A 
ATOM     18  H   UNL A   1      30.439  26.370  25.126  1.00  0.00     0.170 HD
BRANCH   9  19
ATOM     19  C   UNL A   1      32.626  22.042  25.381  1.00  0.00     0.012 A 
ATOM     20  C   UNL A   1      32.112  20.939  23.234  1.00  0.00     0.165 A 
ATOM     21  C   UNL A   1      32.253  22.092  24.009  1.00  0.00     0.059 A 
ATOM     22  C   UNL A   1      32.444  19.737  23.821  1.00  0.00     0.211 A 
ATOM     23  C   UNL A   1      32.831  19.661  25.148  1.00  0.00     0.211 A 
ATOM     24  O   UNL A   1      32.465  18.517  23.209  1.00  0.00    -0.449 OA
ATOM     25  C   UNL A   1      32.906  20.787  25.965  1.00  0.00     0.168 A 
ATOM     26  O   UNL A   1      33.116  18.372  25.504  1.00  0.00    -0.449 OA
ATOM     27  C   UNL A   1      33.031  17.698  24.241  1.00  0.00     0.468 C 
BRANCH  20  28
ATOM     28  O   UNL A   1      31.715  21.130  21.942  1.00  0.00    -0.493 OA
ATOM     29  C   UNL A   1      32.362  22.209  21.273  1.00  0.00     0.278 C 
ENDBRANCH  20  28
BRANCH  25  30
ATOM     30  O   UNL A   1      33.223  20.797  27.290  1.00  0.00    -0.492 OA
ATOM     31  C   UNL A   1      34.333  21.573  27.717  1.00  0.00     0.278 C 
ENDBRANCH  25  30
ENDBRANCH   9  19
BRANCH  14  32
ATOM     32  C   UNL A   1      35.575  24.067  24.861  1.00  0.00     0.046 A 
ATOM     33  C   UNL A   1      35.831  23.167  23.822  1.00  0.00     0.029 A 
ATOM     34  C   UNL A   1      36.460  24.200  25.936  1.00  0.00     0.029 A 
ATOM     35  C   UNL A   1      36.940  22.330  23.899  1.00  0.00     0.041 A 
ATOM     36  C   UNL A   1      37.567  23.351  26.007  1.00  0.00     0.041 A 
ATOM     37  C   UNL A   1      37.789  22.418  24.997  1.00  0.00     0.123 A 
ATOM     38  F   UNL A   1      38.840  21.592  25.079  1.00  0.00    -0.207 F 
ENDBRANCH  14  32
ENDBRANCH   6   8
ENDBRANCH   5   6
ENDBRANCH   4   5
ENDBRANCH   3   4
ENDBRANCH   2   3
ENDBRANCH   1   2
BRANCH   1  39
ATOM     39  C   UNL A   1      34.125  31.285  27.581  1.00  0.00     0.261 C 
BRANCH  39  40
ATOM     40  O   UNL A   1      35.418  31.477  28.129  1.00  0.00    -0.460 OA
BRANCH  40  41
ATOM     41  C   UNL A   1      35.413  31.828  29.439  1.00  0.00     0.338 C 
ATOM     42  O   UNL A   1      34.803  32.743  29.951  1.00  0.00    -0.246 OA
BRANCH  41  43
ATOM     43  C   UNL A   1      36.415  31.004  30.123  1.00  0.00     0.060 A 
ATOM     44  C   UNL A   1      37.518  31.682  30.647  1.00  0.00     0.016 A 
ATOM     45  C   UNL A   1      36.418  29.619  29.907  1.00  0.00     0.016 A 
ATOM     46  C   UNL A   1      38.717  31.012  30.697  1.00  0.00     0.010 A 
ATOM     47  C   UNL A   1      37.620  28.965  29.925  1.00  0.00     0.010 A 
ATOM     48  C   UNL A   1      38.765  29.698  30.224  1.00  0.00    -0.014 A 
BRANCH  48  49
ATOM     49  C   UNL A   1      40.035  29.013  30.182  1.00  0.00     0.031 A 
ATOM     50  C   UNL A   1      40.567  28.810  31.544  1.00  0.00     0.074 A 
ATOM     51  C   UNL A   1      40.560  28.513  29.047  1.00  0.00     0.049 A 
ATOM     52  N   UNL A   1      41.484  29.508  32.124  1.00  0.00    -0.248 NA
ATOM     53  C   UNL A   1      39.805  27.943  32.463  1.00  0.00     0.031 C 
ATOM     54  C   UNL A   1      39.975  28.460  27.706  1.00  0.00     0.029 A 
ATOM     55  N   UNL A   1      41.734  27.852  28.883  1.00  0.00    -0.354 N 
ATOM     56  C   UNL A   1      41.606  28.949  33.387  1.00  0.00     0.074 A 
ATOM     57  C   UNL A   1      40.378  28.248  33.627  1.00  0.00     0.031 C 
ATOM     58  C   UNL A   1      40.693  27.604  26.938  1.00  0.00     0.029 A 
ATOM     59  C   UNL A   1      41.851  27.143  27.689  1.00  0.00     0.049 A 
ATOM     60  H   UNL A   1      42.450  27.872  29.558  1.00  0.00     0.167 HD
ATOM     61  C   UNL A   1      42.826  28.820  33.972  1.00  0.00     0.034 A 
ATOM     62  C   UNL A   1      42.795  26.199  27.402  1.00  0.00     0.034 A 
ATOM     63  C   UNL A   1      43.806  29.650  33.303  1.00  0.00     0.049 A 
ATOM     64  C   UNL A   1      43.928  26.446  28.339  1.00  0.00     0.074 A 
ATOM     65  C   UNL A   1      43.896  31.004  33.036  1.00  0.00     0.029 A 
ATOM     66  N   UNL A   1      44.669  29.039  32.417  1.00  0.00    -0.354 N 
ATOM     67  N   UNL A   1      44.661  27.528  28.291  1.00  0.00    -0.248 NA
ATOM     68  C   UNL A   1      43.891  25.790  29.642  1.00  0.00     0.031 C 
ATOM     69  C   UNL A   1      44.401  31.083  31.705  1.00  0.00     0.029 A 
ATOM     70  C   UNL A   1      44.696  29.790  31.266  1.00  0.00     0.049 A 
ATOM     71  H   UNL A   1      45.175  28.210  32.580  1.00  0.00     0.167 HD
ATOM     72  C   UNL A   1      44.806  27.929  29.612  1.00  0.00     0.074 A 
ATOM     73  C   UNL A   1      44.373  26.777  30.406  1.00  0.00     0.031 C 
ATOM     74  C   UNL A   1      44.956  29.248  29.943  1.00  0.00     0.034 A 
BRANCH  61  75
ATOM     75  C   UNL A   1      43.218  27.663  34.861  1.00  0.00     0.023 A 
ATOM     76  C   UNL A   1      43.748  26.528  34.223  1.00  0.00     0.031 A 
ATOM     77  C   UNL A   1      42.858  27.491  36.220  1.00  0.00     0.131 A 
ATOM     78  C   UNL A   1      43.808  25.293  34.887  1.00  0.00     0.055 A 
ATOM     79  C   UNL A   1      42.989  26.277  36.897  1.00  0.00     0.041 A 
ATOM     80  F   UNL A   1      42.272  28.445  36.952  1.00  0.00    -0.206 F 
ATOM     81  C   UNL A   1      43.436  25.159  36.221  1.00  0.00     0.022 A 
BRANCH  78  82
ATOM     82  S   UNL A   1      44.217  23.824  33.916  1.00  0.00     0.124 S 
ATOM     83  O   UNL A   1      45.300  23.246  34.702  1.00  0.00    -0.237 OA
ATOM     84  O   UNL A   1      42.952  23.096  33.927  1.00  0.00    -0.237 OA
ATOM     85  O   UNL A   1      44.610  24.374  32.621  1.00  0.00    -0.744 OA
ENDBRANCH  78  82
ENDBRANCH  61  75
BRANCH  62  86
ATOM     86  C   UNL A   1      42.598  24.911  26.664  1.00  0.00     0.023 A 
ATOM     87  C   UNL A   1      43.564  24.346  25.792  1.00  0.00     0.031 A 
ATOM     88  C   UNL A   1      41.510  24.075  27.008  1.00  0.00     0.131 A 
ATOM     89  C   UNL A   1      43.410  23.018  25.310  1.00  0.00     0.055 A 
ATOM     90  C   UNL A   1      41.367  22.770  26.533  1.00  0.00     0.041 A 
ATOM     91  F   UNL A   1      40.583  24.470  27.894  1.00  0.00    -0.206 F 
ATOM     92  C   UNL A   1      42.321  22.231  25.689  1.00  0.00     0.022 A 
BRANCH  89  93
ATOM     93  S   UNL A   1      44.669  22.247  24.232  1.00  0.00     0.124 S 
ATOM     94  O   UNL A   1      44.180  22.574  22.898  1.00  0.00    -0.237 OA
ATOM     95  O   UNL A   1      45.897  22.910  24.655  1.00  0.00    -0.237 OA
ATOM     96  O   UNL A   1      44.594  20.826  24.578  1.00  0.00    -0.744 OA
ENDBRANCH  89  93
ENDBRANCH  62  86
BRANCH  74  97
ATOM     97  C   UNL A   1      45.228  30.251  28.833  1.00  0.00     0.023 A 
ATOM     98  C   UNL A   1      46.505  30.743  28.467  1.00  0.00     0.031 A 
ATOM     99  C   UNL A   1      44.136  30.619  28.029  1.00  0.00     0.131 A 
ATOM    100  C   UNL A   1      46.640  31.579  27.336  1.00  0.00     0.055 A 
ATOM    101  C   UNL A   1      44.279  31.422  26.899  1.00  0.00     0.041 A 
ATOM    102  F   UNL A   1      42.902  30.167  28.309  1.00  0.00    -0.206 F 
ATOM    103  C   UNL A   1      45.531  31.910  26.551  1.00  0.00     0.022 A 
BRANCH 100 104
ATOM    104  S   UNL A   1      48.262  32.275  26.873  1.00  0.00     0.124 S 
ATOM    105  O   UNL A   1      47.940  33.194  25.787  1.00  0.00    -0.237 OA
ATOM    106  O   UNL A   1      48.709  32.890  28.120  1.00  0.00    -0.237 OA
ATOM    107  O   UNL A   1      49.033  31.098  26.467  1.00  0.00    -0.744 OA
ENDBRANCH 100 104
ENDBRANCH  74  97
ENDBRANCH  48  49
ENDBRANCH  41  43
ENDBRANCH  40  41
ENDBRANCH  39  40
ENDBRANCH   1  39
TORSDOF 21
ENDMDL
