MODEL 1
REMARK VINA RESULT:     -11.0      0.000      0.000
REMARK SMILES CC1(C)CCC[C@@](C)(CCC(=O)OCCOCCOC(=O)c2ccc(-c3c4nc(c(-c5cc(S(=O)(=O)[O-])ccc5F)c5ccc([nH]5)c(-c5cc(S(=O)(=O)[O-])ccc5F)c5nc(c(-c6cc(S(=O)(=O)[O-])ccc6F)c6ccc3[nH]6)C=C5)C=C4)cc2)C1=O
REMARK SMILES IDX 17 1 16 2 15 3 14 4 13 5 11 6 12 7 10 8 9 9 7 10 1 11 2 12
REMARK SMILES IDX 3 13 4 14 85 15 5 16 86 17 6 18 8 19 18 20 19 21 20 22 21 23
REMARK SMILES IDX 22 24 23 25 84 26 24 27 83 28 25 29 26 30 27 31 77 32 28 33
REMARK SMILES IDX 82 34 76 35 78 36 29 37 81 38 75 39 74 40 30 42 62 43 42 44
REMARK SMILES IDX 61 45 43 46 46 47 60 48 79 49 44 50 45 51 59 53 80 54 47 55
REMARK SMILES IDX 31 56 32 57 40 58 33 59 39 60 41 61 38 62 34 63 35 64 36 65
REMARK SMILES IDX 37 66 63 67 64 68 72 69 65 70 71 71 73 72 70 73 66 74 67 75
REMARK SMILES IDX 68 76 69 77 48 78 49 79 57 80 50 81 56 82 58 83 55 84 51 85
REMARK SMILES IDX 52 86 53 87 54 88
REMARK H PARENT 78 41 46 52
REMARK Flexibility Score: inf
ROOT
ATOM      1  C   UNL A   1      36.110  20.138  24.999  1.00  0.00     0.202 C 
ENDROOT
BRANCH   1   2
ATOM      2  O   UNL A   1      35.815  21.231  25.867  1.00  0.00    -0.374 OA
BRANCH   2   3
ATOM      3  C   UNL A   1      34.599  21.929  25.596  1.00  0.00     0.202 C 
BRANCH   3   4
ATOM      4  C   UNL A   1      33.787  21.345  24.440  1.00  0.00     0.261 C 
BRANCH   4   5
ATOM      5  O   UNL A   1      33.334  22.379  23.543  1.00  0.00    -0.463 OA
BRANCH   5   6
ATOM      6  C   UNL A   1      32.122  22.193  22.968  1.00  0.00     0.305 C 
ATOM      7  O   UNL A   1      31.825  21.261  22.232  1.00  0.00    -0.252 OA
BRANCH   6   8
ATOM      8  C   UNL A   1      31.165  23.326  23.267  1.00  0.00     0.124 C 
BRANCH   8   9
ATOM      9  C   UNL A   1      31.637  24.462  24.190  1.00  0.00     0.026 C 
BRANCH   9  10
ATOM     10  C   UNL A   1      32.394  25.696  23.597  1.00  0.00     0.027 C 
ATOM     11  C   UNL A   1      31.155  26.921  26.533  1.00  0.00     0.019 C 
ATOM     12  C   UNL A   1      31.976  27.620  25.432  1.00  0.00     0.024 C 
ATOM     13  C   UNL A   1      31.598  29.114  25.407  1.00  0.00     0.019 C 
ATOM     14  C   UNL A   1      33.475  27.547  25.732  1.00  0.00     0.014 C 
ATOM     15  C   UNL A   1      31.651  26.988  24.055  1.00  0.00     0.144 C 
ATOM     16  C   UNL A   1      34.021  26.154  25.516  1.00  0.00     0.002 C 
ATOM     17  O   UNL A   1      30.704  27.424  23.390  1.00  0.00    -0.298 OA
ATOM     18  C   UNL A   1      33.865  25.755  24.056  1.00  0.00     0.014 C 
ATOM     19  C   UNL A   1      32.386  25.696  22.053  1.00  0.00     0.020 C 
ENDBRANCH   9  10
ENDBRANCH   8   9
ENDBRANCH   6   8
ENDBRANCH   5   6
ENDBRANCH   4   5
ENDBRANCH   3   4
ENDBRANCH   2   3
ENDBRANCH   1   2
BRANCH   1  20
ATOM     20  C   UNL A   1      37.587  19.726  24.984  1.00  0.00     0.261 C 
BRANCH  20  21
ATOM     21  O   UNL A   1      38.431  20.861  25.264  1.00  0.00    -0.460 OA
BRANCH  21  22
ATOM     22  C   UNL A   1      39.507  20.640  26.053  1.00  0.00     0.338 C 
ATOM     23  O   UNL A   1      40.159  19.607  26.123  1.00  0.00    -0.246 OA
BRANCH  22  24
ATOM     24  C   UNL A   1      39.925  21.913  26.683  1.00  0.00     0.060 A 
ATOM     25  C   UNL A   1      39.277  23.080  26.272  1.00  0.00     0.016 A 
ATOM     26  C   UNL A   1      40.951  21.987  27.629  1.00  0.00     0.016 A 
ATOM     27  C   UNL A   1      39.692  24.322  26.760  1.00  0.00     0.010 A 
ATOM     28  C   UNL A   1      41.325  23.225  28.164  1.00  0.00     0.010 A 
ATOM     29  C   UNL A   1      40.744  24.411  27.685  1.00  0.00    -0.014 A 
BRANCH  29  30
ATOM     30  C   UNL A   1      41.346  25.740  27.994  1.00  0.00     0.031 A 
ATOM     31  C   UNL A   1      42.733  26.056  27.490  1.00  0.00     0.074 A 
ATOM     32  C   UNL A   1      40.656  26.681  28.668  1.00  0.00     0.049 A 
ATOM     33  N   UNL A   1      43.432  27.158  27.606  1.00  0.00    -0.248 NA
ATOM     34  C   UNL A   1      43.433  24.978  26.775  1.00  0.00     0.031 C 
ATOM     35  C   UNL A   1      39.312  26.513  29.216  1.00  0.00     0.029 A 
ATOM     36  N   UNL A   1      40.994  27.971  29.001  1.00  0.00    -0.354 N 
ATOM     37  C   UNL A   1      44.655  26.900  26.992  1.00  0.00     0.074 A 
ATOM     38  C   UNL A   1      44.624  25.516  26.568  1.00  0.00     0.031 C 
ATOM     39  C   UNL A   1      38.932  27.660  29.803  1.00  0.00     0.029 A 
ATOM     40  C   UNL A   1      40.017  28.635  29.705  1.00  0.00     0.049 A 
ATOM     41  H   UNL A   1      41.855  28.382  28.758  1.00  0.00     0.167 HD
ATOM     42  C   UNL A   1      45.698  27.739  26.774  1.00  0.00     0.034 A 
ATOM     43  C   UNL A   1      39.999  29.882  30.225  1.00  0.00     0.034 A 
ATOM     44  C   UNL A   1      45.718  29.121  27.188  1.00  0.00     0.049 A 
ATOM     45  C   UNL A   1      41.187  30.790  30.015  1.00  0.00     0.074 A 
ATOM     46  C   UNL A   1      46.697  30.073  26.962  1.00  0.00     0.029 A 
ATOM     47  N   UNL A   1      44.724  29.745  27.930  1.00  0.00    -0.354 N 
ATOM     48  N   UNL A   1      42.311  30.548  29.381  1.00  0.00    -0.248 NA
ATOM     49  C   UNL A   1      41.095  32.144  30.578  1.00  0.00     0.031 C 
ATOM     50  C   UNL A   1      46.337  31.243  27.640  1.00  0.00     0.029 A 
ATOM     51  C   UNL A   1      45.088  31.055  28.211  1.00  0.00     0.049 A 
ATOM     52  H   UNL A   1      43.883  29.321  28.216  1.00  0.00     0.167 HD
ATOM     53  C   UNL A   1      43.049  31.730  29.449  1.00  0.00     0.074 A 
ATOM     54  C   UNL A   1      42.234  32.685  30.172  1.00  0.00     0.031 C 
ATOM     55  C   UNL A   1      44.283  32.000  28.951  1.00  0.00     0.034 A 
BRANCH  42  56
ATOM     56  C   UNL A   1      46.922  27.164  26.094  1.00  0.00     0.023 A 
ATOM     57  C   UNL A   1      47.880  26.411  26.797  1.00  0.00     0.031 A 
ATOM     58  C   UNL A   1      47.159  27.415  24.731  1.00  0.00     0.131 A 
ATOM     59  C   UNL A   1      49.071  26.023  26.163  1.00  0.00     0.055 A 
ATOM     60  C   UNL A   1      48.301  26.942  24.080  1.00  0.00     0.041 A 
ATOM     61  F   UNL A   1      46.295  28.146  24.010  1.00  0.00    -0.206 F 
ATOM     62  C   UNL A   1      49.275  26.259  24.802  1.00  0.00     0.022 A 
BRANCH  59  63
ATOM     63  S   UNL A   1      50.422  25.373  27.184  1.00  0.00     0.124 S 
ATOM     64  O   UNL A   1      50.801  26.553  27.957  1.00  0.00    -0.237 OA
ATOM     65  O   UNL A   1      49.768  24.303  27.929  1.00  0.00    -0.237 OA
ATOM     66  O   UNL A   1      51.413  24.937  26.204  1.00  0.00    -0.744 OA
ENDBRANCH  59  63
ENDBRANCH  42  56
BRANCH  43  67
ATOM     67  C   UNL A   1      38.825  30.338  31.024  1.00  0.00     0.023 A 
ATOM     68  C   UNL A   1      37.748  31.015  30.431  1.00  0.00     0.031 A 
ATOM     69  C   UNL A   1      38.783  30.123  32.415  1.00  0.00     0.131 A 
ATOM     70  C   UNL A   1      36.689  31.480  31.230  1.00  0.00     0.055 A 
ATOM     71  C   UNL A   1      37.706  30.542  33.196  1.00  0.00     0.041 A 
ATOM     72  F   UNL A   1      39.788  29.481  33.032  1.00  0.00    -0.206 F 
ATOM     73  C   UNL A   1      36.654  31.234  32.604  1.00  0.00     0.022 A 
BRANCH  70  74
ATOM     74  S   UNL A   1      35.379  32.468  30.455  1.00  0.00     0.124 S 
ATOM     75  O   UNL A   1      36.073  33.722  30.186  1.00  0.00    -0.237 OA
ATOM     76  O   UNL A   1      35.040  31.660  29.289  1.00  0.00    -0.237 OA
ATOM     77  O   UNL A   1      34.347  32.533  31.487  1.00  0.00    -0.744 OA
ENDBRANCH  70  74
ENDBRANCH  43  67
BRANCH  55  78
ATOM     78  C   UNL A   1      44.817  33.403  29.136  1.00  0.00     0.023 A 
ATOM     79  C   UNL A   1      44.400  34.472  28.324  1.00  0.00     0.031 A 
ATOM     80  C   UNL A   1      45.761  33.673  30.144  1.00  0.00     0.131 A 
ATOM     81  C   UNL A   1      44.964  35.746  28.498  1.00  0.00     0.055 A 
ATOM     82  C   UNL A   1      46.269  34.955  30.356  1.00  0.00     0.041 A 
ATOM     83  F   UNL A   1      46.201  32.692  30.949  1.00  0.00    -0.206 F 
ATOM     84  C   UNL A   1      45.881  35.999  29.521  1.00  0.00     0.022 A 
BRANCH  81  85
ATOM     85  S   UNL A   1      44.559  37.053  27.306  1.00  0.00     0.124 S 
ATOM     86  O   UNL A   1      44.191  38.159  28.184  1.00  0.00    -0.237 OA
ATOM     87  O   UNL A   1      45.812  37.208  26.575  1.00  0.00    -0.237 OA
ATOM     88  O   UNL A   1      43.457  36.482  26.533  1.00  0.00    -0.744 OA
ENDBRANCH  81  85
ENDBRANCH  55  78
ENDBRANCH  29  30
ENDBRANCH  22  24
ENDBRANCH  21  22
ENDBRANCH  20  21
ENDBRANCH   1  20
TORSDOF 19
ENDMDL
MODEL 2
REMARK VINA RESULT:     -10.9      4.570     10.220
REMARK SMILES CC1(C)CCC[C@@](C)(CCC(=O)OCCOCCOC(=O)c2ccc(-c3c4nc(c(-c5cc(S(=O)(=O)[O-])ccc5F)c5ccc([nH]5)c(-c5cc(S(=O)(=O)[O-])ccc5F)c5nc(c(-c6cc(S(=O)(=O)[O-])ccc6F)c6ccc3[nH]6)C=C5)C=C4)cc2)C1=O
REMARK SMILES IDX 17 1 16 2 15 3 14 4 13 5 11 6 12 7 10 8 9 9 7 10 1 11 2 12
REMARK SMILES IDX 3 13 4 14 85 15 5 16 86 17 6 18 8 19 18 20 19 21 20 22 21 23
REMARK SMILES IDX 22 24 23 25 84 26 24 27 83 28 25 29 26 30 27 31 77 32 28 33
REMARK SMILES IDX 82 34 76 35 78 36 29 37 81 38 75 39 74 40 30 42 62 43 42 44
REMARK SMILES IDX 61 45 43 46 46 47 60 48 79 49 44 50 45 51 59 53 80 54 47 55
REMARK SMILES IDX 31 56 32 57 40 58 33 59 39 60 41 61 38 62 34 63 35 64 36 65
REMARK SMILES IDX 37 66 63 67 64 68 72 69 65 70 71 71 73 72 70 73 66 74 67 75
REMARK SMILES IDX 68 76 69 77 48 78 49 79 57 80 50 81 56 82 58 83 55 84 51 85
REMARK SMILES IDX 52 86 53 87 54 88
REMARK H PARENT 78 41 46 52
REMARK Flexibility Score: inf
ROOT
ATOM      1  C   UNL A   1      31.279  30.095  25.185  1.00  0.00     0.202 C 
ENDROOT
BRANCH   1   2
ATOM      2  O   UNL A   1      32.513  29.587  24.679  1.00  0.00    -0.374 OA
BRANCH   2   3
ATOM      3  C   UNL A   1      32.440  28.919  23.419  1.00  0.00     0.202 C 
BRANCH   3   4
ATOM      4  C   UNL A   1      31.963  27.469  23.507  1.00  0.00     0.261 C 
BRANCH   4   5
ATOM      5  O   UNL A   1      31.932  26.848  22.205  1.00  0.00    -0.463 OA
BRANCH   5   6
ATOM      6  C   UNL A   1      33.003  26.090  21.871  1.00  0.00     0.305 C 
ATOM      7  O   UNL A   1      33.276  25.714  20.739  1.00  0.00    -0.252 OA
BRANCH   6   8
ATOM      8  C   UNL A   1      33.811  25.673  23.081  1.00  0.00     0.124 C 
BRANCH   8   9
ATOM      9  C   UNL A   1      34.142  24.182  23.263  1.00  0.00     0.026 C 
BRANCH   9  10
ATOM     10  C   UNL A   1      34.156  23.547  24.693  1.00  0.00     0.027 C 
ATOM     11  C   UNL A   1      30.823  23.667  23.962  1.00  0.00     0.019 C 
ATOM     12  C   UNL A   1      31.545  23.182  25.235  1.00  0.00     0.024 C 
ATOM     13  C   UNL A   1      30.621  23.412  26.446  1.00  0.00     0.019 C 
ATOM     14  C   UNL A   1      31.825  21.679  25.169  1.00  0.00     0.014 C 
ATOM     15  C   UNL A   1      32.856  23.985  25.432  1.00  0.00     0.144 C 
ATOM     16  C   UNL A   1      32.933  21.358  24.192  1.00  0.00     0.002 C 
ATOM     17  O   UNL A   1      32.831  25.051  26.058  1.00  0.00    -0.298 OA
ATOM     18  C   UNL A   1      34.232  22.008  24.646  1.00  0.00     0.014 C 
ATOM     19  C   UNL A   1      35.346  24.047  25.540  1.00  0.00     0.020 C 
ENDBRANCH   9  10
ENDBRANCH   8   9
ENDBRANCH   6   8
ENDBRANCH   5   6
ENDBRANCH   4   5
ENDBRANCH   3   4
ENDBRANCH   2   3
ENDBRANCH   1   2
BRANCH   1  20
ATOM     20  C   UNL A   1      31.435  31.114  26.320  1.00  0.00     0.261 C 
BRANCH  20  21
ATOM     21  O   UNL A   1      32.664  30.886  27.039  1.00  0.00    -0.460 OA
BRANCH  21  22
ATOM     22  C   UNL A   1      33.357  31.981  27.424  1.00  0.00     0.338 C 
ATOM     23  O   UNL A   1      32.913  33.112  27.563  1.00  0.00    -0.246 OA
BRANCH  22  24
ATOM     24  C   UNL A   1      34.711  31.577  27.863  1.00  0.00     0.060 A 
ATOM     25  C   UNL A   1      34.965  30.210  28.002  1.00  0.00     0.016 A 
ATOM     26  C   UNL A   1      35.713  32.501  28.173  1.00  0.00     0.016 A 
ATOM     27  C   UNL A   1      36.192  29.771  28.505  1.00  0.00     0.010 A 
ATOM     28  C   UNL A   1      36.965  32.059  28.618  1.00  0.00     0.010 A 
ATOM     29  C   UNL A   1      37.193  30.692  28.850  1.00  0.00    -0.014 A 
BRANCH  29  30
ATOM     30  C   UNL A   1      38.385  30.234  29.623  1.00  0.00     0.031 A 
ATOM     31  C   UNL A   1      38.556  30.689  31.052  1.00  0.00     0.074 A 
ATOM     32  C   UNL A   1      39.281  29.383  29.087  1.00  0.00     0.049 A 
ATOM     33  N   UNL A   1      39.490  30.383  31.918  1.00  0.00    -0.248 NA
ATOM     34  C   UNL A   1      37.549  31.629  31.567  1.00  0.00     0.031 C 
ATOM     35  C   UNL A   1      39.242  28.866  27.720  1.00  0.00     0.029 A 
ATOM     36  N   UNL A   1      40.398  28.798  29.634  1.00  0.00    -0.354 N 
ATOM     37  C   UNL A   1      39.189  31.102  33.072  1.00  0.00     0.074 A 
ATOM     38  C   UNL A   1      38.027  31.910  32.768  1.00  0.00     0.031 C 
ATOM     39  C   UNL A   1      40.278  28.030  27.539  1.00  0.00     0.029 A 
ATOM     40  C   UNL A   1      41.076  27.976  28.765  1.00  0.00     0.049 A 
ATOM     41  H   UNL A   1      40.686  28.954  30.562  1.00  0.00     0.167 HD
ATOM     42  C   UNL A   1      39.802  31.077  34.281  1.00  0.00     0.034 A 
ATOM     43  C   UNL A   1      42.214  27.269  28.927  1.00  0.00     0.034 A 
ATOM     44  C   UNL A   1      40.953  30.260  34.582  1.00  0.00     0.049 A 
ATOM     45  C   UNL A   1      42.912  27.286  30.266  1.00  0.00     0.074 A 
ATOM     46  C   UNL A   1      41.611  30.112  35.790  1.00  0.00     0.029 A 
ATOM     47  N   UNL A   1      41.630  29.468  33.664  1.00  0.00    -0.354 N 
ATOM     48  N   UNL A   1      42.581  27.926  31.364  1.00  0.00    -0.248 NA
ATOM     49  C   UNL A   1      44.129  26.472  30.390  1.00  0.00     0.031 C 
ATOM     50  C   UNL A   1      42.734  29.304  35.583  1.00  0.00     0.029 A 
ATOM     51  C   UNL A   1      42.727  28.867  34.267  1.00  0.00     0.049 A 
ATOM     52  H   UNL A   1      41.371  29.349  32.722  1.00  0.00     0.167 HD
ATOM     53  C   UNL A   1      43.537  27.570  32.316  1.00  0.00     0.074 A 
ATOM     54  C   UNL A   1      44.446  26.649  31.665  1.00  0.00     0.031 C 
ATOM     55  C   UNL A   1      43.645  27.965  33.611  1.00  0.00     0.034 A 
BRANCH  42  56
ATOM     56  C   UNL A   1      39.261  31.997  35.354  1.00  0.00     0.023 A 
ATOM     57  C   UNL A   1      39.623  33.354  35.423  1.00  0.00     0.031 A 
ATOM     58  C   UNL A   1      38.409  31.496  36.354  1.00  0.00     0.131 A 
ATOM     59  C   UNL A   1      39.216  34.134  36.517  1.00  0.00     0.055 A 
ATOM     60  C   UNL A   1      37.928  32.302  37.388  1.00  0.00     0.041 A 
ATOM     61  F   UNL A   1      38.045  30.204  36.358  1.00  0.00    -0.206 F 
ATOM     62  C   UNL A   1      38.348  33.625  37.485  1.00  0.00     0.022 A 
BRANCH  59  63
ATOM     63  S   UNL A   1      39.986  35.761  36.753  1.00  0.00     0.124 S 
ATOM     64  O   UNL A   1      41.390  35.399  36.928  1.00  0.00    -0.237 OA
ATOM     65  O   UNL A   1      39.653  36.450  35.512  1.00  0.00    -0.237 OA
ATOM     66  O   UNL A   1      39.331  36.279  37.952  1.00  0.00    -0.744 OA
ENDBRANCH  59  63
ENDBRANCH  42  56
BRANCH  43  67
ATOM     67  C   UNL A   1      42.787  26.504  27.781  1.00  0.00     0.023 A 
ATOM     68  C   UNL A   1      42.418  25.175  27.525  1.00  0.00     0.031 A 
ATOM     69  C   UNL A   1      43.743  27.099  26.937  1.00  0.00     0.131 A 
ATOM     70  C   UNL A   1      43.026  24.472  26.470  1.00  0.00     0.055 A 
ATOM     71  C   UNL A   1      44.306  26.413  25.860  1.00  0.00     0.041 A 
ATOM     72  F   UNL A   1      44.131  28.367  27.139  1.00  0.00    -0.206 F 
ATOM     73  C   UNL A   1      43.954  25.087  25.628  1.00  0.00     0.022 A 
BRANCH  70  74
ATOM     74  S   UNL A   1      42.629  22.715  26.248  1.00  0.00     0.124 S 
ATOM     75  O   UNL A   1      41.306  22.631  26.856  1.00  0.00    -0.237 OA
ATOM     76  O   UNL A   1      42.679  22.574  24.797  1.00  0.00    -0.237 OA
ATOM     77  O   UNL A   1      43.696  22.031  26.976  1.00  0.00    -0.744 OA
ENDBRANCH  70  74
ENDBRANCH  43  67
BRANCH  55  78
ATOM     78  C   UNL A   1      44.770  27.370  34.428  1.00  0.00     0.023 A 
ATOM     79  C   UNL A   1      44.613  26.175  35.152  1.00  0.00     0.031 A 
ATOM     80  C   UNL A   1      46.021  28.013  34.484  1.00  0.00     0.131 A 
ATOM     81  C   UNL A   1      45.669  25.689  35.940  1.00  0.00     0.055 A 
ATOM     82  C   UNL A   1      47.088  27.490  35.216  1.00  0.00     0.041 A 
ATOM     83  F   UNL A   1      46.230  29.160  33.818  1.00  0.00    -0.206 F 
ATOM     84  C   UNL A   1      46.911  26.328  35.961  1.00  0.00     0.022 A 
BRANCH  81  85
ATOM     85  S   UNL A   1      45.369  24.261  37.019  1.00  0.00     0.124 S 
ATOM     86  O   UNL A   1      46.722  23.913  37.442  1.00  0.00    -0.237 OA
ATOM     87  O   UNL A   1      44.504  24.824  38.049  1.00  0.00    -0.237 OA
ATOM     88  O   UNL A   1      44.728  23.290  36.134  1.00  0.00    -0.744 OA
ENDBRANCH  81  85
ENDBRANCH  55  78
ENDBRANCH  29  30
ENDBRANCH  22  24
ENDBRANCH  21  22
ENDBRANCH  20  21
ENDBRANCH   1  20
TORSDOF 19
ENDMDL
MODEL 3
REMARK VINA RESULT:     -10.8      4.728     10.309
REMARK SMILES CC1(C)CCC[C@@](C)(CCC(=O)OCCOCCOC(=O)c2ccc(-c3c4nc(c(-c5cc(S(=O)(=O)[O-])ccc5F)c5ccc([nH]5)c(-c5cc(S(=O)(=O)[O-])ccc5F)c5nc(c(-c6cc(S(=O)(=O)[O-])ccc6F)c6ccc3[nH]6)C=C5)C=C4)cc2)C1=O
REMARK SMILES IDX 17 1 16 2 15 3 14 4 13 5 11 6 12 7 10 8 9 9 7 10 1 11 2 12
REMARK SMILES IDX 3 13 4 14 85 15 5 16 86 17 6 18 8 19 18 20 19 21 20 22 21 23
REMARK SMILES IDX 22 24 23 25 84 26 24 27 83 28 25 29 26 30 27 31 77 32 28 33
REMARK SMILES IDX 82 34 76 35 78 36 29 37 81 38 75 39 74 40 30 42 62 43 42 44
REMARK SMILES IDX 61 45 43 46 46 47 60 48 79 49 44 50 45 51 59 53 80 54 47 55
REMARK SMILES IDX 31 56 32 57 40 58 33 59 39 60 41 61 38 62 34 63 35 64 36 65
REMARK SMILES IDX 37 66 63 67 64 68 72 69 65 70 71 71 73 72 70 73 66 74 67 75
REMARK SMILES IDX 68 76 69 77 48 78 49 79 57 80 50 81 56 82 58 83 55 84 51 85
REMARK SMILES IDX 52 86 53 87 54 88
REMARK H PARENT 78 41 46 52
REMARK Flexibility Score: inf
ROOT
ATOM      1  C   UNL A   1      31.661  30.368  25.743  1.00  0.00     0.202 C 
ENDROOT
BRANCH   1   2
ATOM      2  O   UNL A   1      32.912  29.726  25.497  1.00  0.00    -0.374 OA
BRANCH   2   3
ATOM      3  C   UNL A   1      32.859  28.550  24.688  1.00  0.00     0.202 C 
BRANCH   3   4
ATOM      4  C   UNL A   1      31.861  27.501  25.176  1.00  0.00     0.261 C 
BRANCH   4   5
ATOM      5  O   UNL A   1      31.202  26.851  24.069  1.00  0.00    -0.463 OA
BRANCH   5   6
ATOM      6  C   UNL A   1      31.332  25.505  23.993  1.00  0.00     0.305 C 
ATOM      7  O   UNL A   1      30.621  24.764  23.327  1.00  0.00    -0.252 OA
BRANCH   6   8
ATOM      8  C   UNL A   1      32.422  24.981  24.902  1.00  0.00     0.124 C 
BRANCH   8   9
ATOM      9  C   UNL A   1      33.764  24.569  24.276  1.00  0.00     0.026 C 
BRANCH   9  10
ATOM     10  C   UNL A   1      33.926  23.158  23.617  1.00  0.00     0.027 C 
ATOM     11  C   UNL A   1      36.473  23.217  25.891  1.00  0.00     0.019 C 
ATOM     12  C   UNL A   1      36.072  22.130  24.874  1.00  0.00     0.024 C 
ATOM     13  C   UNL A   1      37.337  21.354  24.456  1.00  0.00     0.019 C 
ATOM     14  C   UNL A   1      35.116  21.114  25.503  1.00  0.00     0.014 C 
ATOM     15  C   UNL A   1      35.441  22.789  23.623  1.00  0.00     0.144 C 
ATOM     16  C   UNL A   1      33.736  21.696  25.707  1.00  0.00     0.002 C 
ATOM     17  O   UNL A   1      36.167  23.154  22.690  1.00  0.00    -0.298 OA
ATOM     18  C   UNL A   1      33.126  22.071  24.364  1.00  0.00     0.014 C 
ATOM     19  C   UNL A   1      33.465  23.147  22.144  1.00  0.00     0.020 C 
ENDBRANCH   9  10
ENDBRANCH   8   9
ENDBRANCH   6   8
ENDBRANCH   5   6
ENDBRANCH   4   5
ENDBRANCH   3   4
ENDBRANCH   2   3
ENDBRANCH   1   2
BRANCH   1  20
ATOM     20  C   UNL A   1      31.761  31.637  26.597  1.00  0.00     0.261 C 
BRANCH  20  21
ATOM     21  O   UNL A   1      32.796  31.497  27.591  1.00  0.00    -0.460 OA
BRANCH  21  22
ATOM     22  C   UNL A   1      33.685  32.511  27.692  1.00  0.00     0.338 C 
ATOM     23  O   UNL A   1      33.430  33.707  27.677  1.00  0.00    -0.246 OA
BRANCH  22  24
ATOM     24  C   UNL A   1      35.016  31.965  28.037  1.00  0.00     0.060 A 
ATOM     25  C   UNL A   1      35.122  30.584  28.218  1.00  0.00     0.016 A 
ATOM     26  C   UNL A   1      36.141  32.775  28.220  1.00  0.00     0.016 A 
ATOM     27  C   UNL A   1      36.329  30.021  28.638  1.00  0.00     0.010 A 
ATOM     28  C   UNL A   1      37.367  32.203  28.581  1.00  0.00     0.010 A 
ATOM     29  C   UNL A   1      37.456  30.828  28.857  1.00  0.00    -0.014 A 
BRANCH  29  30
ATOM     30  C   UNL A   1      38.649  30.261  29.550  1.00  0.00     0.031 A 
ATOM     31  C   UNL A   1      38.950  30.685  30.967  1.00  0.00     0.074 A 
ATOM     32  C   UNL A   1      39.431  29.340  28.954  1.00  0.00     0.049 A 
ATOM     33  N   UNL A   1      39.907  30.290  31.771  1.00  0.00    -0.248 NA
ATOM     34  C   UNL A   1      38.064  31.704  31.550  1.00  0.00     0.031 C 
ATOM     35  C   UNL A   1      39.261  28.842  27.590  1.00  0.00     0.029 A 
ATOM     36  N   UNL A   1      40.525  28.655  29.426  1.00  0.00    -0.354 N 
ATOM     37  C   UNL A   1      39.744  31.021  32.944  1.00  0.00     0.074 A 
ATOM     38  C   UNL A   1      38.640  31.930  32.719  1.00  0.00     0.031 C 
ATOM     39  C   UNL A   1      40.206  27.920  27.340  1.00  0.00     0.029 A 
ATOM     40  C   UNL A   1      41.072  27.785  28.512  1.00  0.00     0.049 A 
ATOM     41  H   UNL A   1      40.885  28.775  30.335  1.00  0.00     0.167 HD
ATOM     42  C   UNL A   1      40.428  30.931  34.112  1.00  0.00     0.034 A 
ATOM     43  C   UNL A   1      42.152  26.979  28.598  1.00  0.00     0.034 A 
ATOM     44  C   UNL A   1      41.519  30.013  34.334  1.00  0.00     0.049 A 
ATOM     45  C   UNL A   1      42.932  26.922  29.890  1.00  0.00     0.074 A 
ATOM     46  C   UNL A   1      42.237  29.796  35.498  1.00  0.00     0.029 A 
ATOM     47  N   UNL A   1      42.065  29.175  33.371  1.00  0.00    -0.354 N 
ATOM     48  N   UNL A   1      42.729  27.578  31.009  1.00  0.00    -0.248 NA
ATOM     49  C   UNL A   1      44.079  26.004  29.932  1.00  0.00     0.031 C 
ATOM     50  C   UNL A   1      43.270  28.895  35.216  1.00  0.00     0.029 A 
ATOM     51  C   UNL A   1      43.140  28.475  33.901  1.00  0.00     0.049 A 
ATOM     52  H   UNL A   1      41.737  29.088  32.447  1.00  0.00     0.167 HD
ATOM     53  C   UNL A   1      43.708  27.131  31.896  1.00  0.00     0.074 A 
ATOM     54  C   UNL A   1      44.489  26.141  31.184  1.00  0.00     0.031 C 
ATOM     55  C   UNL A   1      43.932  27.502  33.183  1.00  0.00     0.034 A 
BRANCH  42  56
ATOM     56  C   UNL A   1      40.039  31.884  35.221  1.00  0.00     0.023 A 
ATOM     57  C   UNL A   1      39.220  31.484  36.293  1.00  0.00     0.031 A 
ATOM     58  C   UNL A   1      40.452  33.227  35.179  1.00  0.00     0.131 A 
ATOM     59  C   UNL A   1      38.764  32.436  37.219  1.00  0.00     0.055 A 
ATOM     60  C   UNL A   1      40.074  34.147  36.159  1.00  0.00     0.041 A 
ATOM     61  F   UNL A   1      41.216  33.676  34.170  1.00  0.00    -0.206 F 
ATOM     62  C   UNL A   1      39.208  33.759  37.176  1.00  0.00     0.022 A 
BRANCH  59  63
ATOM     63  S   UNL A   1      37.440  31.960  38.365  1.00  0.00     0.124 S 
ATOM     64  O   UNL A   1      36.409  32.947  38.051  1.00  0.00    -0.237 OA
ATOM     65  O   UNL A   1      37.154  30.587  37.964  1.00  0.00    -0.237 OA
ATOM     66  O   UNL A   1      38.055  32.112  39.681  1.00  0.00    -0.744 OA
ENDBRANCH  59  63
ENDBRANCH  42  56
BRANCH  43  67
ATOM     67  C   UNL A   1      42.581  26.179  27.414  1.00  0.00     0.023 A 
ATOM     68  C   UNL A   1      42.230  24.828  27.271  1.00  0.00     0.031 A 
ATOM     69  C   UNL A   1      43.383  26.762  26.415  1.00  0.00     0.131 A 
ATOM     70  C   UNL A   1      42.704  24.095  26.170  1.00  0.00     0.055 A 
ATOM     71  C   UNL A   1      43.810  26.043  25.298  1.00  0.00     0.041 A 
ATOM     72  F   UNL A   1      43.748  28.050  26.504  1.00  0.00    -0.206 F 
ATOM     73  C   UNL A   1      43.478  24.698  25.176  1.00  0.00     0.022 A 
BRANCH  70  74
ATOM     74  S   UNL A   1      42.345  22.318  26.084  1.00  0.00     0.124 S 
ATOM     75  O   UNL A   1      42.852  21.850  27.368  1.00  0.00    -0.237 OA
ATOM     76  O   UNL A   1      40.896  22.310  25.924  1.00  0.00    -0.237 OA
ATOM     77  O   UNL A   1      43.102  21.876  24.914  1.00  0.00    -0.744 OA
ENDBRANCH  70  74
ENDBRANCH  43  67
BRANCH  55  78
ATOM     78  C   UNL A   1      45.050  26.803  33.925  1.00  0.00     0.023 A 
ATOM     79  C   UNL A   1      44.832  25.629  34.667  1.00  0.00     0.031 A 
ATOM     80  C   UNL A   1      46.357  27.324  33.887  1.00  0.00     0.131 A 
ATOM     81  C   UNL A   1      45.889  25.045  35.382  1.00  0.00     0.055 A 
ATOM     82  C   UNL A   1      47.419  26.702  34.547  1.00  0.00     0.041 A 
ATOM     83  F   UNL A   1      46.627  28.445  33.200  1.00  0.00    -0.206 F 
ATOM     84  C   UNL A   1      47.185  25.563  35.312  1.00  0.00     0.022 A 
BRANCH  81  85
ATOM     85  S   UNL A   1      45.532  23.653  36.491  1.00  0.00     0.124 S 
ATOM     86  O   UNL A   1      44.685  22.810  35.653  1.00  0.00    -0.237 OA
ATOM     87  O   UNL A   1      46.865  23.133  36.778  1.00  0.00    -0.237 OA
ATOM     88  O   UNL A   1      44.855  24.281  37.624  1.00  0.00    -0.744 OA
ENDBRANCH  81  85
ENDBRANCH  55  78
ENDBRANCH  29  30
ENDBRANCH  22  24
ENDBRANCH  21  22
ENDBRANCH  20  21
ENDBRANCH   1  20
TORSDOF 19
ENDMDL
