MODEL 1
REMARK VINA RESULT:     -10.3      0.000      0.000
REMARK SMILES COc1ccc(NC(C)(C)C2=N[C@@H](C(=O)OCCOCCOC(=O)c3ccc(-c4c5nc(c(-c6cc(S(=O)(=O)[O-])ccc6F)c6ccc([nH]6)c(-c6cc(S(=O)(=O)[O-])ccc6F)c6nc(c(-c7cc(S(=O)(=O)[O-])ccc7F)c7ccc4[nH]7)C=C6)C=C5)cc3)CS2)cc1
REMARK SMILES IDX 18 1 17 2 16 3 14 4 15 5 13 6 11 7 12 8 89 9 88 10 8 11 9 12
REMARK SMILES IDX 10 13 7 14 6 16 3 17 4 18 91 19 5 20 90 21 2 22 1 23 19 24
REMARK SMILES IDX 20 25 21 26 22 27 23 28 24 29 25 30 26 31 87 32 27 33 86 34
REMARK SMILES IDX 28 35 29 36 30 37 80 38 31 39 85 40 79 41 81 42 32 43 84 44
REMARK SMILES IDX 78 45 77 46 33 48 65 49 45 50 64 51 46 52 49 53 63 54 82 55
REMARK SMILES IDX 47 56 48 57 62 59 83 60 50 61 34 62 35 63 43 64 36 65 42 66
REMARK SMILES IDX 44 67 41 68 37 69 38 70 39 71 40 72 66 73 67 74 75 75 68 76
REMARK SMILES IDX 74 77 76 78 73 79 69 80 70 81 71 82 72 83 51 84 52 85 60 86
REMARK SMILES IDX 53 87 59 88 61 89 58 90 54 91 55 92 56 93 57 94
REMARK H PARENT 7 15 81 47 49 58
REMARK Flexibility Score: inf
ROOT
ATOM      1  C   UNL A   1      36.730  22.037  25.068  1.00  0.00     0.202 C 
ENDROOT
BRANCH   1   2
ATOM      2  C   UNL A   1      35.763  21.375  26.054  1.00  0.00     0.261 C 
BRANCH   2   3
ATOM      3  O   UNL A   1      34.584  22.161  26.285  1.00  0.00    -0.462 OA
BRANCH   3   4
ATOM      4  C   UNL A   1      33.526  21.883  25.472  1.00  0.00     0.331 C 
ATOM      5  O   UNL A   1      32.838  20.870  25.526  1.00  0.00    -0.250 OA
BRANCH   4   6
ATOM      6  C   UNL A   1      33.277  22.996  24.465  1.00  0.00     0.226 C 
ATOM      7  C   UNL A   1      32.105  24.947  24.462  1.00  0.00     0.094 C 
ATOM      8  N   UNL A   1      32.879  24.217  25.204  1.00  0.00    -0.264 NA
ATOM      9  S   UNL A   1      31.779  24.322  22.846  1.00  0.00    -0.106 SA
ATOM     10  C   UNL A   1      32.205  22.667  23.440  1.00  0.00     0.115 C 
BRANCH   7  11
ATOM     11  C   UNL A   1      31.562  26.300  24.937  1.00  0.00     0.080 C 
ATOM     12  C   UNL A   1      32.053  26.504  26.384  1.00  0.00     0.042 C 
ATOM     13  C   UNL A   1      30.021  26.257  24.951  1.00  0.00     0.042 C 
BRANCH  11  14
ATOM     14  N   UNL A   1      31.952  27.498  24.173  1.00  0.00    -0.374 N 
ATOM     15  H   UNL A   1      32.888  27.481  23.867  1.00  0.00     0.161 HD
BRANCH  14  16
ATOM     16  C   UNL A   1      31.274  28.633  23.800  1.00  0.00     0.035 A 
ATOM     17  C   UNL A   1      29.477  30.664  22.975  1.00  0.00     0.119 A 
ATOM     18  C   UNL A   1      30.076  30.711  24.231  1.00  0.00     0.048 A 
ATOM     19  C   UNL A   1      29.865  29.673  22.082  1.00  0.00     0.048 A 
ATOM     20  C   UNL A   1      30.979  29.713  24.629  1.00  0.00     0.029 A 
ATOM     21  C   UNL A   1      30.744  28.669  22.500  1.00  0.00     0.029 A 
BRANCH  17  22
ATOM     22  O   UNL A   1      28.545  31.630  22.716  1.00  0.00    -0.497 OA
ATOM     23  C   UNL A   1      27.348  31.535  23.486  1.00  0.00     0.278 C 
ENDBRANCH  17  22
ENDBRANCH  14  16
ENDBRANCH  11  14
ENDBRANCH   7  11
ENDBRANCH   4   6
ENDBRANCH   3   4
ENDBRANCH   2   3
ENDBRANCH   1   2
BRANCH   1  24
ATOM     24  O   UNL A   1      37.782  21.218  24.559  1.00  0.00    -0.374 OA
BRANCH  24  25
ATOM     25  C   UNL A   1      37.796  19.854  24.974  1.00  0.00     0.202 C 
BRANCH  25  26
ATOM     26  C   UNL A   1      39.148  19.265  25.391  1.00  0.00     0.261 C 
BRANCH  26  27
ATOM     27  O   UNL A   1      39.661  19.879  26.586  1.00  0.00    -0.460 OA
BRANCH  27  28
ATOM     28  C   UNL A   1      40.933  20.329  26.476  1.00  0.00     0.338 C 
ATOM     29  O   UNL A   1      41.850  19.786  25.869  1.00  0.00    -0.246 OA
BRANCH  28  30
ATOM     30  C   UNL A   1      41.050  21.691  27.032  1.00  0.00     0.060 A 
ATOM     31  C   UNL A   1      40.437  22.728  26.316  1.00  0.00     0.016 A 
ATOM     32  C   UNL A   1      41.793  21.966  28.182  1.00  0.00     0.016 A 
ATOM     33  C   UNL A   1      40.619  24.050  26.708  1.00  0.00     0.010 A 
ATOM     34  C   UNL A   1      41.978  23.297  28.573  1.00  0.00     0.010 A 
ATOM     35  C   UNL A   1      41.428  24.346  27.813  1.00  0.00    -0.014 A 
BRANCH  35  36
ATOM     36  C   UNL A   1      41.829  25.754  28.061  1.00  0.00     0.031 A 
ATOM     37  C   UNL A   1      43.175  26.222  27.581  1.00  0.00     0.074 A 
ATOM     38  C   UNL A   1      40.985  26.617  28.654  1.00  0.00     0.049 A 
ATOM     39  N   UNL A   1      43.739  27.397  27.691  1.00  0.00    -0.248 NA
ATOM     40  C   UNL A   1      43.996  25.221  26.883  1.00  0.00     0.031 C 
ATOM     41  C   UNL A   1      39.632  26.298  29.105  1.00  0.00     0.029 A 
ATOM     42  N   UNL A   1      41.143  27.942  28.970  1.00  0.00    -0.354 N 
ATOM     43  C   UNL A   1      44.981  27.280  27.073  1.00  0.00     0.074 A 
ATOM     44  C   UNL A   1      45.104  25.903  26.643  1.00  0.00     0.031 C 
ATOM     45  C   UNL A   1      39.079  27.403  29.633  1.00  0.00     0.029 A 
ATOM     46  C   UNL A   1      40.051  28.494  29.597  1.00  0.00     0.049 A 
ATOM     47  H   UNL A   1      41.962  28.452  28.767  1.00  0.00     0.167 HD
ATOM     48  C   UNL A   1      45.924  28.235  26.870  1.00  0.00     0.034 A 
ATOM     49  C   UNL A   1      39.868  29.731  30.099  1.00  0.00     0.034 A 
ATOM     50  C   UNL A   1      45.795  29.598  27.332  1.00  0.00     0.049 A 
ATOM     51  C   UNL A   1      40.981  30.743  29.981  1.00  0.00     0.074 A 
ATOM     52  C   UNL A   1      46.686  30.647  27.188  1.00  0.00     0.029 A 
ATOM     53  N   UNL A   1      44.711  30.097  28.045  1.00  0.00    -0.354 N 
ATOM     54  N   UNL A   1      42.154  30.623  29.403  1.00  0.00    -0.248 NA
ATOM     55  C   UNL A   1      40.740  32.060  30.584  1.00  0.00     0.031 C 
ATOM     56  C   UNL A   1      46.177  31.754  27.880  1.00  0.00     0.029 A 
ATOM     57  C   UNL A   1      44.928  31.425  28.383  1.00  0.00     0.049 A 
ATOM     58  H   UNL A   1      43.904  29.581  28.277  1.00  0.00     0.167 HD
ATOM     59  C   UNL A   1      42.776  31.862  29.542  1.00  0.00     0.074 A 
ATOM     60  C   UNL A   1      41.844  32.714  30.252  1.00  0.00     0.031 C 
ATOM     61  C   UNL A   1      44.001  32.261  29.111  1.00  0.00     0.034 A 
BRANCH  48  62
ATOM     62  C   UNL A   1      47.193  27.805  26.170  1.00  0.00     0.023 A 
ATOM     63  C   UNL A   1      47.399  28.047  24.799  1.00  0.00     0.031 A 
ATOM     64  C   UNL A   1      48.180  27.080  26.862  1.00  0.00     0.131 A 
ATOM     65  C   UNL A   1      48.504  27.480  24.146  1.00  0.00     0.055 A 
ATOM     66  C   UNL A   1      49.326  26.601  26.225  1.00  0.00     0.041 A 
ATOM     67  F   UNL A   1      48.032  26.798  28.166  1.00  0.00    -0.206 F 
ATOM     68  C   UNL A   1      49.483  26.780  24.854  1.00  0.00     0.022 A 
BRANCH  65  69
ATOM     69  S   UNL A   1      48.541  27.504  22.332  1.00  0.00     0.124 S 
ATOM     70  O   UNL A   1      47.267  28.146  22.018  1.00  0.00    -0.237 OA
ATOM     71  O   UNL A   1      49.739  28.288  22.052  1.00  0.00    -0.237 OA
ATOM     72  O   UNL A   1      48.622  26.090  21.971  1.00  0.00    -0.744 OA
ENDBRANCH  65  69
ENDBRANCH  48  62
BRANCH  49  73
ATOM     73  C   UNL A   1      38.590  30.083  30.779  1.00  0.00     0.023 A 
ATOM     74  C   UNL A   1      37.614  30.852  30.127  1.00  0.00     0.031 A 
ATOM     75  C   UNL A   1      38.341  29.687  32.106  1.00  0.00     0.131 A 
ATOM     76  C   UNL A   1      36.448  31.230  30.813  1.00  0.00     0.055 A 
ATOM     77  C   UNL A   1      37.160  30.023  32.766  1.00  0.00     0.041 A 
ATOM     78  F   UNL A   1      39.244  28.953  32.776  1.00  0.00    -0.206 F 
ATOM     79  C   UNL A   1      36.208  30.808  32.122  1.00  0.00     0.022 A 
BRANCH  76  80
ATOM     80  S   UNL A   1      35.275  32.338  29.986  1.00  0.00     0.124 S 
ATOM     81  O   UNL A   1      36.143  33.433  29.570  1.00  0.00    -0.237 OA
ATOM     82  O   UNL A   1      34.755  31.489  28.919  1.00  0.00    -0.237 OA
ATOM     83  O   UNL A   1      34.317  32.666  31.040  1.00  0.00    -0.744 OA
ENDBRANCH  76  80
ENDBRANCH  49  73
BRANCH  61  84
ATOM     84  C   UNL A   1      44.380  33.703  29.360  1.00  0.00     0.023 A 
ATOM     85  C   UNL A   1      44.037  34.729  28.461  1.00  0.00     0.031 A 
ATOM     86  C   UNL A   1      45.108  34.052  30.511  1.00  0.00     0.131 A 
ATOM     87  C   UNL A   1      44.471  36.042  28.699  1.00  0.00     0.055 A 
ATOM     88  C   UNL A   1      45.483  35.370  30.775  1.00  0.00     0.041 A 
ATOM     89  F   UNL A   1      45.466  33.116  31.403  1.00  0.00    -0.206 F 
ATOM     90  C   UNL A   1      45.177  36.373  29.860  1.00  0.00     0.022 A 
BRANCH  87  91
ATOM     91  S   UNL A   1      44.187  37.301  27.424  1.00  0.00     0.124 S 
ATOM     92  O   UNL A   1      45.549  37.675  27.057  1.00  0.00    -0.237 OA
ATOM     93  O   UNL A   1      43.436  36.562  26.416  1.00  0.00    -0.237 OA
ATOM     94  O   UNL A   1      43.429  38.337  28.125  1.00  0.00    -0.744 OA
ENDBRANCH  87  91
ENDBRANCH  61  84
ENDBRANCH  35  36
ENDBRANCH  28  30
ENDBRANCH  27  28
ENDBRANCH  26  27
ENDBRANCH  25  26
ENDBRANCH  24  25
ENDBRANCH   1  24
TORSDOF 21
ENDMDL
MODEL 2
REMARK VINA RESULT:     -10.1      2.339      2.843
REMARK SMILES COc1ccc(NC(C)(C)C2=N[C@@H](C(=O)OCCOCCOC(=O)c3ccc(-c4c5nc(c(-c6cc(S(=O)(=O)[O-])ccc6F)c6ccc([nH]6)c(-c6cc(S(=O)(=O)[O-])ccc6F)c6nc(c(-c7cc(S(=O)(=O)[O-])ccc7F)c7ccc4[nH]7)C=C6)C=C5)cc3)CS2)cc1
REMARK SMILES IDX 18 1 17 2 16 3 14 4 15 5 13 6 11 7 12 8 89 9 88 10 8 11 9 12
REMARK SMILES IDX 10 13 7 14 6 16 3 17 4 18 91 19 5 20 90 21 2 22 1 23 19 24
REMARK SMILES IDX 20 25 21 26 22 27 23 28 24 29 25 30 26 31 87 32 27 33 86 34
REMARK SMILES IDX 28 35 29 36 30 37 80 38 31 39 85 40 79 41 81 42 32 43 84 44
REMARK SMILES IDX 78 45 77 46 33 48 65 49 45 50 64 51 46 52 49 53 63 54 82 55
REMARK SMILES IDX 47 56 48 57 62 59 83 60 50 61 34 62 35 63 43 64 36 65 42 66
REMARK SMILES IDX 44 67 41 68 37 69 38 70 39 71 40 72 66 73 67 74 75 75 68 76
REMARK SMILES IDX 74 77 76 78 73 79 69 80 70 81 71 82 72 83 51 84 52 85 60 86
REMARK SMILES IDX 53 87 59 88 61 89 58 90 54 91 55 92 56 93 57 94
REMARK H PARENT 7 15 81 47 49 58
REMARK Flexibility Score: inf
ROOT
ATOM      1  C   UNL A   1      36.956  22.215  25.042  1.00  0.00     0.202 C 
ENDROOT
BRANCH   1   2
ATOM      2  C   UNL A   1      35.633  22.884  24.659  1.00  0.00     0.261 C 
BRANCH   2   3
ATOM      3  O   UNL A   1      34.532  21.962  24.643  1.00  0.00    -0.462 OA
BRANCH   3   4
ATOM      4  C   UNL A   1      33.940  21.735  25.849  1.00  0.00     0.331 C 
ATOM      5  O   UNL A   1      34.493  21.250  26.830  1.00  0.00    -0.250 OA
BRANCH   4   6
ATOM      6  C   UNL A   1      32.481  22.167  25.855  1.00  0.00     0.226 C 
ATOM      7  C   UNL A   1      31.338  24.027  25.211  1.00  0.00     0.094 C 
ATOM      8  N   UNL A   1      32.305  23.241  24.850  1.00  0.00    -0.264 NA
ATOM      9  S   UNL A   1      30.522  23.598  26.714  1.00  0.00    -0.106 SA
ATOM     10  C   UNL A   1      31.994  22.667  27.204  1.00  0.00     0.115 C 
BRANCH   7  11
ATOM     11  C   UNL A   1      30.889  25.213  24.350  1.00  0.00     0.080 C 
ATOM     12  C   UNL A   1      29.838  25.993  25.164  1.00  0.00     0.042 C 
ATOM     13  C   UNL A   1      30.216  24.689  23.066  1.00  0.00     0.042 C 
BRANCH  11  14
ATOM     14  N   UNL A   1      31.919  26.180  23.930  1.00  0.00    -0.374 N 
ATOM     15  H   UNL A   1      32.145  26.123  22.973  1.00  0.00     0.161 HD
BRANCH  14  16
ATOM     16  C   UNL A   1      32.626  27.146  24.603  1.00  0.00     0.035 A 
ATOM     17  C   UNL A   1      33.633  29.280  26.174  1.00  0.00     0.119 A 
ATOM     18  C   UNL A   1      34.036  27.969  26.412  1.00  0.00     0.048 A 
ATOM     19  C   UNL A   1      32.824  29.545  25.077  1.00  0.00     0.048 A 
ATOM     20  C   UNL A   1      33.550  26.917  25.621  1.00  0.00     0.029 A 
ATOM     21  C   UNL A   1      32.323  28.487  24.312  1.00  0.00     0.029 A 
BRANCH  17  22
ATOM     22  O   UNL A   1      34.091  30.221  27.055  1.00  0.00    -0.497 OA
ATOM     23  C   UNL A   1      35.427  30.018  27.512  1.00  0.00     0.278 C 
ENDBRANCH  17  22
ENDBRANCH  14  16
ENDBRANCH  11  14
ENDBRANCH   7  11
ENDBRANCH   4   6
ENDBRANCH   3   4
ENDBRANCH   2   3
ENDBRANCH   1   2
BRANCH   1  24
ATOM     24  O   UNL A   1      37.374  21.117  24.234  1.00  0.00    -0.374 OA
BRANCH  24  25
ATOM     25  C   UNL A   1      37.367  19.828  24.845  1.00  0.00     0.202 C 
BRANCH  25  26
ATOM     26  C   UNL A   1      38.666  19.366  25.515  1.00  0.00     0.261 C 
BRANCH  26  27
ATOM     27  O   UNL A   1      39.639  20.422  25.595  1.00  0.00    -0.460 OA
BRANCH  27  28
ATOM     28  C   UNL A   1      40.424  20.370  26.698  1.00  0.00     0.338 C 
ATOM     29  O   UNL A   1      40.985  19.377  27.149  1.00  0.00    -0.246 OA
BRANCH  28  30
ATOM     30  C   UNL A   1      40.691  21.729  27.206  1.00  0.00     0.060 A 
ATOM     31  C   UNL A   1      40.067  22.794  26.543  1.00  0.00     0.016 A 
ATOM     32  C   UNL A   1      41.579  21.971  28.257  1.00  0.00     0.016 A 
ATOM     33  C   UNL A   1      40.377  24.107  26.883  1.00  0.00     0.010 A 
ATOM     34  C   UNL A   1      41.893  23.292  28.596  1.00  0.00     0.010 A 
ATOM     35  C   UNL A   1      41.327  24.364  27.882  1.00  0.00    -0.014 A 
BRANCH  35  36
ATOM     36  C   UNL A   1      41.842  25.746  28.051  1.00  0.00     0.031 A 
ATOM     37  C   UNL A   1      43.198  26.089  27.496  1.00  0.00     0.074 A 
ATOM     38  C   UNL A   1      41.093  26.695  28.640  1.00  0.00     0.049 A 
ATOM     39  N   UNL A   1      43.852  27.221  27.531  1.00  0.00    -0.248 NA
ATOM     40  C   UNL A   1      43.909  25.001  26.809  1.00  0.00     0.031 C 
ATOM     41  C   UNL A   1      39.741  26.499  29.159  1.00  0.00     0.029 A 
ATOM     42  N   UNL A   1      41.364  28.015  28.891  1.00  0.00    -0.354 N 
ATOM     43  C   UNL A   1      45.053  26.984  26.868  1.00  0.00     0.074 A 
ATOM     44  C   UNL A   1      45.053  25.585  26.494  1.00  0.00     0.031 C 
ATOM     45  C   UNL A   1      39.297  27.664  29.662  1.00  0.00     0.029 A 
ATOM     46  C   UNL A   1      40.346  28.674  29.538  1.00  0.00     0.049 A 
ATOM     47  H   UNL A   1      42.209  28.452  28.632  1.00  0.00     0.167 HD
ATOM     48  C   UNL A   1      46.055  27.855  26.585  1.00  0.00     0.034 A 
ATOM     49  C   UNL A   1      40.279  29.941  29.993  1.00  0.00     0.034 A 
ATOM     50  C   UNL A   1      46.050  29.241  26.992  1.00  0.00     0.049 A 
ATOM     51  C   UNL A   1      41.458  30.859  29.785  1.00  0.00     0.074 A 
ATOM     52  C   UNL A   1      47.009  30.212  26.766  1.00  0.00     0.029 A 
ATOM     53  N   UNL A   1      45.039  29.850  27.727  1.00  0.00    -0.354 N 
ATOM     54  N   UNL A   1      42.591  30.625  29.165  1.00  0.00    -0.248 NA
ATOM     55  C   UNL A   1      41.344  32.214  30.339  1.00  0.00     0.031 C 
ATOM     56  C   UNL A   1      46.616  31.381  27.429  1.00  0.00     0.029 A 
ATOM     57  C   UNL A   1      45.370  31.170  27.997  1.00  0.00     0.049 A 
ATOM     58  H   UNL A   1      44.207  29.408  28.014  1.00  0.00     0.167 HD
ATOM     59  C   UNL A   1      43.311  31.818  29.224  1.00  0.00     0.074 A 
ATOM     60  C   UNL A   1      42.478  32.767  29.934  1.00  0.00     0.031 C 
ATOM     61  C   UNL A   1      44.542  32.104  28.725  1.00  0.00     0.034 A 
BRANCH  48  62
ATOM     62  C   UNL A   1      47.256  27.301  25.852  1.00  0.00     0.023 A 
ATOM     63  C   UNL A   1      48.243  26.547  26.514  1.00  0.00     0.031 A 
ATOM     64  C   UNL A   1      47.458  27.590  24.490  1.00  0.00     0.131 A 
ATOM     65  C   UNL A   1      49.427  26.201  25.846  1.00  0.00     0.055 A 
ATOM     66  C   UNL A   1      48.596  27.160  23.806  1.00  0.00     0.041 A 
ATOM     67  F   UNL A   1      46.565  28.324  23.808  1.00  0.00    -0.206 F 
ATOM     68  C   UNL A   1      49.600  26.480  24.488  1.00  0.00     0.022 A 
BRANCH  65  69
ATOM     69  S   UNL A   1      50.815  25.558  26.822  1.00  0.00     0.124 S 
ATOM     70  O   UNL A   1      51.756  25.166  25.775  1.00  0.00    -0.237 OA
ATOM     71  O   UNL A   1      51.197  26.714  27.625  1.00  0.00    -0.237 OA
ATOM     72  O   UNL A   1      50.226  24.448  27.566  1.00  0.00    -0.744 OA
ENDBRANCH  65  69
ENDBRANCH  48  62
BRANCH  49  73
ATOM     73  C   UNL A   1      39.062  30.418  30.708  1.00  0.00     0.023 A 
ATOM     74  C   UNL A   1      38.136  31.261  30.076  1.00  0.00     0.031 A 
ATOM     75  C   UNL A   1      38.826  30.066  32.050  1.00  0.00     0.131 A 
ATOM     76  C   UNL A   1      37.034  31.753  30.794  1.00  0.00     0.055 A 
ATOM     77  C   UNL A   1      37.703  30.518  32.744  1.00  0.00     0.041 A 
ATOM     78  F   UNL A   1      39.683  29.264  32.703  1.00  0.00    -0.206 F 
ATOM     79  C   UNL A   1      36.804  31.375  32.118  1.00  0.00     0.022 A 
BRANCH  76  80
ATOM     80  S   UNL A   1      35.936  32.950  29.987  1.00  0.00     0.124 S 
ATOM     81  O   UNL A   1      34.657  32.250  30.021  1.00  0.00    -0.237 OA
ATOM     82  O   UNL A   1      36.057  34.111  30.863  1.00  0.00    -0.237 OA
ATOM     83  O   UNL A   1      36.526  33.111  28.659  1.00  0.00    -0.744 OA
ENDBRANCH  76  80
ENDBRANCH  49  73
BRANCH  61  84
ATOM     84  C   UNL A   1      45.038  33.521  28.895  1.00  0.00     0.023 A 
ATOM     85  C   UNL A   1      45.819  33.910  29.998  1.00  0.00     0.031 A 
ATOM     86  C   UNL A   1      44.711  34.502  27.942  1.00  0.00     0.131 A 
ATOM     87  C   UNL A   1      46.197  35.253  30.150  1.00  0.00     0.055 A 
ATOM     88  C   UNL A   1      45.143  35.824  28.065  1.00  0.00     0.041 A 
ATOM     89  F   UNL A   1      43.966  34.191  26.869  1.00  0.00    -0.206 F 
ATOM     90  C   UNL A   1      45.879  36.209  29.181  1.00  0.00     0.022 A 
BRANCH  87  91
ATOM     91  S   UNL A   1      47.029  35.759  31.682  1.00  0.00     0.124 S 
ATOM     92  O   UNL A   1      47.453  37.117  31.362  1.00  0.00    -0.237 OA
ATOM     93  O   UNL A   1      45.963  35.640  32.670  1.00  0.00    -0.237 OA
ATOM     94  O   UNL A   1      48.113  34.788  31.821  1.00  0.00    -0.744 OA
ENDBRANCH  87  91
ENDBRANCH  61  84
ENDBRANCH  35  36
ENDBRANCH  28  30
ENDBRANCH  27  28
ENDBRANCH  26  27
ENDBRANCH  25  26
ENDBRANCH  24  25
ENDBRANCH   1  24
TORSDOF 21
ENDMDL
MODEL 3
REMARK VINA RESULT:      -9.9      5.939     11.169
REMARK SMILES COc1ccc(NC(C)(C)C2=N[C@@H](C(=O)OCCOCCOC(=O)c3ccc(-c4c5nc(c(-c6cc(S(=O)(=O)[O-])ccc6F)c6ccc([nH]6)c(-c6cc(S(=O)(=O)[O-])ccc6F)c6nc(c(-c7cc(S(=O)(=O)[O-])ccc7F)c7ccc4[nH]7)C=C6)C=C5)cc3)CS2)cc1
REMARK SMILES IDX 18 1 17 2 16 3 14 4 15 5 13 6 11 7 12 8 89 9 88 10 8 11 9 12
REMARK SMILES IDX 10 13 7 14 6 16 3 17 4 18 91 19 5 20 90 21 2 22 1 23 19 24
REMARK SMILES IDX 20 25 21 26 22 27 23 28 24 29 25 30 26 31 87 32 27 33 86 34
REMARK SMILES IDX 28 35 29 36 30 37 80 38 31 39 85 40 79 41 81 42 32 43 84 44
REMARK SMILES IDX 78 45 77 46 33 48 65 49 45 50 64 51 46 52 49 53 63 54 82 55
REMARK SMILES IDX 47 56 48 57 62 59 83 60 50 61 34 62 35 63 43 64 36 65 42 66
REMARK SMILES IDX 44 67 41 68 37 69 38 70 39 71 40 72 66 73 67 74 75 75 68 76
REMARK SMILES IDX 74 77 76 78 73 79 69 80 70 81 71 82 72 83 51 84 52 85 60 86
REMARK SMILES IDX 53 87 59 88 61 89 58 90 54 91 55 92 56 93 57 94
REMARK H PARENT 7 15 81 47 49 58
REMARK Flexibility Score: inf
ROOT
ATOM      1  C   UNL A   1      33.758  31.533  27.573  1.00  0.00     0.202 C 
ENDROOT
BRANCH   1   2
ATOM      2  C   UNL A   1      34.525  30.215  27.429  1.00  0.00     0.261 C 
BRANCH   2   3
ATOM      3  O   UNL A   1      33.958  29.352  26.431  1.00  0.00    -0.462 OA
BRANCH   3   4
ATOM      4  C   UNL A   1      33.302  28.257  26.909  1.00  0.00     0.331 C 
ATOM      5  O   UNL A   1      32.608  28.231  27.919  1.00  0.00    -0.250 OA
BRANCH   4   6
ATOM      6  C   UNL A   1      33.520  27.036  26.027  1.00  0.00     0.226 C 
ATOM      7  C   UNL A   1      32.977  26.459  23.894  1.00  0.00     0.094 C 
ATOM      8  N   UNL A   1      33.402  27.453  24.611  1.00  0.00    -0.264 NA
ATOM      9  S   UNL A   1      32.697  24.951  24.763  1.00  0.00    -0.106 SA
ATOM     10  C   UNL A   1      32.542  25.905  26.293  1.00  0.00     0.115 C 
BRANCH   7  11
ATOM     11  C   UNL A   1      32.793  26.570  22.376  1.00  0.00     0.080 C 
ATOM     12  C   UNL A   1      33.037  25.167  21.785  1.00  0.00     0.042 C 
ATOM     13  C   UNL A   1      33.853  27.529  21.801  1.00  0.00     0.042 C 
BRANCH  11  14
ATOM     14  N   UNL A   1      31.484  27.029  21.878  1.00  0.00    -0.374 N 
ATOM     15  H   UNL A   1      31.279  26.717  20.967  1.00  0.00     0.161 HD
BRANCH  14  16
ATOM     16  C   UNL A   1      30.492  27.803  22.428  1.00  0.00     0.035 A 
ATOM     17  C   UNL A   1      28.343  29.533  23.083  1.00  0.00     0.119 A 
ATOM     18  C   UNL A   1      28.289  28.178  23.401  1.00  0.00     0.048 A 
ATOM     19  C   UNL A   1      29.516  30.051  22.550  1.00  0.00     0.048 A 
ATOM     20  C   UNL A   1      29.362  27.328  23.091  1.00  0.00     0.029 A 
ATOM     21  C   UNL A   1      30.568  29.191  22.221  1.00  0.00     0.029 A 
BRANCH  17  22
ATOM     22  O   UNL A   1      27.213  30.258  23.343  1.00  0.00    -0.497 OA
ATOM     23  C   UNL A   1      27.432  31.644  23.599  1.00  0.00     0.278 C 
ENDBRANCH  17  22
ENDBRANCH  14  16
ENDBRANCH  11  14
ENDBRANCH   7  11
ENDBRANCH   4   6
ENDBRANCH   3   4
ENDBRANCH   2   3
ENDBRANCH   1   2
BRANCH   1  24
ATOM     24  O   UNL A   1      34.208  32.425  28.591  1.00  0.00    -0.374 OA
BRANCH  24  25
ATOM     25  C   UNL A   1      34.588  33.736  28.178  1.00  0.00     0.202 C 
BRANCH  25  26
ATOM     26  C   UNL A   1      33.673  34.892  28.596  1.00  0.00     0.261 C 
BRANCH  26  27
ATOM     27  O   UNL A   1      32.858  34.555  29.732  1.00  0.00    -0.460 OA
BRANCH  27  28
ATOM     28  C   UNL A   1      33.165  35.241  30.858  1.00  0.00     0.338 C 
ATOM     29  O   UNL A   1      32.548  36.194  31.323  1.00  0.00    -0.246 OA
BRANCH  28  30
ATOM     30  C   UNL A   1      34.256  34.571  31.590  1.00  0.00     0.060 A 
ATOM     31  C   UNL A   1      35.447  35.288  31.761  1.00  0.00     0.016 A 
ATOM     32  C   UNL A   1      34.152  33.252  32.041  1.00  0.00     0.016 A 
ATOM     33  C   UNL A   1      36.560  34.671  32.323  1.00  0.00     0.010 A 
ATOM     34  C   UNL A   1      35.274  32.631  32.603  1.00  0.00     0.010 A 
ATOM     35  C   UNL A   1      36.493  33.324  32.706  1.00  0.00    -0.014 A 
BRANCH  35  36
ATOM     36  C   UNL A   1      37.747  32.608  33.053  1.00  0.00     0.031 A 
ATOM     37  C   UNL A   1      38.392  32.875  34.385  1.00  0.00     0.074 A 
ATOM     38  C   UNL A   1      38.271  31.692  32.220  1.00  0.00     0.049 A 
ATOM     39  N   UNL A   1      39.487  32.376  34.898  1.00  0.00    -0.248 NA
ATOM     40  C   UNL A   1      37.705  33.841  35.254  1.00  0.00     0.031 C 
ATOM     41  C   UNL A   1      37.702  31.301  30.931  1.00  0.00     0.029 A 
ATOM     42  N   UNL A   1      39.398  30.920  32.340  1.00  0.00    -0.354 N 
ATOM     43  C   UNL A   1      39.620  32.964  36.152  1.00  0.00     0.074 A 
ATOM     44  C   UNL A   1      38.522  33.897  36.293  1.00  0.00     0.031 C 
ATOM     45  C   UNL A   1      38.481  30.354  30.382  1.00  0.00     0.029 A 
ATOM     46  C   UNL A   1      39.624  30.103  31.258  1.00  0.00     0.049 A 
ATOM     47  H   UNL A   1      39.991  30.948  33.127  1.00  0.00     0.167 HD
ATOM     48  C   UNL A   1      40.561  32.736  37.104  1.00  0.00     0.034 A 
ATOM     49  C   UNL A   1      40.646  29.263  31.000  1.00  0.00     0.034 A 
ATOM     50  C   UNL A   1      41.666  31.822  36.934  1.00  0.00     0.049 A 
ATOM     51  C   UNL A   1      41.754  29.121  32.014  1.00  0.00     0.074 A 
ATOM     52  C   UNL A   1      42.679  31.515  37.825  1.00  0.00     0.029 A 
ATOM     53  N   UNL A   1      41.913  31.077  35.786  1.00  0.00    -0.354 N 
ATOM     54  N   UNL A   1      41.876  29.686  33.193  1.00  0.00    -0.248 NA
ATOM     55  C   UNL A   1      42.862  28.225  31.659  1.00  0.00     0.031 C 
ATOM     56  C   UNL A   1      43.577  30.650  37.188  1.00  0.00     0.029 A 
ATOM     57  C   UNL A   1      43.082  30.345  35.931  1.00  0.00     0.049 A 
ATOM     58  H   UNL A   1      41.339  31.071  34.985  1.00  0.00     0.167 HD
ATOM     59  C   UNL A   1      43.058  29.184  33.736  1.00  0.00     0.074 A 
ATOM     60  C   UNL A   1      43.604  28.267  32.756  1.00  0.00     0.031 C 
ATOM     61  C   UNL A   1      43.631  29.449  34.939  1.00  0.00     0.034 A 
BRANCH  48  62
ATOM     62  C   UNL A   1      40.453  33.542  38.379  1.00  0.00     0.023 A 
ATOM     63  C   UNL A   1      39.497  33.239  39.366  1.00  0.00     0.031 A 
ATOM     64  C   UNL A   1      41.266  34.672  38.580  1.00  0.00     0.131 A 
ATOM     65  C   UNL A   1      39.307  34.110  40.449  1.00  0.00     0.055 A 
ATOM     66  C   UNL A   1      41.136  35.482  39.710  1.00  0.00     0.041 A 
ATOM     67  F   UNL A   1      42.182  35.028  37.666  1.00  0.00    -0.206 F 
ATOM     68  C   UNL A   1      40.137  35.216  40.642  1.00  0.00     0.022 A 
BRANCH  65  69
ATOM     69  S   UNL A   1      37.839  33.887  41.491  1.00  0.00     0.124 S 
ATOM     70  O   UNL A   1      36.857  33.410  40.520  1.00  0.00    -0.237 OA
ATOM     71  O   UNL A   1      38.295  32.910  42.473  1.00  0.00    -0.237 OA
ATOM     72  O   UNL A   1      37.583  35.227  42.016  1.00  0.00    -0.744 OA
ENDBRANCH  65  69
ENDBRANCH  48  62
BRANCH  49  73
ATOM     73  C   UNL A   1      40.687  28.502  29.719  1.00  0.00     0.023 A 
ATOM     74  C   UNL A   1      41.598  28.841  28.707  1.00  0.00     0.031 A 
ATOM     75  C   UNL A   1      39.789  27.446  29.474  1.00  0.00     0.131 A 
ATOM     76  C   UNL A   1      41.569  28.154  27.483  1.00  0.00     0.055 A 
ATOM     77  C   UNL A   1      39.798  26.735  28.275  1.00  0.00     0.041 A 
ATOM     78  F   UNL A   1      38.895  27.085  30.409  1.00  0.00    -0.206 F 
ATOM     79  C   UNL A   1      40.686  27.094  27.265  1.00  0.00     0.022 A 
BRANCH  76  80
ATOM     80  S   UNL A   1      42.665  28.710  26.149  1.00  0.00     0.124 S 
ATOM     81  O   UNL A   1      41.825  28.515  24.973  1.00  0.00    -0.237 OA
ATOM     82  O   UNL A   1      42.927  30.095  26.529  1.00  0.00    -0.237 OA
ATOM     83  O   UNL A   1      43.813  27.811  26.254  1.00  0.00    -0.744 OA
ENDBRANCH  76  80
ENDBRANCH  49  73
BRANCH  61  84
ATOM     84  C   UNL A   1      44.897  28.694  35.276  1.00  0.00     0.023 A 
ATOM     85  C   UNL A   1      44.875  27.485  35.994  1.00  0.00     0.031 A 
ATOM     86  C   UNL A   1      46.147  29.204  34.882  1.00  0.00     0.131 A 
ATOM     87  C   UNL A   1      46.081  26.858  36.345  1.00  0.00     0.055 A 
ATOM     88  C   UNL A   1      47.340  28.543  35.179  1.00  0.00     0.041 A 
ATOM     89  F   UNL A   1      46.231  30.356  34.197  1.00  0.00    -0.206 F 
ATOM     90  C   UNL A   1      47.312  27.370  35.927  1.00  0.00     0.022 A 
BRANCH  87  91
ATOM     91  S   UNL A   1      46.026  25.413  37.441  1.00  0.00     0.124 S 
ATOM     92  O   UNL A   1      44.901  25.736  38.312  1.00  0.00    -0.237 OA
ATOM     93  O   UNL A   1      45.812  24.317  36.503  1.00  0.00    -0.237 OA
ATOM     94  O   UNL A   1      47.336  25.425  38.091  1.00  0.00    -0.744 OA
ENDBRANCH  87  91
ENDBRANCH  61  84
ENDBRANCH  35  36
ENDBRANCH  28  30
ENDBRANCH  27  28
ENDBRANCH  26  27
ENDBRANCH  25  26
ENDBRANCH  24  25
ENDBRANCH   1  24
TORSDOF 21
ENDMDL
