MODEL 1
REMARK VINA RESULT:     -11.6      0.000      0.000
REMARK SMILES CC(C)(C)c1cc2c(cc1Cl)C=C(C(=O)OCCOCCOC(=O)c1ccc(-c3c4nc(c(-c5cc(S(=O)(=O)[O-])ccc5F)c5ccc([nH]5)c(-c5cc(S(=O)(=O)[O-])ccc5F)c5nc(c(-c6cc(S(=O)(=O)[O-])ccc6F)c6ccc3[nH]6)C=C5)C=C4)cc1)[C@@H](C(F)(F)F)O2
REMARK SMILES IDX 20 1 19 2 18 3 17 4 16 5 14 6 15 7 13 8 5 9 6 10 10 11 7 12
REMARK SMILES IDX 9 13 11 14 8 15 93 16 12 17 88 18 2 19 1 20 3 21 4 22 89 23
REMARK SMILES IDX 90 24 91 25 92 26 21 27 22 28 23 29 24 30 25 31 26 32 87 33
REMARK SMILES IDX 27 34 86 35 28 36 29 37 30 38 80 39 31 40 85 41 79 42 81 43
REMARK SMILES IDX 32 44 84 45 78 46 77 47 33 49 65 50 45 51 64 52 46 53 49 54
REMARK SMILES IDX 63 55 82 56 47 57 48 58 62 60 83 61 50 62 34 63 35 64 43 65
REMARK SMILES IDX 36 66 42 67 44 68 41 69 37 70 38 71 39 72 40 73 66 74 67 75
REMARK SMILES IDX 75 76 68 77 74 78 76 79 73 80 69 81 70 82 71 83 72 84 51 85
REMARK SMILES IDX 52 86 60 87 53 88 59 89 61 90 58 91 54 92 55 93 56 94 57 95
REMARK H PARENT 81 48 49 59
REMARK Flexibility Score: inf
ROOT
ATOM      1  C   UNL A   1      31.237  30.717  25.442  1.00  0.00     0.202 C 
ENDROOT
BRANCH   1   2
ATOM      2  O   UNL A   1      31.643  29.370  25.676  1.00  0.00    -0.374 OA
BRANCH   2   3
ATOM      3  C   UNL A   1      31.874  28.522  24.554  1.00  0.00     0.202 C 
BRANCH   3   4
ATOM      4  C   UNL A   1      30.976  27.292  24.387  1.00  0.00     0.261 C 
BRANCH   4   5
ATOM      5  O   UNL A   1      31.718  26.127  23.994  1.00  0.00    -0.460 OA
BRANCH   5   6
ATOM      6  C   UNL A   1      30.973  25.001  23.903  1.00  0.00     0.338 C 
ATOM      7  O   UNL A   1      29.787  24.922  23.627  1.00  0.00    -0.246 OA
BRANCH   6   8
ATOM      8  C   UNL A   1      31.840  23.816  24.042  1.00  0.00     0.087 C 
ATOM      9  C   UNL A   1      33.376  19.011  23.885  1.00  0.00    -0.020 A 
ATOM     10  C   UNL A   1      33.701  20.162  24.658  1.00  0.00     0.053 A 
ATOM     11  C   UNL A   1      32.551  19.237  22.763  1.00  0.00     0.045 A 
ATOM     12  C   UNL A   1      33.186  21.432  24.383  1.00  0.00     0.128 A 
ATOM     13  C   UNL A   1      32.045  20.518  22.484  1.00  0.00     0.032 A 
ATOM     14  Cl  UNL A   1      32.006  18.033  21.648  1.00  0.00    -0.084 Cl
ATOM     15  C   UNL A   1      32.326  21.601  23.312  1.00  0.00     0.019 A 
ATOM     16  O   UNL A   1      33.552  22.442  25.227  1.00  0.00    -0.475 OA
ATOM     17  C   UNL A   1      31.639  22.861  23.126  1.00  0.00     0.027 C 
ATOM     18  C   UNL A   1      32.828  23.707  25.170  1.00  0.00     0.316 C 
BRANCH   9  19
ATOM     19  C   UNL A   1      33.865  17.641  24.424  1.00  0.00    -0.012 C 
ATOM     20  C   UNL A   1      35.339  17.718  24.898  1.00  0.00     0.016 C 
ATOM     21  C   UNL A   1      33.817  16.437  23.460  1.00  0.00     0.016 C 
ATOM     22  C   UNL A   1      32.970  17.279  25.634  1.00  0.00     0.016 C 
ENDBRANCH   9  19
BRANCH  18  23
ATOM     23  C   UNL A   1      32.187  23.954  26.545  1.00  0.00     0.430 C 
ATOM     24  F   UNL A   1      30.900  23.533  26.566  1.00  0.00    -0.167 F 
ATOM     25  F   UNL A   1      32.834  23.289  27.529  1.00  0.00    -0.167 F 
ATOM     26  F   UNL A   1      32.191  25.267  26.869  1.00  0.00    -0.167 F 
ENDBRANCH  18  23
ENDBRANCH   6   8
ENDBRANCH   5   6
ENDBRANCH   4   5
ENDBRANCH   3   4
ENDBRANCH   2   3
ENDBRANCH   1   2
BRANCH   1  27
ATOM     27  C   UNL A   1      31.553  31.785  26.496  1.00  0.00     0.261 C 
BRANCH  27  28
ATOM     28  O   UNL A   1      32.678  31.448  27.324  1.00  0.00    -0.460 OA
BRANCH  28  29
ATOM     29  C   UNL A   1      33.505  32.488  27.606  1.00  0.00     0.338 C 
ATOM     30  O   UNL A   1      33.206  33.671  27.652  1.00  0.00    -0.246 OA
BRANCH  29  31
ATOM     31  C   UNL A   1      34.803  31.963  28.067  1.00  0.00     0.060 A 
ATOM     32  C   UNL A   1      35.917  32.794  28.185  1.00  0.00     0.016 A 
ATOM     33  C   UNL A   1      34.883  30.609  28.420  1.00  0.00     0.016 A 
ATOM     34  C   UNL A   1      37.111  32.268  28.684  1.00  0.00     0.010 A 
ATOM     35  C   UNL A   1      36.076  30.086  28.920  1.00  0.00     0.010 A 
ATOM     36  C   UNL A   1      37.194  30.917  29.075  1.00  0.00    -0.014 A 
BRANCH  36  37
ATOM     37  C   UNL A   1      38.401  30.421  29.783  1.00  0.00     0.031 A 
ATOM     38  C   UNL A   1      38.769  30.910  31.151  1.00  0.00     0.074 A 
ATOM     39  C   UNL A   1      39.182  29.523  29.153  1.00  0.00     0.049 A 
ATOM     40  N   UNL A   1      39.742  30.508  31.927  1.00  0.00    -0.248 NA
ATOM     41  C   UNL A   1      37.951  31.991  31.721  1.00  0.00     0.031 C 
ATOM     42  C   UNL A   1      38.944  29.024  27.798  1.00  0.00     0.029 A 
ATOM     43  N   UNL A   1      40.319  28.869  29.556  1.00  0.00    -0.354 N 
ATOM     44  C   UNL A   1      39.647  31.269  33.085  1.00  0.00     0.074 A 
ATOM     45  C   UNL A   1      38.553  32.197  32.886  1.00  0.00     0.031 C 
ATOM     46  C   UNL A   1      39.883  28.117  27.496  1.00  0.00     0.029 A 
ATOM     47  C   UNL A   1      40.815  27.996  28.614  1.00  0.00     0.049 A 
ATOM     48  H   UNL A   1      40.741  29.011  30.434  1.00  0.00     0.167 HD
ATOM     49  C   UNL A   1      40.393  31.181  34.212  1.00  0.00     0.034 A 
ATOM     50  C   UNL A   1      41.894  27.186  28.644  1.00  0.00     0.034 A 
ATOM     51  C   UNL A   1      41.488  30.255  34.380  1.00  0.00     0.049 A 
ATOM     52  C   UNL A   1      42.720  27.122  29.903  1.00  0.00     0.074 A 
ATOM     53  C   UNL A   1      42.267  30.053  35.506  1.00  0.00     0.029 A 
ATOM     54  N   UNL A   1      41.969  29.390  33.406  1.00  0.00    -0.354 N 
ATOM     55  N   UNL A   1      42.544  27.759  31.036  1.00  0.00    -0.248 NA
ATOM     56  C   UNL A   1      43.880  26.219  29.900  1.00  0.00     0.031 C 
ATOM     57  C   UNL A   1      43.268  29.135  35.188  1.00  0.00     0.029 A 
ATOM     58  C   UNL A   1      43.058  28.684  33.895  1.00  0.00     0.049 A 
ATOM     59  H   UNL A   1      41.592  29.292  32.501  1.00  0.00     0.167 HD
ATOM     60  C   UNL A   1      43.550  27.314  31.889  1.00  0.00     0.074 A 
ATOM     61  C   UNL A   1      44.315  26.334  31.148  1.00  0.00     0.031 C 
ATOM     62  C   UNL A   1      43.813  27.690  33.166  1.00  0.00     0.034 A 
BRANCH  49  63
ATOM     63  C   UNL A   1      40.060  32.075  35.383  1.00  0.00     0.023 A 
ATOM     64  C   UNL A   1      39.124  31.657  36.348  1.00  0.00     0.031 A 
ATOM     65  C   UNL A   1      40.534  33.398  35.450  1.00  0.00     0.131 A 
ATOM     66  C   UNL A   1      38.654  32.566  37.305  1.00  0.00     0.055 A 
ATOM     67  C   UNL A   1      40.100  34.285  36.435  1.00  0.00     0.041 A 
ATOM     68  F   UNL A   1      41.422  33.850  34.549  1.00  0.00    -0.206 F 
ATOM     69  C   UNL A   1      39.143  33.875  37.358  1.00  0.00     0.022 A 
BRANCH  66  70
ATOM     70  S   UNL A   1      37.326  32.116  38.455  1.00  0.00     0.124 S 
ATOM     71  O   UNL A   1      36.200  32.883  37.926  1.00  0.00    -0.237 OA
ATOM     72  O   UNL A   1      37.237  30.670  38.268  1.00  0.00    -0.237 OA
ATOM     73  O   UNL A   1      37.821  32.557  39.753  1.00  0.00    -0.744 OA
ENDBRANCH  66  70
ENDBRANCH  49  63
BRANCH  50  74
ATOM     74  C   UNL A   1      42.188  26.330  27.456  1.00  0.00     0.023 A 
ATOM     75  C   UNL A   1      41.711  25.008  27.386  1.00  0.00     0.031 A 
ATOM     76  C   UNL A   1      43.044  26.777  26.437  1.00  0.00     0.131 A 
ATOM     77  C   UNL A   1      42.158  24.159  26.365  1.00  0.00     0.055 A 
ATOM     78  C   UNL A   1      43.421  25.952  25.376  1.00  0.00     0.041 A 
ATOM     79  F   UNL A   1      43.540  28.025  26.468  1.00  0.00    -0.206 F 
ATOM     80  C   UNL A   1      42.994  24.628  25.348  1.00  0.00     0.022 A 
BRANCH  77  81
ATOM     81  S   UNL A   1      41.788  22.383  26.410  1.00  0.00     0.124 S 
ATOM     82  O   UNL A   1      42.284  22.001  27.728  1.00  0.00    -0.237 OA
ATOM     83  O   UNL A   1      40.335  22.380  26.257  1.00  0.00    -0.237 OA
ATOM     84  O   UNL A   1      42.532  21.848  25.275  1.00  0.00    -0.744 OA
ENDBRANCH  77  81
ENDBRANCH  50  74
BRANCH  62  85
ATOM     85  C   UNL A   1      44.975  27.049  33.894  1.00  0.00     0.023 A 
ATOM     86  C   UNL A   1      44.756  25.908  34.692  1.00  0.00     0.031 A 
ATOM     87  C   UNL A   1      46.241  27.656  33.941  1.00  0.00     0.131 A 
ATOM     88  C   UNL A   1      45.767  25.447  35.545  1.00  0.00     0.055 A 
ATOM     89  C   UNL A   1      47.266  27.156  34.746  1.00  0.00     0.041 A 
ATOM     90  F   UNL A   1      46.499  28.754  33.210  1.00  0.00    -0.206 F 
ATOM     91  C   UNL A   1      47.024  26.059  35.569  1.00  0.00     0.022 A 
BRANCH  88  92
ATOM     92  S   UNL A   1      45.454  24.112  36.733  1.00  0.00     0.124 S 
ATOM     93  O   UNL A   1      45.017  23.026  35.859  1.00  0.00    -0.237 OA
ATOM     94  O   UNL A   1      46.768  23.930  37.344  1.00  0.00    -0.237 OA
ATOM     95  O   UNL A   1      44.422  24.655  37.610  1.00  0.00    -0.744 OA
ENDBRANCH  88  92
ENDBRANCH  62  85
ENDBRANCH  36  37
ENDBRANCH  29  31
ENDBRANCH  28  29
ENDBRANCH  27  28
ENDBRANCH   1  27
TORSDOF 19
ENDMDL
MODEL 2
REMARK VINA RESULT:     -11.6      2.237      7.863
REMARK SMILES CC(C)(C)c1cc2c(cc1Cl)C=C(C(=O)OCCOCCOC(=O)c1ccc(-c3c4nc(c(-c5cc(S(=O)(=O)[O-])ccc5F)c5ccc([nH]5)c(-c5cc(S(=O)(=O)[O-])ccc5F)c5nc(c(-c6cc(S(=O)(=O)[O-])ccc6F)c6ccc3[nH]6)C=C5)C=C4)cc1)[C@@H](C(F)(F)F)O2
REMARK SMILES IDX 20 1 19 2 18 3 17 4 16 5 14 6 15 7 13 8 5 9 6 10 10 11 7 12
REMARK SMILES IDX 9 13 11 14 8 15 93 16 12 17 88 18 2 19 1 20 3 21 4 22 89 23
REMARK SMILES IDX 90 24 91 25 92 26 21 27 22 28 23 29 24 30 25 31 26 32 87 33
REMARK SMILES IDX 27 34 86 35 28 36 29 37 30 38 80 39 31 40 85 41 79 42 81 43
REMARK SMILES IDX 32 44 84 45 78 46 77 47 33 49 65 50 45 51 64 52 46 53 49 54
REMARK SMILES IDX 63 55 82 56 47 57 48 58 62 60 83 61 50 62 34 63 35 64 43 65
REMARK SMILES IDX 36 66 42 67 44 68 41 69 37 70 38 71 39 72 40 73 66 74 67 75
REMARK SMILES IDX 75 76 68 77 74 78 76 79 73 80 69 81 70 82 71 83 72 84 51 85
REMARK SMILES IDX 52 86 60 87 53 88 59 89 61 90 58 91 54 92 55 93 56 94 57 95
REMARK H PARENT 81 48 49 59
REMARK Flexibility Score: inf
ROOT
ATOM      1  C   UNL A   1      32.668  31.269  27.333  1.00  0.00     0.202 C 
ENDROOT
BRANCH   1   2
ATOM      2  O   UNL A   1      32.099  30.269  26.490  1.00  0.00    -0.374 OA
BRANCH   2   3
ATOM      3  C   UNL A   1      31.903  28.960  27.020  1.00  0.00     0.202 C 
BRANCH   3   4
ATOM      4  C   UNL A   1      32.743  27.817  26.440  1.00  0.00     0.261 C 
BRANCH   4   5
ATOM      5  O   UNL A   1      32.100  27.184  25.324  1.00  0.00    -0.460 OA
BRANCH   5   6
ATOM      6  C   UNL A   1      32.937  26.471  24.535  1.00  0.00     0.338 C 
ATOM      7  O   UNL A   1      33.822  26.907  23.816  1.00  0.00    -0.246 OA
BRANCH   6   8
ATOM      8  C   UNL A   1      32.737  25.029  24.769  1.00  0.00     0.087 C 
ATOM      9  C   UNL A   1      33.590  20.054  24.766  1.00  0.00    -0.020 A 
ATOM     10  C   UNL A   1      32.439  20.893  24.786  1.00  0.00     0.053 A 
ATOM     11  C   UNL A   1      34.827  20.704  24.960  1.00  0.00     0.045 A 
ATOM     12  C   UNL A   1      32.514  22.283  24.913  1.00  0.00     0.128 A 
ATOM     13  C   UNL A   1      34.896  22.101  25.100  1.00  0.00     0.032 A 
ATOM     14  Cl  UNL A   1      36.378  19.940  24.992  1.00  0.00    -0.084 Cl
ATOM     15  C   UNL A   1      33.751  22.890  25.035  1.00  0.00     0.019 A 
ATOM     16  O   UNL A   1      31.334  22.969  24.882  1.00  0.00    -0.475 OA
ATOM     17  C   UNL A   1      33.860  24.332  24.980  1.00  0.00     0.027 C 
ATOM     18  C   UNL A   1      31.363  24.419  24.717  1.00  0.00     0.316 C 
BRANCH   9  19
ATOM     19  C   UNL A   1      33.365  18.559  24.423  1.00  0.00    -0.012 C 
ATOM     20  C   UNL A   1      32.646  17.819  25.580  1.00  0.00     0.016 C 
ATOM     21  C   UNL A   1      34.611  17.702  24.113  1.00  0.00     0.016 C 
ATOM     22  C   UNL A   1      32.464  18.508  23.164  1.00  0.00     0.016 C 
ENDBRANCH   9  19
BRANCH  18  23
ATOM     23  C   UNL A   1      30.608  24.769  23.425  1.00  0.00     0.430 C 
ATOM     24  F   UNL A   1      29.727  25.776  23.632  1.00  0.00    -0.167 F 
ATOM     25  F   UNL A   1      31.447  25.175  22.445  1.00  0.00    -0.167 F 
ATOM     26  F   UNL A   1      29.911  23.710  22.952  1.00  0.00    -0.167 F 
ENDBRANCH  18  23
ENDBRANCH   6   8
ENDBRANCH   5   6
ENDBRANCH   4   5
ENDBRANCH   3   4
ENDBRANCH   2   3
ENDBRANCH   1   2
BRANCH   1  27
ATOM     27  C   UNL A   1      32.274  32.737  27.119  1.00  0.00     0.261 C 
BRANCH  27  28
ATOM     28  O   UNL A   1      33.384  33.642  27.228  1.00  0.00    -0.460 OA
BRANCH  28  29
ATOM     29  C   UNL A   1      33.421  34.356  28.382  1.00  0.00     0.338 C 
ATOM     30  O   UNL A   1      32.614  35.195  28.751  1.00  0.00    -0.246 OA
BRANCH  29  31
ATOM     31  C   UNL A   1      34.485  33.820  29.250  1.00  0.00     0.060 A 
ATOM     32  C   UNL A   1      34.190  32.947  30.298  1.00  0.00     0.016 A 
ATOM     33  C   UNL A   1      35.811  34.180  28.973  1.00  0.00     0.016 A 
ATOM     34  C   UNL A   1      35.236  32.415  31.056  1.00  0.00     0.010 A 
ATOM     35  C   UNL A   1      36.854  33.645  29.731  1.00  0.00     0.010 A 
ATOM     36  C   UNL A   1      36.575  32.742  30.766  1.00  0.00    -0.014 A 
BRANCH  36  37
ATOM     37  C   UNL A   1      37.681  32.022  31.446  1.00  0.00     0.031 A 
ATOM     38  C   UNL A   1      38.381  30.864  30.803  1.00  0.00     0.074 A 
ATOM     39  C   UNL A   1      38.034  32.424  32.682  1.00  0.00     0.049 A 
ATOM     40  N   UNL A   1      39.416  30.193  31.237  1.00  0.00    -0.248 NA
ATOM     41  C   UNL A   1      37.853  30.391  29.514  1.00  0.00     0.031 C 
ATOM     42  C   UNL A   1      37.379  33.504  33.421  1.00  0.00     0.029 A 
ATOM     43  N   UNL A   1      39.019  31.987  33.532  1.00  0.00    -0.354 N 
ATOM     44  C   UNL A   1      39.680  29.230  30.271  1.00  0.00     0.074 A 
ATOM     45  C   UNL A   1      38.659  29.369  29.253  1.00  0.00     0.031 C 
ATOM     46  C   UNL A   1      38.002  33.670  34.596  1.00  0.00     0.029 A 
ATOM     47  C   UNL A   1      39.074  32.685  34.717  1.00  0.00     0.049 A 
ATOM     48  H   UNL A   1      39.628  31.245  33.314  1.00  0.00     0.167 HD
ATOM     49  C   UNL A   1      40.693  28.332  30.235  1.00  0.00     0.034 A 
ATOM     50  C   UNL A   1      39.893  32.553  35.781  1.00  0.00     0.034 A 
ATOM     51  C   UNL A   1      41.691  28.205  31.270  1.00  0.00     0.049 A 
ATOM     52  C   UNL A   1      41.000  31.531  35.724  1.00  0.00     0.074 A 
ATOM     53  C   UNL A   1      42.789  27.362  31.295  1.00  0.00     0.029 A 
ATOM     54  N   UNL A   1      41.715  28.920  32.459  1.00  0.00    -0.354 N 
ATOM     55  N   UNL A   1      41.312  30.710  34.749  1.00  0.00    -0.248 NA
ATOM     56  C   UNL A   1      41.879  31.426  36.897  1.00  0.00     0.031 C 
ATOM     57  C   UNL A   1      43.423  27.504  32.529  1.00  0.00     0.029 A 
ATOM     58  C   UNL A   1      42.784  28.508  33.239  1.00  0.00     0.049 A 
ATOM     59  H   UNL A   1      41.067  29.619  32.712  1.00  0.00     0.167 HD
ATOM     60  C   UNL A   1      42.438  30.012  35.179  1.00  0.00     0.074 A 
ATOM     61  C   UNL A   1      42.767  30.528  36.491  1.00  0.00     0.031 C 
ATOM     62  C   UNL A   1      43.128  29.034  34.542  1.00  0.00     0.034 A 
BRANCH  49  63
ATOM     63  C   UNL A   1      40.821  27.419  29.038  1.00  0.00     0.023 A 
ATOM     64  C   UNL A   1      41.745  27.715  28.018  1.00  0.00     0.031 A 
ATOM     65  C   UNL A   1      39.915  26.363  28.825  1.00  0.00     0.131 A 
ATOM     66  C   UNL A   1      41.711  26.999  26.815  1.00  0.00     0.055 A 
ATOM     67  C   UNL A   1      39.918  25.620  27.644  1.00  0.00     0.041 A 
ATOM     68  F   UNL A   1      39.007  26.044  29.762  1.00  0.00    -0.206 F 
ATOM     69  C   UNL A   1      40.807  25.948  26.626  1.00  0.00     0.022 A 
BRANCH  66  70
ATOM     70  S   UNL A   1      42.769  27.461  25.416  1.00  0.00     0.124 S 
ATOM     71  O   UNL A   1      44.024  27.791  26.088  1.00  0.00    -0.237 OA
ATOM     72  O   UNL A   1      42.788  26.231  24.629  1.00  0.00    -0.237 OA
ATOM     73  O   UNL A   1      42.075  28.590  24.809  1.00  0.00    -0.744 OA
ENDBRANCH  66  70
ENDBRANCH  49  63
BRANCH  50  74
ATOM     74  C   UNL A   1      39.720  33.471  36.945  1.00  0.00     0.023 A 
ATOM     75  C   UNL A   1      39.115  33.021  38.133  1.00  0.00     0.031 A 
ATOM     76  C   UNL A   1      40.042  34.835  36.844  1.00  0.00     0.131 A 
ATOM     77  C   UNL A   1      38.782  33.939  39.137  1.00  0.00     0.055 A 
ATOM     78  C   UNL A   1      39.782  35.732  37.881  1.00  0.00     0.041 A 
ATOM     79  F   UNL A   1      40.604  35.317  35.724  1.00  0.00    -0.206 F 
ATOM     80  C   UNL A   1      39.130  35.289  39.028  1.00  0.00     0.022 A 
BRANCH  77  81
ATOM     81  S   UNL A   1      37.755  33.439  40.546  1.00  0.00     0.124 S 
ATOM     82  O   UNL A   1      37.682  34.671  41.325  1.00  0.00    -0.237 OA
ATOM     83  O   UNL A   1      36.516  33.038  39.881  1.00  0.00    -0.237 OA
ATOM     84  O   UNL A   1      38.511  32.350  41.155  1.00  0.00    -0.744 OA
ENDBRANCH  77  81
ENDBRANCH  50  74
BRANCH  62  85
ATOM     85  C   UNL A   1      44.337  28.427  35.222  1.00  0.00     0.023 A 
ATOM     86  C   UNL A   1      44.163  27.406  36.177  1.00  0.00     0.031 A 
ATOM     87  C   UNL A   1      45.624  28.969  35.060  1.00  0.00     0.131 A 
ATOM     88  C   UNL A   1      45.243  27.002  36.973  1.00  0.00     0.055 A 
ATOM     89  C   UNL A   1      46.710  28.519  35.813  1.00  0.00     0.041 A 
ATOM     90  F   UNL A   1      45.842  29.954  34.172  1.00  0.00    -0.206 F 
ATOM     91  C   UNL A   1      46.517  27.545  36.789  1.00  0.00     0.022 A 
BRANCH  88  92
ATOM     92  S   UNL A   1      45.009  25.840  38.348  1.00  0.00     0.124 S 
ATOM     93  O   UNL A   1      46.368  25.352  38.566  1.00  0.00    -0.237 OA
ATOM     94  O   UNL A   1      44.484  26.710  39.398  1.00  0.00    -0.237 OA
ATOM     95  O   UNL A   1      44.072  24.854  37.821  1.00  0.00    -0.744 OA
ENDBRANCH  88  92
ENDBRANCH  62  85
ENDBRANCH  36  37
ENDBRANCH  29  31
ENDBRANCH  28  29
ENDBRANCH  27  28
ENDBRANCH   1  27
TORSDOF 19
ENDMDL
MODEL 3
REMARK VINA RESULT:     -11.4      1.680      2.157
REMARK SMILES CC(C)(C)c1cc2c(cc1Cl)C=C(C(=O)OCCOCCOC(=O)c1ccc(-c3c4nc(c(-c5cc(S(=O)(=O)[O-])ccc5F)c5ccc([nH]5)c(-c5cc(S(=O)(=O)[O-])ccc5F)c5nc(c(-c6cc(S(=O)(=O)[O-])ccc6F)c6ccc3[nH]6)C=C5)C=C4)cc1)[C@@H](C(F)(F)F)O2
REMARK SMILES IDX 20 1 19 2 18 3 17 4 16 5 14 6 15 7 13 8 5 9 6 10 10 11 7 12
REMARK SMILES IDX 9 13 11 14 8 15 93 16 12 17 88 18 2 19 1 20 3 21 4 22 89 23
REMARK SMILES IDX 90 24 91 25 92 26 21 27 22 28 23 29 24 30 25 31 26 32 87 33
REMARK SMILES IDX 27 34 86 35 28 36 29 37 30 38 80 39 31 40 85 41 79 42 81 43
REMARK SMILES IDX 32 44 84 45 78 46 77 47 33 49 65 50 45 51 64 52 46 53 49 54
REMARK SMILES IDX 63 55 82 56 47 57 48 58 62 60 83 61 50 62 34 63 35 64 43 65
REMARK SMILES IDX 36 66 42 67 44 68 41 69 37 70 38 71 39 72 40 73 66 74 67 75
REMARK SMILES IDX 75 76 68 77 74 78 76 79 73 80 69 81 70 82 71 83 72 84 51 85
REMARK SMILES IDX 52 86 60 87 53 88 59 89 61 90 58 91 54 92 55 93 56 94 57 95
REMARK H PARENT 81 48 49 59
REMARK Flexibility Score: inf
ROOT
ATOM      1  C   UNL A   1      32.752  30.950  27.209  1.00  0.00     0.202 C 
ENDROOT
BRANCH   1   2
ATOM      2  O   UNL A   1      31.898  29.920  26.715  1.00  0.00    -0.374 OA
BRANCH   2   3
ATOM      3  C   UNL A   1      31.837  28.686  27.425  1.00  0.00     0.202 C 
BRANCH   3   4
ATOM      4  C   UNL A   1      32.676  27.515  26.903  1.00  0.00     0.261 C 
BRANCH   4   5
ATOM      5  O   UNL A   1      32.099  26.912  25.735  1.00  0.00    -0.460 OA
BRANCH   5   6
ATOM      6  C   UNL A   1      32.987  26.247  24.960  1.00  0.00     0.338 C 
ATOM      7  O   UNL A   1      33.943  26.717  24.364  1.00  0.00    -0.246 OA
BRANCH   6   8
ATOM      8  C   UNL A   1      32.734  24.796  25.043  1.00  0.00     0.087 C 
ATOM      9  C   UNL A   1      33.440  19.819  24.596  1.00  0.00    -0.020 A 
ATOM     10  C   UNL A   1      32.314  20.690  24.644  1.00  0.00     0.053 A 
ATOM     11  C   UNL A   1      34.685  20.405  24.909  1.00  0.00     0.045 A 
ATOM     12  C   UNL A   1      32.423  22.058  24.910  1.00  0.00     0.128 A 
ATOM     13  C   UNL A   1      34.787  21.778  25.187  1.00  0.00     0.032 A 
ATOM     14  Cl  UNL A   1      36.209  19.589  24.937  1.00  0.00    -0.084 Cl
ATOM     15  C   UNL A   1      33.671  22.609  25.147  1.00  0.00     0.019 A 
ATOM     16  O   UNL A   1      31.267  22.784  24.890  1.00  0.00    -0.475 OA
ATOM     17  C   UNL A   1      33.824  24.045  25.237  1.00  0.00     0.027 C 
ATOM     18  C   UNL A   1      31.347  24.241  24.869  1.00  0.00     0.316 C 
BRANCH   9  19
ATOM     19  C   UNL A   1      33.188  18.372  24.098  1.00  0.00    -0.012 C 
ATOM     20  C   UNL A   1      32.364  17.559  25.130  1.00  0.00     0.016 C 
ATOM     21  C   UNL A   1      34.422  17.497  23.794  1.00  0.00     0.016 C 
ATOM     22  C   UNL A   1      32.377  18.473  22.783  1.00  0.00     0.016 C 
ENDBRANCH   9  19
BRANCH  18  23
ATOM     23  C   UNL A   1      30.667  24.739  23.584  1.00  0.00     0.430 C 
ATOM     24  F   UNL A   1      29.824  25.766  23.844  1.00  0.00    -0.167 F 
ATOM     25  F   UNL A   1      31.565  25.187  22.679  1.00  0.00    -0.167 F 
ATOM     26  F   UNL A   1      29.944  23.760  22.991  1.00  0.00    -0.167 F 
ENDBRANCH  18  23
ENDBRANCH   6   8
ENDBRANCH   5   6
ENDBRANCH   4   5
ENDBRANCH   3   4
ENDBRANCH   2   3
ENDBRANCH   1   2
BRANCH   1  27
ATOM     27  C   UNL A   1      32.241  32.396  27.232  1.00  0.00     0.261 C 
BRANCH  27  28
ATOM     28  O   UNL A   1      33.296  33.370  27.227  1.00  0.00    -0.460 OA
BRANCH  28  29
ATOM     29  C   UNL A   1      33.428  34.069  28.384  1.00  0.00     0.338 C 
ATOM     30  O   UNL A   1      32.631  34.866  28.854  1.00  0.00    -0.246 OA
BRANCH  29  31
ATOM     31  C   UNL A   1      34.602  33.568  29.122  1.00  0.00     0.060 A 
ATOM     32  C   UNL A   1      34.466  32.614  30.131  1.00  0.00     0.016 A 
ATOM     33  C   UNL A   1      35.867  34.048  28.759  1.00  0.00     0.016 A 
ATOM     34  C   UNL A   1      35.612  32.122  30.762  1.00  0.00     0.010 A 
ATOM     35  C   UNL A   1      37.010  33.553  29.389  1.00  0.00     0.010 A 
ATOM     36  C   UNL A   1      36.892  32.571  30.382  1.00  0.00    -0.014 A 
BRANCH  36  37
ATOM     37  C   UNL A   1      38.104  31.902  30.918  1.00  0.00     0.031 A 
ATOM     38  C   UNL A   1      38.680  32.266  32.253  1.00  0.00     0.074 A 
ATOM     39  C   UNL A   1      38.697  30.960  30.159  1.00  0.00     0.049 A 
ATOM     40  N   UNL A   1      39.681  31.712  32.888  1.00  0.00    -0.248 NA
ATOM     41  C   UNL A   1      38.065  33.396  32.964  1.00  0.00     0.031 C 
ATOM     42  C   UNL A   1      38.249  30.571  28.822  1.00  0.00     0.029 A 
ATOM     43  N   UNL A   1      39.787  30.160  30.394  1.00  0.00    -0.354 N 
ATOM     44  C   UNL A   1      39.808  32.410  34.082  1.00  0.00     0.074 A 
ATOM     45  C   UNL A   1      38.816  33.465  34.057  1.00  0.00     0.031 C 
ATOM     46  C   UNL A   1      39.034  29.583  28.368  1.00  0.00     0.029 A 
ATOM     47  C   UNL A   1      40.066  29.294  29.361  1.00  0.00     0.049 A 
ATOM     48  H   UNL A   1      40.319  30.202  31.220  1.00  0.00     0.167 HD
ATOM     49  C   UNL A   1      40.661  32.173  35.107  1.00  0.00     0.034 A 
ATOM     50  C   UNL A   1      41.038  28.367  29.225  1.00  0.00     0.034 A 
ATOM     51  C   UNL A   1      41.651  31.121  35.101  1.00  0.00     0.049 A 
ATOM     52  C   UNL A   1      41.988  28.138  30.372  1.00  0.00     0.074 A 
ATOM     53  C   UNL A   1      42.523  30.768  36.116  1.00  0.00     0.029 A 
ATOM     54  N   UNL A   1      41.913  30.267  34.039  1.00  0.00    -0.354 N 
ATOM     55  N   UNL A   1      42.019  28.723  31.546  1.00  0.00    -0.248 NA
ATOM     56  C   UNL A   1      43.025  27.112  30.191  1.00  0.00     0.031 C 
ATOM     57  C   UNL A   1      43.366  29.764  35.640  1.00  0.00     0.029 A 
ATOM     58  C   UNL A   1      42.959  29.416  34.362  1.00  0.00     0.049 A 
ATOM     59  H   UNL A   1      41.427  30.265  33.182  1.00  0.00     0.167 HD
ATOM     60  C   UNL A   1      43.055  28.119  32.252  1.00  0.00     0.074 A 
ATOM     61  C   UNL A   1      43.610  27.104  31.382  1.00  0.00     0.031 C 
ATOM     62  C   UNL A   1      43.503  28.388  33.504  1.00  0.00     0.034 A 
BRANCH  49  63
ATOM     63  C   UNL A   1      40.571  33.029  36.349  1.00  0.00     0.023 A 
ATOM     64  C   UNL A   1      39.735  32.643  37.414  1.00  0.00     0.031 A 
ATOM     65  C   UNL A   1      41.172  34.300  36.404  1.00  0.00     0.131 A 
ATOM     66  C   UNL A   1      39.483  33.537  38.463  1.00  0.00     0.055 A 
ATOM     67  C   UNL A   1      40.957  35.167  37.475  1.00  0.00     0.041 A 
ATOM     68  F   UNL A   1      41.971  34.720  35.410  1.00  0.00    -0.206 F 
ATOM     69  C   UNL A   1      40.096  34.794  38.503  1.00  0.00     0.022 A 
BRANCH  66  70
ATOM     70  S   UNL A   1      38.282  33.143  39.764  1.00  0.00     0.124 S 
ATOM     71  O   UNL A   1      37.105  32.773  38.981  1.00  0.00    -0.237 OA
ATOM     72  O   UNL A   1      38.939  32.042  40.462  1.00  0.00    -0.237 OA
ATOM     73  O   UNL A   1      38.161  34.387  40.516  1.00  0.00    -0.744 OA
ENDBRANCH  66  70
ENDBRANCH  49  63
BRANCH  50  74
ATOM     74  C   UNL A   1      41.092  27.555  27.974  1.00  0.00     0.023 A 
ATOM     75  C   UNL A   1      40.669  26.213  27.968  1.00  0.00     0.031 A 
ATOM     76  C   UNL A   1      41.676  28.067  26.804  1.00  0.00     0.131 A 
ATOM     77  C   UNL A   1      40.909  25.411  26.845  1.00  0.00     0.055 A 
ATOM     78  C   UNL A   1      41.838  27.287  25.659  1.00  0.00     0.041 A 
ATOM     79  F   UNL A   1      42.112  29.337  26.765  1.00  0.00    -0.206 F 
ATOM     80  C   UNL A   1      41.472  25.944  25.682  1.00  0.00     0.022 A 
BRANCH  77  81
ATOM     81  S   UNL A   1      40.635  23.619  26.911  1.00  0.00     0.124 S 
ATOM     82  O   UNL A   1      40.941  23.314  28.306  1.00  0.00    -0.237 OA
ATOM     83  O   UNL A   1      39.225  23.521  26.539  1.00  0.00    -0.237 OA
ATOM     84  O   UNL A   1      41.573  23.090  25.928  1.00  0.00    -0.744 OA
ENDBRANCH  77  81
ENDBRANCH  50  74
BRANCH  62  85
ATOM     85  C   UNL A   1      44.656  27.579  34.059  1.00  0.00     0.023 A 
ATOM     86  C   UNL A   1      44.396  26.419  34.817  1.00  0.00     0.031 A 
ATOM     87  C   UNL A   1      45.982  28.041  33.990  1.00  0.00     0.131 A 
ATOM     88  C   UNL A   1      45.435  25.798  35.522  1.00  0.00     0.055 A 
ATOM     89  C   UNL A   1      47.024  27.381  34.644  1.00  0.00     0.041 A 
ATOM     90  F   UNL A   1      46.282  29.148  33.291  1.00  0.00    -0.206 F 
ATOM     91  C   UNL A   1      46.749  26.267  35.431  1.00  0.00     0.022 A 
BRANCH  88  92
ATOM     92  S   UNL A   1      45.102  24.431  36.668  1.00  0.00     0.124 S 
ATOM     93  O   UNL A   1      43.967  23.770  36.029  1.00  0.00    -0.237 OA
ATOM     94  O   UNL A   1      46.358  23.687  36.631  1.00  0.00    -0.237 OA
ATOM     95  O   UNL A   1      44.801  25.096  37.932  1.00  0.00    -0.744 OA
ENDBRANCH  88  92
ENDBRANCH  62  85
ENDBRANCH  36  37
ENDBRANCH  29  31
ENDBRANCH  28  29
ENDBRANCH  27  28
ENDBRANCH   1  27
TORSDOF 19
ENDMDL
