MODEL 1
REMARK VINA RESULT:     -11.5      0.000      0.000
REMARK SMILES Cc1cc(C(=O)Nc2ccn(C)n2)sc1/C=C/C(=O)OCCOCCOC(=O)c1ccc(-c2c3nc(c(-c4cc(S(=O)(=O)[O-])ccc4F)c4ccc([nH]4)c(-c4cc(S(=O)(=O)[O-])ccc4F)c4nc(c(-c5cc(S(=O)(=O)[O-])ccc5F)c5ccc2[nH]5)C=C4)C=C3)cc1
REMARK SMILES IDX 23 1 22 2 21 3 20 4 18 5 19 6 17 7 16 8 15 9 1 10 2 11 3 12
REMARK SMILES IDX 4 13 14 14 5 15 6 16 7 17 8 19 9 20 13 21 10 22 11 23 12 24
REMARK SMILES IDX 24 25 25 26 26 27 27 28 28 29 29 30 30 31 91 32 31 33 90 34
REMARK SMILES IDX 32 35 33 36 34 37 84 38 35 39 89 40 83 41 85 42 36 43 88 44
REMARK SMILES IDX 82 45 81 46 37 48 69 49 49 50 68 51 50 52 53 53 67 54 86 55
REMARK SMILES IDX 51 56 52 57 66 59 87 60 54 61 38 62 39 63 47 64 40 65 46 66
REMARK SMILES IDX 48 67 45 68 41 69 42 70 43 71 44 72 70 73 71 74 79 75 72 76
REMARK SMILES IDX 78 77 80 78 77 79 73 80 74 81 75 82 76 83 55 84 56 85 64 86
REMARK SMILES IDX 57 87 63 88 65 89 62 90 58 91 59 92 60 93 61 94
REMARK H PARENT 7 18 85 47 53 58
REMARK Flexibility Score: inf
ROOT
ATOM      1  O   UNL A   1      34.350  20.035  25.265  1.00  0.00    -0.374 OA
ENDROOT
BRANCH   1   2
ATOM      2  C   UNL A   1      33.020  20.449  24.954  1.00  0.00     0.202 C 
BRANCH   2   3
ATOM      3  C   UNL A   1      32.572  21.765  25.597  1.00  0.00     0.261 C 
BRANCH   3   4
ATOM      4  O   UNL A   1      31.148  21.799  25.805  1.00  0.00    -0.460 OA
BRANCH   4   5
ATOM      5  C   UNL A   1      30.716  22.803  26.600  1.00  0.00     0.330 C 
ATOM      6  O   UNL A   1      30.070  22.692  27.632  1.00  0.00    -0.247 OA
BRANCH   5   7
ATOM      7  C   UNL A   1      31.206  24.124  26.163  1.00  0.00     0.095 C 
ATOM      8  C   UNL A   1      30.475  25.173  25.747  1.00  0.00     0.027 C 
BRANCH   8   9
ATOM      9  C   UNL A   1      31.078  26.399  25.294  1.00  0.00     0.031 A 
ATOM     10  C   UNL A   1      31.445  27.687  27.501  1.00  0.00     0.046 C 
ATOM     11  C   UNL A   1      31.439  27.539  26.012  1.00  0.00    -0.032 A 
ATOM     12  C   UNL A   1      31.812  28.623  25.133  1.00  0.00     0.029 A 
ATOM     13  C   UNL A   1      31.788  28.282  23.795  1.00  0.00     0.093 A 
ATOM     14  S   UNL A   1      31.577  26.598  23.653  1.00  0.00    -0.130 S 
BRANCH  13  15
ATOM     15  C   UNL A   1      32.129  29.131  22.651  1.00  0.00     0.266 C 
ATOM     16  O   UNL A   1      33.304  29.339  22.336  1.00  0.00    -0.268 OA
ATOM     17  N   UNL A   1      31.154  29.643  21.824  1.00  0.00    -0.304 N 
ATOM     18  H   UNL A   1      31.440  29.827  20.899  1.00  0.00     0.171 HD
BRANCH  17  19
ATOM     19  C   UNL A   1      29.842  29.934  22.098  1.00  0.00     0.154 A 
ATOM     20  C   UNL A   1      29.230  31.190  22.318  1.00  0.00     0.068 A 
ATOM     21  N   UNL A   1      28.948  28.944  22.161  1.00  0.00    -0.155 NA
ATOM     22  C   UNL A   1      27.932  30.899  22.674  1.00  0.00     0.110 A 
ATOM     23  N   UNL A   1      27.848  29.540  22.657  1.00  0.00    -0.274 N 
ATOM     24  C   UNL A   1      26.778  28.731  23.190  1.00  0.00     0.173 C 
ENDBRANCH  17  19
ENDBRANCH  13  15
ENDBRANCH   8   9
ENDBRANCH   5   7
ENDBRANCH   4   5
ENDBRANCH   3   4
ENDBRANCH   2   3
ENDBRANCH   1   2
BRANCH   1  25
ATOM     25  C   UNL A   1      35.390  20.982  25.009  1.00  0.00     0.202 C 
BRANCH  25  26
ATOM     26  C   UNL A   1      36.824  20.440  25.091  1.00  0.00     0.261 C 
BRANCH  26  27
ATOM     27  O   UNL A   1      37.794  21.502  25.145  1.00  0.00    -0.460 OA
BRANCH  27  28
ATOM     28  C   UNL A   1      38.898  21.234  25.883  1.00  0.00     0.338 C 
ATOM     29  O   UNL A   1      39.505  20.169  25.932  1.00  0.00    -0.246 OA
BRANCH  28  30
ATOM     30  C   UNL A   1      39.411  22.474  26.496  1.00  0.00     0.060 A 
ATOM     31  C   UNL A   1      38.777  23.676  26.155  1.00  0.00     0.016 A 
ATOM     32  C   UNL A   1      40.519  22.476  27.347  1.00  0.00     0.016 A 
ATOM     33  C   UNL A   1      39.274  24.888  26.629  1.00  0.00     0.010 A 
ATOM     34  C   UNL A   1      41.021  23.696  27.816  1.00  0.00     0.010 A 
ATOM     35  C   UNL A   1      40.421  24.909  27.433  1.00  0.00    -0.014 A 
BRANCH  35  36
ATOM     36  C   UNL A   1      41.071  26.206  27.753  1.00  0.00     0.031 A 
ATOM     37  C   UNL A   1      42.457  26.475  27.228  1.00  0.00     0.074 A 
ATOM     38  C   UNL A   1      40.428  27.143  28.472  1.00  0.00     0.049 A 
ATOM     39  N   UNL A   1      43.231  27.512  27.415  1.00  0.00    -0.248 NA
ATOM     40  C   UNL A   1      43.047  25.425  26.384  1.00  0.00     0.031 C 
ATOM     41  C   UNL A   1      39.067  27.016  28.995  1.00  0.00     0.029 A 
ATOM     42  N   UNL A   1      40.835  28.384  28.893  1.00  0.00    -0.354 N 
ATOM     43  C   UNL A   1      44.401  27.243  26.713  1.00  0.00     0.074 A 
ATOM     44  C   UNL A   1      44.248  25.925  26.133  1.00  0.00     0.031 C 
ATOM     45  C   UNL A   1      38.758  28.133  29.676  1.00  0.00     0.029 A 
ATOM     46  C   UNL A   1      39.908  29.035  29.672  1.00  0.00     0.049 A 
ATOM     47  H   UNL A   1      41.710  28.771  28.660  1.00  0.00     0.167 HD
ATOM     48  C   UNL A   1      45.498  28.025  26.559  1.00  0.00     0.034 A 
ATOM     49  C   UNL A   1      39.988  30.212  30.327  1.00  0.00     0.034 A 
ATOM     50  C   UNL A   1      45.641  29.332  27.155  1.00  0.00     0.049 A 
ATOM     51  C   UNL A   1      41.254  31.028  30.215  1.00  0.00     0.074 A 
ATOM     52  C   UNL A   1      46.703  30.215  27.055  1.00  0.00     0.029 A 
ATOM     53  N   UNL A   1      44.698  29.940  27.975  1.00  0.00    -0.354 N 
ATOM     54  N   UNL A   1      42.352  30.766  29.543  1.00  0.00    -0.248 NA
ATOM     55  C   UNL A   1      41.286  32.304  30.942  1.00  0.00     0.031 C 
ATOM     56  C   UNL A   1      46.435  31.320  27.869  1.00  0.00     0.029 A 
ATOM     57  C   UNL A   1      45.170  31.168  28.415  1.00  0.00     0.049 A 
ATOM     58  H   UNL A   1      43.824  29.556  28.210  1.00  0.00     0.167 HD
ATOM     59  C   UNL A   1      43.191  31.860  29.743  1.00  0.00     0.074 A 
ATOM     60  C   UNL A   1      42.467  32.788  30.588  1.00  0.00     0.031 C 
ATOM     61  C   UNL A   1      44.443  32.081  29.267  1.00  0.00     0.034 A 
BRANCH  48  62
ATOM     62  C   UNL A   1      46.644  27.460  25.756  1.00  0.00     0.023 A 
ATOM     63  C   UNL A   1      46.953  27.937  24.469  1.00  0.00     0.031 A 
ATOM     64  C   UNL A   1      47.419  26.406  26.270  1.00  0.00     0.131 A 
ATOM     65  C   UNL A   1      47.958  27.313  23.714  1.00  0.00     0.055 A 
ATOM     66  C   UNL A   1      48.472  25.843  25.545  1.00  0.00     0.041 A 
ATOM     67  F   UNL A   1      47.158  25.894  27.483  1.00  0.00    -0.206 F 
ATOM     68  C   UNL A   1      48.737  26.286  24.253  1.00  0.00     0.022 A 
BRANCH  65  69
ATOM     69  S   UNL A   1      48.138  27.764  21.966  1.00  0.00     0.124 S 
ATOM     70  O   UNL A   1      49.305  28.643  22.007  1.00  0.00    -0.237 OA
ATOM     71  O   UNL A   1      48.336  26.470  21.325  1.00  0.00    -0.237 OA
ATOM     72  O   UNL A   1      46.876  28.431  21.652  1.00  0.00    -0.744 OA
ENDBRANCH  65  69
ENDBRANCH  48  62
BRANCH  49  73
ATOM     73  C   UNL A   1      38.861  30.676  31.185  1.00  0.00     0.023 A 
ATOM     74  C   UNL A   1      37.816  31.452  30.659  1.00  0.00     0.031 A 
ATOM     75  C   UNL A   1      38.842  30.394  32.563  1.00  0.00     0.131 A 
ATOM     76  C   UNL A   1      36.822  31.957  31.513  1.00  0.00     0.055 A 
ATOM     77  C   UNL A   1      37.824  30.854  33.399  1.00  0.00     0.041 A 
ATOM     78  F   UNL A   1      39.818  29.655  33.118  1.00  0.00    -0.206 F 
ATOM     79  C   UNL A   1      36.812  31.653  32.876  1.00  0.00     0.022 A 
BRANCH  76  80
ATOM     80  S   UNL A   1      35.584  33.093  30.829  1.00  0.00     0.124 S 
ATOM     81  O   UNL A   1      35.711  32.845  29.398  1.00  0.00    -0.237 OA
ATOM     82  O   UNL A   1      34.356  32.615  31.457  1.00  0.00    -0.237 OA
ATOM     83  O   UNL A   1      36.042  34.406  31.280  1.00  0.00    -0.744 OA
ENDBRANCH  76  80
ENDBRANCH  49  73
BRANCH  61  84
ATOM     84  C   UNL A   1      45.088  33.402  29.613  1.00  0.00     0.023 A 
ATOM     85  C   UNL A   1      44.927  34.543  28.807  1.00  0.00     0.031 A 
ATOM     86  C   UNL A   1      45.885  33.516  30.768  1.00  0.00     0.131 A 
ATOM     87  C   UNL A   1      45.596  35.731  29.136  1.00  0.00     0.055 A 
ATOM     88  C   UNL A   1      46.499  34.718  31.122  1.00  0.00     0.041 A 
ATOM     89  F   UNL A   1      46.075  32.459  31.574  1.00  0.00    -0.206 F 
ATOM     90  C   UNL A   1      46.368  35.831  30.297  1.00  0.00     0.022 A 
BRANCH  87  91
ATOM     91  S   UNL A   1      45.520  37.125  27.977  1.00  0.00     0.124 S 
ATOM     92  O   UNL A   1      44.090  37.213  27.703  1.00  0.00    -0.237 OA
ATOM     93  O   UNL A   1      46.087  38.216  28.763  1.00  0.00    -0.237 OA
ATOM     94  O   UNL A   1      46.342  36.681  26.851  1.00  0.00    -0.744 OA
ENDBRANCH  87  91
ENDBRANCH  61  84
ENDBRANCH  35  36
ENDBRANCH  28  30
ENDBRANCH  27  28
ENDBRANCH  26  27
ENDBRANCH  25  26
ENDBRANCH   1  25
TORSDOF 20
ENDMDL
MODEL 2
REMARK VINA RESULT:     -11.3      0.732      7.421
REMARK SMILES Cc1cc(C(=O)Nc2ccn(C)n2)sc1/C=C/C(=O)OCCOCCOC(=O)c1ccc(-c2c3nc(c(-c4cc(S(=O)(=O)[O-])ccc4F)c4ccc([nH]4)c(-c4cc(S(=O)(=O)[O-])ccc4F)c4nc(c(-c5cc(S(=O)(=O)[O-])ccc5F)c5ccc2[nH]5)C=C4)C=C3)cc1
REMARK SMILES IDX 23 1 22 2 21 3 20 4 18 5 19 6 17 7 16 8 15 9 1 10 2 11 3 12
REMARK SMILES IDX 4 13 14 14 5 15 6 16 7 17 8 19 9 20 13 21 10 22 11 23 12 24
REMARK SMILES IDX 24 25 25 26 26 27 27 28 28 29 29 30 30 31 91 32 31 33 90 34
REMARK SMILES IDX 32 35 33 36 34 37 84 38 35 39 89 40 83 41 85 42 36 43 88 44
REMARK SMILES IDX 82 45 81 46 37 48 69 49 49 50 68 51 50 52 53 53 67 54 86 55
REMARK SMILES IDX 51 56 52 57 66 59 87 60 54 61 38 62 39 63 47 64 40 65 46 66
REMARK SMILES IDX 48 67 45 68 41 69 42 70 43 71 44 72 70 73 71 74 79 75 72 76
REMARK SMILES IDX 78 77 80 78 77 79 73 80 74 81 75 82 76 83 55 84 56 85 64 86
REMARK SMILES IDX 57 87 63 88 65 89 62 90 58 91 59 92 60 93 61 94
REMARK H PARENT 7 18 85 47 53 58
REMARK Flexibility Score: inf
ROOT
ATOM      1  O   UNL A   1      35.111  20.196  24.630  1.00  0.00    -0.374 OA
ENDROOT
BRANCH   1   2
ATOM      2  C   UNL A   1      33.746  20.610  24.685  1.00  0.00     0.202 C 
BRANCH   2   3
ATOM      3  C   UNL A   1      33.235  21.012  26.072  1.00  0.00     0.261 C 
BRANCH   3   4
ATOM      4  O   UNL A   1      32.175  21.983  25.988  1.00  0.00    -0.460 OA
BRANCH   4   5
ATOM      5  C   UNL A   1      32.164  22.897  26.984  1.00  0.00     0.330 C 
ATOM      6  O   UNL A   1      32.119  22.671  28.184  1.00  0.00    -0.247 OA
BRANCH   5   7
ATOM      7  C   UNL A   1      32.332  24.277  26.489  1.00  0.00     0.095 C 
ATOM      8  C   UNL A   1      31.415  25.043  25.873  1.00  0.00     0.027 C 
BRANCH   8   9
ATOM      9  C   UNL A   1      31.720  26.364  25.387  1.00  0.00     0.031 A 
ATOM     10  C   UNL A   1      31.381  27.823  27.490  1.00  0.00     0.046 C 
ATOM     11  C   UNL A   1      31.640  27.598  26.033  1.00  0.00    -0.032 A 
ATOM     12  C   UNL A   1      31.829  28.692  25.110  1.00  0.00     0.029 A 
ATOM     13  C   UNL A   1      32.102  28.286  23.819  1.00  0.00     0.093 A 
ATOM     14  S   UNL A   1      32.386  26.607  23.813  1.00  0.00    -0.130 S 
BRANCH  13  15
ATOM     15  C   UNL A   1      32.365  29.132  22.653  1.00  0.00     0.266 C 
ATOM     16  O   UNL A   1      33.518  29.434  22.327  1.00  0.00    -0.268 OA
ATOM     17  N   UNL A   1      31.347  29.538  21.818  1.00  0.00    -0.304 N 
ATOM     18  H   UNL A   1      31.614  29.723  20.889  1.00  0.00     0.171 HD
BRANCH  17  19
ATOM     19  C   UNL A   1      30.016  29.721  22.092  1.00  0.00     0.154 A 
ATOM     20  C   UNL A   1      29.276  30.924  22.176  1.00  0.00     0.068 A 
ATOM     21  N   UNL A   1      29.235  28.658  22.299  1.00  0.00    -0.155 NA
ATOM     22  C   UNL A   1      28.023  30.545  22.600  1.00  0.00     0.110 A 
ATOM     23  N   UNL A   1      28.084  29.192  22.750  1.00  0.00    -0.274 N 
ATOM     24  C   UNL A   1      27.116  28.348  23.407  1.00  0.00     0.173 C 
ENDBRANCH  17  19
ENDBRANCH  13  15
ENDBRANCH   8   9
ENDBRANCH   5   7
ENDBRANCH   4   5
ENDBRANCH   3   4
ENDBRANCH   2   3
ENDBRANCH   1   2
BRANCH   1  25
ATOM     25  C   UNL A   1      36.091  21.235  24.569  1.00  0.00     0.202 C 
BRANCH  25  26
ATOM     26  C   UNL A   1      37.542  20.803  24.823  1.00  0.00     0.261 C 
BRANCH  26  27
ATOM     27  O   UNL A   1      38.004  21.220  26.121  1.00  0.00    -0.460 OA
BRANCH  27  28
ATOM     28  C   UNL A   1      39.337  21.091  26.324  1.00  0.00     0.338 C 
ATOM     29  O   UNL A   1      40.042  20.148  25.980  1.00  0.00    -0.246 OA
BRANCH  28  30
ATOM     30  C   UNL A   1      39.892  22.349  26.859  1.00  0.00     0.060 A 
ATOM     31  C   UNL A   1      39.344  23.550  26.390  1.00  0.00     0.016 A 
ATOM     32  C   UNL A   1      40.958  22.363  27.763  1.00  0.00     0.016 A 
ATOM     33  C   UNL A   1      39.888  24.769  26.788  1.00  0.00     0.010 A 
ATOM     34  C   UNL A   1      41.507  23.589  28.155  1.00  0.00     0.010 A 
ATOM     35  C   UNL A   1      40.996  24.797  27.645  1.00  0.00    -0.014 A 
BRANCH  35  36
ATOM     36  C   UNL A   1      41.704  26.080  27.890  1.00  0.00     0.031 A 
ATOM     37  C   UNL A   1      40.984  27.178  28.627  1.00  0.00     0.074 A 
ATOM     38  C   UNL A   1      42.975  26.255  27.489  1.00  0.00     0.049 A 
ATOM     39  N   UNL A   1      41.386  28.389  28.915  1.00  0.00    -0.248 NA
ATOM     40  C   UNL A   1      39.626  26.865  29.097  1.00  0.00     0.031 C 
ATOM     41  C   UNL A   1      43.790  25.249  26.808  1.00  0.00     0.029 A 
ATOM     42  N   UNL A   1      43.804  27.344  27.593  1.00  0.00    -0.354 N 
ATOM     43  C   UNL A   1      40.332  28.985  29.599  1.00  0.00     0.074 A 
ATOM     44  C   UNL A   1      39.259  28.014  29.643  1.00  0.00     0.031 C 
ATOM     45  C   UNL A   1      44.999  25.775  26.545  1.00  0.00     0.029 A 
ATOM     46  C   UNL A   1      45.032  27.162  27.003  1.00  0.00     0.049 A 
ATOM     47  H   UNL A   1      43.543  28.178  28.046  1.00  0.00     0.167 HD
ATOM     48  C   UNL A   1      40.268  30.224  30.147  1.00  0.00     0.034 A 
ATOM     49  C   UNL A   1      46.055  28.024  26.830  1.00  0.00     0.034 A 
ATOM     50  C   UNL A   1      41.341  31.186  30.082  1.00  0.00     0.049 A 
ATOM     51  C   UNL A   1      45.929  29.429  27.369  1.00  0.00     0.074 A 
ATOM     52  C   UNL A   1      41.388  32.465  30.612  1.00  0.00     0.029 A 
ATOM     53  N   UNL A   1      42.555  30.982  29.436  1.00  0.00    -0.354 N 
ATOM     54  N   UNL A   1      44.929  29.980  28.020  1.00  0.00    -0.248 NA
ATOM     55  C   UNL A   1      47.074  30.325  27.160  1.00  0.00     0.031 C 
ATOM     56  C   UNL A   1      42.595  33.058  30.226  1.00  0.00     0.029 A 
ATOM     57  C   UNL A   1      43.340  32.122  29.525  1.00  0.00     0.049 A 
ATOM     58  H   UNL A   1      42.819  30.150  28.982  1.00  0.00     0.167 HD
ATOM     59  C   UNL A   1      45.340  31.276  28.323  1.00  0.00     0.074 A 
ATOM     60  C   UNL A   1      46.681  31.419  27.795  1.00  0.00     0.031 C 
ATOM     61  C   UNL A   1      44.673  32.257  28.983  1.00  0.00     0.034 A 
BRANCH  48  62
ATOM     62  C   UNL A   1      38.973  30.619  30.814  1.00  0.00     0.023 A 
ATOM     63  C   UNL A   1      37.947  31.277  30.112  1.00  0.00     0.031 A 
ATOM     64  C   UNL A   1      38.774  30.364  32.183  1.00  0.00     0.131 A 
ATOM     65  C   UNL A   1      36.804  31.721  30.795  1.00  0.00     0.055 A 
ATOM     66  C   UNL A   1      37.598  30.737  32.839  1.00  0.00     0.041 A 
ATOM     67  F   UNL A   1      39.726  29.761  32.911  1.00  0.00    -0.206 F 
ATOM     68  C   UNL A   1      36.611  31.433  32.148  1.00  0.00     0.022 A 
BRANCH  65  69
ATOM     69  S   UNL A   1      35.640  32.806  29.924  1.00  0.00     0.124 S 
ATOM     70  O   UNL A   1      36.109  34.129  30.332  1.00  0.00    -0.237 OA
ATOM     71  O   UNL A   1      35.863  32.452  28.528  1.00  0.00    -0.237 OA
ATOM     72  O   UNL A   1      34.340  32.421  30.467  1.00  0.00    -0.744 OA
ENDBRANCH  65  69
ENDBRANCH  48  62
BRANCH  49  73
ATOM     73  C   UNL A   1      47.273  27.609  26.077  1.00  0.00     0.023 A 
ATOM     74  C   UNL A   1      47.411  27.881  24.706  1.00  0.00     0.031 A 
ATOM     75  C   UNL A   1      48.297  26.881  26.710  1.00  0.00     0.131 A 
ATOM     76  C   UNL A   1      48.524  27.390  24.004  1.00  0.00     0.055 A 
ATOM     77  C   UNL A   1      49.426  26.439  26.019  1.00  0.00     0.041 A 
ATOM     78  F   UNL A   1      48.215  26.593  28.020  1.00  0.00    -0.206 F 
ATOM     79  C   UNL A   1      49.538  26.682  24.654  1.00  0.00     0.022 A 
BRANCH  76  80
ATOM     80  S   UNL A   1      48.585  27.615  22.206  1.00  0.00     0.124 S 
ATOM     81  O   UNL A   1      48.649  26.237  21.735  1.00  0.00    -0.237 OA
ATOM     82  O   UNL A   1      47.336  28.325  21.948  1.00  0.00    -0.237 OA
ATOM     83  O   UNL A   1      49.800  28.403  22.003  1.00  0.00    -0.744 OA
ENDBRANCH  76  80
ENDBRANCH  49  73
BRANCH  61  84
ATOM     84  C   UNL A   1      45.408  33.556  29.211  1.00  0.00     0.023 A 
ATOM     85  C   UNL A   1      45.320  34.630  28.306  1.00  0.00     0.031 A 
ATOM     86  C   UNL A   1      46.217  33.718  30.351  1.00  0.00     0.131 A 
ATOM     87  C   UNL A   1      46.071  35.795  28.528  1.00  0.00     0.055 A 
ATOM     88  C   UNL A   1      46.913  34.903  30.598  1.00  0.00     0.041 A 
ATOM     89  F   UNL A   1      46.340  32.727  31.249  1.00  0.00    -0.206 F 
ATOM     90  C   UNL A   1      46.854  35.944  29.677  1.00  0.00     0.022 A 
BRANCH  87  91
ATOM     91  S   UNL A   1      46.084  37.081  27.250  1.00  0.00     0.124 S 
ATOM     92  O   UNL A   1      47.055  38.029  27.784  1.00  0.00    -0.237 OA
ATOM     93  O   UNL A   1      46.502  36.340  26.065  1.00  0.00    -0.237 OA
ATOM     94  O   UNL A   1      44.701  37.556  27.226  1.00  0.00    -0.744 OA
ENDBRANCH  87  91
ENDBRANCH  61  84
ENDBRANCH  35  36
ENDBRANCH  28  30
ENDBRANCH  27  28
ENDBRANCH  26  27
ENDBRANCH  25  26
ENDBRANCH   1  25
TORSDOF 20
ENDMDL
MODEL 3
REMARK VINA RESULT:     -11.3      1.989      2.243
REMARK SMILES Cc1cc(C(=O)Nc2ccn(C)n2)sc1/C=C/C(=O)OCCOCCOC(=O)c1ccc(-c2c3nc(c(-c4cc(S(=O)(=O)[O-])ccc4F)c4ccc([nH]4)c(-c4cc(S(=O)(=O)[O-])ccc4F)c4nc(c(-c5cc(S(=O)(=O)[O-])ccc5F)c5ccc2[nH]5)C=C4)C=C3)cc1
REMARK SMILES IDX 23 1 22 2 21 3 20 4 18 5 19 6 17 7 16 8 15 9 1 10 2 11 3 12
REMARK SMILES IDX 4 13 14 14 5 15 6 16 7 17 8 19 9 20 13 21 10 22 11 23 12 24
REMARK SMILES IDX 24 25 25 26 26 27 27 28 28 29 29 30 30 31 91 32 31 33 90 34
REMARK SMILES IDX 32 35 33 36 34 37 84 38 35 39 89 40 83 41 85 42 36 43 88 44
REMARK SMILES IDX 82 45 81 46 37 48 69 49 49 50 68 51 50 52 53 53 67 54 86 55
REMARK SMILES IDX 51 56 52 57 66 59 87 60 54 61 38 62 39 63 47 64 40 65 46 66
REMARK SMILES IDX 48 67 45 68 41 69 42 70 43 71 44 72 70 73 71 74 79 75 72 76
REMARK SMILES IDX 78 77 80 78 77 79 73 80 74 81 75 82 76 83 55 84 56 85 64 86
REMARK SMILES IDX 57 87 63 88 65 89 62 90 58 91 59 92 60 93 61 94
REMARK H PARENT 7 18 85 47 53 58
REMARK Flexibility Score: inf
ROOT
ATOM      1  O   UNL A   1      34.197  19.935  25.313  1.00  0.00    -0.374 OA
ENDROOT
BRANCH   1   2
ATOM      2  C   UNL A   1      32.841  20.330  25.102  1.00  0.00     0.202 C 
BRANCH   2   3
ATOM      3  C   UNL A   1      32.460  21.702  25.664  1.00  0.00     0.261 C 
BRANCH   3   4
ATOM      4  O   UNL A   1      31.035  21.842  25.809  1.00  0.00    -0.460 OA
BRANCH   4   5
ATOM      5  C   UNL A   1      30.644  22.837  26.636  1.00  0.00     0.330 C 
ATOM      6  O   UNL A   1      30.030  22.716  27.687  1.00  0.00    -0.247 OA
BRANCH   5   7
ATOM      7  C   UNL A   1      31.140  24.158  26.208  1.00  0.00     0.095 C 
ATOM      8  C   UNL A   1      30.460  25.113  25.549  1.00  0.00     0.027 C 
BRANCH   8   9
ATOM      9  C   UNL A   1      31.076  26.348  25.138  1.00  0.00     0.031 A 
ATOM     10  C   UNL A   1      31.431  27.568  27.386  1.00  0.00     0.046 C 
ATOM     11  C   UNL A   1      31.437  27.465  25.892  1.00  0.00    -0.032 A 
ATOM     12  C   UNL A   1      31.825  28.572  25.049  1.00  0.00     0.029 A 
ATOM     13  C   UNL A   1      31.810  28.271  23.701  1.00  0.00     0.093 A 
ATOM     14  S   UNL A   1      31.590  26.593  23.508  1.00  0.00    -0.130 S 
BRANCH  13  15
ATOM     15  C   UNL A   1      32.167  29.151  22.586  1.00  0.00     0.266 C 
ATOM     16  O   UNL A   1      33.347  29.379  22.302  1.00  0.00    -0.268 OA
ATOM     17  N   UNL A   1      31.204  29.672  21.750  1.00  0.00    -0.304 N 
ATOM     18  H   UNL A   1      31.509  29.882  20.837  1.00  0.00     0.171 HD
BRANCH  17  19
ATOM     19  C   UNL A   1      29.884  29.942  22.001  1.00  0.00     0.154 A 
ATOM     20  C   UNL A   1      29.231  31.192  22.119  1.00  0.00     0.068 A 
ATOM     21  N   UNL A   1      29.022  28.932  22.147  1.00  0.00    -0.155 NA
ATOM     22  C   UNL A   1      27.944  30.890  22.500  1.00  0.00     0.110 A 
ATOM     23  N   UNL A   1      27.903  29.531  22.595  1.00  0.00    -0.274 N 
ATOM     24  C   UNL A   1      26.860  28.736  23.195  1.00  0.00     0.173 C 
ENDBRANCH  17  19
ENDBRANCH  13  15
ENDBRANCH   8   9
ENDBRANCH   5   7
ENDBRANCH   4   5
ENDBRANCH   3   4
ENDBRANCH   2   3
ENDBRANCH   1   2
BRANCH   1  25
ATOM     25  C   UNL A   1      35.201  20.889  24.961  1.00  0.00     0.202 C 
BRANCH  25  26
ATOM     26  C   UNL A   1      36.651  20.387  25.019  1.00  0.00     0.261 C 
BRANCH  26  27
ATOM     27  O   UNL A   1      37.589  21.474  25.134  1.00  0.00    -0.460 OA
BRANCH  27  28
ATOM     28  C   UNL A   1      38.732  21.178  25.798  1.00  0.00     0.338 C 
ATOM     29  O   UNL A   1      39.346  20.117  25.761  1.00  0.00    -0.246 OA
BRANCH  28  30
ATOM     30  C   UNL A   1      39.270  22.390  26.444  1.00  0.00     0.060 A 
ATOM     31  C   UNL A   1      38.656  23.612  26.143  1.00  0.00     0.016 A 
ATOM     32  C   UNL A   1      40.383  22.347  27.288  1.00  0.00     0.016 A 
ATOM     33  C   UNL A   1      39.177  24.801  26.649  1.00  0.00     0.010 A 
ATOM     34  C   UNL A   1      40.909  23.543  27.790  1.00  0.00     0.010 A 
ATOM     35  C   UNL A   1      40.329  24.778  27.447  1.00  0.00    -0.014 A 
BRANCH  35  36
ATOM     36  C   UNL A   1      41.003  26.053  27.801  1.00  0.00     0.031 A 
ATOM     37  C   UNL A   1      42.435  26.260  27.382  1.00  0.00     0.074 A 
ATOM     38  C   UNL A   1      40.345  27.024  28.458  1.00  0.00     0.049 A 
ATOM     39  N   UNL A   1      43.233  27.269  27.616  1.00  0.00    -0.248 NA
ATOM     40  C   UNL A   1      43.046  25.176  26.597  1.00  0.00     0.031 C 
ATOM     41  C   UNL A   1      38.944  26.958  28.876  1.00  0.00     0.029 A 
ATOM     42  N   UNL A   1      40.768  28.254  28.895  1.00  0.00    -0.354 N 
ATOM     43  C   UNL A   1      44.441  26.944  27.010  1.00  0.00     0.074 A 
ATOM     44  C   UNL A   1      44.281  25.626  26.435  1.00  0.00     0.031 C 
ATOM     45  C   UNL A   1      38.628  28.095  29.518  1.00  0.00     0.029 A 
ATOM     46  C   UNL A   1      39.810  28.952  29.592  1.00  0.00     0.049 A 
ATOM     47  H   UNL A   1      41.672  28.604  28.725  1.00  0.00     0.167 HD
ATOM     48  C   UNL A   1      45.578  27.682  26.931  1.00  0.00     0.034 A 
ATOM     49  C   UNL A   1      39.887  30.134  30.238  1.00  0.00     0.034 A 
ATOM     50  C   UNL A   1      45.727  28.990  27.522  1.00  0.00     0.049 A 
ATOM     51  C   UNL A   1      41.189  30.899  30.215  1.00  0.00     0.074 A 
ATOM     52  C   UNL A   1      46.828  29.830  27.494  1.00  0.00     0.029 A 
ATOM     53  N   UNL A   1      44.749  29.646  28.260  1.00  0.00    -0.354 N 
ATOM     54  N   UNL A   1      42.323  30.585  29.632  1.00  0.00    -0.248 NA
ATOM     55  C   UNL A   1      41.215  32.183  30.928  1.00  0.00     0.031 C 
ATOM     56  C   UNL A   1      46.542  30.956  28.273  1.00  0.00     0.029 A 
ATOM     57  C   UNL A   1      45.234  30.861  28.721  1.00  0.00     0.049 A 
ATOM     58  H   UNL A   1      43.844  29.300  28.431  1.00  0.00     0.167 HD
ATOM     59  C   UNL A   1      43.188  31.648  29.885  1.00  0.00     0.074 A 
ATOM     60  C   UNL A   1      42.439  32.615  30.660  1.00  0.00     0.031 C 
ATOM     61  C   UNL A   1      44.480  31.814  29.504  1.00  0.00     0.034 A 
BRANCH  48  62
ATOM     62  C   UNL A   1      46.758  27.061  26.226  1.00  0.00     0.023 A 
ATOM     63  C   UNL A   1      47.763  26.372  26.928  1.00  0.00     0.031 A 
ATOM     64  C   UNL A   1      46.900  27.188  24.832  1.00  0.00     0.131 A 
ATOM     65  C   UNL A   1      48.897  25.902  26.247  1.00  0.00     0.055 A 
ATOM     66  C   UNL A   1      47.991  26.647  24.149  1.00  0.00     0.041 A 
ATOM     67  F   UNL A   1      45.985  27.854  24.111  1.00  0.00    -0.206 F 
ATOM     68  C   UNL A   1      49.005  26.012  24.859  1.00  0.00     0.022 A 
BRANCH  65  69
ATOM     69  S   UNL A   1      50.294  25.274  27.218  1.00  0.00     0.124 S 
ATOM     70  O   UNL A   1      51.239  24.899  26.167  1.00  0.00    -0.237 OA
ATOM     71  O   UNL A   1      50.663  26.430  28.025  1.00  0.00    -0.237 OA
ATOM     72  O   UNL A   1      49.722  24.152  27.959  1.00  0.00    -0.744 OA
ENDBRANCH  65  69
ENDBRANCH  48  62
BRANCH  49  73
ATOM     73  C   UNL A   1      38.716  30.654  31.001  1.00  0.00     0.023 A 
ATOM     74  C   UNL A   1      37.734  31.444  30.382  1.00  0.00     0.031 A 
ATOM     75  C   UNL A   1      38.592  30.412  32.382  1.00  0.00     0.131 A 
ATOM     76  C   UNL A   1      36.698  32.001  31.149  1.00  0.00     0.055 A 
ATOM     77  C   UNL A   1      37.532  30.925  33.131  1.00  0.00     0.041 A 
ATOM     78  F   UNL A   1      39.504  29.663  33.024  1.00  0.00    -0.206 F 
ATOM     79  C   UNL A   1      36.584  31.736  32.516  1.00  0.00     0.022 A 
BRANCH  76  80
ATOM     80  S   UNL A   1      35.546  33.150  30.350  1.00  0.00     0.124 S 
ATOM     81  O   UNL A   1      36.441  33.922  29.496  1.00  0.00    -0.237 OA
ATOM     82  O   UNL A   1      34.635  32.237  29.666  1.00  0.00    -0.237 OA
ATOM     83  O   UNL A   1      34.964  33.884  31.472  1.00  0.00    -0.744 OA
ENDBRANCH  76  80
ENDBRANCH  49  73
BRANCH  61  84
ATOM     84  C   UNL A   1      45.149  33.113  29.884  1.00  0.00     0.023 A 
ATOM     85  C   UNL A   1      45.767  33.294  31.134  1.00  0.00     0.031 A 
ATOM     86  C   UNL A   1      45.159  34.192  28.980  1.00  0.00     0.131 A 
ATOM     87  C   UNL A   1      46.321  34.540  31.467  1.00  0.00     0.055 A 
ATOM     88  C   UNL A   1      45.765  35.410  29.293  1.00  0.00     0.041 A 
ATOM     89  F   UNL A   1      44.582  34.077  27.773  1.00  0.00    -0.206 F 
ATOM     90  C   UNL A   1      46.338  35.594  30.547  1.00  0.00     0.022 A 
BRANCH  87  91
ATOM     91  S   UNL A   1      46.940  34.799  33.152  1.00  0.00     0.124 S 
ATOM     92  O   UNL A   1      47.393  33.460  33.516  1.00  0.00    -0.237 OA
ATOM     93  O   UNL A   1      47.989  35.793  32.950  1.00  0.00    -0.237 OA
ATOM     94  O   UNL A   1      45.766  35.276  33.880  1.00  0.00    -0.744 OA
ENDBRANCH  87  91
ENDBRANCH  61  84
ENDBRANCH  35  36
ENDBRANCH  28  30
ENDBRANCH  27  28
ENDBRANCH  26  27
ENDBRANCH  25  26
ENDBRANCH   1  25
TORSDOF 20
ENDMDL
