MODEL 1
REMARK VINA RESULT:     -11.6      0.000      0.000
REMARK SMILES Cc1ccc(C)c(-n2nc(C)c(/C=C(/C#N)C(=O)OCCOCCOC(=O)c3ccc(-c4c5nc(c(-c6cc(S(=O)(=O)[O-])ccc6F)c6ccc([nH]6)c(-c6cc(S(=O)(=O)[O-])ccc6F)c6nc(c(-c7cc(S(=O)(=O)[O-])ccc7F)c7ccc4[nH]7)C=C6)C=C5)cc3)c2Cl)c1
REMARK SMILES IDX 23 1 22 2 21 3 20 4 19 5 17 6 18 7 14 8 13 9 12 10 8 11 9 12
REMARK SMILES IDX 91 13 10 14 92 15 11 16 7 17 1 18 2 19 3 20 93 21 4 22 5 23
REMARK SMILES IDX 6 24 15 25 16 26 24 27 25 28 26 29 27 30 28 31 29 32 90 33
REMARK SMILES IDX 30 34 89 35 31 36 32 37 33 38 83 39 34 40 88 41 82 42 84 43
REMARK SMILES IDX 35 44 87 45 81 46 80 47 36 49 68 50 48 51 67 52 49 53 52 54
REMARK SMILES IDX 66 55 85 56 50 57 51 58 65 60 86 61 53 62 37 63 38 64 46 65
REMARK SMILES IDX 39 66 45 67 47 68 44 69 40 70 41 71 42 72 43 73 69 74 70 75
REMARK SMILES IDX 78 76 71 77 77 78 79 79 76 80 72 81 73 82 74 83 75 84 54 85
REMARK SMILES IDX 55 86 63 87 56 88 62 89 64 90 61 91 57 92 58 93 59 94 60 95
REMARK H PARENT 84 48 52 59
REMARK Flexibility Score: inf
ROOT
ATOM      1  C   UNL A   1      39.126  23.050  26.841  1.00  0.00     0.202 C 
ENDROOT
BRANCH   1   2
ATOM      2  O   UNL A   1      38.359  22.530  25.787  1.00  0.00    -0.374 OA
BRANCH   2   3
ATOM      3  C   UNL A   1      37.338  23.261  25.178  1.00  0.00     0.202 C 
BRANCH   3   4
ATOM      4  C   UNL A   1      36.156  23.157  26.131  1.00  0.00     0.261 C 
BRANCH   4   5
ATOM      5  O   UNL A   1      35.554  21.847  26.140  1.00  0.00    -0.459 OA
BRANCH   5   6
ATOM      6  C   UNL A   1      34.356  21.530  26.724  1.00  0.00     0.348 C 
ATOM      7  O   UNL A   1      34.051  21.559  27.879  1.00  0.00    -0.245 OA
BRANCH   6   8
ATOM      8  C   UNL A   1      33.343  21.313  25.705  1.00  0.00     0.138 C 
ATOM      9  C   UNL A   1      32.398  22.148  25.181  1.00  0.00     0.040 C 
BRANCH   9  10
ATOM     10  C   UNL A   1      31.733  23.404  25.566  1.00  0.00     0.037 A 
ATOM     11  N   UNL A   1      31.203  25.608  25.603  1.00  0.00    -0.221 N 
ATOM     12  N   UNL A   1      30.189  25.003  26.213  1.00  0.00    -0.171 NA
ATOM     13  C   UNL A   1      32.202  24.697  25.315  1.00  0.00     0.140 A 
ATOM     14  C   UNL A   1      30.577  23.736  26.318  1.00  0.00     0.069 A 
ATOM     15  Cl  UNL A   1      33.776  25.288  25.018  1.00  0.00    -0.061 Cl
ATOM     16  C   UNL A   1      29.730  22.984  27.212  1.00  0.00     0.069 C 
BRANCH  11  17
ATOM     17  C   UNL A   1      31.122  27.017  25.523  1.00  0.00     0.069 A 
ATOM     18  C   UNL A   1      32.717  29.970  27.339  1.00  0.00     0.044 C 
ATOM     19  C   UNL A   1      31.951  29.150  26.339  1.00  0.00    -0.049 A 
ATOM     20  C   UNL A   1      31.445  29.770  25.191  1.00  0.00     0.004 A 
ATOM     21  C   UNL A   1      31.761  27.772  26.522  1.00  0.00     0.032 A 
ATOM     22  C   UNL A   1      30.824  29.018  24.194  1.00  0.00     0.006 A 
ATOM     23  C   UNL A   1      30.692  27.628  24.322  1.00  0.00    -0.025 A 
ATOM     24  C   UNL A   1      30.095  26.886  23.153  1.00  0.00     0.047 C 
ENDBRANCH  11  17
ENDBRANCH   9  10
BRANCH   8  25
ATOM     25  C   UNL A   1      33.743  20.018  25.014  1.00  0.00     0.107 C 
ATOM     26  N   UNL A   1      34.074  18.944  24.441  1.00  0.00    -0.192 NA
ENDBRANCH   8  25
ENDBRANCH   6   8
ENDBRANCH   5   6
ENDBRANCH   4   5
ENDBRANCH   3   4
ENDBRANCH   2   3
ENDBRANCH   1   2
BRANCH   1  27
ATOM     27  C   UNL A   1      39.523  24.427  26.364  1.00  0.00     0.261 C 
BRANCH  27  28
ATOM     28  O   UNL A   1      39.109  25.393  27.393  1.00  0.00    -0.460 OA
BRANCH  28  29
ATOM     29  C   UNL A   1      39.972  26.446  27.640  1.00  0.00     0.338 C 
ATOM     30  O   UNL A   1      40.711  26.921  26.789  1.00  0.00    -0.246 OA
BRANCH  29  31
ATOM     31  C   UNL A   1      40.039  26.799  29.120  1.00  0.00     0.060 A 
ATOM     32  C   UNL A   1      38.975  26.553  30.015  1.00  0.00     0.016 A 
ATOM     33  C   UNL A   1      41.044  27.594  29.605  1.00  0.00     0.016 A 
ATOM     34  C   UNL A   1      38.711  27.414  31.159  1.00  0.00     0.010 A 
ATOM     35  C   UNL A   1      40.825  28.312  30.802  1.00  0.00     0.010 A 
ATOM     36  C   UNL A   1      39.550  28.480  31.450  1.00  0.00    -0.014 A 
BRANCH  36  37
ATOM     37  C   UNL A   1      39.340  29.855  32.291  1.00  0.00     0.031 A 
ATOM     38  C   UNL A   1      38.434  30.653  31.436  1.00  0.00     0.074 A 
ATOM     39  C   UNL A   1      39.666  30.465  33.521  1.00  0.00     0.049 A 
ATOM     40  N   UNL A   1      38.884  31.221  30.353  1.00  0.00    -0.248 NA
ATOM     41  C   UNL A   1      36.968  30.527  31.461  1.00  0.00     0.031 C 
ATOM     42  C   UNL A   1      40.755  30.256  34.491  1.00  0.00     0.029 A 
ATOM     43  N   UNL A   1      38.921  31.436  34.281  1.00  0.00    -0.354 N 
ATOM     44  C   UNL A   1      37.751  31.793  29.833  1.00  0.00     0.074 A 
ATOM     45  C   UNL A   1      36.696  30.904  30.205  1.00  0.00     0.031 C 
ATOM     46  C   UNL A   1      40.490  30.796  35.720  1.00  0.00     0.029 A 
ATOM     47  C   UNL A   1      39.218  31.534  35.719  1.00  0.00     0.049 A 
ATOM     48  H   UNL A   1      38.243  32.010  33.855  1.00  0.00     0.167 HD
ATOM     49  C   UNL A   1      37.645  33.149  29.766  1.00  0.00     0.034 A 
ATOM     50  C   UNL A   1      39.007  32.544  36.681  1.00  0.00     0.034 A 
ATOM     51  C   UNL A   1      38.930  33.786  30.020  1.00  0.00     0.049 A 
ATOM     52  C   UNL A   1      39.013  33.808  35.931  1.00  0.00     0.074 A 
ATOM     53  C   UNL A   1      40.212  33.575  29.544  1.00  0.00     0.029 A 
ATOM     54  N   UNL A   1      39.082  34.502  31.190  1.00  0.00    -0.354 N 
ATOM     55  N   UNL A   1      40.104  34.307  35.433  1.00  0.00    -0.248 NA
ATOM     56  C   UNL A   1      37.773  34.179  35.276  1.00  0.00     0.031 C 
ATOM     57  C   UNL A   1      41.069  33.753  30.664  1.00  0.00     0.029 A 
ATOM     58  C   UNL A   1      40.321  34.241  31.732  1.00  0.00     0.049 A 
ATOM     59  H   UNL A   1      38.408  35.107  31.577  1.00  0.00     0.167 HD
ATOM     60  C   UNL A   1      39.757  34.572  34.125  1.00  0.00     0.074 A 
ATOM     61  C   UNL A   1      38.289  34.568  34.108  1.00  0.00     0.031 C 
ATOM     62  C   UNL A   1      40.677  34.436  33.128  1.00  0.00     0.034 A 
BRANCH  49  63
ATOM     63  C   UNL A   1      36.329  33.881  29.869  1.00  0.00     0.023 A 
ATOM     64  C   UNL A   1      35.884  34.128  31.168  1.00  0.00     0.031 A 
ATOM     65  C   UNL A   1      35.413  34.199  28.831  1.00  0.00     0.131 A 
ATOM     66  C   UNL A   1      34.587  34.606  31.398  1.00  0.00     0.055 A 
ATOM     67  C   UNL A   1      34.154  34.750  29.062  1.00  0.00     0.041 A 
ATOM     68  F   UNL A   1      35.621  33.930  27.539  1.00  0.00    -0.206 F 
ATOM     69  C   UNL A   1      33.722  34.935  30.357  1.00  0.00     0.022 A 
BRANCH  66  70
ATOM     70  S   UNL A   1      34.013  34.649  33.104  1.00  0.00     0.124 S 
ATOM     71  O   UNL A   1      32.566  34.677  32.919  1.00  0.00    -0.237 OA
ATOM     72  O   UNL A   1      34.571  33.410  33.636  1.00  0.00    -0.237 OA
ATOM     73  O   UNL A   1      34.604  35.878  33.626  1.00  0.00    -0.744 OA
ENDBRANCH  66  70
ENDBRANCH  49  63
BRANCH  50  74
ATOM     74  C   UNL A   1      38.392  32.573  38.116  1.00  0.00     0.023 A 
ATOM     75  C   UNL A   1      38.636  33.560  39.141  1.00  0.00     0.031 A 
ATOM     76  C   UNL A   1      37.398  31.656  38.463  1.00  0.00     0.131 A 
ATOM     77  C   UNL A   1      37.842  33.623  40.344  1.00  0.00     0.055 A 
ATOM     78  C   UNL A   1      36.591  31.747  39.615  1.00  0.00     0.041 A 
ATOM     79  F   UNL A   1      37.180  30.613  37.670  1.00  0.00    -0.206 F 
ATOM     80  C   UNL A   1      36.781  32.750  40.541  1.00  0.00     0.022 A 
BRANCH  77  81
ATOM     81  S   UNL A   1      38.121  34.835  41.705  1.00  0.00     0.124 S 
ATOM     82  O   UNL A   1      38.191  36.102  40.986  1.00  0.00    -0.237 OA
ATOM     83  O   UNL A   1      36.961  34.635  42.565  1.00  0.00    -0.237 OA
ATOM     84  O   UNL A   1      39.392  34.407  42.297  1.00  0.00    -0.744 OA
ENDBRANCH  77  81
ENDBRANCH  50  74
BRANCH  62  85
ATOM     85  C   UNL A   1      42.158  34.319  33.497  1.00  0.00     0.023 A 
ATOM     86  C   UNL A   1      42.928  33.132  33.510  1.00  0.00     0.031 A 
ATOM     87  C   UNL A   1      42.852  35.520  33.716  1.00  0.00     0.131 A 
ATOM     88  C   UNL A   1      44.329  33.178  33.691  1.00  0.00     0.055 A 
ATOM     89  C   UNL A   1      44.237  35.569  33.882  1.00  0.00     0.041 A 
ATOM     90  F   UNL A   1      42.191  36.689  33.729  1.00  0.00    -0.206 F 
ATOM     91  C   UNL A   1      44.984  34.397  33.866  1.00  0.00     0.022 A 
BRANCH  88  92
ATOM     92  S   UNL A   1      45.327  31.650  33.703  1.00  0.00     0.124 S 
ATOM     93  O   UNL A   1      44.323  30.595  33.744  1.00  0.00    -0.237 OA
ATOM     94  O   UNL A   1      46.082  31.763  32.458  1.00  0.00    -0.237 OA
ATOM     95  O   UNL A   1      46.132  31.780  34.919  1.00  0.00    -0.744 OA
ENDBRANCH  88  92
ENDBRANCH  62  85
ENDBRANCH  36  37
ENDBRANCH  29  31
ENDBRANCH  28  29
ENDBRANCH  27  28
ENDBRANCH   1  27
TORSDOF 20
ENDMDL
MODEL 2
REMARK VINA RESULT:     -10.9      2.939      3.934
REMARK SMILES Cc1ccc(C)c(-n2nc(C)c(/C=C(/C#N)C(=O)OCCOCCOC(=O)c3ccc(-c4c5nc(c(-c6cc(S(=O)(=O)[O-])ccc6F)c6ccc([nH]6)c(-c6cc(S(=O)(=O)[O-])ccc6F)c6nc(c(-c7cc(S(=O)(=O)[O-])ccc7F)c7ccc4[nH]7)C=C6)C=C5)cc3)c2Cl)c1
REMARK SMILES IDX 23 1 22 2 21 3 20 4 19 5 17 6 18 7 14 8 13 9 12 10 8 11 9 12
REMARK SMILES IDX 91 13 10 14 92 15 11 16 7 17 1 18 2 19 3 20 93 21 4 22 5 23
REMARK SMILES IDX 6 24 15 25 16 26 24 27 25 28 26 29 27 30 28 31 29 32 90 33
REMARK SMILES IDX 30 34 89 35 31 36 32 37 33 38 83 39 34 40 88 41 82 42 84 43
REMARK SMILES IDX 35 44 87 45 81 46 80 47 36 49 68 50 48 51 67 52 49 53 52 54
REMARK SMILES IDX 66 55 85 56 50 57 51 58 65 60 86 61 53 62 37 63 38 64 46 65
REMARK SMILES IDX 39 66 45 67 47 68 44 69 40 70 41 71 42 72 43 73 69 74 70 75
REMARK SMILES IDX 78 76 71 77 77 78 79 79 76 80 72 81 73 82 74 83 75 84 54 85
REMARK SMILES IDX 55 86 63 87 56 88 62 89 64 90 61 91 57 92 58 93 59 94 60 95
REMARK H PARENT 84 48 52 59
REMARK Flexibility Score: inf
ROOT
ATOM      1  C   UNL A   1      39.140  22.004  26.196  1.00  0.00     0.202 C 
ENDROOT
BRANCH   1   2
ATOM      2  O   UNL A   1      38.181  21.548  25.277  1.00  0.00    -0.374 OA
BRANCH   2   3
ATOM      3  C   UNL A   1      37.046  22.294  24.955  1.00  0.00     0.202 C 
BRANCH   3   4
ATOM      4  C   UNL A   1      35.880  21.509  25.537  1.00  0.00     0.261 C 
BRANCH   4   5
ATOM      5  O   UNL A   1      34.684  21.603  24.737  1.00  0.00    -0.459 OA
BRANCH   5   6
ATOM      6  C   UNL A   1      33.588  20.788  24.853  1.00  0.00     0.348 C 
ATOM      7  O   UNL A   1      33.256  20.099  25.770  1.00  0.00    -0.245 OA
BRANCH   6   8
ATOM      8  C   UNL A   1      32.688  20.997  23.731  1.00  0.00     0.138 C 
ATOM      9  C   UNL A   1      32.364  22.126  23.034  1.00  0.00     0.040 C 
BRANCH   9  10
ATOM     10  C   UNL A   1      32.433  23.582  23.242  1.00  0.00     0.037 A 
ATOM     11  N   UNL A   1      32.500  25.579  24.314  1.00  0.00    -0.221 N 
ATOM     12  N   UNL A   1      32.937  25.836  23.086  1.00  0.00    -0.171 NA
ATOM     13  C   UNL A   1      32.071  24.268  24.405  1.00  0.00     0.140 A 
ATOM     14  C   UNL A   1      32.754  24.697  22.426  1.00  0.00     0.069 A 
ATOM     15  Cl  UNL A   1      31.015  23.849  25.680  1.00  0.00    -0.061 Cl
ATOM     16  C   UNL A   1      32.902  24.868  21.001  1.00  0.00     0.069 C 
BRANCH  11  17
ATOM     17  C   UNL A   1      32.419  26.690  25.185  1.00  0.00     0.069 A 
ATOM     18  C   UNL A   1      34.892  28.824  27.157  1.00  0.00     0.044 C 
ATOM     19  C   UNL A   1      33.631  28.328  26.508  1.00  0.00    -0.049 A 
ATOM     20  C   UNL A   1      32.490  29.139  26.523  1.00  0.00     0.004 A 
ATOM     21  C   UNL A   1      33.585  27.082  25.863  1.00  0.00     0.032 A 
ATOM     22  C   UNL A   1      31.338  28.755  25.838  1.00  0.00     0.006 A 
ATOM     23  C   UNL A   1      31.297  27.550  25.123  1.00  0.00    -0.025 A 
ATOM     24  C   UNL A   1      30.045  27.264  24.333  1.00  0.00     0.047 C 
ENDBRANCH  11  17
ENDBRANCH   9  10
BRANCH   8  25
ATOM     25  C   UNL A   1      32.394  19.606  23.190  1.00  0.00     0.107 C 
ATOM     26  N   UNL A   1      32.151  18.454  22.741  1.00  0.00    -0.192 NA
ENDBRANCH   8  25
ENDBRANCH   6   8
ENDBRANCH   5   6
ENDBRANCH   4   5
ENDBRANCH   3   4
ENDBRANCH   2   3
ENDBRANCH   1   2
BRANCH   1  27
ATOM     27  C   UNL A   1      38.820  23.470  26.367  1.00  0.00     0.261 C 
BRANCH  27  28
ATOM     28  O   UNL A   1      39.307  23.882  27.692  1.00  0.00    -0.460 OA
BRANCH  28  29
ATOM     29  C   UNL A   1      40.137  24.987  27.733  1.00  0.00     0.338 C 
ATOM     30  O   UNL A   1      41.330  24.939  27.471  1.00  0.00    -0.246 OA
BRANCH  29  31
ATOM     31  C   UNL A   1      39.445  26.205  28.333  1.00  0.00     0.060 A 
ATOM     32  C   UNL A   1      39.225  27.394  27.606  1.00  0.00     0.016 A 
ATOM     33  C   UNL A   1      39.220  26.288  29.682  1.00  0.00     0.016 A 
ATOM     34  C   UNL A   1      39.219  28.702  28.246  1.00  0.00     0.010 A 
ATOM     35  C   UNL A   1      39.068  27.565  30.267  1.00  0.00     0.010 A 
ATOM     36  C   UNL A   1      39.364  28.817  29.621  1.00  0.00    -0.014 A 
BRANCH  36  37
ATOM     37  C   UNL A   1      39.854  30.032  30.583  1.00  0.00     0.031 A 
ATOM     38  C   UNL A   1      38.610  30.782  30.862  1.00  0.00     0.074 A 
ATOM     39  C   UNL A   1      40.995  30.531  31.247  1.00  0.00     0.049 A 
ATOM     40  N   UNL A   1      38.078  31.537  29.944  1.00  0.00    -0.248 NA
ATOM     41  C   UNL A   1      37.673  30.432  31.943  1.00  0.00     0.031 C 
ATOM     42  C   UNL A   1      42.442  30.374  31.019  1.00  0.00     0.029 A 
ATOM     43  N   UNL A   1      41.078  31.279  32.475  1.00  0.00    -0.354 N 
ATOM     44  C   UNL A   1      36.941  31.991  30.563  1.00  0.00     0.074 A 
ATOM     45  C   UNL A   1      36.541  30.913  31.412  1.00  0.00     0.031 C 
ATOM     46  C   UNL A   1      43.197  30.714  32.108  1.00  0.00     0.029 A 
ATOM     47  C   UNL A   1      42.361  31.246  33.196  1.00  0.00     0.049 A 
ATOM     48  H   UNL A   1      40.309  31.790  32.817  1.00  0.00     0.167 HD
ATOM     49  C   UNL A   1      36.811  33.312  30.862  1.00  0.00     0.034 A 
ATOM     50  C   UNL A   1      42.945  32.088  34.165  1.00  0.00     0.034 A 
ATOM     51  C   UNL A   1      37.837  34.102  30.193  1.00  0.00     0.049 A 
ATOM     52  C   UNL A   1      42.372  33.420  33.924  1.00  0.00     0.074 A 
ATOM     53  C   UNL A   1      38.314  34.146  28.895  1.00  0.00     0.029 A 
ATOM     54  N   UNL A   1      38.818  34.685  30.969  1.00  0.00    -0.354 N 
ATOM     55  N   UNL A   1      42.702  34.135  32.892  1.00  0.00    -0.248 NA
ATOM     56  C   UNL A   1      41.064  33.675  34.497  1.00  0.00     0.031 C 
ATOM     57  C   UNL A   1      39.720  34.314  29.011  1.00  0.00     0.029 A 
ATOM     58  C   UNL A   1      40.039  34.551  30.346  1.00  0.00     0.049 A 
ATOM     59  H   UNL A   1      38.668  35.129  31.835  1.00  0.00     0.167 HD
ATOM     60  C   UNL A   1      41.482  34.501  32.363  1.00  0.00     0.074 A 
ATOM     61  C   UNL A   1      40.512  34.277  33.441  1.00  0.00     0.031 C 
ATOM     62  C   UNL A   1      41.327  34.627  31.014  1.00  0.00     0.034 A 
BRANCH  49  63
ATOM     63  C   UNL A   1      36.026  33.819  32.046  1.00  0.00     0.023 A 
ATOM     64  C   UNL A   1      34.848  34.498  31.735  1.00  0.00     0.031 A 
ATOM     65  C   UNL A   1      36.408  33.842  33.415  1.00  0.00     0.131 A 
ATOM     66  C   UNL A   1      34.143  35.195  32.725  1.00  0.00     0.055 A 
ATOM     67  C   UNL A   1      35.661  34.469  34.409  1.00  0.00     0.041 A 
ATOM     68  F   UNL A   1      37.556  33.342  33.881  1.00  0.00    -0.206 F 
ATOM     69  C   UNL A   1      34.529  35.175  34.063  1.00  0.00     0.022 A 
BRANCH  66  70
ATOM     70  S   UNL A   1      32.787  36.250  32.187  1.00  0.00     0.124 S 
ATOM     71  O   UNL A   1      33.104  36.428  30.774  1.00  0.00    -0.237 OA
ATOM     72  O   UNL A   1      31.626  35.419  32.488  1.00  0.00    -0.237 OA
ATOM     73  O   UNL A   1      32.938  37.440  33.019  1.00  0.00    -0.744 OA
ENDBRANCH  66  70
ENDBRANCH  49  63
BRANCH  50  74
ATOM     74  C   UNL A   1      43.632  31.850  35.547  1.00  0.00     0.023 A 
ATOM     75  C   UNL A   1      43.092  32.171  36.846  1.00  0.00     0.031 A 
ATOM     76  C   UNL A   1      44.831  31.139  35.612  1.00  0.00     0.131 A 
ATOM     77  C   UNL A   1      43.703  31.700  38.065  1.00  0.00     0.055 A 
ATOM     78  C   UNL A   1      45.402  30.638  36.799  1.00  0.00     0.041 A 
ATOM     79  F   UNL A   1      45.504  30.909  34.491  1.00  0.00    -0.206 F 
ATOM     80  C   UNL A   1      44.823  30.880  38.026  1.00  0.00     0.022 A 
BRANCH  77  81
ATOM     81  S   UNL A   1      43.085  32.100  39.756  1.00  0.00     0.124 S 
ATOM     82  O   UNL A   1      41.644  31.928  39.610  1.00  0.00    -0.237 OA
ATOM     83  O   UNL A   1      43.777  31.130  40.596  1.00  0.00    -0.237 OA
ATOM     84  O   UNL A   1      43.509  33.487  39.961  1.00  0.00    -0.744 OA
ENDBRANCH  77  81
ENDBRANCH  50  74
BRANCH  62  85
ATOM     85  C   UNL A   1      42.574  34.692  30.127  1.00  0.00     0.023 A 
ATOM     86  C   UNL A   1      43.068  33.658  29.297  1.00  0.00     0.031 A 
ATOM     87  C   UNL A   1      43.215  35.937  30.027  1.00  0.00     0.131 A 
ATOM     88  C   UNL A   1      44.122  33.900  28.387  1.00  0.00     0.055 A 
ATOM     89  C   UNL A   1      44.249  36.181  29.121  1.00  0.00     0.041 A 
ATOM     90  F   UNL A   1      42.813  36.967  30.790  1.00  0.00    -0.206 F 
ATOM     91  C   UNL A   1      44.705  35.163  28.293  1.00  0.00     0.022 A 
BRANCH  88  92
ATOM     92  S   UNL A   1      44.759  32.571  27.310  1.00  0.00     0.124 S 
ATOM     93  O   UNL A   1      46.196  32.811  27.295  1.00  0.00    -0.237 OA
ATOM     94  O   UNL A   1      44.321  31.366  28.011  1.00  0.00    -0.237 OA
ATOM     95  O   UNL A   1      44.082  32.814  26.034  1.00  0.00    -0.744 OA
ENDBRANCH  88  92
ENDBRANCH  62  85
ENDBRANCH  36  37
ENDBRANCH  29  31
ENDBRANCH  28  29
ENDBRANCH  27  28
ENDBRANCH   1  27
TORSDOF 20
ENDMDL
MODEL 3
REMARK VINA RESULT:     -10.8      1.486      2.093
REMARK SMILES Cc1ccc(C)c(-n2nc(C)c(/C=C(/C#N)C(=O)OCCOCCOC(=O)c3ccc(-c4c5nc(c(-c6cc(S(=O)(=O)[O-])ccc6F)c6ccc([nH]6)c(-c6cc(S(=O)(=O)[O-])ccc6F)c6nc(c(-c7cc(S(=O)(=O)[O-])ccc7F)c7ccc4[nH]7)C=C6)C=C5)cc3)c2Cl)c1
REMARK SMILES IDX 23 1 22 2 21 3 20 4 19 5 17 6 18 7 14 8 13 9 12 10 8 11 9 12
REMARK SMILES IDX 91 13 10 14 92 15 11 16 7 17 1 18 2 19 3 20 93 21 4 22 5 23
REMARK SMILES IDX 6 24 15 25 16 26 24 27 25 28 26 29 27 30 28 31 29 32 90 33
REMARK SMILES IDX 30 34 89 35 31 36 32 37 33 38 83 39 34 40 88 41 82 42 84 43
REMARK SMILES IDX 35 44 87 45 81 46 80 47 36 49 68 50 48 51 67 52 49 53 52 54
REMARK SMILES IDX 66 55 85 56 50 57 51 58 65 60 86 61 53 62 37 63 38 64 46 65
REMARK SMILES IDX 39 66 45 67 47 68 44 69 40 70 41 71 42 72 43 73 69 74 70 75
REMARK SMILES IDX 78 76 71 77 77 78 79 79 76 80 72 81 73 82 74 83 75 84 54 85
REMARK SMILES IDX 55 86 63 87 56 88 62 89 64 90 61 91 57 92 58 93 59 94 60 95
REMARK H PARENT 84 48 52 59
REMARK Flexibility Score: inf
ROOT
ATOM      1  C   UNL A   1      41.636  24.900  26.236  1.00  0.00     0.202 C 
ENDROOT
BRANCH   1   2
ATOM      2  O   UNL A   1      41.234  23.738  26.915  1.00  0.00    -0.374 OA
BRANCH   2   3
ATOM      3  C   UNL A   1      41.328  22.470  26.340  1.00  0.00     0.202 C 
BRANCH   3   4
ATOM      4  C   UNL A   1      40.061  21.746  26.773  1.00  0.00     0.261 C 
BRANCH   4   5
ATOM      5  O   UNL A   1      39.061  21.693  25.736  1.00  0.00    -0.459 OA
BRANCH   5   6
ATOM      6  C   UNL A   1      37.884  22.393  25.734  1.00  0.00     0.348 C 
ATOM      7  O   UNL A   1      37.693  23.544  25.991  1.00  0.00    -0.245 OA
BRANCH   6   8
ATOM      8  C   UNL A   1      36.820  21.585  25.162  1.00  0.00     0.138 C 
ATOM      9  C   UNL A   1      35.627  21.936  24.597  1.00  0.00     0.040 C 
BRANCH   9  10
ATOM     10  C   UNL A   1      34.730  23.103  24.604  1.00  0.00     0.037 A 
ATOM     11  N   UNL A   1      33.661  24.963  25.339  1.00  0.00    -0.221 N 
ATOM     12  N   UNL A   1      33.501  24.976  24.019  1.00  0.00    -0.171 NA
ATOM     13  C   UNL A   1      34.282  23.793  25.734  1.00  0.00     0.140 A 
ATOM     14  C   UNL A   1      33.999  23.812  23.616  1.00  0.00     0.069 A 
ATOM     15  Cl  UNL A   1      34.136  23.312  27.367  1.00  0.00    -0.061 Cl
ATOM     16  C   UNL A   1      33.650  23.520  22.246  1.00  0.00     0.069 C 
BRANCH  11  17
ATOM     17  C   UNL A   1      33.050  26.025  26.044  1.00  0.00     0.069 A 
ATOM     18  C   UNL A   1      33.854  29.691  26.733  1.00  0.00     0.044 C 
ATOM     19  C   UNL A   1      33.128  28.378  26.643  1.00  0.00    -0.049 A 
ATOM     20  C   UNL A   1      31.768  28.325  26.971  1.00  0.00     0.004 A 
ATOM     21  C   UNL A   1      33.780  27.214  26.208  1.00  0.00     0.032 A 
ATOM     22  C   UNL A   1      31.041  27.148  26.796  1.00  0.00     0.006 A 
ATOM     23  C   UNL A   1      31.657  25.994  26.289  1.00  0.00    -0.025 A 
ATOM     24  C   UNL A   1      30.773  24.799  26.041  1.00  0.00     0.047 C 
ENDBRANCH  11  17
ENDBRANCH   9  10
BRANCH   8  25
ATOM     25  C   UNL A   1      37.429  20.206  24.963  1.00  0.00     0.107 C 
ATOM     26  N   UNL A   1      37.934  19.062  24.799  1.00  0.00    -0.192 NA
ENDBRANCH   8  25
ENDBRANCH   6   8
ENDBRANCH   5   6
ENDBRANCH   4   5
ENDBRANCH   3   4
ENDBRANCH   2   3
ENDBRANCH   1   2
BRANCH   1  27
ATOM     27  C   UNL A   1      43.091  25.059  26.610  1.00  0.00     0.261 C 
BRANCH  27  28
ATOM     28  O   UNL A   1      43.151  25.882  27.827  1.00  0.00    -0.460 OA
BRANCH  28  29
ATOM     29  C   UNL A   1      42.334  26.997  27.865  1.00  0.00     0.338 C 
ATOM     30  O   UNL A   1      42.296  27.833  26.974  1.00  0.00    -0.246 OA
BRANCH  29  31
ATOM     31  C   UNL A   1      41.651  27.163  29.218  1.00  0.00     0.060 A 
ATOM     32  C   UNL A   1      40.251  27.087  29.382  1.00  0.00     0.016 A 
ATOM     33  C   UNL A   1      42.347  27.635  30.300  1.00  0.00     0.016 A 
ATOM     34  C   UNL A   1      39.549  27.859  30.398  1.00  0.00     0.010 A 
ATOM     35  C   UNL A   1      41.632  28.252  31.350  1.00  0.00     0.010 A 
ATOM     36  C   UNL A   1      40.250  28.653  31.294  1.00  0.00    -0.014 A 
BRANCH  36  37
ATOM     37  C   UNL A   1      39.831  29.939  32.193  1.00  0.00     0.031 A 
ATOM     38  C   UNL A   1      38.901  30.689  31.321  1.00  0.00     0.074 A 
ATOM     39  C   UNL A   1      40.002  30.500  33.477  1.00  0.00     0.049 A 
ATOM     40  N   UNL A   1      39.357  31.371  30.308  1.00  0.00    -0.248 NA
ATOM     41  C   UNL A   1      37.460  30.405  31.230  1.00  0.00     0.031 C 
ATOM     42  C   UNL A   1      41.040  30.347  34.512  1.00  0.00     0.029 A 
ATOM     43  N   UNL A   1      39.104  31.334  34.234  1.00  0.00    -0.354 N 
ATOM     44  C   UNL A   1      38.205  31.851  29.739  1.00  0.00     0.074 A 
ATOM     45  C   UNL A   1      37.234  30.831  29.980  1.00  0.00     0.031 C 
ATOM     46  C   UNL A   1      40.634  30.774  35.746  1.00  0.00     0.029 A 
ATOM     47  C   UNL A   1      39.290  31.370  35.694  1.00  0.00     0.049 A 
ATOM     48  H   UNL A   1      38.397  31.858  33.792  1.00  0.00     0.167 HD
ATOM     49  C   UNL A   1      37.952  33.188  29.742  1.00  0.00     0.034 A 
ATOM     50  C   UNL A   1      38.903  32.287  36.693  1.00  0.00     0.034 A 
ATOM     51  C   UNL A   1      39.138  33.943  30.126  1.00  0.00     0.049 A 
ATOM     52  C   UNL A   1      38.818  33.590  36.019  1.00  0.00     0.074 A 
ATOM     53  C   UNL A   1      40.465  33.902  29.735  1.00  0.00     0.029 A 
ATOM     54  N   UNL A   1      39.129  34.593  31.343  1.00  0.00    -0.354 N 
ATOM     55  N   UNL A   1      39.877  34.235  35.632  1.00  0.00    -0.248 NA
ATOM     56  C   UNL A   1      37.592  33.867  35.296  1.00  0.00     0.031 C 
ATOM     57  C   UNL A   1      41.219  34.098  30.924  1.00  0.00     0.029 A 
ATOM     58  C   UNL A   1      40.350  34.433  31.960  1.00  0.00     0.049 A 
ATOM     59  H   UNL A   1      38.367  35.095  31.713  1.00  0.00     0.167 HD
ATOM     60  C   UNL A   1      39.592  34.545  34.319  1.00  0.00     0.074 A 
ATOM     61  C   UNL A   1      38.138  34.385  34.193  1.00  0.00     0.031 C 
ATOM     62  C   UNL A   1      40.587  34.574  33.387  1.00  0.00     0.034 A 
BRANCH  49  63
ATOM     63  C   UNL A   1      36.559  33.766  29.788  1.00  0.00     0.023 A 
ATOM     64  C   UNL A   1      36.086  34.083  31.061  1.00  0.00     0.031 A 
ATOM     65  C   UNL A   1      35.612  33.873  28.734  1.00  0.00     0.131 A 
ATOM     66  C   UNL A   1      34.742  34.425  31.259  1.00  0.00     0.055 A 
ATOM     67  C   UNL A   1      34.297  34.291  28.924  1.00  0.00     0.041 A 
ATOM     68  F   UNL A   1      35.852  33.508  27.471  1.00  0.00    -0.206 F 
ATOM     69  C   UNL A   1      33.845  34.547  30.200  1.00  0.00     0.022 A 
BRANCH  66  70
ATOM     70  S   UNL A   1      34.165  34.563  32.959  1.00  0.00     0.124 S 
ATOM     71  O   UNL A   1      34.587  33.280  33.511  1.00  0.00    -0.237 OA
ATOM     72  O   UNL A   1      34.894  35.737  33.425  1.00  0.00    -0.237 OA
ATOM     73  O   UNL A   1      32.723  34.739  32.809  1.00  0.00    -0.744 OA
ENDBRANCH  66  70
ENDBRANCH  49  63
BRANCH  50  74
ATOM     74  C   UNL A   1      38.192  32.157  38.077  1.00  0.00     0.023 A 
ATOM     75  C   UNL A   1      38.237  33.105  39.164  1.00  0.00     0.031 A 
ATOM     76  C   UNL A   1      37.304  31.105  38.304  1.00  0.00     0.131 A 
ATOM     77  C   UNL A   1      37.362  33.000  40.306  1.00  0.00     0.055 A 
ATOM     78  C   UNL A   1      36.415  31.028  39.396  1.00  0.00     0.041 A 
ATOM     79  F   UNL A   1      37.276  30.090  37.448  1.00  0.00    -0.206 F 
ATOM     80  C   UNL A   1      36.411  31.992  40.380  1.00  0.00     0.022 A 
BRANCH  77  81
ATOM     81  S   UNL A   1      37.389  34.157  41.741  1.00  0.00     0.124 S 
ATOM     82  O   UNL A   1      38.136  35.293  41.213  1.00  0.00    -0.237 OA
ATOM     83  O   UNL A   1      35.974  34.375  42.014  1.00  0.00    -0.237 OA
ATOM     84  O   UNL A   1      38.095  33.403  42.782  1.00  0.00    -0.744 OA
ENDBRANCH  77  81
ENDBRANCH  50  74
BRANCH  62  85
ATOM     85  C   UNL A   1      42.043  34.593  33.858  1.00  0.00     0.023 A 
ATOM     86  C   UNL A   1      42.952  33.509  33.820  1.00  0.00     0.031 A 
ATOM     87  C   UNL A   1      42.567  35.838  34.242  1.00  0.00     0.131 A 
ATOM     88  C   UNL A   1      44.321  33.699  34.113  1.00  0.00     0.055 A 
ATOM     89  C   UNL A   1      43.922  36.031  34.520  1.00  0.00     0.041 A 
ATOM     90  F   UNL A   1      41.768  36.915  34.313  1.00  0.00    -0.206 F 
ATOM     91  C   UNL A   1      44.807  34.962  34.453  1.00  0.00     0.022 A 
BRANCH  88  92
ATOM     92  S   UNL A   1      45.498  32.305  34.060  1.00  0.00     0.124 S 
ATOM     93  O   UNL A   1      45.489  31.808  35.430  1.00  0.00    -0.237 OA
ATOM     94  O   UNL A   1      44.894  31.428  33.060  1.00  0.00    -0.237 OA
ATOM     95  O   UNL A   1      46.753  32.934  33.643  1.00  0.00    -0.744 OA
ENDBRANCH  88  92
ENDBRANCH  62  85
ENDBRANCH  36  37
ENDBRANCH  29  31
ENDBRANCH  28  29
ENDBRANCH  27  28
ENDBRANCH   1  27
TORSDOF 20
ENDMDL
