MODEL 1
REMARK VINA RESULT:     -11.6      0.000      0.000
REMARK SMILES O=C(C[C@@H](NS(=O)(=O)c1ccc2c(c1)OCCO2)c1ccccc1)OCCOCCOC(=O)c1ccc(-c2c3nc(c(-c4cc(S(=O)(=O)[O-])ccc4F)c4ccc([nH]4)c(-c4cc(S(=O)(=O)[O-])ccc4F)c4nc(c(-c5cc(S(=O)(=O)[O-])ccc5F)c5ccc2[nH]5)C=C4)C=C3)cc1
REMARK SMILES IDX 27 1 26 2 25 3 2 4 1 5 3 6 4 7 5 8 6 10 7 11 8 12 9 13 10 14
REMARK SMILES IDX 14 15 11 16 13 17 12 18 15 19 18 20 16 21 17 22 19 23 20 24
REMARK SMILES IDX 24 25 21 26 23 27 22 28 28 29 29 30 30 31 31 32 32 33 33 34
REMARK SMILES IDX 34 35 35 36 96 37 36 38 95 39 37 40 38 41 39 42 89 43 40 44
REMARK SMILES IDX 94 45 88 46 90 47 41 48 93 49 87 50 86 51 42 53 74 54 54 55
REMARK SMILES IDX 73 56 55 57 58 58 72 59 91 60 56 61 57 62 71 64 92 65 59 66
REMARK SMILES IDX 43 67 44 68 52 69 45 70 51 71 53 72 50 73 46 74 47 75 48 76
REMARK SMILES IDX 49 77 75 78 76 79 84 80 77 81 83 82 85 83 82 84 78 85 79 86
REMARK SMILES IDX 80 87 81 88 60 89 61 90 69 91 62 92 68 93 70 94 67 95 63 96
REMARK SMILES IDX 64 97 65 98 66 99
REMARK H PARENT 5 9 90 52 58 63
REMARK Flexibility Score: inf
ROOT
ATOM      1  C   UNL A   1      32.224  30.130  26.882  1.00  0.00     0.202 C 
ENDROOT
BRANCH   1   2
ATOM      2  C   UNL A   1      33.064  28.988  26.304  1.00  0.00     0.261 C 
BRANCH   2   3
ATOM      3  O   UNL A   1      32.482  27.867  25.565  1.00  0.00    -0.463 OA
BRANCH   3   4
ATOM      4  C   UNL A   1      31.371  27.113  25.631  1.00  0.00     0.307 C 
ATOM      5  O   UNL A   1      30.913  26.798  26.729  1.00  0.00    -0.252 OA
BRANCH   4   6
ATOM      6  C   UNL A   1      30.659  26.708  24.385  1.00  0.00     0.147 C 
BRANCH   6   7
ATOM      7  C   UNL A   1      31.082  27.464  23.116  1.00  0.00     0.111 C 
BRANCH   7   8
ATOM      8  N   UNL A   1      31.423  26.512  22.037  1.00  0.00    -0.203 NA
ATOM      9  H   UNL A   1      31.019  26.890  21.180  1.00  0.00     0.142 HD
BRANCH   8  10
ATOM     10  S   UNL A   1      33.019  26.125  21.678  1.00  0.00     0.241 S 
ATOM     11  O   UNL A   1      33.013  25.578  20.338  1.00  0.00    -0.207 OA
ATOM     12  O   UNL A   1      33.772  27.312  22.011  1.00  0.00    -0.207 OA
BRANCH  10  13
ATOM     13  C   UNL A   1      33.503  24.868  22.812  1.00  0.00     0.086 A 
ATOM     14  C   UNL A   1      34.102  25.179  24.036  1.00  0.00     0.026 A 
ATOM     15  C   UNL A   1      33.138  23.556  22.503  1.00  0.00     0.072 A 
ATOM     16  C   UNL A   1      34.252  24.174  24.996  1.00  0.00     0.052 A 
ATOM     17  C   UNL A   1      33.275  22.570  23.468  1.00  0.00     0.162 A 
ATOM     18  C   UNL A   1      33.817  22.876  24.721  1.00  0.00     0.161 A 
ATOM     19  O   UNL A   1      32.812  21.327  23.127  1.00  0.00    -0.486 OA
ATOM     20  O   UNL A   1      33.899  21.965  25.743  1.00  0.00    -0.486 OA
ATOM     21  C   UNL A   1      32.505  20.569  24.296  1.00  0.00     0.271 C 
ATOM     22  C   UNL A   1      33.652  20.629  25.293  1.00  0.00     0.271 C 
ENDBRANCH  10  13
ENDBRANCH   8  10
ENDBRANCH   7   8
BRANCH   7  23
ATOM     23  C   UNL A   1      29.964  28.429  22.721  1.00  0.00    -0.029 A 
ATOM     24  C   UNL A   1      30.213  29.616  22.001  1.00  0.00     0.005 A 
ATOM     25  C   UNL A   1      28.646  28.171  23.126  1.00  0.00     0.005 A 
ATOM     26  C   UNL A   1      29.182  30.503  21.686  1.00  0.00     0.000 A 
ATOM     27  C   UNL A   1      27.620  29.073  22.831  1.00  0.00     0.000 A 
ATOM     28  C   UNL A   1      27.886  30.235  22.110  1.00  0.00     0.000 A 
ENDBRANCH   7  23
ENDBRANCH   6   7
ENDBRANCH   4   6
ENDBRANCH   3   4
ENDBRANCH   2   3
ENDBRANCH   1   2
BRANCH   1  29
ATOM     29  O   UNL A   1      32.853  31.356  27.229  1.00  0.00    -0.374 OA
BRANCH  29  30
ATOM     30  C   UNL A   1      32.101  32.562  27.196  1.00  0.00     0.202 C 
BRANCH  30  31
ATOM     31  C   UNL A   1      32.899  33.818  27.521  1.00  0.00     0.261 C 
BRANCH  31  32
ATOM     32  O   UNL A   1      32.534  34.315  28.813  1.00  0.00    -0.460 OA
BRANCH  32  33
ATOM     33  C   UNL A   1      33.469  35.084  29.419  1.00  0.00     0.338 C 
ATOM     34  O   UNL A   1      33.361  36.255  29.743  1.00  0.00    -0.246 OA
BRANCH  33  35
ATOM     35  C   UNL A   1      34.600  34.225  29.811  1.00  0.00     0.060 A 
ATOM     36  C   UNL A   1      34.353  33.186  30.718  1.00  0.00     0.016 A 
ATOM     37  C   UNL A   1      35.889  34.457  29.323  1.00  0.00     0.016 A 
ATOM     38  C   UNL A   1      35.409  32.418  31.191  1.00  0.00     0.010 A 
ATOM     39  C   UNL A   1      36.947  33.686  29.799  1.00  0.00     0.010 A 
ATOM     40  C   UNL A   1      36.715  32.697  30.769  1.00  0.00    -0.014 A 
BRANCH  40  41
ATOM     41  C   UNL A   1      37.857  32.100  31.496  1.00  0.00     0.031 A 
ATOM     42  C   UNL A   1      38.612  30.982  30.834  1.00  0.00     0.074 A 
ATOM     43  C   UNL A   1      38.223  32.569  32.700  1.00  0.00     0.049 A 
ATOM     44  N   UNL A   1      39.615  30.274  31.281  1.00  0.00    -0.248 NA
ATOM     45  C   UNL A   1      38.165  30.606  29.482  1.00  0.00     0.031 C 
ATOM     46  C   UNL A   1      37.585  33.682  33.402  1.00  0.00     0.029 A 
ATOM     47  N   UNL A   1      39.223  32.165  33.545  1.00  0.00    -0.354 N 
ATOM     48  C   UNL A   1      39.916  29.367  30.271  1.00  0.00     0.074 A 
ATOM     49  C   UNL A   1      38.958  29.582  29.209  1.00  0.00     0.031 C 
ATOM     50  C   UNL A   1      38.211  33.871  34.575  1.00  0.00     0.029 A 
ATOM     51  C   UNL A   1      39.262  32.868  34.725  1.00  0.00     0.049 A 
ATOM     52  H   UNL A   1      39.852  31.440  33.328  1.00  0.00     0.167 HD
ATOM     53  C   UNL A   1      40.911  28.446  30.233  1.00  0.00     0.034 A 
ATOM     54  C   UNL A   1      40.048  32.700  35.807  1.00  0.00     0.034 A 
ATOM     55  C   UNL A   1      41.844  28.244  31.315  1.00  0.00     0.049 A 
ATOM     56  C   UNL A   1      41.090  31.608  35.778  1.00  0.00     0.074 A 
ATOM     57  C   UNL A   1      42.895  27.350  31.392  1.00  0.00     0.029 A 
ATOM     58  N   UNL A   1      41.825  28.942  32.517  1.00  0.00    -0.354 N 
ATOM     59  N   UNL A   1      41.374  30.757  34.817  1.00  0.00    -0.248 NA
ATOM     60  C   UNL A   1      41.924  31.460  36.976  1.00  0.00     0.031 C 
ATOM     61  C   UNL A   1      43.461  27.451  32.668  1.00  0.00     0.029 A 
ATOM     62  C   UNL A   1      42.824  28.472  33.357  1.00  0.00     0.049 A 
ATOM     63  H   UNL A   1      41.195  29.664  32.741  1.00  0.00     0.167 HD
ATOM     64  C   UNL A   1      42.448  30.001  35.283  1.00  0.00     0.074 A 
ATOM     65  C   UNL A   1      42.764  30.507  36.603  1.00  0.00     0.031 C 
ATOM     66  C   UNL A   1      43.116  28.986  34.675  1.00  0.00     0.034 A 
BRANCH  53  67
ATOM     67  C   UNL A   1      40.991  27.563  29.010  1.00  0.00     0.023 A 
ATOM     68  C   UNL A   1      42.002  27.718  28.044  1.00  0.00     0.031 A 
ATOM     69  C   UNL A   1      40.010  26.581  28.780  1.00  0.00     0.131 A 
ATOM     70  C   UNL A   1      41.964  26.963  26.861  1.00  0.00     0.055 A 
ATOM     71  C   UNL A   1      40.029  25.772  27.642  1.00  0.00     0.041 A 
ATOM     72  F   UNL A   1      39.004  26.404  29.650  1.00  0.00    -0.206 F 
ATOM     73  C   UNL A   1      41.001  25.972  26.666  1.00  0.00     0.022 A 
BRANCH  70  74
ATOM     74  S   UNL A   1      43.093  27.407  25.512  1.00  0.00     0.124 S 
ATOM     75  O   UNL A   1      44.145  28.123  26.231  1.00  0.00    -0.237 OA
ATOM     76  O   UNL A   1      43.462  26.106  24.967  1.00  0.00    -0.237 OA
ATOM     77  O   UNL A   1      42.271  28.241  24.636  1.00  0.00    -0.744 OA
ENDBRANCH  70  74
ENDBRANCH  53  67
BRANCH  54  78
ATOM     78  C   UNL A   1      39.871  33.559  37.013  1.00  0.00     0.023 A 
ATOM     79  C   UNL A   1      39.159  33.098  38.132  1.00  0.00     0.031 A 
ATOM     80  C   UNL A   1      40.363  34.876  37.044  1.00  0.00     0.131 A 
ATOM     81  C   UNL A   1      38.917  33.961  39.212  1.00  0.00     0.055 A 
ATOM     82  C   UNL A   1      40.172  35.712  38.145  1.00  0.00     0.041 A 
ATOM     83  F   UNL A   1      41.048  35.371  35.999  1.00  0.00    -0.206 F 
ATOM     84  C   UNL A   1      39.432  35.259  39.233  1.00  0.00     0.022 A 
BRANCH  81  85
ATOM     85  S   UNL A   1      37.832  33.392  40.550  1.00  0.00     0.124 S 
ATOM     86  O   UNL A   1      36.708  32.838  39.804  1.00  0.00    -0.237 OA
ATOM     87  O   UNL A   1      38.682  32.427  41.239  1.00  0.00    -0.237 OA
ATOM     88  O   UNL A   1      37.546  34.614  41.298  1.00  0.00    -0.744 OA
ENDBRANCH  81  85
ENDBRANCH  54  78
BRANCH  66  89
ATOM     89  C   UNL A   1      44.291  28.398  35.421  1.00  0.00     0.023 A 
ATOM     90  C   UNL A   1      44.155  27.278  36.259  1.00  0.00     0.031 A 
ATOM     91  C   UNL A   1      45.566  28.982  35.300  1.00  0.00     0.131 A 
ATOM     92  C   UNL A   1      45.257  26.821  36.998  1.00  0.00     0.055 A 
ATOM     93  C   UNL A   1      46.674  28.478  35.981  1.00  0.00     0.041 A 
ATOM     94  F   UNL A   1      45.755  30.054  34.515  1.00  0.00    -0.206 F 
ATOM     95  C   UNL A   1      46.519  27.401  36.849  1.00  0.00     0.022 A 
BRANCH  92  96
ATOM     96  S   UNL A   1      44.994  25.530  38.244  1.00  0.00     0.124 S 
ATOM     97  O   UNL A   1      43.803  24.857  37.736  1.00  0.00    -0.237 OA
ATOM     98  O   UNL A   1      46.236  24.768  38.170  1.00  0.00    -0.237 OA
ATOM     99  O   UNL A   1      44.800  26.282  39.483  1.00  0.00    -0.744 OA
ENDBRANCH  92  96
ENDBRANCH  66  89
ENDBRANCH  40  41
ENDBRANCH  33  35
ENDBRANCH  32  33
ENDBRANCH  31  32
ENDBRANCH  30  31
ENDBRANCH  29  30
ENDBRANCH   1  29
TORSDOF 22
ENDMDL
MODEL 2
REMARK VINA RESULT:     -11.5      1.708      2.559
REMARK SMILES O=C(C[C@@H](NS(=O)(=O)c1ccc2c(c1)OCCO2)c1ccccc1)OCCOCCOC(=O)c1ccc(-c2c3nc(c(-c4cc(S(=O)(=O)[O-])ccc4F)c4ccc([nH]4)c(-c4cc(S(=O)(=O)[O-])ccc4F)c4nc(c(-c5cc(S(=O)(=O)[O-])ccc5F)c5ccc2[nH]5)C=C4)C=C3)cc1
REMARK SMILES IDX 27 1 26 2 25 3 2 4 1 5 3 6 4 7 5 8 6 10 7 11 8 12 9 13 10 14
REMARK SMILES IDX 14 15 11 16 13 17 12 18 15 19 18 20 16 21 17 22 19 23 20 24
REMARK SMILES IDX 24 25 21 26 23 27 22 28 28 29 29 30 30 31 31 32 32 33 33 34
REMARK SMILES IDX 34 35 35 36 96 37 36 38 95 39 37 40 38 41 39 42 89 43 40 44
REMARK SMILES IDX 94 45 88 46 90 47 41 48 93 49 87 50 86 51 42 53 74 54 54 55
REMARK SMILES IDX 73 56 55 57 58 58 72 59 91 60 56 61 57 62 71 64 92 65 59 66
REMARK SMILES IDX 43 67 44 68 52 69 45 70 51 71 53 72 50 73 46 74 47 75 48 76
REMARK SMILES IDX 49 77 75 78 76 79 84 80 77 81 83 82 85 83 82 84 78 85 79 86
REMARK SMILES IDX 80 87 81 88 60 89 61 90 69 91 62 92 68 93 70 94 67 95 63 96
REMARK SMILES IDX 64 97 65 98 66 99
REMARK H PARENT 5 9 90 52 58 63
REMARK Flexibility Score: inf
ROOT
ATOM      1  C   UNL A   1      31.793  29.626  26.307  1.00  0.00     0.202 C 
ENDROOT
BRANCH   1   2
ATOM      2  C   UNL A   1      31.594  29.711  24.790  1.00  0.00     0.261 C 
BRANCH   2   3
ATOM      3  O   UNL A   1      30.291  29.532  24.148  1.00  0.00    -0.463 OA
BRANCH   3   4
ATOM      4  C   UNL A   1      29.788  28.834  23.116  1.00  0.00     0.307 C 
ATOM      5  O   UNL A   1      29.682  29.369  22.013  1.00  0.00    -0.252 OA
BRANCH   4   6
ATOM      6  C   UNL A   1      29.416  27.400  23.285  1.00  0.00     0.147 C 
BRANCH   6   7
ATOM      7  C   UNL A   1      30.514  26.392  22.918  1.00  0.00     0.111 C 
BRANCH   7   8
ATOM      8  N   UNL A   1      31.781  27.095  22.618  1.00  0.00    -0.203 NA
ATOM      9  H   UNL A   1      32.099  27.503  23.496  1.00  0.00     0.142 HD
BRANCH   8  10
ATOM     10  S   UNL A   1      33.102  26.286  21.966  1.00  0.00     0.241 S 
ATOM     11  O   UNL A   1      32.569  25.341  21.008  1.00  0.00    -0.207 OA
ATOM     12  O   UNL A   1      34.020  27.330  21.573  1.00  0.00    -0.207 OA
BRANCH  10  13
ATOM     13  C   UNL A   1      33.857  25.402  23.290  1.00  0.00     0.086 A 
ATOM     14  C   UNL A   1      34.047  25.987  24.545  1.00  0.00     0.026 A 
ATOM     15  C   UNL A   1      34.133  24.050  23.078  1.00  0.00     0.072 A 
ATOM     16  C   UNL A   1      34.429  25.181  25.622  1.00  0.00     0.052 A 
ATOM     17  C   UNL A   1      34.496  23.255  24.155  1.00  0.00     0.162 A 
ATOM     18  C   UNL A   1      34.630  23.812  25.432  1.00  0.00     0.161 A 
ATOM     19  O   UNL A   1      34.660  21.922  23.890  1.00  0.00    -0.486 OA
ATOM     20  O   UNL A   1      34.902  23.064  26.548  1.00  0.00    -0.486 OA
ATOM     21  C   UNL A   1      34.495  21.151  25.079  1.00  0.00     0.271 C 
ATOM     22  C   UNL A   1      35.317  21.735  26.217  1.00  0.00     0.271 C 
ENDBRANCH  10  13
ENDBRANCH   8  10
ENDBRANCH   7   8
BRANCH   7  23
ATOM     23  C   UNL A   1      30.655  25.380  24.054  1.00  0.00    -0.029 A 
ATOM     24  C   UNL A   1      30.758  23.992  23.819  1.00  0.00     0.005 A 
ATOM     25  C   UNL A   1      30.630  25.820  25.385  1.00  0.00     0.005 A 
ATOM     26  C   UNL A   1      30.845  23.082  24.874  1.00  0.00     0.000 A 
ATOM     27  C   UNL A   1      30.692  24.905  26.440  1.00  0.00     0.000 A 
ATOM     28  C   UNL A   1      30.803  23.539  26.186  1.00  0.00     0.000 A 
ENDBRANCH   7  23
ENDBRANCH   6   7
ENDBRANCH   4   6
ENDBRANCH   3   4
ENDBRANCH   2   3
ENDBRANCH   1   2
BRANCH   1  29
ATOM     29  O   UNL A   1      33.105  29.483  26.834  1.00  0.00    -0.374 OA
BRANCH  29  30
ATOM     30  C   UNL A   1      33.813  30.635  27.271  1.00  0.00     0.202 C 
BRANCH  30  31
ATOM     31  C   UNL A   1      32.957  31.884  27.432  1.00  0.00     0.261 C 
BRANCH  31  32
ATOM     32  O   UNL A   1      33.766  33.058  27.314  1.00  0.00    -0.460 OA
BRANCH  32  33
ATOM     33  C   UNL A   1      33.657  33.938  28.337  1.00  0.00     0.338 C 
ATOM     34  O   UNL A   1      32.760  34.745  28.521  1.00  0.00    -0.246 OA
BRANCH  33  35
ATOM     35  C   UNL A   1      34.712  33.646  29.322  1.00  0.00     0.060 A 
ATOM     36  C   UNL A   1      35.997  34.145  29.076  1.00  0.00     0.016 A 
ATOM     37  C   UNL A   1      34.452  32.865  30.452  1.00  0.00     0.016 A 
ATOM     38  C   UNL A   1      37.044  33.808  29.926  1.00  0.00     0.010 A 
ATOM     39  C   UNL A   1      35.502  32.527  31.302  1.00  0.00     0.010 A 
ATOM     40  C   UNL A   1      36.808  32.958  31.014  1.00  0.00    -0.014 A 
BRANCH  40  41
ATOM     41  C   UNL A   1      37.954  32.353  31.726  1.00  0.00     0.031 A 
ATOM     42  C   UNL A   1      38.695  31.231  31.053  1.00  0.00     0.074 A 
ATOM     43  C   UNL A   1      38.338  32.818  32.926  1.00  0.00     0.049 A 
ATOM     44  N   UNL A   1      39.699  30.518  31.488  1.00  0.00    -0.248 NA
ATOM     45  C   UNL A   1      38.230  30.861  29.706  1.00  0.00     0.031 C 
ATOM     46  C   UNL A   1      37.714  33.934  33.638  1.00  0.00     0.029 A 
ATOM     47  N   UNL A   1      39.345  32.407  33.759  1.00  0.00    -0.354 N 
ATOM     48  C   UNL A   1      39.983  29.611  30.473  1.00  0.00     0.074 A 
ATOM     49  C   UNL A   1      39.014  29.833  29.423  1.00  0.00     0.031 C 
ATOM     50  C   UNL A   1      38.355  34.117  34.804  1.00  0.00     0.029 A 
ATOM     51  C   UNL A   1      39.402  33.108  34.940  1.00  0.00     0.049 A 
ATOM     52  H   UNL A   1      39.968  31.678  33.534  1.00  0.00     0.167 HD
ATOM     53  C   UNL A   1      40.973  28.684  30.421  1.00  0.00     0.034 A 
ATOM     54  C   UNL A   1      40.200  32.934  36.012  1.00  0.00     0.034 A 
ATOM     55  C   UNL A   1      41.917  28.475  31.492  1.00  0.00     0.049 A 
ATOM     56  C   UNL A   1      41.235  31.836  35.969  1.00  0.00     0.074 A 
ATOM     57  C   UNL A   1      42.964  27.574  31.556  1.00  0.00     0.029 A 
ATOM     58  N   UNL A   1      41.916  29.170  32.695  1.00  0.00    -0.354 N 
ATOM     59  N   UNL A   1      41.503  30.985  35.003  1.00  0.00    -0.248 NA
ATOM     60  C   UNL A   1      42.083  31.682  37.157  1.00  0.00     0.031 C 
ATOM     61  C   UNL A   1      43.545  27.670  32.824  1.00  0.00     0.029 A 
ATOM     62  C   UNL A   1      42.922  28.694  33.522  1.00  0.00     0.049 A 
ATOM     63  H   UNL A   1      41.293  29.896  32.928  1.00  0.00     0.167 HD
ATOM     64  C   UNL A   1      42.578  30.222  35.455  1.00  0.00     0.074 A 
ATOM     65  C   UNL A   1      42.912  30.724  36.772  1.00  0.00     0.031 C 
ATOM     66  C   UNL A   1      43.233  29.204  34.838  1.00  0.00     0.034 A 
BRANCH  53  67
ATOM     67  C   UNL A   1      41.033  27.802  29.196  1.00  0.00     0.023 A 
ATOM     68  C   UNL A   1      42.004  27.984  28.195  1.00  0.00     0.031 A 
ATOM     69  C   UNL A   1      40.072  26.793  29.001  1.00  0.00     0.131 A 
ATOM     70  C   UNL A   1      41.945  27.227  27.014  1.00  0.00     0.055 A 
ATOM     71  C   UNL A   1      40.072  25.984  27.863  1.00  0.00     0.041 A 
ATOM     72  F   UNL A   1      39.102  26.589  29.906  1.00  0.00    -0.206 F 
ATOM     73  C   UNL A   1      41.002  26.210  26.854  1.00  0.00     0.022 A 
BRANCH  70  74
ATOM     74  S   UNL A   1      43.012  27.701  25.625  1.00  0.00     0.124 S 
ATOM     75  O   UNL A   1      43.464  26.398  25.142  1.00  0.00    -0.237 OA
ATOM     76  O   UNL A   1      42.094  28.424  24.753  1.00  0.00    -0.237 OA
ATOM     77  O   UNL A   1      44.050  28.518  26.253  1.00  0.00    -0.744 OA
ENDBRANCH  70  74
ENDBRANCH  53  67
BRANCH  54  78
ATOM     78  C   UNL A   1      40.042  33.792  37.221  1.00  0.00     0.023 A 
ATOM     79  C   UNL A   1      40.925  34.853  37.476  1.00  0.00     0.031 A 
ATOM     80  C   UNL A   1      39.036  33.531  38.168  1.00  0.00     0.131 A 
ATOM     81  C   UNL A   1      40.817  35.580  38.673  1.00  0.00     0.055 A 
ATOM     82  C   UNL A   1      38.895  34.295  39.328  1.00  0.00     0.041 A 
ATOM     83  F   UNL A   1      38.165  32.526  37.976  1.00  0.00    -0.206 F 
ATOM     84  C   UNL A   1      39.800  35.319  39.592  1.00  0.00     0.022 A 
BRANCH  81  85
ATOM     85  S   UNL A   1      42.092  36.812  39.055  1.00  0.00     0.124 S 
ATOM     86  O   UNL A   1      41.320  37.828  39.761  1.00  0.00    -0.237 OA
ATOM     87  O   UNL A   1      43.028  36.040  39.866  1.00  0.00    -0.237 OA
ATOM     88  O   UNL A   1      42.589  37.207  37.739  1.00  0.00    -0.744 OA
ENDBRANCH  81  85
ENDBRANCH  54  78
BRANCH  66  89
ATOM     89  C   UNL A   1      44.414  28.609  35.569  1.00  0.00     0.023 A 
ATOM     90  C   UNL A   1      44.257  27.604  36.539  1.00  0.00     0.031 A 
ATOM     91  C   UNL A   1      45.715  29.069  35.298  1.00  0.00     0.131 A 
ATOM     92  C   UNL A   1      45.374  27.143  37.253  1.00  0.00     0.055 A 
ATOM     93  C   UNL A   1      46.830  28.554  35.959  1.00  0.00     0.041 A 
ATOM     94  F   UNL A   1      45.924  30.028  34.382  1.00  0.00    -0.206 F 
ATOM     95  C   UNL A   1      46.661  27.597  36.956  1.00  0.00     0.022 A 
BRANCH  92  96
ATOM     96  S   UNL A   1      45.109  26.024  38.655  1.00  0.00     0.124 S 
ATOM     97  O   UNL A   1      46.265  26.314  39.497  1.00  0.00    -0.237 OA
ATOM     98  O   UNL A   1      43.819  26.469  39.170  1.00  0.00    -0.237 OA
ATOM     99  O   UNL A   1      45.107  24.697  38.041  1.00  0.00    -0.744 OA
ENDBRANCH  92  96
ENDBRANCH  66  89
ENDBRANCH  40  41
ENDBRANCH  33  35
ENDBRANCH  32  33
ENDBRANCH  31  32
ENDBRANCH  30  31
ENDBRANCH  29  30
ENDBRANCH   1  29
TORSDOF 22
ENDMDL
MODEL 3
REMARK VINA RESULT:     -11.5      2.323      3.384
REMARK SMILES O=C(C[C@@H](NS(=O)(=O)c1ccc2c(c1)OCCO2)c1ccccc1)OCCOCCOC(=O)c1ccc(-c2c3nc(c(-c4cc(S(=O)(=O)[O-])ccc4F)c4ccc([nH]4)c(-c4cc(S(=O)(=O)[O-])ccc4F)c4nc(c(-c5cc(S(=O)(=O)[O-])ccc5F)c5ccc2[nH]5)C=C4)C=C3)cc1
REMARK SMILES IDX 27 1 26 2 25 3 2 4 1 5 3 6 4 7 5 8 6 10 7 11 8 12 9 13 10 14
REMARK SMILES IDX 14 15 11 16 13 17 12 18 15 19 18 20 16 21 17 22 19 23 20 24
REMARK SMILES IDX 24 25 21 26 23 27 22 28 28 29 29 30 30 31 31 32 32 33 33 34
REMARK SMILES IDX 34 35 35 36 96 37 36 38 95 39 37 40 38 41 39 42 89 43 40 44
REMARK SMILES IDX 94 45 88 46 90 47 41 48 93 49 87 50 86 51 42 53 74 54 54 55
REMARK SMILES IDX 73 56 55 57 58 58 72 59 91 60 56 61 57 62 71 64 92 65 59 66
REMARK SMILES IDX 43 67 44 68 52 69 45 70 51 71 53 72 50 73 46 74 47 75 48 76
REMARK SMILES IDX 49 77 75 78 76 79 84 80 77 81 83 82 85 83 82 84 78 85 79 86
REMARK SMILES IDX 80 87 81 88 60 89 61 90 69 91 62 92 68 93 70 94 67 95 63 96
REMARK SMILES IDX 64 97 65 98 66 99
REMARK H PARENT 5 9 90 52 58 63
REMARK Flexibility Score: inf
ROOT
ATOM      1  C   UNL A   1      30.639  30.096  24.285  1.00  0.00     0.202 C 
ENDROOT
BRANCH   1   2
ATOM      2  C   UNL A   1      29.920  29.773  22.971  1.00  0.00     0.261 C 
BRANCH   2   3
ATOM      3  O   UNL A   1      29.267  28.488  22.717  1.00  0.00    -0.463 OA
BRANCH   3   4
ATOM      4  C   UNL A   1      28.444  27.653  23.373  1.00  0.00     0.307 C 
ATOM      5  O   UNL A   1      27.227  27.816  23.300  1.00  0.00    -0.252 OA
BRANCH   4   6
ATOM      6  C   UNL A   1      28.995  26.499  24.140  1.00  0.00     0.147 C 
BRANCH   6   7
ATOM      7  C   UNL A   1      30.228  25.829  23.515  1.00  0.00     0.111 C 
BRANCH   7   8
ATOM      8  N   UNL A   1      31.307  26.819  23.312  1.00  0.00    -0.203 NA
ATOM      9  H   UNL A   1      31.604  27.116  24.242  1.00  0.00     0.142 HD
BRANCH   8  10
ATOM     10  S   UNL A   1      32.709  26.432  22.469  1.00  0.00     0.241 S 
ATOM     11  O   UNL A   1      32.309  25.541  21.402  1.00  0.00    -0.207 OA
ATOM     12  O   UNL A   1      33.344  27.703  22.201  1.00  0.00    -0.207 OA
BRANCH  10  13
ATOM     13  C   UNL A   1      33.749  25.559  23.591  1.00  0.00     0.086 A 
ATOM     14  C   UNL A   1      33.974  26.021  24.891  1.00  0.00     0.026 A 
ATOM     15  C   UNL A   1      34.229  24.315  23.178  1.00  0.00     0.072 A 
ATOM     16  C   UNL A   1      34.608  25.183  25.812  1.00  0.00     0.052 A 
ATOM     17  C   UNL A   1      34.842  23.484  24.103  1.00  0.00     0.162 A 
ATOM     18  C   UNL A   1      35.020  23.906  25.425  1.00  0.00     0.161 A 
ATOM     19  O   UNL A   1      35.204  22.243  23.651  1.00  0.00    -0.486 OA
ATOM     20  O   UNL A   1      35.540  23.099  26.404  1.00  0.00    -0.486 OA
ATOM     21  C   UNL A   1      35.309  21.324  24.737  1.00  0.00     0.271 C 
ATOM     22  C   UNL A   1      36.140  21.917  25.864  1.00  0.00     0.271 C 
ENDBRANCH  10  13
ENDBRANCH   8  10
ENDBRANCH   7   8
BRANCH   7  23
ATOM     23  C   UNL A   1      30.657  24.661  24.401  1.00  0.00    -0.029 A 
ATOM     24  C   UNL A   1      30.989  23.395  23.872  1.00  0.00     0.005 A 
ATOM     25  C   UNL A   1      30.677  24.815  25.795  1.00  0.00     0.005 A 
ATOM     26  C   UNL A   1      31.339  22.330  24.704  1.00  0.00     0.000 A 
ATOM     27  C   UNL A   1      31.004  23.740  26.627  1.00  0.00     0.000 A 
ATOM     28  C   UNL A   1      31.337  22.501  26.083  1.00  0.00     0.000 A 
ENDBRANCH   7  23
ENDBRANCH   6   7
ENDBRANCH   4   6
ENDBRANCH   3   4
ENDBRANCH   2   3
ENDBRANCH   1   2
BRANCH   1  29
ATOM     29  O   UNL A   1      31.140  29.036  25.088  1.00  0.00    -0.374 OA
BRANCH  29  30
ATOM     30  C   UNL A   1      31.954  29.337  26.214  1.00  0.00     0.202 C 
BRANCH  30  31
ATOM     31  C   UNL A   1      31.820  30.762  26.732  1.00  0.00     0.261 C 
BRANCH  31  32
ATOM     32  O   UNL A   1      32.980  31.526  26.386  1.00  0.00    -0.460 OA
BRANCH  32  33
ATOM     33  C   UNL A   1      33.417  32.377  27.343  1.00  0.00     0.338 C 
ATOM     34  O   UNL A   1      32.802  33.308  27.836  1.00  0.00    -0.246 OA
BRANCH  33  35
ATOM     35  C   UNL A   1      34.710  31.888  27.850  1.00  0.00     0.060 A 
ATOM     36  C   UNL A   1      34.799  30.544  28.237  1.00  0.00     0.016 A 
ATOM     37  C   UNL A   1      35.810  32.742  27.976  1.00  0.00     0.016 A 
ATOM     38  C   UNL A   1      35.970  30.068  28.815  1.00  0.00     0.010 A 
ATOM     39  C   UNL A   1      36.982  32.264  28.557  1.00  0.00     0.010 A 
ATOM     40  C   UNL A   1      37.047  30.939  29.020  1.00  0.00    -0.014 A 
BRANCH  40  41
ATOM     41  C   UNL A   1      38.158  30.525  29.904  1.00  0.00     0.031 A 
ATOM     42  C   UNL A   1      39.140  29.513  29.382  1.00  0.00     0.074 A 
ATOM     43  C   UNL A   1      38.299  31.064  31.126  1.00  0.00     0.049 A 
ATOM     44  N   UNL A   1      40.166  28.964  29.976  1.00  0.00    -0.248 NA
ATOM     45  C   UNL A   1      38.926  29.053  28.000  1.00  0.00     0.031 C 
ATOM     46  C   UNL A   1      37.427  32.087  31.702  1.00  0.00     0.029 A 
ATOM     47  N   UNL A   1      39.228  30.822  32.103  1.00  0.00    -0.354 N 
ATOM     48  C   UNL A   1      40.717  28.091  29.045  1.00  0.00     0.074 A 
ATOM     49  C   UNL A   1      39.882  28.147  27.865  1.00  0.00     0.031 C 
ATOM     50  C   UNL A   1      37.865  32.385  32.937  1.00  0.00     0.029 A 
ATOM     51  C   UNL A   1      39.018  31.545  33.253  1.00  0.00     0.049 A 
ATOM     52  H   UNL A   1      39.975  30.190  31.993  1.00  0.00     0.167 HD
ATOM     53  C   UNL A   1      41.827  27.321  29.164  1.00  0.00     0.034 A 
ATOM     54  C   UNL A   1      39.675  31.511  34.429  1.00  0.00     0.034 A 
ATOM     55  C   UNL A   1      42.632  27.274  30.360  1.00  0.00     0.049 A 
ATOM     56  C   UNL A   1      40.853  30.579  34.569  1.00  0.00     0.074 A 
ATOM     57  C   UNL A   1      43.780  26.540  30.600  1.00  0.00     0.029 A 
ATOM     58  N   UNL A   1      42.363  27.984  31.524  1.00  0.00    -0.354 N 
ATOM     59  N   UNL A   1      41.374  29.759  33.683  1.00  0.00    -0.248 NA
ATOM     60  C   UNL A   1      41.540  30.574  35.866  1.00  0.00     0.031 C 
ATOM     61  C   UNL A   1      44.158  26.744  31.931  1.00  0.00     0.029 A 
ATOM     62  C   UNL A   1      43.302  27.677  32.498  1.00  0.00     0.049 A 
ATOM     63  H   UNL A   1      41.616  28.613  31.642  1.00  0.00     0.167 HD
ATOM     64  C   UNL A   1      42.474  29.172  34.305  1.00  0.00     0.074 A 
ATOM     65  C   UNL A   1      42.545  29.743  35.635  1.00  0.00     0.031 C 
ATOM     66  C   UNL A   1      43.349  28.252  33.823  1.00  0.00     0.034 A 
BRANCH  53  67
ATOM     67  C   UNL A   1      42.185  26.435  27.993  1.00  0.00     0.023 A 
ATOM     68  C   UNL A   1      41.660  25.137  27.854  1.00  0.00     0.031 A 
ATOM     69  C   UNL A   1      43.104  26.877  27.025  1.00  0.00     0.131 A 
ATOM     70  C   UNL A   1      42.118  24.302  26.822  1.00  0.00     0.055 A 
ATOM     71  C   UNL A   1      43.489  26.073  25.951  1.00  0.00     0.041 A 
ATOM     72  F   UNL A   1      43.662  28.095  27.118  1.00  0.00    -0.206 F 
ATOM     73  C   UNL A   1      43.007  24.771  25.854  1.00  0.00     0.022 A 
BRANCH  70  74
ATOM     74  S   UNL A   1      41.660  22.547  26.859  1.00  0.00     0.124 S 
ATOM     75  O   UNL A   1      42.402  22.072  28.025  1.00  0.00    -0.237 OA
ATOM     76  O   UNL A   1      40.210  22.602  27.004  1.00  0.00    -0.237 OA
ATOM     77  O   UNL A   1      42.141  22.040  25.575  1.00  0.00    -0.744 OA
ENDBRANCH  70  74
ENDBRANCH  53  67
BRANCH  54  78
ATOM     78  C   UNL A   1      39.227  32.359  35.571  1.00  0.00     0.023 A 
ATOM     79  C   UNL A   1      39.674  33.682  35.710  1.00  0.00     0.031 A 
ATOM     80  C   UNL A   1      38.385  31.840  36.572  1.00  0.00     0.131 A 
ATOM     81  C   UNL A   1      39.321  34.424  36.848  1.00  0.00     0.055 A 
ATOM     82  C   UNL A   1      37.987  32.602  37.671  1.00  0.00     0.041 A 
ATOM     83  F   UNL A   1      37.930  30.579  36.491  1.00  0.00    -0.206 F 
ATOM     84  C   UNL A   1      38.468  33.899  37.821  1.00  0.00     0.022 A 
BRANCH  81  85
ATOM     85  S   UNL A   1      40.073  36.058  37.085  1.00  0.00     0.124 S 
ATOM     86  O   UNL A   1      39.294  36.583  38.200  1.00  0.00    -0.237 OA
ATOM     87  O   UNL A   1      41.460  35.713  37.380  1.00  0.00    -0.237 OA
ATOM     88  O   UNL A   1      39.857  36.722  35.802  1.00  0.00    -0.744 OA
ENDBRANCH  81  85
ENDBRANCH  54  78
BRANCH  66  89
ATOM     89  C   UNL A   1      44.489  27.852  34.729  1.00  0.00     0.023 A 
ATOM     90  C   UNL A   1      44.308  26.965  35.805  1.00  0.00     0.031 A 
ATOM     91  C   UNL A   1      45.776  28.382  34.520  1.00  0.00     0.131 A 
ATOM     92  C   UNL A   1      45.377  26.691  36.672  1.00  0.00     0.055 A 
ATOM     93  C   UNL A   1      46.852  28.048  35.341  1.00  0.00     0.041 A 
ATOM     94  F   UNL A   1      46.007  29.234  33.509  1.00  0.00    -0.206 F 
ATOM     95  C   UNL A   1      46.652  27.211  36.435  1.00  0.00     0.022 A 
BRANCH  92  96
ATOM     96  S   UNL A   1      45.052  25.736  38.179  1.00  0.00     0.124 S 
ATOM     97  O   UNL A   1      46.283  25.939  38.936  1.00  0.00    -0.237 OA
ATOM     98  O   UNL A   1      43.862  26.390  38.711  1.00  0.00    -0.237 OA
ATOM     99  O   UNL A   1      44.844  24.376  37.685  1.00  0.00    -0.744 OA
ENDBRANCH  92  96
ENDBRANCH  66  89
ENDBRANCH  40  41
ENDBRANCH  33  35
ENDBRANCH  32  33
ENDBRANCH  31  32
ENDBRANCH  30  31
ENDBRANCH  29  30
ENDBRANCH   1  29
TORSDOF 22
ENDMDL
