MODEL 1
REMARK VINA RESULT:     -10.1      0.000      0.000
REMARK SMILES Cc1cc2cc(-c3ccc([C@@H](C)C(=O)OCCOCCOC(=O)c4ccc(-c5c6nc(c(-c7cc(S(=O)(=O)[O-])ccc7F)c7ccc([nH]7)c(-c7cc(S(=O)(=O)[O-])ccc7F)c7nc(c(-c8cc(S(=O)(=O)[O-])ccc8F)c8ccc5[nH]8)C=C7)C=C6)cc4)cc3)ccc2[nH]1
REMARK SMILES IDX 19 1 18 2 17 3 16 4 15 5 13 6 14 7 11 8 12 9 10 10 7 11 8 12
REMARK SMILES IDX 88 13 9 14 87 15 6 16 1 17 2 18 3 19 92 20 4 21 91 22 5 24
REMARK SMILES IDX 90 25 89 26 20 27 21 28 22 29 23 30 24 31 25 32 86 33 26 34
REMARK SMILES IDX 85 35 27 36 28 37 29 38 79 39 30 40 84 41 78 42 80 43 31 44
REMARK SMILES IDX 83 45 77 46 76 47 32 49 64 50 44 51 63 52 45 53 48 54 62 55
REMARK SMILES IDX 81 56 46 57 47 58 61 60 82 61 49 62 33 63 34 64 42 65 35 66
REMARK SMILES IDX 41 67 43 68 40 69 36 70 37 71 38 72 39 73 65 74 66 75 74 76
REMARK SMILES IDX 67 77 73 78 75 79 72 80 68 81 69 82 70 83 71 84 50 85 51 86
REMARK SMILES IDX 59 87 52 88 58 89 60 90 57 91 53 92 54 93 55 94 56 95
REMARK H PARENT 92 23 80 48 48 59
REMARK Flexibility Score: inf
ROOT
ATOM      1  C   UNL A   1      33.551  34.965  28.862  1.00  0.00     0.202 C 
ENDROOT
BRANCH   1   2
ATOM      2  O   UNL A   1      32.601  35.080  29.922  1.00  0.00    -0.374 OA
BRANCH   2   3
ATOM      3  C   UNL A   1      32.722  36.209  30.789  1.00  0.00     0.202 C 
BRANCH   3   4
ATOM      4  C   UNL A   1      32.895  35.897  32.277  1.00  0.00     0.261 C 
BRANCH   4   5
ATOM      5  O   UNL A   1      34.285  35.793  32.632  1.00  0.00    -0.463 OA
BRANCH   5   6
ATOM      6  C   UNL A   1      34.730  34.555  32.966  1.00  0.00     0.313 C 
ATOM      7  O   UNL A   1      34.755  34.111  34.112  1.00  0.00    -0.252 OA
BRANCH   6   8
ATOM      8  C   UNL A   1      35.249  33.748  31.787  1.00  0.00     0.126 C 
ATOM      9  C   UNL A   1      35.068  32.260  32.080  1.00  0.00     0.025 C 
BRANCH   8  10
ATOM     10  C   UNL A   1      36.649  34.058  31.268  1.00  0.00    -0.034 A 
ATOM     11  C   UNL A   1      39.310  34.355  30.291  1.00  0.00    -0.018 A 
ATOM     12  C   UNL A   1      38.985  34.652  31.624  1.00  0.00     0.009 A 
ATOM     13  C   UNL A   1      38.269  33.962  29.439  1.00  0.00     0.009 A 
ATOM     14  C   UNL A   1      37.678  34.505  32.106  1.00  0.00     0.005 A 
ATOM     15  C   UNL A   1      36.960  33.815  29.919  1.00  0.00     0.005 A 
BRANCH  11  16
ATOM     16  C   UNL A   1      40.708  34.385  29.829  1.00  0.00    -0.018 A 
ATOM     17  C   UNL A   1      45.592  36.275  26.637  1.00  0.00     0.064 C 
ATOM     18  C   UNL A   1      44.449  35.796  27.450  1.00  0.00     0.013 A 
ATOM     19  C   UNL A   1      43.145  36.240  27.520  1.00  0.00     0.031 A 
ATOM     20  N   UNL A   1      44.560  34.726  28.306  1.00  0.00    -0.359 N 
ATOM     21  C   UNL A   1      42.445  35.409  28.437  1.00  0.00     0.000 A 
ATOM     22  C   UNL A   1      43.355  34.475  28.925  1.00  0.00     0.046 A 
ATOM     23  H   UNL A   1      45.385  34.211  28.456  1.00  0.00     0.166 HD
ATOM     24  C   UNL A   1      41.114  35.360  28.895  1.00  0.00     0.019 A 
ATOM     25  C   UNL A   1      42.997  33.497  29.860  1.00  0.00     0.027 A 
ATOM     26  C   UNL A   1      41.665  33.473  30.300  1.00  0.00     0.011 A 
ENDBRANCH  11  16
ENDBRANCH   8  10
ENDBRANCH   6   8
ENDBRANCH   5   6
ENDBRANCH   4   5
ENDBRANCH   3   4
ENDBRANCH   2   3
ENDBRANCH   1   2
BRANCH   1  27
ATOM     27  C   UNL A   1      33.458  33.715  27.981  1.00  0.00     0.261 C 
BRANCH  27  28
ATOM     28  O   UNL A   1      33.871  32.522  28.671  1.00  0.00    -0.460 OA
BRANCH  28  29
ATOM     29  C   UNL A   1      34.074  31.445  27.877  1.00  0.00     0.338 C 
ATOM     30  O   UNL A   1      33.414  31.121  26.897  1.00  0.00    -0.246 OA
BRANCH  29  31
ATOM     31  C   UNL A   1      35.342  30.782  28.233  1.00  0.00     0.060 A 
ATOM     32  C   UNL A   1      35.311  29.840  29.271  1.00  0.00     0.016 A 
ATOM     33  C   UNL A   1      36.551  31.122  27.621  1.00  0.00     0.016 A 
ATOM     34  C   UNL A   1      36.495  29.273  29.736  1.00  0.00     0.010 A 
ATOM     35  C   UNL A   1      37.741  30.558  28.098  1.00  0.00     0.010 A 
ATOM     36  C   UNL A   1      37.723  29.658  29.181  1.00  0.00    -0.014 A 
BRANCH  36  37
ATOM     37  C   UNL A   1      38.988  29.249  29.841  1.00  0.00     0.031 A 
ATOM     38  C   UNL A   1      39.802  28.145  29.222  1.00  0.00     0.074 A 
ATOM     39  C   UNL A   1      39.424  29.870  30.952  1.00  0.00     0.049 A 
ATOM     40  N   UNL A   1      40.898  27.575  29.654  1.00  0.00    -0.248 NA
ATOM     41  C   UNL A   1      39.309  27.613  27.943  1.00  0.00     0.031 C 
ATOM     42  C   UNL A   1      38.759  30.995  31.606  1.00  0.00     0.029 A 
ATOM     43  N   UNL A   1      40.530  29.635  31.730  1.00  0.00    -0.354 N 
ATOM     44  C   UNL A   1      41.227  26.618  28.701  1.00  0.00     0.074 A 
ATOM     45  C   UNL A   1      40.192  26.659  27.689  1.00  0.00     0.031 C 
ATOM     46  C   UNL A   1      39.465  31.345  32.695  1.00  0.00     0.029 A 
ATOM     47  C   UNL A   1      40.605  30.442  32.842  1.00  0.00     0.049 A 
ATOM     48  H   UNL A   1      41.207  28.953  31.513  1.00  0.00     0.167 HD
ATOM     49  C   UNL A   1      42.299  25.787  28.666  1.00  0.00     0.034 A 
ATOM     50  C   UNL A   1      41.474  30.430  33.873  1.00  0.00     0.034 A 
ATOM     51  C   UNL A   1      43.313  25.744  29.692  1.00  0.00     0.049 A 
ATOM     52  C   UNL A   1      42.596  29.416  33.874  1.00  0.00     0.074 A 
ATOM     53  C   UNL A   1      44.435  24.936  29.763  1.00  0.00     0.029 A 
ATOM     54  N   UNL A   1      43.324  26.538  30.831  1.00  0.00    -0.354 N 
ATOM     55  N   UNL A   1      42.890  28.506  32.975  1.00  0.00    -0.248 NA
ATOM     56  C   UNL A   1      43.505  29.433  35.029  1.00  0.00     0.031 C 
ATOM     57  C   UNL A   1      45.084  25.192  30.977  1.00  0.00     0.029 A 
ATOM     58  C   UNL A   1      44.414  26.216  31.626  1.00  0.00     0.049 A 
ATOM     59  H   UNL A   1      42.656  27.229  31.045  1.00  0.00     0.167 HD
ATOM     60  C   UNL A   1      44.039  27.868  33.440  1.00  0.00     0.074 A 
ATOM     61  C   UNL A   1      44.387  28.502  34.694  1.00  0.00     0.031 C 
ATOM     62  C   UNL A   1      44.748  26.857  32.877  1.00  0.00     0.034 A 
BRANCH  49  63
ATOM     63  C   UNL A   1      42.390  24.823  27.509  1.00  0.00     0.023 A 
ATOM     64  C   UNL A   1      41.600  23.661  27.451  1.00  0.00     0.031 A 
ATOM     65  C   UNL A   1      43.303  25.050  26.465  1.00  0.00     0.131 A 
ATOM     66  C   UNL A   1      41.787  22.739  26.410  1.00  0.00     0.055 A 
ATOM     67  C   UNL A   1      43.429  24.167  25.390  1.00  0.00     0.041 A 
ATOM     68  F   UNL A   1      44.101  26.130  26.478  1.00  0.00    -0.206 F 
ATOM     69  C   UNL A   1      42.679  22.996  25.366  1.00  0.00     0.022 A 
BRANCH  66  70
ATOM     70  S   UNL A   1      40.951  21.132  26.514  1.00  0.00     0.124 S 
ATOM     71  O   UNL A   1      41.894  20.263  25.815  1.00  0.00    -0.237 OA
ATOM     72  O   UNL A   1      40.837  20.927  27.952  1.00  0.00    -0.237 OA
ATOM     73  O   UNL A   1      39.688  21.358  25.813  1.00  0.00    -0.744 OA
ENDBRANCH  66  70
ENDBRANCH  49  63
BRANCH  50  74
ATOM     74  C   UNL A   1      41.302  31.365  35.022  1.00  0.00     0.023 A 
ATOM     75  C   UNL A   1      40.168  31.305  35.847  1.00  0.00     0.031 A 
ATOM     76  C   UNL A   1      42.242  32.382  35.270  1.00  0.00     0.131 A 
ATOM     77  C   UNL A   1      39.976  32.273  36.845  1.00  0.00     0.055 A 
ATOM     78  C   UNL A   1      42.075  33.309  36.300  1.00  0.00     0.041 A 
ATOM     79  F   UNL A   1      43.344  32.490  34.510  1.00  0.00    -0.206 F 
ATOM     80  C   UNL A   1      40.928  33.267  37.086  1.00  0.00     0.022 A 
BRANCH  77  81
ATOM     81  S   UNL A   1      38.411  32.276  37.762  1.00  0.00     0.124 S 
ATOM     82  O   UNL A   1      37.699  33.381  37.131  1.00  0.00    -0.237 OA
ATOM     83  O   UNL A   1      37.897  30.939  37.485  1.00  0.00    -0.237 OA
ATOM     84  O   UNL A   1      38.827  32.509  39.143  1.00  0.00    -0.744 OA
ENDBRANCH  77  81
ENDBRANCH  50  74
BRANCH  62  85
ATOM     85  C   UNL A   1      46.006  26.416  33.586  1.00  0.00     0.023 A 
ATOM     86  C   UNL A   1      46.011  25.346  34.497  1.00  0.00     0.031 A 
ATOM     87  C   UNL A   1      47.221  27.080  33.336  1.00  0.00     0.131 A 
ATOM     88  C   UNL A   1      47.199  25.000  35.161  1.00  0.00     0.055 A 
ATOM     89  C   UNL A   1      48.410  26.697  33.958  1.00  0.00     0.041 A 
ATOM     90  F   UNL A   1      47.273  28.110  32.476  1.00  0.00    -0.206 F 
ATOM     91  C   UNL A   1      48.401  25.659  34.885  1.00  0.00     0.022 A 
BRANCH  88  92
ATOM     92  S   UNL A   1      47.141  23.724  36.448  1.00  0.00     0.124 S 
ATOM     93  O   UNL A   1      46.948  22.509  35.662  1.00  0.00    -0.237 OA
ATOM     94  O   UNL A   1      48.444  23.867  37.090  1.00  0.00    -0.237 OA
ATOM     95  O   UNL A   1      46.000  24.117  37.272  1.00  0.00    -0.744 OA
ENDBRANCH  88  92
ENDBRANCH  62  85
ENDBRANCH  36  37
ENDBRANCH  29  31
ENDBRANCH  28  29
ENDBRANCH  27  28
ENDBRANCH   1  27
TORSDOF 19
ENDMDL
MODEL 2
REMARK VINA RESULT:     -10.0      0.834      7.465
REMARK SMILES Cc1cc2cc(-c3ccc([C@@H](C)C(=O)OCCOCCOC(=O)c4ccc(-c5c6nc(c(-c7cc(S(=O)(=O)[O-])ccc7F)c7ccc([nH]7)c(-c7cc(S(=O)(=O)[O-])ccc7F)c7nc(c(-c8cc(S(=O)(=O)[O-])ccc8F)c8ccc5[nH]8)C=C7)C=C6)cc4)cc3)ccc2[nH]1
REMARK SMILES IDX 19 1 18 2 17 3 16 4 15 5 13 6 14 7 11 8 12 9 10 10 7 11 8 12
REMARK SMILES IDX 88 13 9 14 87 15 6 16 1 17 2 18 3 19 92 20 4 21 91 22 5 24
REMARK SMILES IDX 90 25 89 26 20 27 21 28 22 29 23 30 24 31 25 32 86 33 26 34
REMARK SMILES IDX 85 35 27 36 28 37 29 38 79 39 30 40 84 41 78 42 80 43 31 44
REMARK SMILES IDX 83 45 77 46 76 47 32 49 64 50 44 51 63 52 45 53 48 54 62 55
REMARK SMILES IDX 81 56 46 57 47 58 61 60 82 61 49 62 33 63 34 64 42 65 35 66
REMARK SMILES IDX 41 67 43 68 40 69 36 70 37 71 38 72 39 73 65 74 66 75 74 76
REMARK SMILES IDX 67 77 73 78 75 79 72 80 68 81 69 82 70 83 71 84 50 85 51 86
REMARK SMILES IDX 59 87 52 88 58 89 60 90 57 91 53 92 54 93 55 94 56 95
REMARK H PARENT 92 23 80 48 48 59
REMARK Flexibility Score: inf
ROOT
ATOM      1  C   UNL A   1      33.463  35.055  29.001  1.00  0.00     0.202 C 
ENDROOT
BRANCH   1   2
ATOM      2  O   UNL A   1      32.600  35.145  30.135  1.00  0.00    -0.374 OA
BRANCH   2   3
ATOM      3  C   UNL A   1      32.791  36.254  31.015  1.00  0.00     0.202 C 
BRANCH   3   4
ATOM      4  C   UNL A   1      33.187  35.909  32.452  1.00  0.00     0.261 C 
BRANCH   4   5
ATOM      5  O   UNL A   1      34.617  35.867  32.604  1.00  0.00    -0.463 OA
BRANCH   5   6
ATOM      6  C   UNL A   1      35.146  34.679  32.996  1.00  0.00     0.313 C 
ATOM      7  O   UNL A   1      35.357  34.364  34.164  1.00  0.00    -0.252 OA
BRANCH   6   8
ATOM      8  C   UNL A   1      35.505  33.755  31.843  1.00  0.00     0.126 C 
ATOM      9  C   UNL A   1      35.091  32.328  32.198  1.00  0.00     0.025 C 
BRANCH   8  10
ATOM     10  C   UNL A   1      36.927  33.814  31.295  1.00  0.00    -0.034 A 
ATOM     11  C   UNL A   1      39.556  34.210  30.268  1.00  0.00    -0.018 A 
ATOM     12  C   UNL A   1      38.523  33.716  29.457  1.00  0.00     0.009 A 
ATOM     13  C   UNL A   1      39.266  34.449  31.618  1.00  0.00     0.009 A 
ATOM     14  C   UNL A   1      37.229  33.522  29.959  1.00  0.00     0.005 A 
ATOM     15  C   UNL A   1      37.973  34.255  32.124  1.00  0.00     0.005 A 
BRANCH  11  16
ATOM     16  C   UNL A   1      40.875  34.535  29.699  1.00  0.00    -0.018 A 
ATOM     17  C   UNL A   1      46.940  34.178  28.861  1.00  0.00     0.064 C 
ATOM     18  C   UNL A   1      45.469  34.288  29.008  1.00  0.00     0.013 A 
ATOM     19  C   UNL A   1      44.588  33.582  29.801  1.00  0.00     0.031 A 
ATOM     20  N   UNL A   1      44.733  35.217  28.313  1.00  0.00    -0.359 N 
ATOM     21  C   UNL A   1      43.285  34.106  29.586  1.00  0.00     0.000 A 
ATOM     22  C   UNL A   1      43.399  35.122  28.642  1.00  0.00     0.046 A 
ATOM     23  H   UNL A   1      45.107  35.862  27.669  1.00  0.00     0.166 HD
ATOM     24  C   UNL A   1      42.013  33.814  30.116  1.00  0.00     0.019 A 
ATOM     25  C   UNL A   1      42.295  35.856  28.193  1.00  0.00     0.027 A 
ATOM     26  C   UNL A   1      41.039  35.542  28.736  1.00  0.00     0.011 A 
ENDBRANCH  11  16
ENDBRANCH   8  10
ENDBRANCH   6   8
ENDBRANCH   5   6
ENDBRANCH   4   5
ENDBRANCH   3   4
ENDBRANCH   2   3
ENDBRANCH   1   2
BRANCH   1  27
ATOM     27  C   UNL A   1      33.388  33.767  28.173  1.00  0.00     0.261 C 
BRANCH  27  28
ATOM     28  O   UNL A   1      34.412  32.822  28.531  1.00  0.00    -0.460 OA
BRANCH  28  29
ATOM     29  C   UNL A   1      34.272  31.593  27.980  1.00  0.00     0.338 C 
ATOM     30  O   UNL A   1      33.378  31.224  27.228  1.00  0.00    -0.246 OA
BRANCH  29  31
ATOM     31  C   UNL A   1      35.466  30.773  28.256  1.00  0.00     0.060 A 
ATOM     32  C   UNL A   1      35.443  29.960  29.397  1.00  0.00     0.016 A 
ATOM     33  C   UNL A   1      36.614  30.849  27.463  1.00  0.00     0.016 A 
ATOM     34  C   UNL A   1      36.585  29.258  29.779  1.00  0.00     0.010 A 
ATOM     35  C   UNL A   1      37.763  30.151  27.854  1.00  0.00     0.010 A 
ATOM     36  C   UNL A   1      37.765  29.380  29.033  1.00  0.00    -0.014 A 
BRANCH  36  37
ATOM     37  C   UNL A   1      39.037  28.841  29.577  1.00  0.00     0.031 A 
ATOM     38  C   UNL A   1      39.625  29.481  30.806  1.00  0.00     0.074 A 
ATOM     39  C   UNL A   1      39.642  27.781  29.011  1.00  0.00     0.049 A 
ATOM     40  N   UNL A   1      40.753  29.229  31.418  1.00  0.00    -0.248 NA
ATOM     41  C   UNL A   1      38.828  30.551  31.426  1.00  0.00     0.031 C 
ATOM     42  C   UNL A   1      39.135  27.037  27.860  1.00  0.00     0.029 A 
ATOM     43  N   UNL A   1      40.820  27.152  29.327  1.00  0.00    -0.354 N 
ATOM     44  C   UNL A   1      40.805  30.107  32.495  1.00  0.00     0.074 A 
ATOM     45  C   UNL A   1      39.611  30.924  32.427  1.00  0.00     0.031 C 
ATOM     46  C   UNL A   1      40.005  26.058  27.558  1.00  0.00     0.029 A 
ATOM     47  C   UNL A   1      41.150  26.134  28.463  1.00  0.00     0.049 A 
ATOM     48  H   UNL A   1      41.376  27.406  30.099  1.00  0.00     0.167 HD
ATOM     49  C   UNL A   1      41.754  30.216  33.457  1.00  0.00     0.034 A 
ATOM     50  C   UNL A   1      42.263  25.375  28.394  1.00  0.00     0.034 A 
ATOM     51  C   UNL A   1      42.948  29.407  33.501  1.00  0.00     0.049 A 
ATOM     52  C   UNL A   1      43.364  25.592  29.406  1.00  0.00     0.074 A 
ATOM     53  C   UNL A   1      43.980  29.440  34.423  1.00  0.00     0.029 A 
ATOM     54  N   UNL A   1      43.275  28.424  32.576  1.00  0.00    -0.354 N 
ATOM     55  N   UNL A   1      43.409  26.436  30.412  1.00  0.00    -0.248 NA
ATOM     56  C   UNL A   1      44.563  24.752  29.276  1.00  0.00     0.031 C 
ATOM     57  C   UNL A   1      44.961  28.528  34.018  1.00  0.00     0.029 A 
ATOM     58  C   UNL A   1      44.507  27.867  32.888  1.00  0.00     0.049 A 
ATOM     59  H   UNL A   1      42.715  28.160  31.811  1.00  0.00     0.167 HD
ATOM     60  C   UNL A   1      44.623  26.199  31.054  1.00  0.00     0.074 A 
ATOM     61  C   UNL A   1      45.277  25.132  30.326  1.00  0.00     0.031 C 
ATOM     62  C   UNL A   1      45.147  26.803  32.150  1.00  0.00     0.034 A 
BRANCH  49  63
ATOM     63  C   UNL A   1      41.559  31.286  34.503  1.00  0.00     0.023 A 
ATOM     64  C   UNL A   1      40.521  31.215  35.449  1.00  0.00     0.031 A 
ATOM     65  C   UNL A   1      42.402  32.411  34.535  1.00  0.00     0.131 A 
ATOM     66  C   UNL A   1      40.311  32.279  36.339  1.00  0.00     0.055 A 
ATOM     67  C   UNL A   1      42.236  33.430  35.475  1.00  0.00     0.041 A 
ATOM     68  F   UNL A   1      43.395  32.546  33.642  1.00  0.00    -0.206 F 
ATOM     69  C   UNL A   1      41.177  33.375  36.375  1.00  0.00     0.022 A 
BRANCH  66  70
ATOM     70  S   UNL A   1      38.808  32.277  37.355  1.00  0.00     0.124 S 
ATOM     71  O   UNL A   1      39.358  32.456  38.697  1.00  0.00    -0.237 OA
ATOM     72  O   UNL A   1      38.060  33.405  36.815  1.00  0.00    -0.237 OA
ATOM     73  O   UNL A   1      38.224  30.962  37.101  1.00  0.00    -0.744 OA
ENDBRANCH  66  70
ENDBRANCH  49  63
BRANCH  50  74
ATOM     74  C   UNL A   1      42.431  24.372  27.302  1.00  0.00     0.023 A 
ATOM     75  C   UNL A   1      41.840  23.101  27.383  1.00  0.00     0.031 A 
ATOM     76  C   UNL A   1      43.247  24.648  26.189  1.00  0.00     0.131 A 
ATOM     77  C   UNL A   1      42.114  22.138  26.398  1.00  0.00     0.055 A 
ATOM     78  C   UNL A   1      43.471  23.706  25.184  1.00  0.00     0.041 A 
ATOM     79  F   UNL A   1      43.841  25.845  26.063  1.00  0.00    -0.206 F 
ATOM     80  C   UNL A   1      42.915  22.435  25.294  1.00  0.00     0.022 A 
BRANCH  77  81
ATOM     81  S   UNL A   1      41.488  20.452  26.636  1.00  0.00     0.124 S 
ATOM     82  O   UNL A   1      42.256  20.010  27.793  1.00  0.00    -0.237 OA
ATOM     83  O   UNL A   1      40.065  20.687  26.861  1.00  0.00    -0.237 OA
ATOM     84  O   UNL A   1      41.816  19.787  25.377  1.00  0.00    -0.744 OA
ENDBRANCH  77  81
ENDBRANCH  50  74
BRANCH  62  85
ATOM     85  C   UNL A   1      46.467  26.279  32.664  1.00  0.00     0.023 A 
ATOM     86  C   UNL A   1      46.544  25.172  33.526  1.00  0.00     0.031 A 
ATOM     87  C   UNL A   1      47.667  26.901  32.275  1.00  0.00     0.131 A 
ATOM     88  C   UNL A   1      47.792  24.748  34.009  1.00  0.00     0.055 A 
ATOM     89  C   UNL A   1      48.910  26.441  32.713  1.00  0.00     0.041 A 
ATOM     90  F   UNL A   1      47.652  27.963  31.453  1.00  0.00    -0.206 F 
ATOM     91  C   UNL A   1      48.976  25.366  33.595  1.00  0.00     0.022 A 
BRANCH  88  92
ATOM     92  S   UNL A   1      47.848  23.422  35.244  1.00  0.00     0.124 S 
ATOM     93  O   UNL A   1      47.304  24.084  36.426  1.00  0.00    -0.237 OA
ATOM     94  O   UNL A   1      47.003  22.397  34.642  1.00  0.00    -0.237 OA
ATOM     95  O   UNL A   1      49.268  23.083  35.322  1.00  0.00    -0.744 OA
ENDBRANCH  88  92
ENDBRANCH  62  85
ENDBRANCH  36  37
ENDBRANCH  29  31
ENDBRANCH  28  29
ENDBRANCH  27  28
ENDBRANCH   1  27
TORSDOF 19
ENDMDL
MODEL 3
REMARK VINA RESULT:      -9.8      2.349      7.818
REMARK SMILES Cc1cc2cc(-c3ccc([C@@H](C)C(=O)OCCOCCOC(=O)c4ccc(-c5c6nc(c(-c7cc(S(=O)(=O)[O-])ccc7F)c7ccc([nH]7)c(-c7cc(S(=O)(=O)[O-])ccc7F)c7nc(c(-c8cc(S(=O)(=O)[O-])ccc8F)c8ccc5[nH]8)C=C7)C=C6)cc4)cc3)ccc2[nH]1
REMARK SMILES IDX 19 1 18 2 17 3 16 4 15 5 13 6 14 7 11 8 12 9 10 10 7 11 8 12
REMARK SMILES IDX 88 13 9 14 87 15 6 16 1 17 2 18 3 19 92 20 4 21 91 22 5 24
REMARK SMILES IDX 90 25 89 26 20 27 21 28 22 29 23 30 24 31 25 32 86 33 26 34
REMARK SMILES IDX 85 35 27 36 28 37 29 38 79 39 30 40 84 41 78 42 80 43 31 44
REMARK SMILES IDX 83 45 77 46 76 47 32 49 64 50 44 51 63 52 45 53 48 54 62 55
REMARK SMILES IDX 81 56 46 57 47 58 61 60 82 61 49 62 33 63 34 64 42 65 35 66
REMARK SMILES IDX 41 67 43 68 40 69 36 70 37 71 38 72 39 73 65 74 66 75 74 76
REMARK SMILES IDX 67 77 73 78 75 79 72 80 68 81 69 82 70 83 71 84 50 85 51 86
REMARK SMILES IDX 59 87 52 88 58 89 60 90 57 91 53 92 54 93 55 94 56 95
REMARK H PARENT 92 23 80 48 48 59
REMARK Flexibility Score: inf
ROOT
ATOM      1  C   UNL A   1      34.375  34.885  28.234  1.00  0.00     0.202 C 
ENDROOT
BRANCH   1   2
ATOM      2  O   UNL A   1      34.196  35.901  29.220  1.00  0.00    -0.374 OA
BRANCH   2   3
ATOM      3  C   UNL A   1      33.009  35.841  30.013  1.00  0.00     0.202 C 
BRANCH   3   4
ATOM      4  C   UNL A   1      33.203  35.464  31.483  1.00  0.00     0.261 C 
BRANCH   4   5
ATOM      5  O   UNL A   1      34.467  35.937  31.982  1.00  0.00    -0.463 OA
BRANCH   5   6
ATOM      6  C   UNL A   1      35.200  35.048  32.700  1.00  0.00     0.313 C 
ATOM      7  O   UNL A   1      35.424  35.145  33.904  1.00  0.00    -0.252 OA
BRANCH   6   8
ATOM      8  C   UNL A   1      35.775  33.911  31.871  1.00  0.00     0.126 C 
ATOM      9  C   UNL A   1      35.534  32.590  32.598  1.00  0.00     0.025 C 
BRANCH   8  10
ATOM     10  C   UNL A   1      37.215  34.037  31.384  1.00  0.00    -0.034 A 
ATOM     11  C   UNL A   1      39.917  33.986  30.481  1.00  0.00    -0.018 A 
ATOM     12  C   UNL A   1      39.593  34.379  31.789  1.00  0.00     0.009 A 
ATOM     13  C   UNL A   1      38.862  33.675  29.614  1.00  0.00     0.009 A 
ATOM     14  C   UNL A   1      38.265  34.403  32.236  1.00  0.00     0.005 A 
ATOM     15  C   UNL A   1      37.533  33.699  30.057  1.00  0.00     0.005 A 
BRANCH  11  16
ATOM     16  C   UNL A   1      41.322  33.837  30.063  1.00  0.00    -0.018 A 
ATOM     17  C   UNL A   1      46.770  31.116  29.336  1.00  0.00     0.064 C 
ATOM     18  C   UNL A   1      45.466  31.809  29.464  1.00  0.00     0.013 A 
ATOM     19  C   UNL A   1      44.270  31.384  30.005  1.00  0.00     0.031 A 
ATOM     20  N   UNL A   1      45.280  33.101  29.033  1.00  0.00    -0.359 N 
ATOM     21  C   UNL A   1      43.338  32.454  29.906  1.00  0.00     0.000 A 
ATOM     22  C   UNL A   1      43.990  33.514  29.283  1.00  0.00     0.046 A 
ATOM     23  H   UNL A   1      45.972  33.654  28.604  1.00  0.00     0.166 HD
ATOM     24  C   UNL A   1      41.995  32.620  30.296  1.00  0.00     0.019 A 
ATOM     25  C   UNL A   1      43.357  34.735  29.024  1.00  0.00     0.027 A 
ATOM     26  C   UNL A   1      42.018  34.873  29.421  1.00  0.00     0.011 A 
ENDBRANCH  11  16
ENDBRANCH   8  10
ENDBRANCH   6   8
ENDBRANCH   5   6
ENDBRANCH   4   5
ENDBRANCH   3   4
ENDBRANCH   2   3
ENDBRANCH   1   2
BRANCH   1  27
ATOM     27  C   UNL A   1      33.577  33.589  28.422  1.00  0.00     0.261 C 
BRANCH  27  28
ATOM     28  O   UNL A   1      34.391  32.505  28.901  1.00  0.00    -0.460 OA
BRANCH  28  29
ATOM     29  C   UNL A   1      34.373  31.393  28.128  1.00  0.00     0.338 C 
ATOM     30  O   UNL A   1      33.593  31.146  27.217  1.00  0.00    -0.246 OA
BRANCH  29  31
ATOM     31  C   UNL A   1      35.564  30.566  28.400  1.00  0.00     0.060 A 
ATOM     32  C   UNL A   1      35.674  29.989  29.673  1.00  0.00     0.016 A 
ATOM     33  C   UNL A   1      36.588  30.414  27.462  1.00  0.00     0.016 A 
ATOM     34  C   UNL A   1      36.831  29.302  30.031  1.00  0.00     0.010 A 
ATOM     35  C   UNL A   1      37.754  29.731  27.829  1.00  0.00     0.010 A 
ATOM     36  C   UNL A   1      37.896  29.202  29.126  1.00  0.00    -0.014 A 
BRANCH  36  37
ATOM     37  C   UNL A   1      39.212  28.697  29.593  1.00  0.00     0.031 A 
ATOM     38  C   UNL A   1      39.857  29.355  30.783  1.00  0.00     0.074 A 
ATOM     39  C   UNL A   1      39.807  27.650  28.993  1.00  0.00     0.049 A 
ATOM     40  N   UNL A   1      41.027  29.133  31.325  1.00  0.00    -0.248 NA
ATOM     41  C   UNL A   1      39.074  30.407  31.448  1.00  0.00     0.031 C 
ATOM     42  C   UNL A   1      39.250  26.889  27.877  1.00  0.00     0.029 A 
ATOM     43  N   UNL A   1      41.018  27.051  29.238  1.00  0.00    -0.354 N 
ATOM     44  C   UNL A   1      41.122  30.015  32.395  1.00  0.00     0.074 A 
ATOM     45  C   UNL A   1      39.906  30.803  32.399  1.00  0.00     0.031 C 
ATOM     46  C   UNL A   1      40.124  25.931  27.524  1.00  0.00     0.029 A 
ATOM     47  C   UNL A   1      41.320  26.038  28.358  1.00  0.00     0.049 A 
ATOM     48  H   UNL A   1      41.613  27.321  29.974  1.00  0.00     0.167 HD
ATOM     49  C   UNL A   1      42.125  30.152  33.298  1.00  0.00     0.034 A 
ATOM     50  C   UNL A   1      42.445  25.307  28.222  1.00  0.00     0.034 A 
ATOM     51  C   UNL A   1      43.339  29.372  33.270  1.00  0.00     0.049 A 
ATOM     52  C   UNL A   1      43.600  25.555  29.165  1.00  0.00     0.074 A 
ATOM     53  C   UNL A   1      44.424  29.433  34.128  1.00  0.00     0.029 A 
ATOM     54  N   UNL A   1      43.634  28.394  32.329  1.00  0.00    -0.354 N 
ATOM     55  N   UNL A   1      43.685  26.403  30.164  1.00  0.00    -0.248 NA
ATOM     56  C   UNL A   1      44.809  24.744  28.964  1.00  0.00     0.031 C 
ATOM     57  C   UNL A   1      45.401  28.544  33.665  1.00  0.00     0.029 A 
ATOM     58  C   UNL A   1      44.896  27.869  32.566  1.00  0.00     0.049 A 
ATOM     59  H   UNL A   1      43.035  28.114  31.599  1.00  0.00     0.167 HD
ATOM     60  C   UNL A   1      44.942  26.198  30.731  1.00  0.00     0.074 A 
ATOM     61  C   UNL A   1      45.576  25.144  29.968  1.00  0.00     0.031 C 
ATOM     62  C   UNL A   1      45.516  26.819  31.793  1.00  0.00     0.034 A 
BRANCH  49  63
ATOM     63  C   UNL A   1      41.968  31.220  34.351  1.00  0.00     0.023 A 
ATOM     64  C   UNL A   1      42.180  32.580  34.062  1.00  0.00     0.031 A 
ATOM     65  C   UNL A   1      41.634  30.873  35.672  1.00  0.00     0.131 A 
ATOM     66  C   UNL A   1      42.124  33.532  35.091  1.00  0.00     0.055 A 
ATOM     67  C   UNL A   1      41.502  31.835  36.676  1.00  0.00     0.041 A 
ATOM     68  F   UNL A   1      41.443  29.589  36.013  1.00  0.00    -0.206 F 
ATOM     69  C   UNL A   1      41.762  33.172  36.391  1.00  0.00     0.022 A 
BRANCH  66  70
ATOM     70  S   UNL A   1      42.667  35.226  34.737  1.00  0.00     0.124 S 
ATOM     71  O   UNL A   1      42.795  35.197  33.282  1.00  0.00    -0.237 OA
ATOM     72  O   UNL A   1      41.571  36.027  35.267  1.00  0.00    -0.237 OA
ATOM     73  O   UNL A   1      43.930  35.339  35.464  1.00  0.00    -0.744 OA
ENDBRANCH  66  70
ENDBRANCH  49  63
BRANCH  50  74
ATOM     74  C   UNL A   1      42.571  24.304  27.124  1.00  0.00     0.023 A 
ATOM     75  C   UNL A   1      41.995  23.029  27.232  1.00  0.00     0.031 A 
ATOM     76  C   UNL A   1      43.333  24.586  25.975  1.00  0.00     0.131 A 
ATOM     77  C   UNL A   1      42.231  22.067  26.236  1.00  0.00     0.055 A 
ATOM     78  C   UNL A   1      43.518  23.646  24.961  1.00  0.00     0.041 A 
ATOM     79  F   UNL A   1      43.910  25.789  25.821  1.00  0.00    -0.206 F 
ATOM     80  C   UNL A   1      42.978  22.371  25.096  1.00  0.00     0.022 A 
BRANCH  77  81
ATOM     81  S   UNL A   1      41.631  20.377  26.503  1.00  0.00     0.124 S 
ATOM     82  O   UNL A   1      42.258  20.035  27.774  1.00  0.00    -0.237 OA
ATOM     83  O   UNL A   1      40.185  20.571  26.532  1.00  0.00    -0.237 OA
ATOM     84  O   UNL A   1      42.137  19.649  25.341  1.00  0.00    -0.744 OA
ENDBRANCH  77  81
ENDBRANCH  50  74
BRANCH  62  85
ATOM     85  C   UNL A   1      46.877  26.329  32.227  1.00  0.00     0.023 A 
ATOM     86  C   UNL A   1      48.063  26.831  31.665  1.00  0.00     0.031 A 
ATOM     87  C   UNL A   1      46.982  25.345  33.226  1.00  0.00     0.131 A 
ATOM     88  C   UNL A   1      49.303  26.314  32.073  1.00  0.00     0.055 A 
ATOM     89  C   UNL A   1      48.220  24.874  33.668  1.00  0.00     0.041 A 
ATOM     90  F   UNL A   1      45.881  24.829  33.797  1.00  0.00    -0.206 F 
ATOM     91  C   UNL A   1      49.389  25.351  33.082  1.00  0.00     0.022 A 
BRANCH  88  92
ATOM     92  S   UNL A   1      50.804  26.864  31.217  1.00  0.00     0.124 S 
ATOM     93  O   UNL A   1      50.326  27.045  29.850  1.00  0.00    -0.237 OA
ATOM     94  O   UNL A   1      51.147  28.084  31.939  1.00  0.00    -0.237 OA
ATOM     95  O   UNL A   1      51.735  25.753  31.407  1.00  0.00    -0.744 OA
ENDBRANCH  88  92
ENDBRANCH  62  85
ENDBRANCH  36  37
ENDBRANCH  29  31
ENDBRANCH  28  29
ENDBRANCH  27  28
ENDBRANCH   1  27
TORSDOF 19
ENDMDL
