MODEL 1
REMARK VINA RESULT:     -11.7      0.000      0.000
REMARK SMILES O=C(OCCOCCOC(=O)c1cccc(Nc2ccnc3ccc(F)cc23)c1)c1ccc(-c2c3nc(c(-c4cc(S(=O)(=O)[O-])ccc4F)c4ccc([nH]4)c(-c4cc(S(=O)(=O)[O-])ccc4F)c4nc(c(-c5cc(S(=O)(=O)[O-])ccc5F)c5ccc2[nH]5)C=C4)C=C3)cc1
REMARK SMILES IDX 5 1 4 2 3 3 2 4 1 5 30 6 31 7 92 8 32 9 91 10 33 11 34 12
REMARK SMILES IDX 35 13 85 14 36 15 90 16 84 17 86 18 37 19 89 20 83 21 82 22
REMARK SMILES IDX 38 24 70 25 50 26 69 27 51 28 54 29 68 30 87 31 52 32 53 33
REMARK SMILES IDX 67 35 88 36 55 37 39 38 40 39 48 40 41 41 47 42 49 43 46 44
REMARK SMILES IDX 42 45 43 46 44 47 45 48 71 49 72 50 80 51 73 52 79 53 81 54
REMARK SMILES IDX 78 55 74 56 75 57 76 58 77 59 56 60 57 61 65 62 58 63 64 64
REMARK SMILES IDX 66 65 63 66 59 67 60 68 61 69 62 70 6 71 7 72 8 73 9 74
REMARK SMILES IDX 10 75 11 76 12 77 13 78 29 79 14 80 16 81 15 82 17 83 18 85
REMARK SMILES IDX 19 86 28 87 20 88 22 89 27 90 21 91 23 92 25 93 24 94 26 95
REMARK H PARENT 86 23 54 34 17 84
REMARK Flexibility Score: inf
ROOT
ATOM      1  C   UNL A   1      44.766  21.257  24.848  1.00  0.00     0.202 C 
ENDROOT
BRANCH   1   2
ATOM      2  C   UNL A   1      44.460  22.372  23.847  1.00  0.00     0.261 C 
BRANCH   2   3
ATOM      3  O   UNL A   1      43.762  23.446  24.495  1.00  0.00    -0.460 OA
BRANCH   3   4
ATOM      4  C   UNL A   1      44.305  24.569  25.023  1.00  0.00     0.338 C 
ATOM      5  O   UNL A   1      45.370  24.986  24.574  1.00  0.00    -0.246 OA
BRANCH   4   6
ATOM      6  C   UNL A   1      43.643  25.340  26.111  1.00  0.00     0.060 A 
ATOM      7  C   UNL A   1      43.807  26.711  26.305  1.00  0.00     0.016 A 
ATOM      8  C   UNL A   1      42.750  24.654  26.946  1.00  0.00     0.016 A 
ATOM      9  C   UNL A   1      43.208  27.371  27.360  1.00  0.00     0.010 A 
ATOM     10  C   UNL A   1      42.074  25.329  27.967  1.00  0.00     0.010 A 
ATOM     11  C   UNL A   1      42.326  26.689  28.189  1.00  0.00    -0.014 A 
BRANCH  11  12
ATOM     12  C   UNL A   1      41.772  27.434  29.333  1.00  0.00     0.031 A 
ATOM     13  C   UNL A   1      42.558  27.466  30.605  1.00  0.00     0.074 A 
ATOM     14  C   UNL A   1      40.678  28.195  29.147  1.00  0.00     0.049 A 
ATOM     15  N   UNL A   1      42.277  28.049  31.737  1.00  0.00    -0.248 NA
ATOM     16  C   UNL A   1      43.844  26.749  30.596  1.00  0.00     0.031 C 
ATOM     17  C   UNL A   1      39.947  28.321  27.881  1.00  0.00     0.029 A 
ATOM     18  N   UNL A   1      40.020  29.043  29.993  1.00  0.00    -0.354 N 
ATOM     19  C   UNL A   1      43.333  27.743  32.588  1.00  0.00     0.074 A 
ATOM     20  C   UNL A   1      44.252  26.911  31.843  1.00  0.00     0.031 C 
ATOM     21  C   UNL A   1      38.974  29.233  28.024  1.00  0.00     0.029 A 
ATOM     22  C   UNL A   1      38.952  29.684  29.409  1.00  0.00     0.049 A 
ATOM     23  H   UNL A   1      40.285  29.182  30.931  1.00  0.00     0.167 HD
ATOM     24  C   UNL A   1      43.501  28.120  33.878  1.00  0.00     0.034 A 
ATOM     25  C   UNL A   1      38.042  30.514  29.953  1.00  0.00     0.034 A 
ATOM     26  C   UNL A   1      42.544  28.946  34.574  1.00  0.00     0.049 A 
ATOM     27  C   UNL A   1      38.188  30.825  31.421  1.00  0.00     0.074 A 
ATOM     28  C   UNL A   1      42.540  29.347  35.896  1.00  0.00     0.029 A 
ATOM     29  N   UNL A   1      41.406  29.495  33.987  1.00  0.00    -0.354 N 
ATOM     30  N   UNL A   1      39.139  30.456  32.252  1.00  0.00    -0.248 NA
ATOM     31  C   UNL A   1      37.137  31.646  32.028  1.00  0.00     0.031 C 
ATOM     32  C   UNL A   1      41.367  30.075  36.125  1.00  0.00     0.029 A 
ATOM     33  C   UNL A   1      40.678  30.205  34.928  1.00  0.00     0.049 A 
ATOM     34  H   UNL A   1      41.155  29.394  33.041  1.00  0.00     0.167 HD
ATOM     35  C   UNL A   1      38.813  31.024  33.478  1.00  0.00     0.074 A 
ATOM     36  C   UNL A   1      37.589  31.776  33.266  1.00  0.00     0.031 C 
ATOM     37  C   UNL A   1      39.456  30.935  34.672  1.00  0.00     0.034 A 
BRANCH  24  38
ATOM     38  C   UNL A   1      44.686  27.537  34.609  1.00  0.00     0.023 A 
ATOM     39  C   UNL A   1      44.618  26.305  35.287  1.00  0.00     0.031 A 
ATOM     40  C   UNL A   1      45.870  28.287  34.730  1.00  0.00     0.131 A 
ATOM     41  C   UNL A   1      45.668  25.914  36.134  1.00  0.00     0.055 A 
ATOM     42  C   UNL A   1      46.948  27.848  35.501  1.00  0.00     0.041 A 
ATOM     43  F   UNL A   1      45.984  29.485  34.135  1.00  0.00    -0.206 F 
ATOM     44  C   UNL A   1      46.842  26.665  36.227  1.00  0.00     0.022 A 
BRANCH  41  45
ATOM     45  S   UNL A   1      45.400  24.516  37.261  1.00  0.00     0.124 S 
ATOM     46  O   UNL A   1      44.596  25.136  38.314  1.00  0.00    -0.237 OA
ATOM     47  O   UNL A   1      44.706  23.555  36.413  1.00  0.00    -0.237 OA
ATOM     48  O   UNL A   1      46.752  24.134  37.663  1.00  0.00    -0.744 OA
ENDBRANCH  41  45
ENDBRANCH  24  38
BRANCH  25  49
ATOM     49  C   UNL A   1      36.900  31.041  29.148  1.00  0.00     0.023 A 
ATOM     50  C   UNL A   1      35.899  30.190  28.653  1.00  0.00     0.031 A 
ATOM     51  C   UNL A   1      36.817  32.408  28.815  1.00  0.00     0.131 A 
ATOM     52  C   UNL A   1      34.889  30.702  27.821  1.00  0.00     0.055 A 
ATOM     53  C   UNL A   1      35.777  32.922  28.040  1.00  0.00     0.041 A 
ATOM     54  F   UNL A   1      37.748  33.272  29.250  1.00  0.00    -0.206 F 
ATOM     55  C   UNL A   1      34.812  32.065  27.525  1.00  0.00     0.022 A 
BRANCH  52  56
ATOM     56  S   UNL A   1      33.725  29.544  27.049  1.00  0.00     0.124 S 
ATOM     57  O   UNL A   1      32.676  30.443  26.584  1.00  0.00    -0.237 OA
ATOM     58  O   UNL A   1      34.551  28.931  26.015  1.00  0.00    -0.237 OA
ATOM     59  O   UNL A   1      33.346  28.659  28.149  1.00  0.00    -0.744 OA
ENDBRANCH  52  56
ENDBRANCH  25  49
BRANCH  37  60
ATOM     60  C   UNL A   1      38.856  31.716  35.812  1.00  0.00     0.023 A 
ATOM     61  C   UNL A   1      38.206  31.079  36.882  1.00  0.00     0.031 A 
ATOM     62  C   UNL A   1      38.921  33.121  35.812  1.00  0.00     0.131 A 
ATOM     63  C   UNL A   1      37.586  31.850  37.875  1.00  0.00     0.055 A 
ATOM     64  C   UNL A   1      38.364  33.879  36.841  1.00  0.00     0.041 A 
ATOM     65  F   UNL A   1      39.530  33.777  34.811  1.00  0.00    -0.206 F 
ATOM     66  C   UNL A   1      37.678  33.244  37.872  1.00  0.00     0.022 A 
BRANCH  63  67
ATOM     67  S   UNL A   1      36.560  31.007  39.109  1.00  0.00     0.124 S 
ATOM     68  O   UNL A   1      35.423  31.914  39.229  1.00  0.00    -0.237 OA
ATOM     69  O   UNL A   1      36.288  29.725  38.467  1.00  0.00    -0.237 OA
ATOM     70  O   UNL A   1      37.425  30.940  40.285  1.00  0.00    -0.744 OA
ENDBRANCH  63  67
ENDBRANCH  37  60
ENDBRANCH  11  12
ENDBRANCH   4   6
ENDBRANCH   3   4
ENDBRANCH   2   3
ENDBRANCH   1   2
BRANCH   1  71
ATOM     71  O   UNL A   1      43.739  20.942  25.793  1.00  0.00    -0.374 OA
BRANCH  71  72
ATOM     72  C   UNL A   1      43.277  19.586  25.788  1.00  0.00     0.202 C 
BRANCH  72  73
ATOM     73  C   UNL A   1      41.748  19.547  25.872  1.00  0.00     0.261 C 
BRANCH  73  74
ATOM     74  O   UNL A   1      41.270  20.901  25.828  1.00  0.00    -0.460 OA
BRANCH  74  75
ATOM     75  C   UNL A   1      40.516  21.250  26.899  1.00  0.00     0.338 C 
ATOM     76  O   UNL A   1      40.799  21.133  28.079  1.00  0.00    -0.246 OA
BRANCH  75  77
ATOM     77  C   UNL A   1      39.368  22.029  26.395  1.00  0.00     0.062 A 
ATOM     78  C   UNL A   1      39.202  23.331  26.881  1.00  0.00     0.016 A 
ATOM     79  C   UNL A   1      38.490  21.505  25.444  1.00  0.00     0.041 A 
ATOM     80  C   UNL A   1      38.221  24.155  26.338  1.00  0.00     0.003 A 
ATOM     81  C   UNL A   1      37.393  22.278  25.036  1.00  0.00     0.039 A 
ATOM     82  C   UNL A   1      37.318  23.629  25.419  1.00  0.00     0.026 A 
BRANCH  81  83
ATOM     83  N   UNL A   1      36.160  21.609  24.719  1.00  0.00    -0.355 N 
ATOM     84  H   UNL A   1      36.070  20.629  24.715  1.00  0.00     0.167 HD
BRANCH  83  85
ATOM     85  C   UNL A   1      35.071  22.492  24.405  1.00  0.00     0.050 A 
ATOM     86  C   UNL A   1      35.017  23.026  23.109  1.00  0.00     0.047 A 
ATOM     87  C   UNL A   1      33.974  22.678  25.270  1.00  0.00     0.027 A 
ATOM     88  C   UNL A   1      33.824  23.532  22.653  1.00  0.00     0.114 A 
ATOM     89  C   UNL A   1      32.824  23.284  24.709  1.00  0.00     0.072 A 
ATOM     90  C   UNL A   1      33.962  22.305  26.633  1.00  0.00     0.051 A 
ATOM     91  N   UNL A   1      32.734  23.661  23.426  1.00  0.00    -0.256 NA
ATOM     92  C   UNL A   1      31.723  23.517  25.514  1.00  0.00     0.032 A 
ATOM     93  C   UNL A   1      32.857  22.605  27.421  1.00  0.00     0.124 A 
ATOM     94  C   UNL A   1      31.737  23.212  26.874  1.00  0.00     0.041 A 
ATOM     95  F   UNL A   1      32.878  22.327  28.731  1.00  0.00    -0.207 F 
ENDBRANCH  83  85
ENDBRANCH  81  83
ENDBRANCH  75  77
ENDBRANCH  74  75
ENDBRANCH  73  74
ENDBRANCH  72  73
ENDBRANCH  71  72
ENDBRANCH   1  71
TORSDOF 19
ENDMDL
MODEL 2
REMARK VINA RESULT:     -11.6      5.014      7.609
REMARK SMILES O=C(OCCOCCOC(=O)c1cccc(Nc2ccnc3ccc(F)cc23)c1)c1ccc(-c2c3nc(c(-c4cc(S(=O)(=O)[O-])ccc4F)c4ccc([nH]4)c(-c4cc(S(=O)(=O)[O-])ccc4F)c4nc(c(-c5cc(S(=O)(=O)[O-])ccc5F)c5ccc2[nH]5)C=C4)C=C3)cc1
REMARK SMILES IDX 5 1 4 2 3 3 2 4 1 5 30 6 31 7 92 8 32 9 91 10 33 11 34 12
REMARK SMILES IDX 35 13 85 14 36 15 90 16 84 17 86 18 37 19 89 20 83 21 82 22
REMARK SMILES IDX 38 24 70 25 50 26 69 27 51 28 54 29 68 30 87 31 52 32 53 33
REMARK SMILES IDX 67 35 88 36 55 37 39 38 40 39 48 40 41 41 47 42 49 43 46 44
REMARK SMILES IDX 42 45 43 46 44 47 45 48 71 49 72 50 80 51 73 52 79 53 81 54
REMARK SMILES IDX 78 55 74 56 75 57 76 58 77 59 56 60 57 61 65 62 58 63 64 64
REMARK SMILES IDX 66 65 63 66 59 67 60 68 61 69 62 70 6 71 7 72 8 73 9 74
REMARK SMILES IDX 10 75 11 76 12 77 13 78 29 79 14 80 16 81 15 82 17 83 18 85
REMARK SMILES IDX 19 86 28 87 20 88 22 89 27 90 21 91 23 92 25 93 24 94 26 95
REMARK H PARENT 86 23 54 34 17 84
REMARK Flexibility Score: inf
ROOT
ATOM      1  C   UNL A   1      35.805  20.610  25.004  1.00  0.00     0.202 C 
ENDROOT
BRANCH   1   2
ATOM      2  C   UNL A   1      37.324  20.436  24.980  1.00  0.00     0.261 C 
BRANCH   2   3
ATOM      3  O   UNL A   1      37.971  21.645  25.406  1.00  0.00    -0.460 OA
BRANCH   3   4
ATOM      4  C   UNL A   1      39.119  21.748  26.116  1.00  0.00     0.338 C 
ATOM      5  O   UNL A   1      39.802  20.742  26.297  1.00  0.00    -0.246 OA
BRANCH   4   6
ATOM      6  C   UNL A   1      39.605  23.044  26.665  1.00  0.00     0.060 A 
ATOM      7  C   UNL A   1      39.081  24.285  26.308  1.00  0.00     0.016 A 
ATOM      8  C   UNL A   1      40.603  23.002  27.649  1.00  0.00     0.016 A 
ATOM      9  C   UNL A   1      39.600  25.463  26.810  1.00  0.00     0.010 A 
ATOM     10  C   UNL A   1      41.080  24.184  28.224  1.00  0.00     0.010 A 
ATOM     11  C   UNL A   1      40.592  25.420  27.782  1.00  0.00    -0.014 A 
BRANCH  11  12
ATOM     12  C   UNL A   1      41.147  26.710  28.228  1.00  0.00     0.031 A 
ATOM     13  C   UNL A   1      42.554  27.046  27.846  1.00  0.00     0.074 A 
ATOM     14  C   UNL A   1      40.328  27.607  28.806  1.00  0.00     0.049 A 
ATOM     15  N   UNL A   1      43.254  28.111  28.120  1.00  0.00    -0.248 NA
ATOM     16  C   UNL A   1      43.266  26.046  27.034  1.00  0.00     0.031 C 
ATOM     17  C   UNL A   1      38.901  27.392  29.074  1.00  0.00     0.029 A 
ATOM     18  N   UNL A   1      40.552  28.889  29.225  1.00  0.00    -0.354 N 
ATOM     19  C   UNL A   1      44.502  27.898  27.546  1.00  0.00     0.074 A 
ATOM     20  C   UNL A   1      44.463  26.595  26.919  1.00  0.00     0.031 C 
ATOM     21  C   UNL A   1      38.370  28.523  29.564  1.00  0.00     0.029 A 
ATOM     22  C   UNL A   1      39.433  29.506  29.733  1.00  0.00     0.049 A 
ATOM     23  H   UNL A   1      41.431  29.329  29.166  1.00  0.00     0.167 HD
ATOM     24  C   UNL A   1      45.578  28.721  27.557  1.00  0.00     0.034 A 
ATOM     25  C   UNL A   1      39.300  30.719  30.303  1.00  0.00     0.034 A 
ATOM     26  C   UNL A   1      45.560  30.008  28.207  1.00  0.00     0.049 A 
ATOM     27  C   UNL A   1      40.542  31.567  30.407  1.00  0.00     0.074 A 
ATOM     28  C   UNL A   1      46.589  30.916  28.366  1.00  0.00     0.029 A 
ATOM     29  N   UNL A   1      44.438  30.567  28.816  1.00  0.00    -0.354 N 
ATOM     30  N   UNL A   1      41.749  31.324  29.944  1.00  0.00    -0.248 NA
ATOM     31  C   UNL A   1      40.411  32.841  31.118  1.00  0.00     0.031 C 
ATOM     32  C   UNL A   1      46.109  31.987  29.130  1.00  0.00     0.029 A 
ATOM     33  C   UNL A   1      44.758  31.792  29.377  1.00  0.00     0.049 A 
ATOM     34  H   UNL A   1      43.546  30.151  28.842  1.00  0.00     0.167 HD
ATOM     35  C   UNL A   1      42.518  32.429  30.288  1.00  0.00     0.074 A 
ATOM     36  C   UNL A   1      41.627  33.346  30.976  1.00  0.00     0.031 C 
ATOM     37  C   UNL A   1      43.836  32.671  30.063  1.00  0.00     0.034 A 
BRANCH  24  38
ATOM     38  C   UNL A   1      46.853  28.181  26.958  1.00  0.00     0.023 A 
ATOM     39  C   UNL A   1      47.134  28.270  25.581  1.00  0.00     0.031 A 
ATOM     40  C   UNL A   1      47.750  27.455  27.764  1.00  0.00     0.131 A 
ATOM     41  C   UNL A   1      48.218  27.559  25.041  1.00  0.00     0.055 A 
ATOM     42  C   UNL A   1      48.879  26.827  27.233  1.00  0.00     0.041 A 
ATOM     43  F   UNL A   1      47.521  27.305  29.078  1.00  0.00    -0.206 F 
ATOM     44  C   UNL A   1      49.106  26.858  25.860  1.00  0.00     0.022 A 
BRANCH  41  45
ATOM     45  S   UNL A   1      48.339  27.402  23.236  1.00  0.00     0.124 S 
ATOM     46  O   UNL A   1      48.293  25.951  23.063  1.00  0.00    -0.237 OA
ATOM     47  O   UNL A   1      47.167  28.136  22.775  1.00  0.00    -0.237 OA
ATOM     48  O   UNL A   1      49.626  28.019  22.922  1.00  0.00    -0.744 OA
ENDBRANCH  41  45
ENDBRANCH  24  38
BRANCH  25  49
ATOM     49  C   UNL A   1      37.993  31.166  30.870  1.00  0.00     0.023 A 
ATOM     50  C   UNL A   1      37.059  31.867  30.091  1.00  0.00     0.031 A 
ATOM     51  C   UNL A   1      37.676  30.943  32.225  1.00  0.00     0.131 A 
ATOM     52  C   UNL A   1      35.879  32.355  30.678  1.00  0.00     0.055 A 
ATOM     53  C   UNL A   1      36.475  31.376  32.788  1.00  0.00     0.041 A 
ATOM     54  F   UNL A   1      38.532  30.287  33.025  1.00  0.00    -0.206 F 
ATOM     55  C   UNL A   1      35.574  32.101  32.017  1.00  0.00     0.022 A 
BRANCH  52  56
ATOM     56  S   UNL A   1      34.788  33.415  29.690  1.00  0.00     0.124 S 
ATOM     57  O   UNL A   1      33.891  33.949  30.708  1.00  0.00    -0.237 OA
ATOM     58  O   UNL A   1      35.733  34.361  29.106  1.00  0.00    -0.237 OA
ATOM     59  O   UNL A   1      34.175  32.485  28.744  1.00  0.00    -0.744 OA
ENDBRANCH  52  56
ENDBRANCH  25  49
BRANCH  37  60
ATOM     60  C   UNL A   1      44.359  34.004  30.532  1.00  0.00     0.023 A 
ATOM     61  C   UNL A   1      44.260  35.157  29.736  1.00  0.00     0.031 A 
ATOM     62  C   UNL A   1      44.986  34.110  31.786  1.00  0.00     0.131 A 
ATOM     63  C   UNL A   1      44.840  36.355  30.175  1.00  0.00     0.055 A 
ATOM     64  C   UNL A   1      45.497  35.323  32.248  1.00  0.00     0.041 A 
ATOM     65  F   UNL A   1      45.108  33.037  32.583  1.00  0.00    -0.206 F 
ATOM     66  C   UNL A   1      45.440  36.450  31.434  1.00  0.00     0.022 A 
BRANCH  63  67
ATOM     67  S   UNL A   1      44.899  37.759  29.030  1.00  0.00     0.124 S 
ATOM     68  O   UNL A   1      46.335  37.970  28.882  1.00  0.00    -0.237 OA
ATOM     69  O   UNL A   1      44.208  37.233  27.856  1.00  0.00    -0.237 OA
ATOM     70  O   UNL A   1      44.187  38.815  29.746  1.00  0.00    -0.744 OA
ENDBRANCH  63  67
ENDBRANCH  37  60
ENDBRANCH  11  12
ENDBRANCH   4   6
ENDBRANCH   3   4
ENDBRANCH   2   3
ENDBRANCH   1   2
BRANCH   1  71
ATOM     71  O   UNL A   1      35.305  21.805  25.611  1.00  0.00    -0.374 OA
BRANCH  71  72
ATOM     72  C   UNL A   1      34.770  21.660  26.933  1.00  0.00     0.202 C 
BRANCH  72  73
ATOM     73  C   UNL A   1      33.388  22.315  27.020  1.00  0.00     0.261 C 
BRANCH  73  74
ATOM     74  O   UNL A   1      32.499  21.581  26.161  1.00  0.00    -0.460 OA
BRANCH  74  75
ATOM     75  C   UNL A   1      31.528  22.343  25.600  1.00  0.00     0.338 C 
ATOM     76  O   UNL A   1      30.416  22.576  26.042  1.00  0.00    -0.246 OA
BRANCH  75  77
ATOM     77  C   UNL A   1      32.131  23.054  24.457  1.00  0.00     0.062 A 
ATOM     78  C   UNL A   1      32.575  22.285  23.374  1.00  0.00     0.016 A 
ATOM     79  C   UNL A   1      32.231  24.446  24.431  1.00  0.00     0.041 A 
ATOM     80  C   UNL A   1      33.022  22.911  22.215  1.00  0.00     0.003 A 
ATOM     81  C   UNL A   1      32.853  25.061  23.335  1.00  0.00     0.039 A 
ATOM     82  C   UNL A   1      33.163  24.296  22.196  1.00  0.00     0.026 A 
BRANCH  81  83
ATOM     83  N   UNL A   1      33.623  26.255  23.560  1.00  0.00    -0.355 N 
ATOM     84  H   UNL A   1      34.606  26.255  23.607  1.00  0.00     0.167 HD
BRANCH  83  85
ATOM     85  C   UNL A   1      32.837  27.447  23.714  1.00  0.00     0.050 A 
ATOM     86  C   UNL A   1      31.881  27.729  22.727  1.00  0.00     0.047 A 
ATOM     87  C   UNL A   1      32.854  28.219  24.893  1.00  0.00     0.027 A 
ATOM     88  C   UNL A   1      30.864  28.605  23.025  1.00  0.00     0.114 A 
ATOM     89  C   UNL A   1      31.797  29.148  25.055  1.00  0.00     0.072 A 
ATOM     90  C   UNL A   1      33.844  28.119  25.895  1.00  0.00     0.051 A 
ATOM     91  N   UNL A   1      30.806  29.308  24.167  1.00  0.00    -0.256 NA
ATOM     92  C   UNL A   1      31.773  29.953  26.180  1.00  0.00     0.032 A 
ATOM     93  C   UNL A   1      33.814  28.983  26.984  1.00  0.00     0.124 A 
ATOM     94  C   UNL A   1      32.787  29.902  27.134  1.00  0.00     0.041 A 
ATOM     95  F   UNL A   1      34.798  28.946  27.892  1.00  0.00    -0.207 F 
ENDBRANCH  83  85
ENDBRANCH  81  83
ENDBRANCH  75  77
ENDBRANCH  74  75
ENDBRANCH  73  74
ENDBRANCH  72  73
ENDBRANCH  71  72
ENDBRANCH   1  71
TORSDOF 19
ENDMDL
MODEL 3
REMARK VINA RESULT:     -11.5      5.391      7.943
REMARK SMILES O=C(OCCOCCOC(=O)c1cccc(Nc2ccnc3ccc(F)cc23)c1)c1ccc(-c2c3nc(c(-c4cc(S(=O)(=O)[O-])ccc4F)c4ccc([nH]4)c(-c4cc(S(=O)(=O)[O-])ccc4F)c4nc(c(-c5cc(S(=O)(=O)[O-])ccc5F)c5ccc2[nH]5)C=C4)C=C3)cc1
REMARK SMILES IDX 5 1 4 2 3 3 2 4 1 5 30 6 31 7 92 8 32 9 91 10 33 11 34 12
REMARK SMILES IDX 35 13 85 14 36 15 90 16 84 17 86 18 37 19 89 20 83 21 82 22
REMARK SMILES IDX 38 24 70 25 50 26 69 27 51 28 54 29 68 30 87 31 52 32 53 33
REMARK SMILES IDX 67 35 88 36 55 37 39 38 40 39 48 40 41 41 47 42 49 43 46 44
REMARK SMILES IDX 42 45 43 46 44 47 45 48 71 49 72 50 80 51 73 52 79 53 81 54
REMARK SMILES IDX 78 55 74 56 75 57 76 58 77 59 56 60 57 61 65 62 58 63 64 64
REMARK SMILES IDX 66 65 63 66 59 67 60 68 61 69 62 70 6 71 7 72 8 73 9 74
REMARK SMILES IDX 10 75 11 76 12 77 13 78 29 79 14 80 16 81 15 82 17 83 18 85
REMARK SMILES IDX 19 86 28 87 20 88 22 89 27 90 21 91 23 92 25 93 24 94 26 95
REMARK H PARENT 86 23 54 34 17 84
REMARK Flexibility Score: inf
ROOT
ATOM      1  C   UNL A   1      37.369  21.285  24.653  1.00  0.00     0.202 C 
ENDROOT
BRANCH   1   2
ATOM      2  C   UNL A   1      38.111  19.982  24.949  1.00  0.00     0.261 C 
BRANCH   2   3
ATOM      3  O   UNL A   1      38.777  20.064  26.218  1.00  0.00    -0.460 OA
BRANCH   3   4
ATOM      4  C   UNL A   1      40.072  20.394  26.438  1.00  0.00     0.338 C 
ATOM      5  O   UNL A   1      40.940  19.535  26.297  1.00  0.00    -0.246 OA
BRANCH   4   6
ATOM      6  C   UNL A   1      40.492  21.771  26.818  1.00  0.00     0.060 A 
ATOM      7  C   UNL A   1      40.002  22.928  26.213  1.00  0.00     0.016 A 
ATOM      8  C   UNL A   1      41.380  21.909  27.894  1.00  0.00     0.016 A 
ATOM      9  C   UNL A   1      40.460  24.181  26.570  1.00  0.00     0.010 A 
ATOM     10  C   UNL A   1      41.788  23.178  28.318  1.00  0.00     0.010 A 
ATOM     11  C   UNL A   1      41.344  24.316  27.634  1.00  0.00    -0.014 A 
BRANCH  11  12
ATOM     12  C   UNL A   1      41.843  25.672  27.921  1.00  0.00     0.031 A 
ATOM     13  C   UNL A   1      43.167  26.075  27.354  1.00  0.00     0.074 A 
ATOM     14  C   UNL A   1      41.025  26.552  28.528  1.00  0.00     0.049 A 
ATOM     15  N   UNL A   1      43.807  27.205  27.470  1.00  0.00    -0.248 NA
ATOM     16  C   UNL A   1      43.859  25.067  26.534  1.00  0.00     0.031 C 
ATOM     17  C   UNL A   1      39.659  26.260  28.977  1.00  0.00     0.029 A 
ATOM     18  N   UNL A   1      41.195  27.875  28.828  1.00  0.00    -0.354 N 
ATOM     19  C   UNL A   1      44.996  27.035  26.768  1.00  0.00     0.074 A 
ATOM     20  C   UNL A   1      44.989  25.688  26.241  1.00  0.00     0.031 C 
ATOM     21  C   UNL A   1      39.100  27.385  29.447  1.00  0.00     0.029 A 
ATOM     22  C   UNL A   1      40.094  28.450  29.421  1.00  0.00     0.049 A 
ATOM     23  H   UNL A   1      42.024  28.370  28.636  1.00  0.00     0.167 HD
ATOM     24  C   UNL A   1      45.998  27.930  26.595  1.00  0.00     0.034 A 
ATOM     25  C   UNL A   1      39.932  29.691  29.918  1.00  0.00     0.034 A 
ATOM     26  C   UNL A   1      45.953  29.259  27.152  1.00  0.00     0.049 A 
ATOM     27  C   UNL A   1      41.107  30.630  29.816  1.00  0.00     0.074 A 
ATOM     28  C   UNL A   1      46.919  30.246  27.126  1.00  0.00     0.029 A 
ATOM     29  N   UNL A   1      44.866  29.783  27.849  1.00  0.00    -0.354 N 
ATOM     30  N   UNL A   1      42.271  30.436  29.232  1.00  0.00    -0.248 NA
ATOM     31  C   UNL A   1      40.958  31.943  30.448  1.00  0.00     0.031 C 
ATOM     32  C   UNL A   1      46.446  31.337  27.866  1.00  0.00     0.029 A 
ATOM     33  C   UNL A   1      45.150  31.068  28.284  1.00  0.00     0.049 A 
ATOM     34  H   UNL A   1      44.018  29.310  28.009  1.00  0.00     0.167 HD
ATOM     35  C   UNL A   1      42.984  31.615  29.405  1.00  0.00     0.074 A 
ATOM     36  C   UNL A   1      42.108  32.519  30.129  1.00  0.00     0.031 C 
ATOM     37  C   UNL A   1      44.246  31.931  29.011  1.00  0.00     0.034 A 
BRANCH  24  38
ATOM     38  C   UNL A   1      47.237  27.435  25.889  1.00  0.00     0.023 A 
ATOM     39  C   UNL A   1      48.338  26.903  26.587  1.00  0.00     0.031 A 
ATOM     40  C   UNL A   1      47.365  27.612  24.499  1.00  0.00     0.131 A 
ATOM     41  C   UNL A   1      49.547  26.668  25.911  1.00  0.00     0.055 A 
ATOM     42  C   UNL A   1      48.541  27.289  23.819  1.00  0.00     0.041 A 
ATOM     43  F   UNL A   1      46.364  28.145  23.782  1.00  0.00    -0.206 F 
ATOM     44  C   UNL A   1      49.649  26.834  24.528  1.00  0.00     0.022 A 
BRANCH  41  45
ATOM     45  S   UNL A   1      51.038  26.331  26.892  1.00  0.00     0.124 S 
ATOM     46  O   UNL A   1      50.703  26.966  28.165  1.00  0.00    -0.237 OA
ATOM     47  O   UNL A   1      51.088  24.874  26.901  1.00  0.00    -0.237 OA
ATOM     48  O   UNL A   1      52.102  26.988  26.137  1.00  0.00    -0.744 OA
ENDBRANCH  41  45
ENDBRANCH  24  38
BRANCH  25  49
ATOM     49  C   UNL A   1      38.666  30.089  30.603  1.00  0.00     0.023 A 
ATOM     50  C   UNL A   1      37.668  30.813  29.933  1.00  0.00     0.031 A 
ATOM     51  C   UNL A   1      38.455  29.793  31.964  1.00  0.00     0.131 A 
ATOM     52  C   UNL A   1      36.530  31.253  30.630  1.00  0.00     0.055 A 
ATOM     53  C   UNL A   1      37.294  30.178  32.637  1.00  0.00     0.041 A 
ATOM     54  F   UNL A   1      39.376  29.111  32.664  1.00  0.00    -0.206 F 
ATOM     55  C   UNL A   1      36.330  30.926  31.973  1.00  0.00     0.022 A 
BRANCH  52  56
ATOM     56  S   UNL A   1      35.355  32.344  29.782  1.00  0.00     0.124 S 
ATOM     57  O   UNL A   1      34.341  32.546  30.810  1.00  0.00    -0.237 OA
ATOM     58  O   UNL A   1      36.189  33.498  29.466  1.00  0.00    -0.237 OA
ATOM     59  O   UNL A   1      34.927  31.553  28.630  1.00  0.00    -0.744 OA
ENDBRANCH  52  56
ENDBRANCH  25  49
BRANCH  37  60
ATOM     60  C   UNL A   1      44.712  33.329  29.321  1.00  0.00     0.023 A 
ATOM     61  C   UNL A   1      44.390  34.416  28.493  1.00  0.00     0.031 A 
ATOM     62  C   UNL A   1      45.510  33.568  30.454  1.00  0.00     0.131 A 
ATOM     63  C   UNL A   1      44.920  35.683  28.772  1.00  0.00     0.055 A 
ATOM     64  C   UNL A   1      45.975  34.845  30.767  1.00  0.00     0.041 A 
ATOM     65  F   UNL A   1      45.848  32.562  31.277  1.00  0.00    -0.206 F 
ATOM     66  C   UNL A   1      45.694  35.908  29.914  1.00  0.00     0.022 A 
BRANCH  63  67
ATOM     67  S   UNL A   1      44.678  37.009  27.560  1.00  0.00     0.124 S 
ATOM     68  O   UNL A   1      43.417  36.623  26.936  1.00  0.00    -0.237 OA
ATOM     69  O   UNL A   1      44.633  38.199  28.405  1.00  0.00    -0.237 OA
ATOM     70  O   UNL A   1      45.854  36.905  26.699  1.00  0.00    -0.744 OA
ENDBRANCH  63  67
ENDBRANCH  37  60
ENDBRANCH  11  12
ENDBRANCH   4   6
ENDBRANCH   3   4
ENDBRANCH   2   3
ENDBRANCH   1   2
BRANCH   1  71
ATOM     71  O   UNL A   1      36.423  21.723  25.633  1.00  0.00    -0.374 OA
BRANCH  71  72
ATOM     72  C   UNL A   1      35.154  21.056  25.621  1.00  0.00     0.202 C 
BRANCH  72  73
ATOM     73  C   UNL A   1      34.205  21.741  24.633  1.00  0.00     0.261 C 
BRANCH  73  74
ATOM     74  O   UNL A   1      34.313  23.160  24.831  1.00  0.00    -0.460 OA
BRANCH  74  75
ATOM     75  C   UNL A   1      34.507  23.859  23.685  1.00  0.00     0.338 C 
ATOM     76  O   UNL A   1      34.831  23.424  22.593  1.00  0.00    -0.246 OA
BRANCH  75  77
ATOM     77  C   UNL A   1      34.022  25.232  23.919  1.00  0.00     0.062 A 
ATOM     78  C   UNL A   1      33.896  25.661  25.246  1.00  0.00     0.016 A 
ATOM     79  C   UNL A   1      33.724  26.093  22.860  1.00  0.00     0.041 A 
ATOM     80  C   UNL A   1      33.577  26.988  25.519  1.00  0.00     0.003 A 
ATOM     81  C   UNL A   1      33.225  27.372  23.146  1.00  0.00     0.039 A 
ATOM     82  C   UNL A   1      33.240  27.840  24.472  1.00  0.00     0.026 A 
BRANCH  81  83
ATOM     83  N   UNL A   1      32.261  27.951  22.249  1.00  0.00    -0.355 N 
ATOM     84  H   UNL A   1      32.514  28.542  21.504  1.00  0.00     0.167 HD
BRANCH  83  85
ATOM     85  C   UNL A   1      30.899  27.599  22.536  1.00  0.00     0.050 A 
ATOM     86  C   UNL A   1      30.649  26.314  23.040  1.00  0.00     0.047 A 
ATOM     87  C   UNL A   1      29.852  28.543  22.517  1.00  0.00     0.027 A 
ATOM     88  C   UNL A   1      29.461  26.078  23.688  1.00  0.00     0.114 A 
ATOM     89  C   UNL A   1      28.643  28.158  23.146  1.00  0.00     0.072 A 
ATOM     90  C   UNL A   1      29.942  29.819  21.917  1.00  0.00     0.051 A 
ATOM     91  N   UNL A   1      28.465  26.977  23.752  1.00  0.00    -0.256 NA
ATOM     92  C   UNL A   1      27.570  29.032  23.138  1.00  0.00     0.032 A 
ATOM     93  C   UNL A   1      28.825  30.646  21.883  1.00  0.00     0.124 A 
ATOM     94  C   UNL A   1      27.637  30.262  22.486  1.00  0.00     0.041 A 
ATOM     95  F   UNL A   1      28.885  31.820  21.241  1.00  0.00    -0.207 F 
ENDBRANCH  83  85
ENDBRANCH  81  83
ENDBRANCH  75  77
ENDBRANCH  74  75
ENDBRANCH  73  74
ENDBRANCH  72  73
ENDBRANCH  71  72
ENDBRANCH   1  71
TORSDOF 19
ENDMDL
