MODEL 1
REMARK VINA RESULT:     -10.2      0.000      0.000
REMARK SMILES O=C(OCCOCCOC(=O)[C@H]1CC1(c1ccccc1)c1ccccc1)c1ccc(-c2c3nc(c(-c4cc(S(=O)(=O)[O-])ccc4F)c4ccc([nH]4)c(-c4cc(S(=O)(=O)[O-])ccc4F)c4nc(c(-c5cc(S(=O)(=O)[O-])ccc5F)c5ccc2[nH]5)C=C4)C=C3)cc1
REMARK SMILES IDX 5 1 4 2 3 3 2 4 1 5 27 6 28 7 89 8 29 9 88 10 30 11 31 12
REMARK SMILES IDX 32 13 82 14 33 15 87 16 81 17 83 18 34 19 86 20 80 21 79 22
REMARK SMILES IDX 35 24 67 25 47 26 66 27 48 28 51 29 65 30 84 31 49 32 50 33
REMARK SMILES IDX 64 35 85 36 52 37 36 38 37 39 45 40 38 41 44 42 46 43 43 44
REMARK SMILES IDX 39 45 40 46 41 47 42 48 68 49 69 50 77 51 70 52 76 53 78 54
REMARK SMILES IDX 75 55 71 56 72 57 73 58 74 59 53 60 54 61 62 62 55 63 61 64
REMARK SMILES IDX 63 65 60 66 56 67 57 68 58 69 59 70 6 71 7 72 8 73 9 74
REMARK SMILES IDX 10 75 11 76 12 77 13 78 14 79 15 80 16 81 20 82 17 83 19 84
REMARK SMILES IDX 18 85 21 86 22 87 26 88 23 89 25 90 24 91
REMARK H PARENT 83 23 51 34
REMARK Flexibility Score: inf
ROOT
ATOM      1  C   UNL A   1      33.057  33.878  27.836  1.00  0.00     0.202 C 
ENDROOT
BRANCH   1   2
ATOM      2  C   UNL A   1      34.169  32.982  28.376  1.00  0.00     0.261 C 
BRANCH   2   3
ATOM      3  O   UNL A   1      33.762  31.610  28.299  1.00  0.00    -0.460 OA
BRANCH   3   4
ATOM      4  C   UNL A   1      34.465  30.628  27.681  1.00  0.00     0.338 C 
ATOM      5  O   UNL A   1      34.043  30.166  26.622  1.00  0.00    -0.246 OA
BRANCH   4   6
ATOM      6  C   UNL A   1      35.814  30.196  28.159  1.00  0.00     0.060 A 
ATOM      7  C   UNL A   1      37.008  30.344  27.447  1.00  0.00     0.016 A 
ATOM      8  C   UNL A   1      35.879  29.661  29.455  1.00  0.00     0.016 A 
ATOM      9  C   UNL A   1      38.219  29.938  27.970  1.00  0.00     0.010 A 
ATOM     10  C   UNL A   1      37.104  29.282  30.009  1.00  0.00     0.010 A 
ATOM     11  C   UNL A   1      38.275  29.414  29.254  1.00  0.00    -0.014 A 
BRANCH  11  12
ATOM     12  C   UNL A   1      39.577  28.895  29.691  1.00  0.00     0.031 A 
ATOM     13  C   UNL A   1      40.178  29.477  30.930  1.00  0.00     0.074 A 
ATOM     14  C   UNL A   1      40.079  27.804  29.086  1.00  0.00     0.049 A 
ATOM     15  N   UNL A   1      41.307  29.195  31.513  1.00  0.00    -0.248 NA
ATOM     16  C   UNL A   1      39.382  30.511  31.613  1.00  0.00     0.031 C 
ATOM     17  C   UNL A   1      39.440  27.089  27.975  1.00  0.00     0.029 A 
ATOM     18  N   UNL A   1      41.203  27.072  29.347  1.00  0.00    -0.354 N 
ATOM     19  C   UNL A   1      41.381  30.043  32.610  1.00  0.00     0.074 A 
ATOM     20  C   UNL A   1      40.183  30.854  32.608  1.00  0.00     0.031 C 
ATOM     21  C   UNL A   1      40.165  26.000  27.678  1.00  0.00     0.029 A 
ATOM     22  C   UNL A   1      41.361  25.990  28.510  1.00  0.00     0.049 A 
ATOM     23  H   UNL A   1      41.837  27.295  30.065  1.00  0.00     0.167 HD
ATOM     24  C   UNL A   1      42.376  30.132  33.524  1.00  0.00     0.034 A 
ATOM     25  C   UNL A   1      42.386  25.123  28.415  1.00  0.00     0.034 A 
ATOM     26  C   UNL A   1      43.550  29.297  33.465  1.00  0.00     0.049 A 
ATOM     27  C   UNL A   1      43.538  25.324  29.367  1.00  0.00     0.074 A 
ATOM     28  C   UNL A   1      44.674  29.322  34.267  1.00  0.00     0.029 A 
ATOM     29  N   UNL A   1      43.743  28.278  32.535  1.00  0.00    -0.354 N 
ATOM     30  N   UNL A   1      43.659  26.197  30.344  1.00  0.00    -0.248 NA
ATOM     31  C   UNL A   1      44.691  24.437  29.200  1.00  0.00     0.031 C 
ATOM     32  C   UNL A   1      45.577  28.373  33.772  1.00  0.00     0.029 A 
ATOM     33  C   UNL A   1      44.981  27.688  32.722  1.00  0.00     0.049 A 
ATOM     34  H   UNL A   1      43.093  28.015  31.843  1.00  0.00     0.167 HD
ATOM     35  C   UNL A   1      44.894  25.943  30.930  1.00  0.00     0.074 A 
ATOM     36  C   UNL A   1      45.464  24.822  30.205  1.00  0.00     0.031 C 
ATOM     37  C   UNL A   1      45.507  26.571  31.968  1.00  0.00     0.034 A 
BRANCH  24  38
ATOM     38  C   UNL A   1      42.269  31.241  34.542  1.00  0.00     0.023 A 
ATOM     39  C   UNL A   1      42.617  32.572  34.245  1.00  0.00     0.031 A 
ATOM     40  C   UNL A   1      41.928  30.934  35.871  1.00  0.00     0.131 A 
ATOM     41  C   UNL A   1      42.709  33.518  35.279  1.00  0.00     0.055 A 
ATOM     42  C   UNL A   1      41.933  31.901  36.878  1.00  0.00     0.041 A 
ATOM     43  F   UNL A   1      41.622  29.675  36.225  1.00  0.00    -0.206 F 
ATOM     44  C   UNL A   1      42.345  33.198  36.589  1.00  0.00     0.022 A 
BRANCH  41  45
ATOM     45  S   UNL A   1      43.492  35.117  34.925  1.00  0.00     0.124 S 
ATOM     46  O   UNL A   1      42.518  36.053  35.481  1.00  0.00    -0.237 OA
ATOM     47  O   UNL A   1      44.759  35.016  35.640  1.00  0.00    -0.237 OA
ATOM     48  O   UNL A   1      43.598  35.134  33.467  1.00  0.00    -0.744 OA
ENDBRANCH  41  45
ENDBRANCH  24  38
BRANCH  25  49
ATOM     49  C   UNL A   1      42.407  24.063  27.363  1.00  0.00     0.023 A 
ATOM     50  C   UNL A   1      41.812  22.810  27.574  1.00  0.00     0.031 A 
ATOM     51  C   UNL A   1      43.083  24.267  26.144  1.00  0.00     0.131 A 
ATOM     52  C   UNL A   1      41.944  21.798  26.608  1.00  0.00     0.055 A 
ATOM     53  C   UNL A   1      43.158  23.279  25.161  1.00  0.00     0.041 A 
ATOM     54  F   UNL A   1      43.684  25.440  25.885  1.00  0.00    -0.206 F 
ATOM     55  C   UNL A   1      42.599  22.029  25.397  1.00  0.00     0.022 A 
BRANCH  52  56
ATOM     56  S   UNL A   1      41.340  20.133  27.003  1.00  0.00     0.124 S 
ATOM     57  O   UNL A   1      42.544  19.329  26.826  1.00  0.00    -0.237 OA
ATOM     58  O   UNL A   1      40.874  20.298  28.377  1.00  0.00    -0.237 OA
ATOM     59  O   UNL A   1      40.288  19.908  26.014  1.00  0.00    -0.744 OA
ENDBRANCH  52  56
ENDBRANCH  25  49
BRANCH  37  60
ATOM     60  C   UNL A   1      46.833  26.004  32.404  1.00  0.00     0.023 A 
ATOM     61  C   UNL A   1      48.033  26.354  31.764  1.00  0.00     0.031 A 
ATOM     62  C   UNL A   1      46.886  25.083  33.465  1.00  0.00     0.131 A 
ATOM     63  C   UNL A   1      49.229  25.732  32.145  1.00  0.00     0.055 A 
ATOM     64  C   UNL A   1      48.091  24.528  33.892  1.00  0.00     0.041 A 
ATOM     65  F   UNL A   1      45.766  24.714  34.107  1.00  0.00    -0.206 F 
ATOM     66  C   UNL A   1      49.269  24.838  33.219  1.00  0.00     0.022 A 
BRANCH  63  67
ATOM     67  S   UNL A   1      50.709  26.013  31.139  1.00  0.00     0.124 S 
ATOM     68  O   UNL A   1      50.602  24.954  30.140  1.00  0.00    -0.237 OA
ATOM     69  O   UNL A   1      50.502  27.373  30.652  1.00  0.00    -0.237 OA
ATOM     70  O   UNL A   1      51.806  25.857  32.093  1.00  0.00    -0.744 OA
ENDBRANCH  63  67
ENDBRANCH  37  60
ENDBRANCH  11  12
ENDBRANCH   4   6
ENDBRANCH   3   4
ENDBRANCH   2   3
ENDBRANCH   1   2
BRANCH   1  71
ATOM     71  O   UNL A   1      32.625  34.846  28.791  1.00  0.00    -0.374 OA
BRANCH  71  72
ATOM     72  C   UNL A   1      33.597  35.260  29.739  1.00  0.00     0.202 C 
BRANCH  72  73
ATOM     73  C   UNL A   1      32.940  35.916  30.954  1.00  0.00     0.261 C 
BRANCH  73  74
ATOM     74  O   UNL A   1      33.170  35.108  32.121  1.00  0.00    -0.463 OA
BRANCH  74  75
ATOM     75  C   UNL A   1      34.138  35.535  32.987  1.00  0.00     0.310 C 
ATOM     76  O   UNL A   1      34.460  36.693  33.204  1.00  0.00    -0.252 OA
BRANCH  75  77
ATOM     77  C   UNL A   1      34.754  34.361  33.653  1.00  0.00     0.115 C 
ATOM     78  C   UNL A   1      34.708  33.039  32.967  1.00  0.00     0.034 C 
ATOM     79  C   UNL A   1      36.082  33.644  33.335  1.00  0.00     0.034 C 
BRANCH  79  80
ATOM     80  C   UNL A   1      37.010  33.875  32.101  1.00  0.00    -0.037 A 
ATOM     81  C   UNL A   1      36.733  33.216  30.884  1.00  0.00     0.004 A 
ATOM     82  C   UNL A   1      38.285  34.474  32.193  1.00  0.00     0.004 A 
ATOM     83  C   UNL A   1      37.682  33.101  29.861  1.00  0.00     0.000 A 
ATOM     84  C   UNL A   1      39.246  34.349  31.179  1.00  0.00     0.000 A 
ATOM     85  C   UNL A   1      38.948  33.646  30.019  1.00  0.00     0.000 A 
ENDBRANCH  79  80
BRANCH  79  86
ATOM     86  C   UNL A   1      36.835  32.995  34.574  1.00  0.00    -0.037 A 
ATOM     87  C   UNL A   1      36.936  33.647  35.824  1.00  0.00     0.004 A 
ATOM     88  C   UNL A   1      37.486  31.745  34.500  1.00  0.00     0.004 A 
ATOM     89  C   UNL A   1      37.668  33.127  36.897  1.00  0.00     0.000 A 
ATOM     90  C   UNL A   1      38.222  31.217  35.569  1.00  0.00     0.000 A 
ATOM     91  C   UNL A   1      38.324  31.915  36.764  1.00  0.00     0.000 A 
ENDBRANCH  79  86
ENDBRANCH  75  77
ENDBRANCH  74  75
ENDBRANCH  73  74
ENDBRANCH  72  73
ENDBRANCH  71  72
ENDBRANCH   1  71
TORSDOF 19
ENDMDL
MODEL 2
REMARK VINA RESULT:      -9.9      4.973     11.103
REMARK SMILES O=C(OCCOCCOC(=O)[C@H]1CC1(c1ccccc1)c1ccccc1)c1ccc(-c2c3nc(c(-c4cc(S(=O)(=O)[O-])ccc4F)c4ccc([nH]4)c(-c4cc(S(=O)(=O)[O-])ccc4F)c4nc(c(-c5cc(S(=O)(=O)[O-])ccc5F)c5ccc2[nH]5)C=C4)C=C3)cc1
REMARK SMILES IDX 5 1 4 2 3 3 2 4 1 5 27 6 28 7 89 8 29 9 88 10 30 11 31 12
REMARK SMILES IDX 32 13 82 14 33 15 87 16 81 17 83 18 34 19 86 20 80 21 79 22
REMARK SMILES IDX 35 24 67 25 47 26 66 27 48 28 51 29 65 30 84 31 49 32 50 33
REMARK SMILES IDX 64 35 85 36 52 37 36 38 37 39 45 40 38 41 44 42 46 43 43 44
REMARK SMILES IDX 39 45 40 46 41 47 42 48 68 49 69 50 77 51 70 52 76 53 78 54
REMARK SMILES IDX 75 55 71 56 72 57 73 58 74 59 53 60 54 61 62 62 55 63 61 64
REMARK SMILES IDX 63 65 60 66 56 67 57 68 58 69 59 70 6 71 7 72 8 73 9 74
REMARK SMILES IDX 10 75 11 76 12 77 13 78 14 79 15 80 16 81 20 82 17 83 19 84
REMARK SMILES IDX 18 85 21 86 22 87 26 88 23 89 25 90 24 91
REMARK H PARENT 83 23 51 34
REMARK Flexibility Score: inf
ROOT
ATOM      1  C   UNL A   1      36.764  22.613  24.389  1.00  0.00     0.202 C 
ENDROOT
BRANCH   1   2
ATOM      2  C   UNL A   1      37.603  21.371  24.682  1.00  0.00     0.261 C 
BRANCH   2   3
ATOM      3  O   UNL A   1      38.113  21.439  26.018  1.00  0.00    -0.460 OA
BRANCH   3   4
ATOM      4  C   UNL A   1      39.402  21.712  26.343  1.00  0.00     0.338 C 
ATOM      5  O   UNL A   1      40.267  20.867  26.117  1.00  0.00    -0.246 OA
BRANCH   4   6
ATOM      6  C   UNL A   1      39.832  23.063  26.817  1.00  0.00     0.060 A 
ATOM      7  C   UNL A   1      39.294  24.279  26.388  1.00  0.00     0.016 A 
ATOM      8  C   UNL A   1      40.811  23.091  27.823  1.00  0.00     0.016 A 
ATOM      9  C   UNL A   1      39.733  25.486  26.894  1.00  0.00     0.010 A 
ATOM     10  C   UNL A   1      41.236  24.305  28.370  1.00  0.00     0.010 A 
ATOM     11  C   UNL A   1      40.698  25.505  27.892  1.00  0.00    -0.014 A 
BRANCH  11  12
ATOM     12  C   UNL A   1      41.198  26.826  28.290  1.00  0.00     0.031 A 
ATOM     13  C   UNL A   1      42.592  27.191  27.892  1.00  0.00     0.074 A 
ATOM     14  C   UNL A   1      40.338  27.717  28.816  1.00  0.00     0.049 A 
ATOM     15  N   UNL A   1      43.260  28.285  28.124  1.00  0.00    -0.248 NA
ATOM     16  C   UNL A   1      43.328  26.185  27.107  1.00  0.00     0.031 C 
ATOM     17  C   UNL A   1      38.914  27.464  29.066  1.00  0.00     0.029 A 
ATOM     18  N   UNL A   1      40.512  29.022  29.182  1.00  0.00    -0.354 N 
ATOM     19  C   UNL A   1      44.509  28.086  27.551  1.00  0.00     0.074 A 
ATOM     20  C   UNL A   1      44.508  26.765  26.964  1.00  0.00     0.031 C 
ATOM     21  C   UNL A   1      38.340  28.593  29.509  1.00  0.00     0.029 A 
ATOM     22  C   UNL A   1      39.366  29.616  29.660  1.00  0.00     0.049 A 
ATOM     23  H   UNL A   1      41.373  29.492  29.110  1.00  0.00     0.167 HD
ATOM     24  C   UNL A   1      45.560  28.941  27.536  1.00  0.00     0.034 A 
ATOM     25  C   UNL A   1      39.194  30.838  30.196  1.00  0.00     0.034 A 
ATOM     26  C   UNL A   1      45.497  30.245  28.147  1.00  0.00     0.049 A 
ATOM     27  C   UNL A   1      40.412  31.723  30.278  1.00  0.00     0.074 A 
ATOM     28  C   UNL A   1      46.497  31.188  28.284  1.00  0.00     0.029 A 
ATOM     29  N   UNL A   1      44.353  30.785  28.731  1.00  0.00    -0.354 N 
ATOM     30  N   UNL A   1      41.629  31.497  29.829  1.00  0.00    -0.248 NA
ATOM     31  C   UNL A   1      40.243  33.016  30.944  1.00  0.00     0.031 C 
ATOM     32  C   UNL A   1      45.978  32.262  29.017  1.00  0.00     0.029 A 
ATOM     33  C   UNL A   1      44.630  32.036  29.256  1.00  0.00     0.049 A 
ATOM     34  H   UNL A   1      43.475  30.342  28.765  1.00  0.00     0.167 HD
ATOM     35  C   UNL A   1      42.364  32.637  30.134  1.00  0.00     0.074 A 
ATOM     36  C   UNL A   1      41.444  33.551  30.785  1.00  0.00     0.031 C 
ATOM     37  C   UNL A   1      43.675  32.910  29.901  1.00  0.00     0.034 A 
BRANCH  24  38
ATOM     38  C   UNL A   1      46.854  28.418  26.964  1.00  0.00     0.023 A 
ATOM     39  C   UNL A   1      47.110  28.393  25.580  1.00  0.00     0.031 A 
ATOM     40  C   UNL A   1      47.800  27.820  27.816  1.00  0.00     0.131 A 
ATOM     41  C   UNL A   1      48.228  27.700  25.089  1.00  0.00     0.055 A 
ATOM     42  C   UNL A   1      48.957  27.212  27.326  1.00  0.00     0.041 A 
ATOM     43  F   UNL A   1      47.595  27.780  29.142  1.00  0.00    -0.206 F 
ATOM     44  C   UNL A   1      49.167  27.132  25.952  1.00  0.00     0.022 A 
BRANCH  41  45
ATOM     45  S   UNL A   1      48.339  27.387  23.303  1.00  0.00     0.124 S 
ATOM     46  O   UNL A   1      48.209  25.932  23.249  1.00  0.00    -0.237 OA
ATOM     47  O   UNL A   1      47.214  28.148  22.776  1.00  0.00    -0.237 OA
ATOM     48  O   UNL A   1      49.661  27.898  22.946  1.00  0.00    -0.744 OA
ENDBRANCH  41  45
ENDBRANCH  24  38
BRANCH  25  49
ATOM     49  C   UNL A   1      37.873  31.262  30.749  1.00  0.00     0.023 A 
ATOM     50  C   UNL A   1      36.938  31.954  29.965  1.00  0.00     0.031 A 
ATOM     51  C   UNL A   1      37.548  31.032  32.101  1.00  0.00     0.131 A 
ATOM     52  C   UNL A   1      35.751  32.434  30.545  1.00  0.00     0.055 A 
ATOM     53  C   UNL A   1      36.340  31.456  32.657  1.00  0.00     0.041 A 
ATOM     54  F   UNL A   1      38.404  30.385  32.908  1.00  0.00    -0.206 F 
ATOM     55  C   UNL A   1      35.439  32.176  31.882  1.00  0.00     0.022 A 
BRANCH  52  56
ATOM     56  S   UNL A   1      34.666  33.498  29.555  1.00  0.00     0.124 S 
ATOM     57  O   UNL A   1      33.800  34.075  30.577  1.00  0.00    -0.237 OA
ATOM     58  O   UNL A   1      35.621  34.410  28.933  1.00  0.00    -0.237 OA
ATOM     59  O   UNL A   1      34.014  32.563  28.639  1.00  0.00    -0.744 OA
ENDBRANCH  52  56
ENDBRANCH  25  49
BRANCH  37  60
ATOM     60  C   UNL A   1      44.154  34.281  30.305  1.00  0.00     0.023 A 
ATOM     61  C   UNL A   1      44.008  35.394  29.461  1.00  0.00     0.031 A 
ATOM     62  C   UNL A   1      44.782  34.465  31.550  1.00  0.00     0.131 A 
ATOM     63  C   UNL A   1      44.549  36.628  29.842  1.00  0.00     0.055 A 
ATOM     64  C   UNL A   1      45.249  35.713  31.956  1.00  0.00     0.041 A 
ATOM     65  F   UNL A   1      44.949  33.432  32.391  1.00  0.00    -0.206 F 
ATOM     66  C   UNL A   1      45.149  36.800  31.093  1.00  0.00     0.022 A 
BRANCH  63  67
ATOM     67  S   UNL A   1      44.569  37.975  28.630  1.00  0.00     0.124 S 
ATOM     68  O   UNL A   1      43.518  38.853  29.135  1.00  0.00    -0.237 OA
ATOM     69  O   UNL A   1      45.933  38.482  28.749  1.00  0.00    -0.237 OA
ATOM     70  O   UNL A   1      44.265  37.304  27.368  1.00  0.00    -0.744 OA
ENDBRANCH  63  67
ENDBRANCH  37  60
ENDBRANCH  11  12
ENDBRANCH   4   6
ENDBRANCH   3   4
ENDBRANCH   2   3
ENDBRANCH   1   2
BRANCH   1  71
ATOM     71  O   UNL A   1      35.368  22.326  24.324  1.00  0.00    -0.374 OA
BRANCH  71  72
ATOM     72  C   UNL A   1      34.497  23.434  24.497  1.00  0.00     0.202 C 
BRANCH  72  73
ATOM     73  C   UNL A   1      34.054  24.003  23.149  1.00  0.00     0.261 C 
BRANCH  73  74
ATOM     74  O   UNL A   1      32.955  24.908  23.347  1.00  0.00    -0.463 OA
BRANCH  74  75
ATOM     75  C   UNL A   1      32.609  25.702  22.288  1.00  0.00     0.310 C 
ATOM     76  O   UNL A   1      33.265  25.886  21.274  1.00  0.00    -0.252 OA
BRANCH  75  77
ATOM     77  C   UNL A   1      31.285  26.317  22.546  1.00  0.00     0.115 C 
ATOM     78  C   UNL A   1      30.422  25.743  23.618  1.00  0.00     0.034 C 
ATOM     79  C   UNL A   1      30.842  27.228  23.709  1.00  0.00     0.034 C 
BRANCH  79  80
ATOM     80  C   UNL A   1      31.645  27.569  25.003  1.00  0.00    -0.037 A 
ATOM     81  C   UNL A   1      31.029  27.434  26.265  1.00  0.00     0.004 A 
ATOM     82  C   UNL A   1      32.862  28.284  24.992  1.00  0.00     0.004 A 
ATOM     83  C   UNL A   1      31.550  28.030  27.420  1.00  0.00     0.000 A 
ATOM     84  C   UNL A   1      33.382  28.897  26.142  1.00  0.00     0.000 A 
ATOM     85  C   UNL A   1      32.713  28.783  27.354  1.00  0.00     0.000 A 
ENDBRANCH  79  80
BRANCH  79  86
ATOM     86  C   UNL A   1      29.725  28.303  23.362  1.00  0.00    -0.037 A 
ATOM     87  C   UNL A   1      30.026  29.671  23.166  1.00  0.00     0.004 A 
ATOM     88  C   UNL A   1      28.355  27.976  23.265  1.00  0.00     0.004 A 
ATOM     89  C   UNL A   1      29.045  30.643  22.945  1.00  0.00     0.000 A 
ATOM     90  C   UNL A   1      27.365  28.942  23.045  1.00  0.00     0.000 A 
ATOM     91  C   UNL A   1      27.710  30.279  22.898  1.00  0.00     0.000 A 
ENDBRANCH  79  86
ENDBRANCH  75  77
ENDBRANCH  74  75
ENDBRANCH  73  74
ENDBRANCH  72  73
ENDBRANCH  71  72
ENDBRANCH   1  71
TORSDOF 19
ENDMDL
MODEL 3
REMARK VINA RESULT:      -9.9      5.303      9.467
REMARK SMILES O=C(OCCOCCOC(=O)[C@H]1CC1(c1ccccc1)c1ccccc1)c1ccc(-c2c3nc(c(-c4cc(S(=O)(=O)[O-])ccc4F)c4ccc([nH]4)c(-c4cc(S(=O)(=O)[O-])ccc4F)c4nc(c(-c5cc(S(=O)(=O)[O-])ccc5F)c5ccc2[nH]5)C=C4)C=C3)cc1
REMARK SMILES IDX 5 1 4 2 3 3 2 4 1 5 27 6 28 7 89 8 29 9 88 10 30 11 31 12
REMARK SMILES IDX 32 13 82 14 33 15 87 16 81 17 83 18 34 19 86 20 80 21 79 22
REMARK SMILES IDX 35 24 67 25 47 26 66 27 48 28 51 29 65 30 84 31 49 32 50 33
REMARK SMILES IDX 64 35 85 36 52 37 36 38 37 39 45 40 38 41 44 42 46 43 43 44
REMARK SMILES IDX 39 45 40 46 41 47 42 48 68 49 69 50 77 51 70 52 76 53 78 54
REMARK SMILES IDX 75 55 71 56 72 57 73 58 74 59 53 60 54 61 62 62 55 63 61 64
REMARK SMILES IDX 63 65 60 66 56 67 57 68 58 69 59 70 6 71 7 72 8 73 9 74
REMARK SMILES IDX 10 75 11 76 12 77 13 78 14 79 15 80 16 81 20 82 17 83 19 84
REMARK SMILES IDX 18 85 21 86 22 87 26 88 23 89 25 90 24 91
REMARK H PARENT 83 23 51 34
REMARK Flexibility Score: inf
ROOT
ATOM      1  C   UNL A   1      35.253  21.884  24.778  1.00  0.00     0.202 C 
ENDROOT
BRANCH   1   2
ATOM      2  C   UNL A   1      36.750  21.717  24.528  1.00  0.00     0.261 C 
BRANCH   2   3
ATOM      3  O   UNL A   1      37.343  20.999  25.617  1.00  0.00    -0.460 OA
BRANCH   3   4
ATOM      4  C   UNL A   1      38.645  21.088  25.986  1.00  0.00     0.338 C 
ATOM      5  O   UNL A   1      39.357  20.088  25.916  1.00  0.00    -0.246 OA
BRANCH   4   6
ATOM      6  C   UNL A   1      39.287  22.396  26.324  1.00  0.00     0.060 A 
ATOM      7  C   UNL A   1      38.788  23.654  25.976  1.00  0.00     0.016 A 
ATOM      8  C   UNL A   1      40.448  22.339  27.111  1.00  0.00     0.016 A 
ATOM      9  C   UNL A   1      39.431  24.817  26.348  1.00  0.00     0.010 A 
ATOM     10  C   UNL A   1      41.087  23.511  27.524  1.00  0.00     0.010 A 
ATOM     11  C   UNL A   1      40.576  24.753  27.129  1.00  0.00    -0.014 A 
BRANCH  11  12
ATOM     12  C   UNL A   1      41.268  26.024  27.379  1.00  0.00     0.031 A 
ATOM     13  C   UNL A   1      40.623  26.994  28.315  1.00  0.00     0.074 A 
ATOM     14  C   UNL A   1      42.523  26.183  26.922  1.00  0.00     0.049 A 
ATOM     15  N   UNL A   1      41.026  28.173  28.693  1.00  0.00    -0.248 NA
ATOM     16  C   UNL A   1      39.351  26.564  28.922  1.00  0.00     0.031 C 
ATOM     17  C   UNL A   1      43.267  25.186  26.144  1.00  0.00     0.029 A 
ATOM     18  N   UNL A   1      43.413  27.206  27.087  1.00  0.00    -0.354 N 
ATOM     19  C   UNL A   1      40.041  28.647  29.549  1.00  0.00     0.074 A 
ATOM     20  C   UNL A   1      39.017  27.629  29.632  1.00  0.00     0.031 C 
ATOM     21  C   UNL A   1      44.514  25.635  25.933  1.00  0.00     0.029 A 
ATOM     22  C   UNL A   1      44.627  26.981  26.479  1.00  0.00     0.049 A 
ATOM     23  H   UNL A   1      43.206  28.025  27.592  1.00  0.00     0.167 HD
ATOM     24  C   UNL A   1      40.005  29.837  30.194  1.00  0.00     0.034 A 
ATOM     25  C   UNL A   1      45.687  27.801  26.351  1.00  0.00     0.034 A 
ATOM     26  C   UNL A   1      41.057  30.813  30.063  1.00  0.00     0.049 A 
ATOM     27  C   UNL A   1      45.568  29.169  26.975  1.00  0.00     0.074 A 
ATOM     28  C   UNL A   1      41.127  32.090  30.586  1.00  0.00     0.029 A 
ATOM     29  N   UNL A   1      42.233  30.609  29.345  1.00  0.00    -0.354 N 
ATOM     30  N   UNL A   1      44.588  29.663  27.702  1.00  0.00    -0.248 NA
ATOM     31  C   UNL A   1      46.684  30.091  26.757  1.00  0.00     0.031 C 
ATOM     32  C   UNL A   1      42.307  32.682  30.120  1.00  0.00     0.029 A 
ATOM     33  C   UNL A   1      43.022  31.746  29.385  1.00  0.00     0.049 A 
ATOM     34  H   UNL A   1      42.470  29.776  28.876  1.00  0.00     0.167 HD
ATOM     35  C   UNL A   1      44.985  30.948  28.053  1.00  0.00     0.074 A 
ATOM     36  C   UNL A   1      46.302  31.138  27.474  1.00  0.00     0.031 C 
ATOM     37  C   UNL A   1      44.331  31.888  28.786  1.00  0.00     0.034 A 
BRANCH  24  38
ATOM     38  C   UNL A   1      38.744  30.160  30.958  1.00  0.00     0.023 A 
ATOM     39  C   UNL A   1      37.675  30.869  30.381  1.00  0.00     0.031 A 
ATOM     40  C   UNL A   1      38.666  29.856  32.329  1.00  0.00     0.131 A 
ATOM     41  C   UNL A   1      36.625  31.332  31.192  1.00  0.00     0.055 A 
ATOM     42  C   UNL A   1      37.575  30.240  33.111  1.00  0.00     0.041 A 
ATOM     43  F   UNL A   1      39.671  29.213  32.945  1.00  0.00    -0.206 F 
ATOM     44  C   UNL A   1      36.555  31.002  32.547  1.00  0.00     0.022 A 
BRANCH  41  45
ATOM     45  S   UNL A   1      35.454  32.532  30.494  1.00  0.00     0.124 S 
ATOM     46  O   UNL A   1      34.355  32.465  31.455  1.00  0.00    -0.237 OA
ATOM     47  O   UNL A   1      36.227  33.768  30.495  1.00  0.00    -0.237 OA
ATOM     48  O   UNL A   1      35.150  31.987  29.173  1.00  0.00    -0.744 OA
ENDBRANCH  41  45
ENDBRANCH  24  38
BRANCH  25  49
ATOM     49  C   UNL A   1      46.888  27.397  25.562  1.00  0.00     0.023 A 
ATOM     50  C   UNL A   1      47.079  27.833  24.242  1.00  0.00     0.031 A 
ATOM     51  C   UNL A   1      47.842  26.510  26.100  1.00  0.00     0.131 A 
ATOM     52  C   UNL A   1      48.164  27.348  23.491  1.00  0.00     0.055 A 
ATOM     53  C   UNL A   1      48.952  26.080  25.371  1.00  0.00     0.041 A 
ATOM     54  F   UNL A   1      47.711  26.046  27.353  1.00  0.00    -0.206 F 
ATOM     55  C   UNL A   1      49.109  26.487  24.052  1.00  0.00     0.022 A 
BRANCH  52  56
ATOM     56  S   UNL A   1      48.262  27.773  21.730  1.00  0.00     0.124 S 
ATOM     57  O   UNL A   1      49.403  28.682  21.706  1.00  0.00    -0.237 OA
ATOM     58  O   UNL A   1      48.469  26.466  21.114  1.00  0.00    -0.237 OA
ATOM     59  O   UNL A   1      46.966  28.391  21.455  1.00  0.00    -0.744 OA
ENDBRANCH  52  56
ENDBRANCH  25  49
BRANCH  37  60
ATOM     60  C   UNL A   1      45.074  33.174  29.040  1.00  0.00     0.023 A 
ATOM     61  C   UNL A   1      44.911  34.297  28.213  1.00  0.00     0.031 A 
ATOM     62  C   UNL A   1      45.973  33.262  30.118  1.00  0.00     0.131 A 
ATOM     63  C   UNL A   1      45.691  35.440  28.436  1.00  0.00     0.055 A 
ATOM     64  C   UNL A   1      46.687  34.429  30.380  1.00  0.00     0.041 A 
ATOM     65  F   UNL A   1      46.166  32.214  30.935  1.00  0.00    -0.206 F 
ATOM     66  C   UNL A   1      46.561  35.521  29.527  1.00  0.00     0.022 A 
BRANCH  63  67
ATOM     67  S   UNL A   1      45.644  36.772  27.208  1.00  0.00     0.124 S 
ATOM     68  O   UNL A   1      46.265  37.875  27.934  1.00  0.00    -0.237 OA
ATOM     69  O   UNL A   1      46.426  36.212  26.110  1.00  0.00    -0.237 OA
ATOM     70  O   UNL A   1      44.218  36.934  26.934  1.00  0.00    -0.744 OA
ENDBRANCH  63  67
ENDBRANCH  37  60
ENDBRANCH  11  12
ENDBRANCH   4   6
ENDBRANCH   3   4
ENDBRANCH   2   3
ENDBRANCH   1   2
BRANCH   1  71
ATOM     71  O   UNL A   1      34.691  22.958  24.026  1.00  0.00    -0.374 OA
BRANCH  71  72
ATOM     72  C   UNL A   1      33.292  22.890  23.797  1.00  0.00     0.202 C 
BRANCH  72  73
ATOM     73  C   UNL A   1      32.916  23.549  22.469  1.00  0.00     0.261 C 
BRANCH  73  74
ATOM     74  O   UNL A   1      33.697  24.741  22.285  1.00  0.00    -0.463 OA
BRANCH  74  75
ATOM     75  C   UNL A   1      33.029  25.861  21.875  1.00  0.00     0.310 C 
ATOM     76  O   UNL A   1      32.311  25.959  20.891  1.00  0.00    -0.252 OA
BRANCH  75  77
ATOM     77  C   UNL A   1      33.297  26.969  22.823  1.00  0.00     0.115 C 
ATOM     78  C   UNL A   1      33.429  28.355  22.290  1.00  0.00     0.034 C 
ATOM     79  C   UNL A   1      32.339  28.059  23.346  1.00  0.00     0.034 C 
BRANCH  79  80
ATOM     80  C   UNL A   1      30.892  28.366  22.848  1.00  0.00    -0.037 A 
ATOM     81  C   UNL A   1      30.641  29.538  22.104  1.00  0.00     0.004 A 
ATOM     82  C   UNL A   1      29.748  27.697  23.336  1.00  0.00     0.004 A 
ATOM     83  C   UNL A   1      29.350  30.047  21.921  1.00  0.00     0.000 A 
ATOM     84  C   UNL A   1      28.453  28.210  23.170  1.00  0.00     0.000 A 
ATOM     85  C   UNL A   1      28.258  29.396  22.475  1.00  0.00     0.000 A 
ENDBRANCH  79  80
BRANCH  79  86
ATOM     86  C   UNL A   1      32.620  28.580  24.820  1.00  0.00    -0.037 A 
ATOM     87  C   UNL A   1      31.869  29.623  25.410  1.00  0.00     0.004 A 
ATOM     88  C   UNL A   1      33.660  28.068  25.625  1.00  0.00     0.004 A 
ATOM     89  C   UNL A   1      32.158  30.151  26.673  1.00  0.00     0.000 A 
ATOM     90  C   UNL A   1      33.959  28.591  26.890  1.00  0.00     0.000 A 
ATOM     91  C   UNL A   1      33.215  29.642  27.408  1.00  0.00     0.000 A 
ENDBRANCH  79  86
ENDBRANCH  75  77
ENDBRANCH  74  75
ENDBRANCH  73  74
ENDBRANCH  72  73
ENDBRANCH  71  72
ENDBRANCH   1  71
TORSDOF 19
ENDMDL
