MODEL 1
REMARK VINA RESULT:      -9.6      0.000      0.000
REMARK SMILES O=C(/C=C/C(=O)OCCOCCOC(=O)c1ccc(-c2c3nc(c(-c4cc(S(=O)(=O)[O-])ccc4F)c4ccc([nH]4)c(-c4cc(S(=O)(=O)[O-])ccc4F)c4nc(c(-c5cc(S(=O)(=O)[O-])ccc5F)c5ccc2[nH]5)C=C4)C=C3)cc1)NNC(=O)CSc1ccc2ccccc2n1
REMARK SMILES IDX 9 1 8 2 7 3 5 4 6 5 4 6 3 7 2 8 1 9 79 10 80 12 81 13 82 15
REMARK SMILES IDX 83 16 84 17 85 18 86 19 94 20 87 21 93 22 88 23 92 24 89 25
REMARK SMILES IDX 91 26 90 27 10 28 11 29 12 30 13 31 14 32 15 33 16 34 17 35
REMARK SMILES IDX 78 36 18 37 77 38 19 39 20 40 21 41 71 42 22 43 76 44 70 45
REMARK SMILES IDX 72 46 23 47 75 48 69 49 68 50 24 52 56 53 36 54 55 55 37 56
REMARK SMILES IDX 40 57 54 58 73 59 38 60 39 61 53 63 74 64 41 65 25 66 26 67
REMARK SMILES IDX 34 68 27 69 33 70 35 71 32 72 28 73 29 74 30 75 31 76 57 77
REMARK SMILES IDX 58 78 66 79 59 80 65 81 67 82 64 83 60 84 61 85 62 86 63 87
REMARK SMILES IDX 42 88 43 89 51 90 44 91 50 92 52 93 49 94 45 95 46 96 47 97
REMARK SMILES IDX 48 98
REMARK H PARENT 79 11 80 14 72 51 40 62
REMARK Flexibility Score: inf
ROOT
ATOM      1  C   UNL A   1      35.276  31.737  27.907  1.00  0.00     0.202 C 
ENDROOT
BRANCH   1   2
ATOM      2  C   UNL A   1      33.947  31.003  27.705  1.00  0.00     0.261 C 
BRANCH   2   3
ATOM      3  O   UNL A   1      34.012  30.039  26.639  1.00  0.00    -0.460 OA
BRANCH   3   4
ATOM      4  C   UNL A   1      32.826  29.483  26.303  1.00  0.00     0.331 C 
ATOM      5  O   UNL A   1      31.825  30.065  25.913  1.00  0.00    -0.247 OA
BRANCH   4   6
ATOM      6  C   UNL A   1      32.874  28.008  26.303  1.00  0.00     0.099 C 
ATOM      7  C   UNL A   1      31.839  27.177  26.495  1.00  0.00     0.080 C 
BRANCH   7   8
ATOM      8  C   UNL A   1      32.009  25.699  26.482  1.00  0.00     0.262 C 
ATOM      9  O   UNL A   1      31.113  24.961  26.876  1.00  0.00    -0.268 OA
ATOM     10  N   UNL A   1      33.251  25.254  26.077  1.00  0.00    -0.264 N 
ATOM     11  H   UNL A   1      33.973  25.896  25.884  1.00  0.00     0.191 HD
BRANCH  10  12
ATOM     12  N   UNL A   1      33.472  23.883  25.942  1.00  0.00    -0.267 N 
ATOM     13  C   UNL A   1      34.006  23.294  24.819  1.00  0.00     0.248 C 
ATOM     14  H   UNL A   1      33.231  23.301  26.698  1.00  0.00     0.191 HD
ATOM     15  O   UNL A   1      34.166  22.072  24.777  1.00  0.00    -0.272 OA
BRANCH  13  16
ATOM     16  C   UNL A   1      34.390  24.176  23.640  1.00  0.00     0.178 C 
BRANCH  16  17
ATOM     17  S   UNL A   1      33.070  24.022  22.397  1.00  0.00    -0.096 SA
BRANCH  17  18
ATOM     18  C   UNL A   1      31.807  25.133  22.951  1.00  0.00     0.097 A 
ATOM     19  C   UNL A   1      30.565  24.763  23.441  1.00  0.00     0.036 A 
ATOM     20  N   UNL A   1      32.146  26.427  22.768  1.00  0.00    -0.241 NA
ATOM     21  C   UNL A   1      29.581  25.744  23.553  1.00  0.00     0.013 A 
ATOM     22  C   UNL A   1      31.210  27.374  22.893  1.00  0.00     0.072 A 
ATOM     23  C   UNL A   1      29.875  27.068  23.205  1.00  0.00     0.000 A 
ATOM     24  C   UNL A   1      31.556  28.697  22.662  1.00  0.00     0.029 A 
ATOM     25  C   UNL A   1      28.894  28.072  23.133  1.00  0.00     0.010 A 
ATOM     26  C   UNL A   1      30.591  29.704  22.623  1.00  0.00     0.002 A 
ATOM     27  C   UNL A   1      29.252  29.382  22.818  1.00  0.00     0.001 A 
ENDBRANCH  17  18
ENDBRANCH  16  17
ENDBRANCH  13  16
ENDBRANCH  10  12
ENDBRANCH   7   8
ENDBRANCH   4   6
ENDBRANCH   3   4
ENDBRANCH   2   3
ENDBRANCH   1   2
BRANCH   1  28
ATOM     28  O   UNL A   1      35.280  33.146  27.679  1.00  0.00    -0.374 OA
BRANCH  28  29
ATOM     29  C   UNL A   1      34.020  33.813  27.647  1.00  0.00     0.202 C 
BRANCH  29  30
ATOM     30  C   UNL A   1      33.659  34.723  28.830  1.00  0.00     0.261 C 
BRANCH  30  31
ATOM     31  O   UNL A   1      33.560  34.012  30.075  1.00  0.00    -0.460 OA
BRANCH  31  32
ATOM     32  C   UNL A   1      34.406  34.454  31.045  1.00  0.00     0.338 C 
ATOM     33  O   UNL A   1      34.184  35.324  31.866  1.00  0.00    -0.246 OA
BRANCH  32  34
ATOM     34  C   UNL A   1      35.594  33.580  31.101  1.00  0.00     0.060 A 
ATOM     35  C   UNL A   1      35.462  32.344  31.747  1.00  0.00     0.016 A 
ATOM     36  C   UNL A   1      36.824  33.978  30.575  1.00  0.00     0.016 A 
ATOM     37  C   UNL A   1      36.568  31.509  31.890  1.00  0.00     0.010 A 
ATOM     38  C   UNL A   1      37.935  33.142  30.728  1.00  0.00     0.010 A 
ATOM     39  C   UNL A   1      37.818  31.912  31.403  1.00  0.00    -0.014 A 
BRANCH  39  40
ATOM     40  C   UNL A   1      39.022  31.090  31.683  1.00  0.00     0.031 A 
ATOM     41  C   UNL A   1      39.873  31.409  32.879  1.00  0.00     0.074 A 
ATOM     42  C   UNL A   1      39.347  30.064  30.877  1.00  0.00     0.049 A 
ATOM     43  N   UNL A   1      41.000  30.870  33.267  1.00  0.00    -0.248 NA
ATOM     44  C   UNL A   1      39.387  32.489  33.749  1.00  0.00     0.031 C 
ATOM     45  C   UNL A   1      38.579  29.638  29.707  1.00  0.00     0.029 A 
ATOM     46  N   UNL A   1      40.415  29.203  30.911  1.00  0.00    -0.354 N 
ATOM     47  C   UNL A   1      41.362  31.543  34.428  1.00  0.00     0.074 A 
ATOM     48  C   UNL A   1      40.357  32.564  34.648  1.00  0.00     0.031 C 
ATOM     49  C   UNL A   1      39.213  28.608  29.123  1.00  0.00     0.029 A 
ATOM     50  C   UNL A   1      40.453  28.333  29.847  1.00  0.00     0.049 A 
ATOM     51  H   UNL A   1      41.090  29.208  31.627  1.00  0.00     0.167 HD
ATOM     52  C   UNL A   1      42.427  31.321  35.240  1.00  0.00     0.034 A 
ATOM     53  C   UNL A   1      41.396  27.445  29.474  1.00  0.00     0.034 A 
ATOM     54  C   UNL A   1      43.432  30.315  34.985  1.00  0.00     0.049 A 
ATOM     55  C   UNL A   1      42.629  27.285  30.328  1.00  0.00     0.074 A 
ATOM     56  C   UNL A   1      44.544  29.993  35.745  1.00  0.00     0.029 A 
ATOM     57  N   UNL A   1      43.464  29.484  33.872  1.00  0.00    -0.354 N 
ATOM     58  N   UNL A   1      42.954  27.912  31.437  1.00  0.00    -0.248 NA
ATOM     59  C   UNL A   1      43.618  26.294  29.887  1.00  0.00     0.031 C 
ATOM     60  C   UNL A   1      45.288  29.032  35.052  1.00  0.00     0.029 A 
ATOM     61  C   UNL A   1      44.598  28.685  33.902  1.00  0.00     0.049 A 
ATOM     62  H   UNL A   1      42.780  29.465  33.163  1.00  0.00     0.167 HD
ATOM     63  C   UNL A   1      44.179  27.378  31.832  1.00  0.00     0.074 A 
ATOM     64  C   UNL A   1      44.520  26.363  30.854  1.00  0.00     0.031 C 
ATOM     65  C   UNL A   1      44.946  27.694  32.907  1.00  0.00     0.034 A 
BRANCH  52  66
ATOM     66  C   UNL A   1      42.576  32.224  36.444  1.00  0.00     0.023 A 
ATOM     67  C   UNL A   1      41.898  31.966  37.649  1.00  0.00     0.031 A 
ATOM     68  C   UNL A   1      43.358  33.389  36.370  1.00  0.00     0.131 A 
ATOM     69  C   UNL A   1      41.938  32.904  38.691  1.00  0.00     0.055 A 
ATOM     70  C   UNL A   1      43.470  34.273  37.447  1.00  0.00     0.041 A 
ATOM     71  F   UNL A   1      44.012  33.705  35.241  1.00  0.00    -0.206 F 
ATOM     72  C   UNL A   1      42.741  34.043  38.610  1.00  0.00     0.022 A 
BRANCH  69  73
ATOM     73  S   UNL A   1      40.782  32.706  40.076  1.00  0.00     0.124 S 
ATOM     74  O   UNL A   1      41.416  31.631  40.839  1.00  0.00    -0.237 OA
ATOM     75  O   UNL A   1      40.803  34.026  40.695  1.00  0.00    -0.237 OA
ATOM     76  O   UNL A   1      39.526  32.338  39.425  1.00  0.00    -0.744 OA
ENDBRANCH  69  73
ENDBRANCH  52  66
BRANCH  53  77
ATOM     77  C   UNL A   1      41.241  26.687  28.200  1.00  0.00     0.023 A 
ATOM     78  C   UNL A   1      40.862  25.337  28.191  1.00  0.00     0.031 A 
ATOM     79  C   UNL A   1      41.490  27.312  26.963  1.00  0.00     0.131 A 
ATOM     80  C   UNL A   1      40.770  24.646  26.971  1.00  0.00     0.055 A 
ATOM     81  C   UNL A   1      41.346  26.636  25.751  1.00  0.00     0.041 A 
ATOM     82  F   UNL A   1      41.858  28.603  26.916  1.00  0.00    -0.206 F 
ATOM     83  C   UNL A   1      40.993  25.291  25.752  1.00  0.00     0.022 A 
BRANCH  80  84
ATOM     84  S   UNL A   1      40.414  22.868  27.003  1.00  0.00     0.124 S 
ATOM     85  O   UNL A   1      38.974  22.849  26.771  1.00  0.00    -0.237 OA
ATOM     86  O   UNL A   1      41.247  22.372  25.913  1.00  0.00    -0.237 OA
ATOM     87  O   UNL A   1      40.836  22.461  28.342  1.00  0.00    -0.744 OA
ENDBRANCH  80  84
ENDBRANCH  53  77
BRANCH  65  88
ATOM     88  C   UNL A   1      46.226  26.911  33.094  1.00  0.00     0.023 A 
ATOM     89  C   UNL A   1      46.272  25.740  33.869  1.00  0.00     0.031 A 
ATOM     90  C   UNL A   1      47.420  27.348  32.489  1.00  0.00     0.131 A 
ATOM     91  C   UNL A   1      47.494  25.075  34.062  1.00  0.00     0.055 A 
ATOM     92  C   UNL A   1      48.617  26.647  32.631  1.00  0.00     0.041 A 
ATOM     93  F   UNL A   1      47.439  28.464  31.742  1.00  0.00    -0.206 F 
ATOM     94  C   UNL A   1      48.663  25.510  33.432  1.00  0.00     0.022 A 
BRANCH  91  95
ATOM     95  S   UNL A   1      47.558  23.687  35.229  1.00  0.00     0.124 S 
ATOM     96  O   UNL A   1      46.520  24.051  36.188  1.00  0.00    -0.237 OA
ATOM     97  O   UNL A   1      47.262  22.544  34.371  1.00  0.00    -0.237 OA
ATOM     98  O   UNL A   1      48.924  23.736  35.746  1.00  0.00    -0.744 OA
ENDBRANCH  91  95
ENDBRANCH  65  88
ENDBRANCH  39  40
ENDBRANCH  32  34
ENDBRANCH  31  32
ENDBRANCH  30  31
ENDBRANCH  29  30
ENDBRANCH  28  29
ENDBRANCH   1  28
TORSDOF 22
ENDMDL
MODEL 2
REMARK VINA RESULT:      -9.5      2.641      8.295
REMARK SMILES O=C(/C=C/C(=O)OCCOCCOC(=O)c1ccc(-c2c3nc(c(-c4cc(S(=O)(=O)[O-])ccc4F)c4ccc([nH]4)c(-c4cc(S(=O)(=O)[O-])ccc4F)c4nc(c(-c5cc(S(=O)(=O)[O-])ccc5F)c5ccc2[nH]5)C=C4)C=C3)cc1)NNC(=O)CSc1ccc2ccccc2n1
REMARK SMILES IDX 9 1 8 2 7 3 5 4 6 5 4 6 3 7 2 8 1 9 79 10 80 12 81 13 82 15
REMARK SMILES IDX 83 16 84 17 85 18 86 19 94 20 87 21 93 22 88 23 92 24 89 25
REMARK SMILES IDX 91 26 90 27 10 28 11 29 12 30 13 31 14 32 15 33 16 34 17 35
REMARK SMILES IDX 78 36 18 37 77 38 19 39 20 40 21 41 71 42 22 43 76 44 70 45
REMARK SMILES IDX 72 46 23 47 75 48 69 49 68 50 24 52 56 53 36 54 55 55 37 56
REMARK SMILES IDX 40 57 54 58 73 59 38 60 39 61 53 63 74 64 41 65 25 66 26 67
REMARK SMILES IDX 34 68 27 69 33 70 35 71 32 72 28 73 29 74 30 75 31 76 57 77
REMARK SMILES IDX 58 78 66 79 59 80 65 81 67 82 64 83 60 84 61 85 62 86 63 87
REMARK SMILES IDX 42 88 43 89 51 90 44 91 50 92 52 93 49 94 45 95 46 96 47 97
REMARK SMILES IDX 48 98
REMARK H PARENT 79 11 80 14 72 51 40 62
REMARK Flexibility Score: inf
ROOT
ATOM      1  C   UNL A   1      34.853  34.915  28.258  1.00  0.00     0.202 C 
ENDROOT
BRANCH   1   2
ATOM      2  C   UNL A   1      33.944  33.776  27.786  1.00  0.00     0.261 C 
BRANCH   2   3
ATOM      3  O   UNL A   1      33.986  32.642  28.671  1.00  0.00    -0.460 OA
BRANCH   3   4
ATOM      4  C   UNL A   1      34.458  31.504  28.113  1.00  0.00     0.331 C 
ATOM      5  O   UNL A   1      35.481  30.908  28.414  1.00  0.00    -0.247 OA
BRANCH   4   6
ATOM      6  C   UNL A   1      33.512  30.913  27.147  1.00  0.00     0.099 C 
ATOM      7  C   UNL A   1      32.943  29.701  27.227  1.00  0.00     0.080 C 
BRANCH   7   8
ATOM      8  C   UNL A   1      32.007  29.205  26.184  1.00  0.00     0.262 C 
ATOM      9  O   UNL A   1      31.344  28.190  26.366  1.00  0.00    -0.268 OA
ATOM     10  N   UNL A   1      32.011  29.919  25.002  1.00  0.00    -0.264 N 
ATOM     11  H   UNL A   1      32.651  30.657  24.868  1.00  0.00     0.191 HD
BRANCH  10  12
ATOM     12  N   UNL A   1      31.098  29.586  24.002  1.00  0.00    -0.267 N 
ATOM     13  C   UNL A   1      31.413  28.850  22.882  1.00  0.00     0.248 C 
ATOM     14  H   UNL A   1      30.170  29.898  24.103  1.00  0.00     0.191 HD
ATOM     15  O   UNL A   1      30.547  28.602  22.041  1.00  0.00    -0.272 OA
BRANCH  13  16
ATOM     16  C   UNL A   1      32.842  28.356  22.708  1.00  0.00     0.178 C 
BRANCH  16  17
ATOM     17  S   UNL A   1      32.751  26.643  22.100  1.00  0.00    -0.096 SA
BRANCH  17  18
ATOM     18  C   UNL A   1      33.511  25.679  23.378  1.00  0.00     0.097 A 
ATOM     19  C   UNL A   1      33.465  25.960  24.734  1.00  0.00     0.036 A 
ATOM     20  N   UNL A   1      34.238  24.654  22.884  1.00  0.00    -0.241 NA
ATOM     21  C   UNL A   1      34.350  25.289  25.576  1.00  0.00     0.013 A 
ATOM     22  C   UNL A   1      35.074  23.994  23.692  1.00  0.00     0.072 A 
ATOM     23  C   UNL A   1      35.230  24.337  25.045  1.00  0.00     0.000 A 
ATOM     24  C   UNL A   1      35.847  22.970  23.168  1.00  0.00     0.029 A 
ATOM     25  C   UNL A   1      36.257  23.746  25.801  1.00  0.00     0.010 A 
ATOM     26  C   UNL A   1      36.847  22.356  23.924  1.00  0.00     0.002 A 
ATOM     27  C   UNL A   1      37.079  22.775  25.229  1.00  0.00     0.001 A 
ENDBRANCH  17  18
ENDBRANCH  16  17
ENDBRANCH  13  16
ENDBRANCH  10  12
ENDBRANCH   7   8
ENDBRANCH   4   6
ENDBRANCH   3   4
ENDBRANCH   2   3
ENDBRANCH   1   2
BRANCH   1  28
ATOM     28  O   UNL A   1      34.386  36.247  28.050  1.00  0.00    -0.374 OA
BRANCH  28  29
ATOM     29  C   UNL A   1      33.180  36.633  28.707  1.00  0.00     0.202 C 
BRANCH  29  30
ATOM     30  C   UNL A   1      33.130  36.524  30.237  1.00  0.00     0.261 C 
BRANCH  30  31
ATOM     31  O   UNL A   1      32.826  35.197  30.696  1.00  0.00    -0.460 OA
BRANCH  31  32
ATOM     32  C   UNL A   1      33.050  34.994  32.023  1.00  0.00     0.338 C 
ATOM     33  O   UNL A   1      32.263  35.179  32.932  1.00  0.00    -0.246 OA
BRANCH  32  34
ATOM     34  C   UNL A   1      34.347  34.314  32.208  1.00  0.00     0.060 A 
ATOM     35  C   UNL A   1      34.345  33.080  32.871  1.00  0.00     0.016 A 
ATOM     36  C   UNL A   1      35.545  34.889  31.785  1.00  0.00     0.016 A 
ATOM     37  C   UNL A   1      35.547  32.426  33.134  1.00  0.00     0.010 A 
ATOM     38  C   UNL A   1      36.752  34.236  32.058  1.00  0.00     0.010 A 
ATOM     39  C   UNL A   1      36.761  33.011  32.751  1.00  0.00    -0.014 A 
BRANCH  39  40
ATOM     40  C   UNL A   1      38.044  32.387  33.159  1.00  0.00     0.031 A 
ATOM     41  C   UNL A   1      38.635  31.293  32.314  1.00  0.00     0.074 A 
ATOM     42  C   UNL A   1      38.678  32.799  34.271  1.00  0.00     0.049 A 
ATOM     43  N   UNL A   1      39.703  30.566  32.522  1.00  0.00    -0.248 NA
ATOM     44  C   UNL A   1      37.918  30.977  31.072  1.00  0.00     0.031 C 
ATOM     45  C   UNL A   1      38.219  33.873  35.151  1.00  0.00     0.029 A 
ATOM     46  N   UNL A   1      39.835  32.352  34.859  1.00  0.00    -0.354 N 
ATOM     47  C   UNL A   1      39.788  29.702  31.436  1.00  0.00     0.074 A 
ATOM     48  C   UNL A   1      38.633  29.967  30.601  1.00  0.00     0.031 C 
ATOM     49  C   UNL A   1      39.077  33.989  36.179  1.00  0.00     0.029 A 
ATOM     50  C   UNL A   1      40.116  32.968  36.056  1.00  0.00     0.049 A 
ATOM     51  H   UNL A   1      40.408  31.657  34.463  1.00  0.00     0.167 HD
ATOM     52  C   UNL A   1      40.748  28.783  31.157  1.00  0.00     0.034 A 
ATOM     53  C   UNL A   1      41.074  32.713  36.969  1.00  0.00     0.034 A 
ATOM     54  C   UNL A   1      41.876  28.517  32.019  1.00  0.00     0.049 A 
ATOM     55  C   UNL A   1      42.071  31.615  36.696  1.00  0.00     0.074 A 
ATOM     56  C   UNL A   1      42.915  27.621  31.829  1.00  0.00     0.029 A 
ATOM     57  N   UNL A   1      42.103  29.127  33.247  1.00  0.00    -0.354 N 
ATOM     58  N   UNL A   1      42.157  30.815  35.657  1.00  0.00    -0.248 NA
ATOM     59  C   UNL A   1      43.104  31.389  37.715  1.00  0.00     0.031 C 
ATOM     60  C   UNL A   1      43.717  27.629  32.976  1.00  0.00     0.029 A 
ATOM     61  C   UNL A   1      43.236  28.594  33.846  1.00  0.00     0.049 A 
ATOM     62  H   UNL A   1      41.540  29.835  33.636  1.00  0.00     0.167 HD
ATOM     63  C   UNL A   1      43.263  30.002  35.892  1.00  0.00     0.074 A 
ATOM     64  C   UNL A   1      43.824  30.425  37.160  1.00  0.00     0.031 C 
ATOM     65  C   UNL A   1      43.772  29.002  35.125  1.00  0.00     0.034 A 
BRANCH  52  66
ATOM     66  C   UNL A   1      40.576  27.969  29.894  1.00  0.00     0.023 A 
ATOM     67  C   UNL A   1      41.405  28.160  28.774  1.00  0.00     0.031 A 
ATOM     68  C   UNL A   1      39.535  27.031  29.786  1.00  0.00     0.131 A 
ATOM     69  C   UNL A   1      41.121  27.497  27.571  1.00  0.00     0.055 A 
ATOM     70  C   UNL A   1      39.316  26.304  28.613  1.00  0.00     0.041 A 
ATOM     71  F   UNL A   1      38.695  26.819  30.811  1.00  0.00    -0.206 F 
ATOM     72  C   UNL A   1      40.099  26.550  27.489  1.00  0.00     0.022 A 
BRANCH  69  73
ATOM     73  S   UNL A   1      41.987  28.029  26.067  1.00  0.00     0.124 S 
ATOM     74  O   UNL A   1      41.218  29.212  25.686  1.00  0.00    -0.237 OA
ATOM     75  O   UNL A   1      43.340  28.275  26.554  1.00  0.00    -0.237 OA
ATOM     76  O   UNL A   1      41.844  26.887  25.166  1.00  0.00    -0.744 OA
ENDBRANCH  69  73
ENDBRANCH  52  66
BRANCH  53  77
ATOM     77  C   UNL A   1      41.097  33.470  38.253  1.00  0.00     0.023 A 
ATOM     78  C   UNL A   1      40.338  33.061  39.360  1.00  0.00     0.031 A 
ATOM     79  C   UNL A   1      41.876  34.636  38.380  1.00  0.00     0.131 A 
ATOM     80  C   UNL A   1      40.352  33.827  40.537  1.00  0.00     0.055 A 
ATOM     81  C   UNL A   1      41.927  35.364  39.569  1.00  0.00     0.041 A 
ATOM     82  F   UNL A   1      42.618  35.073  37.350  1.00  0.00    -0.206 F 
ATOM     83  C   UNL A   1      41.154  34.965  40.654  1.00  0.00     0.022 A 
BRANCH  80  84
ATOM     84  S   UNL A   1      39.255  33.348  41.899  1.00  0.00     0.124 S 
ATOM     85  O   UNL A   1      37.940  33.631  41.335  1.00  0.00    -0.237 OA
ATOM     86  O   UNL A   1      39.588  31.939  42.076  1.00  0.00    -0.237 OA
ATOM     87  O   UNL A   1      39.667  34.225  42.992  1.00  0.00    -0.744 OA
ENDBRANCH  80  84
ENDBRANCH  53  77
BRANCH  65  88
ATOM     88  C   UNL A   1      45.017  28.311  35.633  1.00  0.00     0.023 A 
ATOM     89  C   UNL A   1      46.305  28.769  35.305  1.00  0.00     0.031 A 
ATOM     90  C   UNL A   1      44.912  27.173  36.455  1.00  0.00     0.131 A 
ATOM     91  C   UNL A   1      47.434  28.063  35.752  1.00  0.00     0.055 A 
ATOM     92  C   UNL A   1      46.038  26.515  36.950  1.00  0.00     0.041 A 
ATOM     93  F   UNL A   1      43.708  26.686  36.796  1.00  0.00    -0.206 F 
ATOM     94  C   UNL A   1      47.309  26.951  36.588  1.00  0.00     0.022 A 
BRANCH  91  95
ATOM     95  S   UNL A   1      49.070  28.560  35.145  1.00  0.00     0.124 S 
ATOM     96  O   UNL A   1      49.336  29.755  35.939  1.00  0.00    -0.237 OA
ATOM     97  O   UNL A   1      49.887  27.392  35.457  1.00  0.00    -0.237 OA
ATOM     98  O   UNL A   1      48.850  28.799  33.720  1.00  0.00    -0.744 OA
ENDBRANCH  91  95
ENDBRANCH  65  88
ENDBRANCH  39  40
ENDBRANCH  32  34
ENDBRANCH  31  32
ENDBRANCH  30  31
ENDBRANCH  29  30
ENDBRANCH  28  29
ENDBRANCH   1  28
TORSDOF 22
ENDMDL
MODEL 3
REMARK VINA RESULT:      -9.5      5.708     10.726
REMARK SMILES O=C(/C=C/C(=O)OCCOCCOC(=O)c1ccc(-c2c3nc(c(-c4cc(S(=O)(=O)[O-])ccc4F)c4ccc([nH]4)c(-c4cc(S(=O)(=O)[O-])ccc4F)c4nc(c(-c5cc(S(=O)(=O)[O-])ccc5F)c5ccc2[nH]5)C=C4)C=C3)cc1)NNC(=O)CSc1ccc2ccccc2n1
REMARK SMILES IDX 9 1 8 2 7 3 5 4 6 5 4 6 3 7 2 8 1 9 79 10 80 12 81 13 82 15
REMARK SMILES IDX 83 16 84 17 85 18 86 19 94 20 87 21 93 22 88 23 92 24 89 25
REMARK SMILES IDX 91 26 90 27 10 28 11 29 12 30 13 31 14 32 15 33 16 34 17 35
REMARK SMILES IDX 78 36 18 37 77 38 19 39 20 40 21 41 71 42 22 43 76 44 70 45
REMARK SMILES IDX 72 46 23 47 75 48 69 49 68 50 24 52 56 53 36 54 55 55 37 56
REMARK SMILES IDX 40 57 54 58 73 59 38 60 39 61 53 63 74 64 41 65 25 66 26 67
REMARK SMILES IDX 34 68 27 69 33 70 35 71 32 72 28 73 29 74 30 75 31 76 57 77
REMARK SMILES IDX 58 78 66 79 59 80 65 81 67 82 64 83 60 84 61 85 62 86 63 87
REMARK SMILES IDX 42 88 43 89 51 90 44 91 50 92 52 93 49 94 45 95 46 96 47 97
REMARK SMILES IDX 48 98
REMARK H PARENT 79 11 80 14 72 51 40 62
REMARK Flexibility Score: inf
ROOT
ATOM      1  C   UNL A   1      41.116  21.985  27.765  1.00  0.00     0.202 C 
ENDROOT
BRANCH   1   2
ATOM      2  C   UNL A   1      40.832  22.376  26.312  1.00  0.00     0.261 C 
BRANCH   2   3
ATOM      3  O   UNL A   1      39.548  21.911  25.862  1.00  0.00    -0.460 OA
BRANCH   3   4
ATOM      4  C   UNL A   1      38.530  22.781  26.053  1.00  0.00     0.331 C 
ATOM      5  O   UNL A   1      38.619  23.960  26.361  1.00  0.00    -0.247 OA
BRANCH   4   6
ATOM      6  C   UNL A   1      37.219  22.205  25.697  1.00  0.00     0.099 C 
ATOM      7  C   UNL A   1      36.989  20.961  25.251  1.00  0.00     0.080 C 
BRANCH   7   8
ATOM      8  C   UNL A   1      35.619  20.491  24.913  1.00  0.00     0.262 C 
ATOM      9  O   UNL A   1      35.385  19.298  24.759  1.00  0.00    -0.268 OA
ATOM     10  N   UNL A   1      34.686  21.490  24.718  1.00  0.00    -0.264 N 
ATOM     11  H   UNL A   1      34.958  22.437  24.739  1.00  0.00     0.191 HD
BRANCH  10  12
ATOM     12  N   UNL A   1      33.355  21.143  24.492  1.00  0.00    -0.267 N 
ATOM     13  C   UNL A   1      32.280  21.792  25.057  1.00  0.00     0.248 C 
ATOM     14  H   UNL A   1      33.171  20.385  23.891  1.00  0.00     0.191 HD
ATOM     15  O   UNL A   1      31.132  21.420  24.810  1.00  0.00    -0.272 OA
BRANCH  13  16
ATOM     16  C   UNL A   1      32.542  22.968  25.987  1.00  0.00     0.178 C 
BRANCH  16  17
ATOM     17  S   UNL A   1      30.931  23.511  26.638  1.00  0.00    -0.096 SA
BRANCH  17  18
ATOM     18  C   UNL A   1      30.737  25.159  26.019  1.00  0.00     0.097 A 
ATOM     19  C   UNL A   1      30.329  25.496  24.739  1.00  0.00     0.036 A 
ATOM     20  N   UNL A   1      31.118  26.093  26.917  1.00  0.00    -0.241 NA
ATOM     21  C   UNL A   1      30.512  26.811  24.313  1.00  0.00     0.013 A 
ATOM     22  C   UNL A   1      31.276  27.360  26.519  1.00  0.00     0.072 A 
ATOM     23  C   UNL A   1      31.064  27.756  25.188  1.00  0.00     0.000 A 
ATOM     24  C   UNL A   1      31.707  28.305  27.437  1.00  0.00     0.029 A 
ATOM     25  C   UNL A   1      31.430  29.049  24.778  1.00  0.00     0.010 A 
ATOM     26  C   UNL A   1      32.040  29.601  27.042  1.00  0.00     0.002 A 
ATOM     27  C   UNL A   1      31.941  29.960  25.703  1.00  0.00     0.001 A 
ENDBRANCH  17  18
ENDBRANCH  16  17
ENDBRANCH  13  16
ENDBRANCH  10  12
ENDBRANCH   7   8
ENDBRANCH   4   6
ENDBRANCH   3   4
ENDBRANCH   2   3
ENDBRANCH   1   2
BRANCH   1  28
ATOM     28  O   UNL A   1      41.779  20.741  27.985  1.00  0.00    -0.374 OA
BRANCH  28  29
ATOM     29  C   UNL A   1      41.328  19.612  27.240  1.00  0.00     0.202 C 
BRANCH  29  30
ATOM     30  C   UNL A   1      42.336  18.911  26.318  1.00  0.00     0.261 C 
BRANCH  30  31
ATOM     31  O   UNL A   1      42.632  19.666  25.132  1.00  0.00    -0.460 OA
BRANCH  31  32
ATOM     32  C   UNL A   1      43.959  19.853  24.900  1.00  0.00     0.338 C 
ATOM     33  O   UNL A   1      44.731  19.060  24.394  1.00  0.00    -0.246 OA
BRANCH  32  34
ATOM     34  C   UNL A   1      44.316  21.260  25.170  1.00  0.00     0.060 A 
ATOM     35  C   UNL A   1      44.774  21.580  26.454  1.00  0.00     0.016 A 
ATOM     36  C   UNL A   1      44.162  22.255  24.204  1.00  0.00     0.016 A 
ATOM     37  C   UNL A   1      45.059  22.903  26.785  1.00  0.00     0.010 A 
ATOM     38  C   UNL A   1      44.440  23.584  24.540  1.00  0.00     0.010 A 
ATOM     39  C   UNL A   1      44.871  23.918  25.838  1.00  0.00    -0.014 A 
BRANCH  39  40
ATOM     40  C   UNL A   1      45.035  25.339  26.233  1.00  0.00     0.031 A 
ATOM     41  C   UNL A   1      46.403  25.961  26.203  1.00  0.00     0.074 A 
ATOM     42  C   UNL A   1      43.969  26.068  26.610  1.00  0.00     0.049 A 
ATOM     43  N   UNL A   1      46.781  27.157  26.574  1.00  0.00    -0.248 NA
ATOM     44  C   UNL A   1      47.488  25.114  25.691  1.00  0.00     0.031 C 
ATOM     45  C   UNL A   1      42.590  25.584  26.646  1.00  0.00     0.029 A 
ATOM     46  N   UNL A   1      43.883  27.365  27.048  1.00  0.00    -0.354 N 
ATOM     47  C   UNL A   1      48.151  27.209  26.342  1.00  0.00     0.074 A 
ATOM     48  C   UNL A   1      48.539  25.903  25.845  1.00  0.00     0.031 C 
ATOM     49  C   UNL A   1      41.796  26.567  27.102  1.00  0.00     0.029 A 
ATOM     50  C   UNL A   1      42.614  27.731  27.435  1.00  0.00     0.049 A 
ATOM     51  H   UNL A   1      44.653  27.976  27.083  1.00  0.00     0.167 HD
ATOM     52  C   UNL A   1      49.002  28.253  26.515  1.00  0.00     0.034 A 
ATOM     53  C   UNL A   1      42.170  28.857  28.028  1.00  0.00     0.034 A 
ATOM     54  C   UNL A   1      48.597  29.537  27.039  1.00  0.00     0.049 A 
ATOM     55  C   UNL A   1      43.148  29.968  28.315  1.00  0.00     0.074 A 
ATOM     56  C   UNL A   1      49.369  30.668  27.243  1.00  0.00     0.029 A 
ATOM     57  N   UNL A   1      47.313  29.855  27.465  1.00  0.00    -0.354 N 
ATOM     58  N   UNL A   1      44.439  30.017  28.074  1.00  0.00    -0.248 NA
ATOM     59  C   UNL A   1      42.609  31.179  28.948  1.00  0.00     0.031 C 
ATOM     60  C   UNL A   1      48.575  31.636  27.868  1.00  0.00     0.029 A 
ATOM     61  C   UNL A   1      47.283  31.146  27.974  1.00  0.00     0.049 A 
ATOM     62  H   UNL A   1      46.537  29.252  27.414  1.00  0.00     0.167 HD
ATOM     63  C   UNL A   1      44.862  31.270  28.512  1.00  0.00     0.074 A 
ATOM     64  C   UNL A   1      43.683  31.952  29.010  1.00  0.00     0.031 C 
ATOM     65  C   UNL A   1      46.109  31.809  28.496  1.00  0.00     0.034 A 
BRANCH  52  66
ATOM     66  C   UNL A   1      50.458  28.017  26.185  1.00  0.00     0.023 A 
ATOM     67  C   UNL A   1      50.931  28.059  24.861  1.00  0.00     0.031 A 
ATOM     68  C   UNL A   1      51.376  27.688  27.197  1.00  0.00     0.131 A 
ATOM     69  C   UNL A   1      52.253  27.686  24.576  1.00  0.00     0.055 A 
ATOM     70  C   UNL A   1      52.716  27.409  26.916  1.00  0.00     0.041 A 
ATOM     71  F   UNL A   1      50.983  27.608  28.478  1.00  0.00    -0.206 F 
ATOM     72  C   UNL A   1      53.157  27.387  25.597  1.00  0.00     0.022 A 
BRANCH  69  73
ATOM     73  S   UNL A   1      52.720  27.416  22.843  1.00  0.00     0.124 S 
ATOM     74  O   UNL A   1      53.674  26.315  22.962  1.00  0.00    -0.237 OA
ATOM     75  O   UNL A   1      51.442  27.089  22.220  1.00  0.00    -0.237 OA
ATOM     76  O   UNL A   1      53.304  28.694  22.442  1.00  0.00    -0.744 OA
ENDBRANCH  69  73
ENDBRANCH  52  66
BRANCH  53  77
ATOM     77  C   UNL A   1      40.743  28.961  28.448  1.00  0.00     0.023 A 
ATOM     78  C   UNL A   1      40.360  28.820  29.790  1.00  0.00     0.031 A 
ATOM     79  C   UNL A   1      39.734  29.189  27.493  1.00  0.00     0.131 A 
ATOM     80  C   UNL A   1      39.000  28.880  30.137  1.00  0.00     0.055 A 
ATOM     81  C   UNL A   1      38.390  29.301  27.850  1.00  0.00     0.041 A 
ATOM     82  F   UNL A   1      40.046  29.329  26.194  1.00  0.00    -0.206 F 
ATOM     83  C   UNL A   1      38.016  29.137  29.180  1.00  0.00     0.022 A 
BRANCH  80  84
ATOM     84  S   UNL A   1      38.528  28.556  31.858  1.00  0.00     0.124 S 
ATOM     85  O   UNL A   1      38.791  27.126  31.974  1.00  0.00    -0.237 OA
ATOM     86  O   UNL A   1      39.430  29.437  32.591  1.00  0.00    -0.237 OA
ATOM     87  O   UNL A   1      37.118  28.937  31.901  1.00  0.00    -0.744 OA
ENDBRANCH  80  84
ENDBRANCH  53  77
BRANCH  65  88
ATOM     88  C   UNL A   1      46.255  33.221  29.017  1.00  0.00     0.023 A 
ATOM     89  C   UNL A   1      46.546  33.487  30.366  1.00  0.00     0.031 A 
ATOM     90  C   UNL A   1      46.097  34.317  28.148  1.00  0.00     0.131 A 
ATOM     91  C   UNL A   1      46.617  34.815  30.818  1.00  0.00     0.055 A 
ATOM     92  C   UNL A   1      46.235  35.633  28.590  1.00  0.00     0.041 A 
ATOM     93  F   UNL A   1      45.813  34.125  26.850  1.00  0.00    -0.206 F 
ATOM     94  C   UNL A   1      46.483  35.889  29.935  1.00  0.00     0.022 A 
BRANCH  91  95
ATOM     95  S   UNL A   1      46.792  35.122  32.598  1.00  0.00     0.124 S 
ATOM     96  O   UNL A   1      48.154  34.665  32.851  1.00  0.00    -0.237 OA
ATOM     97  O   UNL A   1      46.573  36.562  32.689  1.00  0.00    -0.237 OA
ATOM     98  O   UNL A   1      45.742  34.297  33.193  1.00  0.00    -0.744 OA
ENDBRANCH  91  95
ENDBRANCH  65  88
ENDBRANCH  39  40
ENDBRANCH  32  34
ENDBRANCH  31  32
ENDBRANCH  30  31
ENDBRANCH  29  30
ENDBRANCH  28  29
ENDBRANCH   1  28
TORSDOF 22
ENDMDL
