MODEL 1
REMARK VINA RESULT:     -10.1      0.000      0.000
REMARK SMILES CC(C)C[C@@H](CNC(=O)[C@@H]1CCOC1)C(=O)OCCOCCOC(=O)c1ccc(-c2c3nc(c(-c4cc(S(=O)(=O)[O-])ccc4F)c4ccc([nH]4)c(-c4cc(S(=O)(=O)[O-])ccc4F)c4nc(c(-c5cc(S(=O)(=O)[O-])ccc5F)c5ccc2[nH]5)C=C4)C=C3)cc1
REMARK SMILES IDX 20 1 19 2 18 3 17 4 15 5 16 6 5 7 4 8 2 9 1 10 3 11 6 12
REMARK SMILES IDX 7 13 8 14 9 16 10 17 11 18 14 19 12 20 13 21 21 22 22 23
REMARK SMILES IDX 23 24 24 25 25 26 26 27 27 28 88 29 28 30 87 31 29 32 30 33
REMARK SMILES IDX 31 34 81 35 32 36 86 37 80 38 82 39 33 40 85 41 79 42 78 43
REMARK SMILES IDX 34 45 66 46 46 47 65 48 47 49 50 50 64 51 83 52 48 53 49 54
REMARK SMILES IDX 63 56 84 57 51 58 35 59 36 60 44 61 37 62 43 63 45 64 42 65
REMARK SMILES IDX 38 66 39 67 40 68 41 69 67 70 68 71 76 72 69 73 75 74 77 75
REMARK SMILES IDX 74 76 70 77 71 78 72 79 73 80 52 81 53 82 61 83 54 84 60 85
REMARK SMILES IDX 62 86 59 87 55 88 56 89 57 90 58 91
REMARK H PARENT 7 15 82 44 50 55
REMARK Flexibility Score: inf
ROOT
ATOM      1  O   UNL A   1      34.558  20.920  25.572  1.00  0.00    -0.374 OA
ENDROOT
BRANCH   1   2
ATOM      2  C   UNL A   1      34.417  21.902  26.596  1.00  0.00     0.202 C 
BRANCH   2   3
ATOM      3  C   UNL A   1      32.990  22.305  26.980  1.00  0.00     0.261 C 
BRANCH   3   4
ATOM      4  O   UNL A   1      32.733  23.706  26.779  1.00  0.00    -0.463 OA
BRANCH   4   5
ATOM      5  C   UNL A   1      31.441  24.036  26.526  1.00  0.00     0.310 C 
ATOM      6  O   UNL A   1      30.484  23.742  27.236  1.00  0.00    -0.252 OA
BRANCH   5   7
ATOM      7  C   UNL A   1      31.252  24.750  25.202  1.00  0.00     0.118 C 
BRANCH   7   8
ATOM      8  C   UNL A   1      30.971  23.843  23.987  1.00  0.00     0.020 C 
BRANCH   8   9
ATOM      9  C   UNL A   1      32.011  23.964  22.848  1.00  0.00    -0.017 C 
ATOM     10  C   UNL A   1      32.109  25.389  22.295  1.00  0.00     0.007 C 
ATOM     11  C   UNL A   1      33.391  23.518  23.339  1.00  0.00     0.007 C 
ENDBRANCH   8   9
ENDBRANCH   7   8
BRANCH   7  12
ATOM     12  C   UNL A   1      30.229  25.868  25.410  1.00  0.00     0.131 C 
BRANCH  12  13
ATOM     13  N   UNL A   1      30.578  27.104  24.729  1.00  0.00    -0.355 N 
ATOM     14  C   UNL A   1      31.278  28.182  25.192  1.00  0.00     0.225 C 
ATOM     15  H   UNL A   1      30.263  27.175  23.800  1.00  0.00     0.163 HD
ATOM     16  O   UNL A   1      31.361  29.169  24.464  1.00  0.00    -0.275 OA
BRANCH  14  17
ATOM     17  C   UNL A   1      31.900  28.124  26.579  1.00  0.00     0.106 C 
ATOM     18  C   UNL A   1      32.156  29.498  27.168  1.00  0.00     0.044 C 
ATOM     19  C   UNL A   1      33.297  27.525  26.526  1.00  0.00     0.173 C 
ATOM     20  C   UNL A   1      33.526  29.835  26.625  1.00  0.00     0.161 C 
ATOM     21  O   UNL A   1      34.250  28.596  26.605  1.00  0.00    -0.381 OA
ENDBRANCH  14  17
ENDBRANCH  12  13
ENDBRANCH   7  12
ENDBRANCH   5   7
ENDBRANCH   4   5
ENDBRANCH   3   4
ENDBRANCH   2   3
ENDBRANCH   1   2
BRANCH   1  22
ATOM     22  C   UNL A   1      35.873  20.652  25.090  1.00  0.00     0.202 C 
BRANCH  22  23
ATOM     23  C   UNL A   1      37.039  21.399  25.752  1.00  0.00     0.261 C 
BRANCH  23  24
ATOM     24  O   UNL A   1      38.310  21.118  25.136  1.00  0.00    -0.460 OA
BRANCH  24  25
ATOM     25  C   UNL A   1      39.340  20.980  26.007  1.00  0.00     0.338 C 
ATOM     26  O   UNL A   1      39.992  19.963  26.214  1.00  0.00    -0.246 OA
BRANCH  25  27
ATOM     27  C   UNL A   1      39.721  22.286  26.577  1.00  0.00     0.060 A 
ATOM     28  C   UNL A   1      39.081  23.426  26.071  1.00  0.00     0.016 A 
ATOM     29  C   UNL A   1      40.748  22.407  27.514  1.00  0.00     0.016 A 
ATOM     30  C   UNL A   1      39.495  24.696  26.470  1.00  0.00     0.010 A 
ATOM     31  C   UNL A   1      41.170  23.685  27.904  1.00  0.00     0.010 A 
ATOM     32  C   UNL A   1      40.567  24.835  27.360  1.00  0.00    -0.014 A 
BRANCH  32  33
ATOM     33  C   UNL A   1      41.146  26.179  27.612  1.00  0.00     0.031 A 
ATOM     34  C   UNL A   1      42.539  26.477  27.126  1.00  0.00     0.074 A 
ATOM     35  C   UNL A   1      40.435  27.127  28.251  1.00  0.00     0.049 A 
ATOM     36  N   UNL A   1      43.267  27.551  27.293  1.00  0.00    -0.248 NA
ATOM     37  C   UNL A   1      43.198  25.418  26.346  1.00  0.00     0.031 C 
ATOM     38  C   UNL A   1      39.060  26.970  28.725  1.00  0.00     0.029 A 
ATOM     39  N   UNL A   1      40.776  28.403  28.623  1.00  0.00    -0.354 N 
ATOM     40  C   UNL A   1      44.475  27.295  26.653  1.00  0.00     0.074 A 
ATOM     41  C   UNL A   1      44.388  25.953  26.116  1.00  0.00     0.031 C 
ATOM     42  C   UNL A   1      38.682  28.102  29.344  1.00  0.00     0.029 A 
ATOM     43  C   UNL A   1      39.799  29.045  29.348  1.00  0.00     0.049 A 
ATOM     44  H   UNL A   1      41.638  28.820  28.392  1.00  0.00     0.167 HD
ATOM     45  C   UNL A   1      45.554  28.106  26.525  1.00  0.00     0.034 A 
ATOM     46  C   UNL A   1      39.820  30.238  29.977  1.00  0.00     0.034 A 
ATOM     47  C   UNL A   1      45.624  29.440  27.070  1.00  0.00     0.049 A 
ATOM     48  C   UNL A   1      41.068  31.086  29.900  1.00  0.00     0.074 A 
ATOM     49  C   UNL A   1      46.652  30.361  26.963  1.00  0.00     0.029 A 
ATOM     50  N   UNL A   1      44.636  30.037  27.841  1.00  0.00    -0.354 N 
ATOM     51  N   UNL A   1      42.197  30.842  29.274  1.00  0.00    -0.248 NA
ATOM     52  C   UNL A   1      41.045  32.371  30.615  1.00  0.00     0.031 C 
ATOM     53  C   UNL A   1      46.318  31.481  27.732  1.00  0.00     0.029 A 
ATOM     54  C   UNL A   1      45.048  31.294  28.255  1.00  0.00     0.049 A 
ATOM     55  H   UNL A   1      43.767  29.628  28.062  1.00  0.00     0.167 HD
ATOM     56  C   UNL A   1      43.005  31.954  29.500  1.00  0.00     0.074 A 
ATOM     57  C   UNL A   1      42.232  32.873  30.308  1.00  0.00     0.031 C 
ATOM     58  C   UNL A   1      44.271  32.195  29.074  1.00  0.00     0.034 A 
BRANCH  45  59
ATOM     59  C   UNL A   1      46.766  27.549  25.818  1.00  0.00     0.023 A 
ATOM     60  C   UNL A   1      47.089  27.906  24.498  1.00  0.00     0.031 A 
ATOM     61  C   UNL A   1      47.603  26.631  26.477  1.00  0.00     0.131 A 
ATOM     62  C   UNL A   1      48.183  27.303  23.859  1.00  0.00     0.055 A 
ATOM     63  C   UNL A   1      48.732  26.089  25.860  1.00  0.00     0.041 A 
ATOM     64  F   UNL A   1      47.331  26.236  27.731  1.00  0.00    -0.206 F 
ATOM     65  C   UNL A   1      49.021  26.416  24.539  1.00  0.00     0.022 A 
BRANCH  62  66
ATOM     66  S   UNL A   1      48.426  27.597  22.086  1.00  0.00     0.124 S 
ATOM     67  O   UNL A   1      47.155  28.214  21.712  1.00  0.00    -0.237 OA
ATOM     68  O   UNL A   1      49.591  28.473  22.067  1.00  0.00    -0.237 OA
ATOM     69  O   UNL A   1      48.643  26.258  21.541  1.00  0.00    -0.744 OA
ENDBRANCH  62  66
ENDBRANCH  45  59
BRANCH  46  70
ATOM     70  C   UNL A   1      38.653  30.683  30.792  1.00  0.00     0.023 A 
ATOM     71  C   UNL A   1      37.565  31.350  30.209  1.00  0.00     0.031 A 
ATOM     72  C   UNL A   1      38.640  30.499  32.187  1.00  0.00     0.131 A 
ATOM     73  C   UNL A   1      36.533  31.850  31.020  1.00  0.00     0.055 A 
ATOM     74  C   UNL A   1      37.586  30.947  32.983  1.00  0.00     0.041 A 
ATOM     75  F   UNL A   1      39.661  29.876  32.799  1.00  0.00    -0.206 F 
ATOM     76  C   UNL A   1      36.529  31.640  32.401  1.00  0.00     0.022 A 
BRANCH  73  77
ATOM     77  S   UNL A   1      35.237  32.862  30.254  1.00  0.00     0.124 S 
ATOM     78  O   UNL A   1      34.682  31.939  29.270  1.00  0.00    -0.237 OA
ATOM     79  O   UNL A   1      34.381  33.173  31.395  1.00  0.00    -0.237 OA
ATOM     80  O   UNL A   1      35.973  33.996  29.701  1.00  0.00    -0.744 OA
ENDBRANCH  73  77
ENDBRANCH  46  70
BRANCH  58  81
ATOM     81  C   UNL A   1      44.881  33.526  29.441  1.00  0.00     0.023 A 
ATOM     82  C   UNL A   1      45.646  33.693  30.608  1.00  0.00     0.031 A 
ATOM     83  C   UNL A   1      44.698  34.641  28.604  1.00  0.00     0.131 A 
ATOM     84  C   UNL A   1      46.165  34.957  30.929  1.00  0.00     0.055 A 
ATOM     85  C   UNL A   1      45.261  35.884  28.900  1.00  0.00     0.041 A 
ATOM     86  F   UNL A   1      43.975  34.538  27.478  1.00  0.00    -0.206 F 
ATOM     87  C   UNL A   1      45.991  36.048  30.074  1.00  0.00     0.022 A 
BRANCH  84  88
ATOM     88  S   UNL A   1      47.015  35.176  32.516  1.00  0.00     0.124 S 
ATOM     89  O   UNL A   1      46.342  34.195  33.360  1.00  0.00    -0.237 OA
ATOM     90  O   UNL A   1      48.402  34.877  32.173  1.00  0.00    -0.237 OA
ATOM     91  O   UNL A   1      46.751  36.572  32.858  1.00  0.00    -0.744 OA
ENDBRANCH  84  88
ENDBRANCH  58  81
ENDBRANCH  32  33
ENDBRANCH  25  27
ENDBRANCH  24  25
ENDBRANCH  23  24
ENDBRANCH  22  23
ENDBRANCH   1  22
TORSDOF 22
ENDMDL
MODEL 2
REMARK VINA RESULT:      -9.9      3.440      9.003
REMARK SMILES CC(C)C[C@@H](CNC(=O)[C@@H]1CCOC1)C(=O)OCCOCCOC(=O)c1ccc(-c2c3nc(c(-c4cc(S(=O)(=O)[O-])ccc4F)c4ccc([nH]4)c(-c4cc(S(=O)(=O)[O-])ccc4F)c4nc(c(-c5cc(S(=O)(=O)[O-])ccc5F)c5ccc2[nH]5)C=C4)C=C3)cc1
REMARK SMILES IDX 20 1 19 2 18 3 17 4 15 5 16 6 5 7 4 8 2 9 1 10 3 11 6 12
REMARK SMILES IDX 7 13 8 14 9 16 10 17 11 18 14 19 12 20 13 21 21 22 22 23
REMARK SMILES IDX 23 24 24 25 25 26 26 27 27 28 88 29 28 30 87 31 29 32 30 33
REMARK SMILES IDX 31 34 81 35 32 36 86 37 80 38 82 39 33 40 85 41 79 42 78 43
REMARK SMILES IDX 34 45 66 46 46 47 65 48 47 49 50 50 64 51 83 52 48 53 49 54
REMARK SMILES IDX 63 56 84 57 51 58 35 59 36 60 44 61 37 62 43 63 45 64 42 65
REMARK SMILES IDX 38 66 39 67 40 68 41 69 67 70 68 71 76 72 69 73 75 74 77 75
REMARK SMILES IDX 74 76 70 77 71 78 72 79 73 80 52 81 53 82 61 83 54 84 60 85
REMARK SMILES IDX 62 86 59 87 55 88 56 89 57 90 58 91
REMARK H PARENT 7 15 82 44 50 55
REMARK Flexibility Score: inf
ROOT
ATOM      1  O   UNL A   1      38.408  23.741  25.791  1.00  0.00    -0.374 OA
ENDROOT
BRANCH   1   2
ATOM      2  C   UNL A   1      37.132  23.644  25.162  1.00  0.00     0.202 C 
BRANCH   2   3
ATOM      3  C   UNL A   1      35.942  23.286  26.057  1.00  0.00     0.261 C 
BRANCH   3   4
ATOM      4  O   UNL A   1      34.689  23.297  25.352  1.00  0.00    -0.463 OA
BRANCH   4   5
ATOM      5  C   UNL A   1      34.394  22.168  24.659  1.00  0.00     0.310 C 
ATOM      6  O   UNL A   1      35.132  21.195  24.546  1.00  0.00    -0.252 OA
BRANCH   5   7
ATOM      7  C   UNL A   1      33.065  22.241  23.933  1.00  0.00     0.118 C 
BRANCH   7   8
ATOM      8  C   UNL A   1      33.001  23.227  22.750  1.00  0.00     0.020 C 
BRANCH   8   9
ATOM      9  C   UNL A   1      32.157  24.495  23.022  1.00  0.00    -0.017 C 
ATOM     10  C   UNL A   1      32.206  25.491  21.861  1.00  0.00     0.007 C 
ATOM     11  C   UNL A   1      30.699  24.113  23.296  1.00  0.00     0.007 C 
ENDBRANCH   8   9
ENDBRANCH   7   8
BRANCH   7  12
ATOM     12  C   UNL A   1      32.635  20.812  23.593  1.00  0.00     0.131 C 
BRANCH  12  13
ATOM     13  N   UNL A   1      32.412  19.982  24.764  1.00  0.00    -0.355 N 
ATOM     14  C   UNL A   1      32.837  18.708  25.019  1.00  0.00     0.225 C 
ATOM     15  H   UNL A   1      31.876  20.397  25.478  1.00  0.00     0.163 HD
ATOM     16  O   UNL A   1      32.434  18.162  26.045  1.00  0.00    -0.275 OA
BRANCH  14  17
ATOM     17  C   UNL A   1      33.761  18.020  24.025  1.00  0.00     0.106 C 
ATOM     18  C   UNL A   1      33.295  16.626  23.654  1.00  0.00     0.044 C 
ATOM     19  C   UNL A   1      35.126  17.756  24.642  1.00  0.00     0.173 C 
ATOM     20  C   UNL A   1      33.915  15.776  24.740  1.00  0.00     0.161 C 
ATOM     21  O   UNL A   1      35.191  16.372  25.017  1.00  0.00    -0.381 OA
ENDBRANCH  14  17
ENDBRANCH  12  13
ENDBRANCH   7  12
ENDBRANCH   5   7
ENDBRANCH   4   5
ENDBRANCH   3   4
ENDBRANCH   2   3
ENDBRANCH   1   2
BRANCH   1  22
ATOM     22  C   UNL A   1      38.859  22.618  26.546  1.00  0.00     0.202 C 
BRANCH  22  23
ATOM     23  C   UNL A   1      39.255  21.353  25.774  1.00  0.00     0.261 C 
BRANCH  23  24
ATOM     24  O   UNL A   1      40.005  20.417  26.570  1.00  0.00    -0.460 OA
BRANCH  24  25
ATOM     25  C   UNL A   1      41.273  20.200  26.139  1.00  0.00     0.338 C 
ATOM     26  O   UNL A   1      41.671  19.237  25.494  1.00  0.00    -0.246 OA
BRANCH  25  27
ATOM     27  C   UNL A   1      42.119  21.380  26.390  1.00  0.00     0.060 A 
ATOM     28  C   UNL A   1      42.413  21.696  27.723  1.00  0.00     0.016 A 
ATOM     29  C   UNL A   1      42.538  22.218  25.354  1.00  0.00     0.016 A 
ATOM     30  C   UNL A   1      43.091  22.875  28.030  1.00  0.00     0.010 A 
ATOM     31  C   UNL A   1      43.209  23.408  25.667  1.00  0.00     0.010 A 
ATOM     32  C   UNL A   1      43.460  23.757  27.007  1.00  0.00    -0.014 A 
BRANCH  32  33
ATOM     33  C   UNL A   1      43.983  25.104  27.348  1.00  0.00     0.031 A 
ATOM     34  C   UNL A   1      43.039  26.130  27.917  1.00  0.00     0.074 A 
ATOM     35  C   UNL A   1      45.282  25.405  27.170  1.00  0.00     0.049 A 
ATOM     36  N   UNL A   1      43.257  27.383  28.221  1.00  0.00    -0.248 NA
ATOM     37  C   UNL A   1      41.663  25.679  28.175  1.00  0.00     0.031 C 
ATOM     38  C   UNL A   1      46.299  24.480  26.672  1.00  0.00     0.029 A 
ATOM     39  N   UNL A   1      45.965  26.578  27.374  1.00  0.00    -0.354 N 
ATOM     40  C   UNL A   1      42.046  27.877  28.694  1.00  0.00     0.074 A 
ATOM     41  C   UNL A   1      41.092  26.791  28.612  1.00  0.00     0.031 C 
ATOM     42  C   UNL A   1      47.475  25.128  26.590  1.00  0.00     0.029 A 
ATOM     43  C   UNL A   1      47.284  26.522  26.987  1.00  0.00     0.049 A 
ATOM     44  H   UNL A   1      45.551  27.383  27.761  1.00  0.00     0.167 HD
ATOM     45  C   UNL A   1      41.760  29.120  29.155  1.00  0.00     0.034 A 
ATOM     46  C   UNL A   1      48.218  27.493  26.923  1.00  0.00     0.034 A 
ATOM     47  C   UNL A   1      42.724  30.191  29.226  1.00  0.00     0.049 A 
ATOM     48  C   UNL A   1      47.851  28.894  27.353  1.00  0.00     0.074 A 
ATOM     49  C   UNL A   1      42.550  31.475  29.714  1.00  0.00     0.029 A 
ATOM     50  N   UNL A   1      44.036  30.111  28.779  1.00  0.00    -0.354 N 
ATOM     51  N   UNL A   1      46.707  29.343  27.818  1.00  0.00    -0.248 NA
ATOM     52  C   UNL A   1      48.899  29.919  27.249  1.00  0.00     0.031 C 
ATOM     53  C   UNL A   1      43.731  32.192  29.491  1.00  0.00     0.029 A 
ATOM     54  C   UNL A   1      44.668  31.335  28.936  1.00  0.00     0.049 A 
ATOM     55  H   UNL A   1      44.457  29.303  28.404  1.00  0.00     0.167 HD
ATOM     56  C   UNL A   1      46.910  30.695  28.085  1.00  0.00     0.074 A 
ATOM     57  C   UNL A   1      48.286  30.985  27.741  1.00  0.00     0.031 C 
ATOM     58  C   UNL A   1      46.039  31.613  28.575  1.00  0.00     0.034 A 
BRANCH  45  59
ATOM     59  C   UNL A   1      40.334  29.402  29.561  1.00  0.00     0.023 A 
ATOM     60  C   UNL A   1      39.935  29.436  30.908  1.00  0.00     0.031 A 
ATOM     61  C   UNL A   1      39.355  29.625  28.577  1.00  0.00     0.131 A 
ATOM     62  C   UNL A   1      38.582  29.627  31.231  1.00  0.00     0.055 A 
ATOM     63  C   UNL A   1      38.024  29.888  28.907  1.00  0.00     0.041 A 
ATOM     64  F   UNL A   1      39.673  29.583  27.273  1.00  0.00    -0.206 F 
ATOM     65  C   UNL A   1      37.629  29.877  30.241  1.00  0.00     0.022 A 
BRANCH  62  66
ATOM     66  S   UNL A   1      38.063  29.421  32.957  1.00  0.00     0.124 S 
ATOM     67  O   UNL A   1      37.068  30.482  33.095  1.00  0.00    -0.237 OA
ATOM     68  O   UNL A   1      37.548  28.057  32.971  1.00  0.00    -0.237 OA
ATOM     69  O   UNL A   1      39.295  29.630  33.714  1.00  0.00    -0.744 OA
ENDBRANCH  62  66
ENDBRANCH  45  59
BRANCH  46  70
ATOM     70  C   UNL A   1      49.574  27.203  26.371  1.00  0.00     0.023 A 
ATOM     71  C   UNL A   1      50.667  26.949  27.213  1.00  0.00     0.031 A 
ATOM     72  C   UNL A   1      49.805  27.237  24.983  1.00  0.00     0.131 A 
ATOM     73  C   UNL A   1      51.949  26.786  26.664  1.00  0.00     0.055 A 
ATOM     74  C   UNL A   1      51.071  27.018  24.439  1.00  0.00     0.041 A 
ATOM     75  F   UNL A   1      48.796  27.486  24.133  1.00  0.00    -0.206 F 
ATOM     76  C   UNL A   1      52.156  26.804  25.283  1.00  0.00     0.022 A 
BRANCH  73  77
ATOM     77  S   UNL A   1      53.365  26.641  27.790  1.00  0.00     0.124 S 
ATOM     78  O   UNL A   1      54.047  25.466  27.259  1.00  0.00    -0.237 OA
ATOM     79  O   UNL A   1      54.041  27.919  27.593  1.00  0.00    -0.237 OA
ATOM     80  O   UNL A   1      52.742  26.462  29.100  1.00  0.00    -0.744 OA
ENDBRANCH  73  77
ENDBRANCH  46  70
BRANCH  58  81
ATOM     81  C   UNL A   1      46.565  33.009  28.807  1.00  0.00     0.023 A 
ATOM     82  C   UNL A   1      46.474  34.007  27.821  1.00  0.00     0.031 A 
ATOM     83  C   UNL A   1      47.159  33.345  30.036  1.00  0.00     0.131 A 
ATOM     84  C   UNL A   1      47.008  35.282  28.066  1.00  0.00     0.055 A 
ATOM     85  C   UNL A   1      47.640  34.629  30.294  1.00  0.00     0.041 A 
ATOM     86  F   UNL A   1      47.273  32.429  31.012  1.00  0.00    -0.206 F 
ATOM     87  C   UNL A   1      47.574  35.603  29.302  1.00  0.00     0.022 A 
BRANCH  84  88
ATOM     88  S   UNL A   1      47.014  36.500  26.723  1.00  0.00     0.124 S 
ATOM     89  O   UNL A   1      46.253  35.813  25.685  1.00  0.00    -0.237 OA
ATOM     90  O   UNL A   1      46.359  37.650  27.338  1.00  0.00    -0.237 OA
ATOM     91  O   UNL A   1      48.435  36.682  26.431  1.00  0.00    -0.744 OA
ENDBRANCH  84  88
ENDBRANCH  58  81
ENDBRANCH  32  33
ENDBRANCH  25  27
ENDBRANCH  24  25
ENDBRANCH  23  24
ENDBRANCH  22  23
ENDBRANCH   1  22
TORSDOF 22
ENDMDL
MODEL 3
REMARK VINA RESULT:      -9.7      1.612      2.146
REMARK SMILES CC(C)C[C@@H](CNC(=O)[C@@H]1CCOC1)C(=O)OCCOCCOC(=O)c1ccc(-c2c3nc(c(-c4cc(S(=O)(=O)[O-])ccc4F)c4ccc([nH]4)c(-c4cc(S(=O)(=O)[O-])ccc4F)c4nc(c(-c5cc(S(=O)(=O)[O-])ccc5F)c5ccc2[nH]5)C=C4)C=C3)cc1
REMARK SMILES IDX 20 1 19 2 18 3 17 4 15 5 16 6 5 7 4 8 2 9 1 10 3 11 6 12
REMARK SMILES IDX 7 13 8 14 9 16 10 17 11 18 14 19 12 20 13 21 21 22 22 23
REMARK SMILES IDX 23 24 24 25 25 26 26 27 27 28 88 29 28 30 87 31 29 32 30 33
REMARK SMILES IDX 31 34 81 35 32 36 86 37 80 38 82 39 33 40 85 41 79 42 78 43
REMARK SMILES IDX 34 45 66 46 46 47 65 48 47 49 50 50 64 51 83 52 48 53 49 54
REMARK SMILES IDX 63 56 84 57 51 58 35 59 36 60 44 61 37 62 43 63 45 64 42 65
REMARK SMILES IDX 38 66 39 67 40 68 41 69 67 70 68 71 76 72 69 73 75 74 77 75
REMARK SMILES IDX 74 76 70 77 71 78 72 79 73 80 52 81 53 82 61 83 54 84 60 85
REMARK SMILES IDX 62 86 59 87 55 88 56 89 57 90 58 91
REMARK H PARENT 7 15 82 44 50 55
REMARK Flexibility Score: inf
ROOT
ATOM      1  O   UNL A   1      34.548  20.827  25.730  1.00  0.00    -0.374 OA
ENDROOT
BRANCH   1   2
ATOM      2  C   UNL A   1      34.394  21.603  26.916  1.00  0.00     0.202 C 
BRANCH   2   3
ATOM      3  C   UNL A   1      32.984  21.701  27.504  1.00  0.00     0.261 C 
BRANCH   3   4
ATOM      4  O   UNL A   1      32.569  23.058  27.740  1.00  0.00    -0.463 OA
BRANCH   4   5
ATOM      5  C   UNL A   1      31.508  23.485  27.009  1.00  0.00     0.310 C 
ATOM      6  O   UNL A   1      30.387  22.987  27.032  1.00  0.00    -0.252 OA
BRANCH   5   7
ATOM      7  C   UNL A   1      31.852  24.614  26.057  1.00  0.00     0.118 C 
BRANCH   7   8
ATOM      8  C   UNL A   1      32.453  24.188  24.702  1.00  0.00     0.020 C 
BRANCH   8   9
ATOM      9  C   UNL A   1      33.728  24.965  24.299  1.00  0.00    -0.017 C 
ATOM     10  C   UNL A   1      34.958  24.058  24.195  1.00  0.00     0.007 C 
ATOM     11  C   UNL A   1      33.514  25.678  22.961  1.00  0.00     0.007 C 
ENDBRANCH   8   9
ENDBRANCH   7   8
BRANCH   7  12
ATOM     12  C   UNL A   1      30.631  25.529  25.951  1.00  0.00     0.131 C 
BRANCH  12  13
ATOM     13  N   UNL A   1      30.965  26.943  25.967  1.00  0.00    -0.355 N 
ATOM     14  C   UNL A   1      30.963  27.848  24.943  1.00  0.00     0.225 C 
ATOM     15  H   UNL A   1      31.233  27.301  26.844  1.00  0.00     0.163 HD
ATOM     16  O   UNL A   1      31.388  28.978  25.173  1.00  0.00    -0.275 OA
BRANCH  14  17
ATOM     17  C   UNL A   1      30.462  27.417  23.572  1.00  0.00     0.106 C 
ATOM     18  C   UNL A   1      30.642  28.489  22.515  1.00  0.00     0.044 C 
ATOM     19  C   UNL A   1      28.954  27.217  23.581  1.00  0.00     0.173 C 
ATOM     20  C   UNL A   1      29.380  29.308  22.662  1.00  0.00     0.161 C 
ATOM     21  O   UNL A   1      28.343  28.367  22.977  1.00  0.00    -0.381 OA
ENDBRANCH  14  17
ENDBRANCH  12  13
ENDBRANCH   7  12
ENDBRANCH   5   7
ENDBRANCH   4   5
ENDBRANCH   3   4
ENDBRANCH   2   3
ENDBRANCH   1   2
BRANCH   1  22
ATOM     22  C   UNL A   1      35.849  20.757  25.150  1.00  0.00     0.202 C 
BRANCH  22  23
ATOM     23  C   UNL A   1      37.004  21.418  25.913  1.00  0.00     0.261 C 
BRANCH  23  24
ATOM     24  O   UNL A   1      38.271  21.291  25.239  1.00  0.00    -0.460 OA
BRANCH  24  25
ATOM     25  C   UNL A   1      39.334  21.125  26.065  1.00  0.00     0.338 C 
ATOM     26  O   UNL A   1      39.971  20.092  26.238  1.00  0.00    -0.246 OA
BRANCH  25  27
ATOM     27  C   UNL A   1      39.768  22.418  26.625  1.00  0.00     0.060 A 
ATOM     28  C   UNL A   1      39.230  23.582  26.060  1.00  0.00     0.016 A 
ATOM     29  C   UNL A   1      40.750  22.498  27.614  1.00  0.00     0.016 A 
ATOM     30  C   UNL A   1      39.704  24.834  26.451  1.00  0.00     0.010 A 
ATOM     31  C   UNL A   1      41.232  23.757  27.997  1.00  0.00     0.010 A 
ATOM     32  C   UNL A   1      40.734  24.928  27.395  1.00  0.00    -0.014 A 
BRANCH  32  33
ATOM     33  C   UNL A   1      41.384  26.239  27.648  1.00  0.00     0.031 A 
ATOM     34  C   UNL A   1      42.731  26.516  27.036  1.00  0.00     0.074 A 
ATOM     35  C   UNL A   1      40.776  27.176  28.398  1.00  0.00     0.049 A 
ATOM     36  N   UNL A   1      43.511  27.556  27.176  1.00  0.00    -0.248 NA
ATOM     37  C   UNL A   1      43.270  25.475  26.146  1.00  0.00     0.031 C 
ATOM     38  C   UNL A   1      39.451  27.041  29.003  1.00  0.00     0.029 A 
ATOM     39  N   UNL A   1      41.200  28.421  28.791  1.00  0.00    -0.354 N 
ATOM     40  C   UNL A   1      44.639  27.293  26.406  1.00  0.00     0.074 A 
ATOM     41  C   UNL A   1      44.449  25.983  25.819  1.00  0.00     0.031 C 
ATOM     42  C   UNL A   1      39.179  28.152  29.708  1.00  0.00     0.029 A 
ATOM     43  C   UNL A   1      40.325  29.058  29.641  1.00  0.00     0.049 A 
ATOM     44  H   UNL A   1      42.049  28.821  28.493  1.00  0.00     0.167 HD
ATOM     45  C   UNL A   1      45.729  28.075  26.205  1.00  0.00     0.034 A 
ATOM     46  C   UNL A   1      40.453  30.218  30.318  1.00  0.00     0.034 A 
ATOM     47  C   UNL A   1      45.902  29.378  26.800  1.00  0.00     0.049 A 
ATOM     48  C   UNL A   1      41.717  31.028  30.153  1.00  0.00     0.074 A 
ATOM     49  C   UNL A   1      46.947  30.270  26.632  1.00  0.00     0.029 A 
ATOM     50  N   UNL A   1      45.019  29.968  27.694  1.00  0.00    -0.354 N 
ATOM     51  N   UNL A   1      42.768  30.778  29.404  1.00  0.00    -0.248 NA
ATOM     52  C   UNL A   1      41.813  32.276  30.924  1.00  0.00     0.031 C 
ATOM     53  C   UNL A   1      46.734  31.360  27.481  1.00  0.00     0.029 A 
ATOM     54  C   UNL A   1      45.517  31.189  28.122  1.00  0.00     0.049 A 
ATOM     55  H   UNL A   1      44.163  29.576  27.984  1.00  0.00     0.167 HD
ATOM     56  C   UNL A   1      43.635  31.852  29.597  1.00  0.00     0.074 A 
ATOM     57  C   UNL A   1      42.981  32.754  30.521  1.00  0.00     0.031 C 
ATOM     58  C   UNL A   1      44.860  32.073  29.055  1.00  0.00     0.034 A 
BRANCH  45  59
ATOM     59  C   UNL A   1      46.842  27.515  25.354  1.00  0.00     0.023 A 
ATOM     60  C   UNL A   1      47.087  27.975  24.049  1.00  0.00     0.031 A 
ATOM     61  C   UNL A   1      47.662  26.488  25.856  1.00  0.00     0.131 A 
ATOM     62  C   UNL A   1      48.086  27.370  23.270  1.00  0.00     0.055 A 
ATOM     63  C   UNL A   1      48.701  25.940  25.103  1.00  0.00     0.041 A 
ATOM     64  F   UNL A   1      47.460  25.993  27.087  1.00  0.00    -0.206 F 
ATOM     65  C   UNL A   1      48.910  26.372  23.797  1.00  0.00     0.022 A 
BRANCH  62  66
ATOM     66  S   UNL A   1      48.212  27.817  21.517  1.00  0.00     0.124 S 
ATOM     67  O   UNL A   1      46.820  28.111  21.186  1.00  0.00    -0.237 OA
ATOM     68  O   UNL A   1      49.117  28.960  21.547  1.00  0.00    -0.237 OA
ATOM     69  O   UNL A   1      48.751  26.610  20.893  1.00  0.00    -0.744 OA
ENDBRANCH  62  66
ENDBRANCH  45  59
BRANCH  46  70
ATOM     70  C   UNL A   1      39.390  30.659  31.268  1.00  0.00     0.023 A 
ATOM     71  C   UNL A   1      38.276  31.390  30.830  1.00  0.00     0.031 A 
ATOM     72  C   UNL A   1      39.510  30.405  32.647  1.00  0.00     0.131 A 
ATOM     73  C   UNL A   1      37.350  31.882  31.764  1.00  0.00     0.055 A 
ATOM     74  C   UNL A   1      38.558  30.847  33.566  1.00  0.00     0.041 A 
ATOM     75  F   UNL A   1      40.563  29.719  33.121  1.00  0.00    -0.206 F 
ATOM     76  C   UNL A   1      37.476  31.603  33.127  1.00  0.00     0.022 A 
BRANCH  73  77
ATOM     77  S   UNL A   1      36.023  32.974  31.182  1.00  0.00     0.124 S 
ATOM     78  O   UNL A   1      36.755  33.896  30.320  1.00  0.00    -0.237 OA
ATOM     79  O   UNL A   1      35.133  32.035  30.507  1.00  0.00    -0.237 OA
ATOM     80  O   UNL A   1      35.495  33.556  32.414  1.00  0.00    -0.744 OA
ENDBRANCH  73  77
ENDBRANCH  46  70
BRANCH  58  81
ATOM     81  C   UNL A   1      45.551  33.364  29.419  1.00  0.00     0.023 A 
ATOM     82  C   UNL A   1      45.371  34.537  28.666  1.00  0.00     0.031 A 
ATOM     83  C   UNL A   1      46.398  33.421  30.540  1.00  0.00     0.131 A 
ATOM     84  C   UNL A   1      46.061  35.708  29.019  1.00  0.00     0.055 A 
ATOM     85  C   UNL A   1      47.040  34.601  30.919  1.00  0.00     0.041 A 
ATOM     86  F   UNL A   1      46.607  32.329  31.293  1.00  0.00    -0.206 F 
ATOM     87  C   UNL A   1      46.881  35.750  30.150  1.00  0.00     0.022 A 
BRANCH  84  88
ATOM     88  S   UNL A   1      45.928  37.160  27.942  1.00  0.00     0.124 S 
ATOM     89  O   UNL A   1      46.639  38.176  28.711  1.00  0.00    -0.237 OA
ATOM     90  O   UNL A   1      46.588  36.708  26.721  1.00  0.00    -0.237 OA
ATOM     91  O   UNL A   1      44.487  37.370  27.823  1.00  0.00    -0.744 OA
ENDBRANCH  84  88
ENDBRANCH  58  81
ENDBRANCH  32  33
ENDBRANCH  25  27
ENDBRANCH  24  25
ENDBRANCH  23  24
ENDBRANCH  22  23
ENDBRANCH   1  22
TORSDOF 22
ENDMDL
