MODEL 1
REMARK VINA RESULT:     -12.8      0.000      0.000
REMARK SMILES Cc1cccc(-n2c(C)cc(/C=N\c3ccc(O)c(C(=O)OCCOCCOC(=O)c4ccc(-c5c6nc(c(-c7cc(S(=O)(=O)[O-])ccc7F)c7ccc([nH]7)c(-c7cc(S(=O)(=O)[O-])ccc7F)c7nc(c(-c8cc(S(=O)(=O)[O-])ccc8F)c8ccc5[nH]8)C=C7)C=C6)cc4)c3)c2C)c1
REMARK SMILES IDX 25 1 24 2 23 3 22 4 20 5 21 6 19 7 14 8 15 9 94 10 16 11
REMARK SMILES IDX 17 12 13 13 12 14 11 15 7 16 8 17 95 18 9 19 10 20 96 21
REMARK SMILES IDX 6 22 1 23 2 24 3 25 97 26 4 27 5 28 18 29 26 31 27 32 28 33
REMARK SMILES IDX 29 34 30 35 31 36 32 37 93 38 33 39 92 40 34 41 35 42 36 43
REMARK SMILES IDX 86 44 37 45 91 46 85 47 87 48 38 49 90 50 84 51 83 52 39 54
REMARK SMILES IDX 71 55 51 56 70 57 52 58 55 59 69 60 88 61 53 62 54 63 68 65
REMARK SMILES IDX 89 66 56 67 40 68 41 69 49 70 42 71 48 72 50 73 47 74 43 75
REMARK SMILES IDX 44 76 45 77 46 78 72 79 73 80 81 81 74 82 80 83 82 84 79 85
REMARK SMILES IDX 75 86 76 87 77 88 78 89 57 90 58 91 66 92 59 93 65 94 67 95
REMARK SMILES IDX 64 96 60 97 61 98 62 99 63 100
REMARK H PARENT 18 30 87 53 55 64
REMARK Flexibility Score: inf
ROOT
ATOM      1  O   UNL A   1      38.341  21.490  26.119  1.00  0.00    -0.374 OA
ENDROOT
BRANCH   1   2
ATOM      2  C   UNL A   1      37.718  22.134  25.012  1.00  0.00     0.202 C 
BRANCH   2   3
ATOM      3  C   UNL A   1      37.323  23.459  25.539  1.00  0.00     0.261 C 
BRANCH   3   4
ATOM      4  O   UNL A   1      35.988  23.787  25.179  1.00  0.00    -0.460 OA
BRANCH   4   5
ATOM      5  C   UNL A   1      35.031  23.037  25.751  1.00  0.00     0.342 C 
ATOM      6  O   UNL A   1      34.863  22.842  26.956  1.00  0.00    -0.246 OA
BRANCH   5   7
ATOM      7  C   UNL A   1      34.120  22.619  24.683  1.00  0.00     0.103 A 
ATOM      8  C   UNL A   1      33.278  22.979  22.480  1.00  0.00     0.064 A 
ATOM      9  C   UNL A   1      32.372  21.924  22.636  1.00  0.00     0.032 A 
ATOM     10  C   UNL A   1      34.267  23.205  23.432  1.00  0.00     0.048 A 
ATOM     11  C   UNL A   1      32.256  21.289  23.867  1.00  0.00     0.049 A 
ATOM     12  C   UNL A   1      33.040  21.753  24.909  1.00  0.00     0.130 A 
BRANCH   8  13
ATOM     13  N   UNL A   1      33.186  23.861  21.412  1.00  0.00    -0.256 NA
ATOM     14  C   UNL A   1      32.930  25.129  21.575  1.00  0.00     0.121 C 
BRANCH  14  15
ATOM     15  C   UNL A   1      32.605  25.985  22.729  1.00  0.00     0.014 A 
ATOM     16  N   UNL A   1      32.410  27.509  24.415  1.00  0.00    -0.318 N 
ATOM     17  C   UNL A   1      31.536  26.480  24.701  1.00  0.00     0.021 A 
ATOM     18  C   UNL A   1      32.990  27.256  23.170  1.00  0.00     0.029 A 
ATOM     19  C   UNL A   1      30.626  26.481  25.873  1.00  0.00     0.065 C 
ATOM     20  C   UNL A   1      31.630  25.556  23.683  1.00  0.00     0.033 A 
ATOM     21  C   UNL A   1      33.934  28.244  22.602  1.00  0.00     0.065 C 
BRANCH  16  22
ATOM     22  C   UNL A   1      32.763  28.581  25.291  1.00  0.00     0.046 A 
ATOM     23  C   UNL A   1      31.240  31.872  26.461  1.00  0.00     0.044 C 
ATOM     24  C   UNL A   1      32.127  30.668  26.355  1.00  0.00    -0.049 A 
ATOM     25  C   UNL A   1      33.131  30.467  27.314  1.00  0.00     0.003 A 
ATOM     26  C   UNL A   1      31.944  29.717  25.339  1.00  0.00     0.030 A 
ATOM     27  C   UNL A   1      33.973  29.360  27.236  1.00  0.00     0.002 A 
ATOM     28  C   UNL A   1      33.807  28.431  26.210  1.00  0.00     0.026 A 
ENDBRANCH  16  22
ENDBRANCH  14  15
ENDBRANCH   8  13
BRANCH  12  29
ATOM     29  O   UNL A   1      32.475  21.665  26.154  1.00  0.00    -0.507 OA
ATOM     30  H   UNL A   1      31.832  22.292  26.422  1.00  0.00     0.293 HD
ENDBRANCH  12  29
ENDBRANCH   5   7
ENDBRANCH   4   5
ENDBRANCH   3   4
ENDBRANCH   2   3
ENDBRANCH   1   2
BRANCH   1  31
ATOM     31  C   UNL A   1      39.747  21.453  26.027  1.00  0.00     0.202 C 
BRANCH  31  32
ATOM     32  C   UNL A   1      40.436  21.850  27.343  1.00  0.00     0.261 C 
BRANCH  32  33
ATOM     33  O   UNL A   1      40.141  23.236  27.638  1.00  0.00    -0.460 OA
BRANCH  33  34
ATOM     34  C   UNL A   1      40.900  24.182  27.009  1.00  0.00     0.338 C 
ATOM     35  O   UNL A   1      41.990  23.988  26.501  1.00  0.00    -0.246 OA
BRANCH  34  36
ATOM     36  C   UNL A   1      40.297  25.535  27.224  1.00  0.00     0.060 A 
ATOM     37  C   UNL A   1      40.664  26.620  26.399  1.00  0.00     0.016 A 
ATOM     38  C   UNL A   1      39.638  25.775  28.424  1.00  0.00     0.016 A 
ATOM     39  C   UNL A   1      40.535  27.942  26.863  1.00  0.00     0.010 A 
ATOM     40  C   UNL A   1      39.602  27.064  28.911  1.00  0.00     0.010 A 
ATOM     41  C   UNL A   1      40.087  28.157  28.165  1.00  0.00    -0.014 A 
BRANCH  41  42
ATOM     42  C   UNL A   1      40.210  29.409  28.931  1.00  0.00     0.031 A 
ATOM     43  C   UNL A   1      39.055  30.324  28.906  1.00  0.00     0.074 A 
ATOM     44  C   UNL A   1      41.217  29.629  29.820  1.00  0.00     0.049 A 
ATOM     45  N   UNL A   1      39.137  31.584  29.130  1.00  0.00    -0.248 NA
ATOM     46  C   UNL A   1      37.696  29.913  28.557  1.00  0.00     0.031 C 
ATOM     47  C   UNL A   1      41.297  30.565  30.944  1.00  0.00     0.029 A 
ATOM     48  N   UNL A   1      42.449  28.987  29.903  1.00  0.00    -0.354 N 
ATOM     49  C   UNL A   1      37.859  32.039  29.355  1.00  0.00     0.074 A 
ATOM     50  C   UNL A   1      37.005  31.023  28.808  1.00  0.00     0.031 C 
ATOM     51  C   UNL A   1      42.573  30.647  31.382  1.00  0.00     0.029 A 
ATOM     52  C   UNL A   1      43.392  29.810  30.519  1.00  0.00     0.049 A 
ATOM     53  H   UNL A   1      42.630  28.077  29.573  1.00  0.00     0.167 HD
ATOM     54  C   UNL A   1      37.686  33.129  30.152  1.00  0.00     0.034 A 
ATOM     55  C   UNL A   1      44.560  30.072  29.879  1.00  0.00     0.034 A 
ATOM     56  C   UNL A   1      38.995  33.603  30.648  1.00  0.00     0.049 A 
ATOM     57  C   UNL A   1      44.426  31.527  29.476  1.00  0.00     0.074 A 
ATOM     58  C   UNL A   1      39.613  33.568  31.888  1.00  0.00     0.029 A 
ATOM     59  N   UNL A   1      40.005  33.898  29.730  1.00  0.00    -0.354 N 
ATOM     60  N   UNL A   1      43.264  32.127  29.370  1.00  0.00    -0.248 NA
ATOM     61  C   UNL A   1      45.542  32.460  29.385  1.00  0.00     0.031 C 
ATOM     62  C   UNL A   1      41.012  33.789  31.689  1.00  0.00     0.029 A 
ATOM     63  C   UNL A   1      41.246  33.968  30.333  1.00  0.00     0.049 A 
ATOM     64  H   UNL A   1      39.851  34.038  28.769  1.00  0.00     0.167 HD
ATOM     65  C   UNL A   1      43.442  33.476  29.405  1.00  0.00     0.074 A 
ATOM     66  C   UNL A   1      44.891  33.637  29.339  1.00  0.00     0.031 C 
ATOM     67  C   UNL A   1      42.417  34.370  29.558  1.00  0.00     0.034 A 
BRANCH  54  68
ATOM     68  C   UNL A   1      36.354  33.605  30.713  1.00  0.00     0.023 A 
ATOM     69  C   UNL A   1      35.473  34.299  29.858  1.00  0.00     0.031 A 
ATOM     70  C   UNL A   1      35.869  33.422  32.028  1.00  0.00     0.131 A 
ATOM     71  C   UNL A   1      34.242  34.810  30.315  1.00  0.00     0.055 A 
ATOM     72  C   UNL A   1      34.666  33.968  32.497  1.00  0.00     0.041 A 
ATOM     73  F   UNL A   1      36.482  32.649  32.927  1.00  0.00    -0.206 F 
ATOM     74  C   UNL A   1      33.840  34.667  31.638  1.00  0.00     0.022 A 
BRANCH  71  75
ATOM     75  S   UNL A   1      33.141  35.634  29.137  1.00  0.00     0.124 S 
ATOM     76  O   UNL A   1      34.073  36.455  28.371  1.00  0.00    -0.237 OA
ATOM     77  O   UNL A   1      32.540  34.506  28.433  1.00  0.00    -0.237 OA
ATOM     78  O   UNL A   1      32.222  36.380  29.996  1.00  0.00    -0.744 OA
ENDBRANCH  71  75
ENDBRANCH  54  68
BRANCH  55  79
ATOM     79  C   UNL A   1      45.038  28.850  29.117  1.00  0.00     0.023 A 
ATOM     80  C   UNL A   1      45.308  28.981  27.712  1.00  0.00     0.031 A 
ATOM     81  C   UNL A   1      45.655  27.773  29.771  1.00  0.00     0.131 A 
ATOM     82  C   UNL A   1      46.232  28.128  27.056  1.00  0.00     0.055 A 
ATOM     83  C   UNL A   1      46.585  26.944  29.117  1.00  0.00     0.041 A 
ATOM     84  F   UNL A   1      45.485  27.587  31.088  1.00  0.00    -0.206 F 
ATOM     85  C   UNL A   1      46.902  27.138  27.773  1.00  0.00     0.022 A 
BRANCH  82  86
ATOM     86  S   UNL A   1      46.750  28.412  25.322  1.00  0.00     0.124 S 
ATOM     87  O   UNL A   1      46.008  27.390  24.596  1.00  0.00    -0.237 OA
ATOM     88  O   UNL A   1      46.342  29.787  25.061  1.00  0.00    -0.237 OA
ATOM     89  O   UNL A   1      48.201  28.242  25.356  1.00  0.00    -0.744 OA
ENDBRANCH  82  86
ENDBRANCH  55  79
BRANCH  67  90
ATOM     90  C   UNL A   1      42.473  35.774  29.017  1.00  0.00     0.023 A 
ATOM     91  C   UNL A   1      43.178  36.782  29.676  1.00  0.00     0.031 A 
ATOM     92  C   UNL A   1      41.944  36.120  27.751  1.00  0.00     0.131 A 
ATOM     93  C   UNL A   1      43.235  38.080  29.164  1.00  0.00     0.055 A 
ATOM     94  C   UNL A   1      42.113  37.382  27.180  1.00  0.00     0.041 A 
ATOM     95  F   UNL A   1      41.260  35.251  26.993  1.00  0.00    -0.206 F 
ATOM     96  C   UNL A   1      42.740  38.385  27.902  1.00  0.00     0.022 A 
BRANCH  93  97
ATOM     97  S   UNL A   1      43.877  39.360  30.260  1.00  0.00     0.124 S 
ATOM     98  O   UNL A   1      45.079  39.785  29.546  1.00  0.00    -0.237 OA
ATOM     99  O   UNL A   1      42.786  40.329  30.288  1.00  0.00    -0.237 OA
ATOM    100  O   UNL A   1      44.115  38.649  31.513  1.00  0.00    -0.744 OA
ENDBRANCH  93  97
ENDBRANCH  67  90
ENDBRANCH  41  42
ENDBRANCH  34  36
ENDBRANCH  33  34
ENDBRANCH  32  33
ENDBRANCH  31  32
ENDBRANCH   1  31
TORSDOF 21
ENDMDL
MODEL 2
REMARK VINA RESULT:     -12.4      4.537     10.610
REMARK SMILES Cc1cccc(-n2c(C)cc(/C=N\c3ccc(O)c(C(=O)OCCOCCOC(=O)c4ccc(-c5c6nc(c(-c7cc(S(=O)(=O)[O-])ccc7F)c7ccc([nH]7)c(-c7cc(S(=O)(=O)[O-])ccc7F)c7nc(c(-c8cc(S(=O)(=O)[O-])ccc8F)c8ccc5[nH]8)C=C7)C=C6)cc4)c3)c2C)c1
REMARK SMILES IDX 25 1 24 2 23 3 22 4 20 5 21 6 19 7 14 8 15 9 94 10 16 11
REMARK SMILES IDX 17 12 13 13 12 14 11 15 7 16 8 17 95 18 9 19 10 20 96 21
REMARK SMILES IDX 6 22 1 23 2 24 3 25 97 26 4 27 5 28 18 29 26 31 27 32 28 33
REMARK SMILES IDX 29 34 30 35 31 36 32 37 93 38 33 39 92 40 34 41 35 42 36 43
REMARK SMILES IDX 86 44 37 45 91 46 85 47 87 48 38 49 90 50 84 51 83 52 39 54
REMARK SMILES IDX 71 55 51 56 70 57 52 58 55 59 69 60 88 61 53 62 54 63 68 65
REMARK SMILES IDX 89 66 56 67 40 68 41 69 49 70 42 71 48 72 50 73 47 74 43 75
REMARK SMILES IDX 44 76 45 77 46 78 72 79 73 80 81 81 74 82 80 83 82 84 79 85
REMARK SMILES IDX 75 86 76 87 77 88 78 89 57 90 58 91 66 92 59 93 65 94 67 95
REMARK SMILES IDX 64 96 60 97 61 98 62 99 63 100
REMARK H PARENT 18 30 87 53 55 64
REMARK Flexibility Score: inf
ROOT
ATOM      1  O   UNL A   1      32.514  32.396  27.108  1.00  0.00    -0.374 OA
ENDROOT
BRANCH   1   2
ATOM      2  C   UNL A   1      31.424  31.831  26.386  1.00  0.00     0.202 C 
BRANCH   2   3
ATOM      3  C   UNL A   1      31.454  30.397  26.747  1.00  0.00     0.261 C 
BRANCH   3   4
ATOM      4  O   UNL A   1      31.543  29.570  25.594  1.00  0.00    -0.460 OA
BRANCH   4   5
ATOM      5  C   UNL A   1      31.565  28.247  25.829  1.00  0.00     0.342 C 
ATOM      6  O   UNL A   1      31.401  27.683  26.912  1.00  0.00    -0.246 OA
BRANCH   5   7
ATOM      7  C   UNL A   1      31.663  27.584  24.527  1.00  0.00     0.103 A 
ATOM      8  C   UNL A   1      30.999  25.779  23.115  1.00  0.00     0.064 A 
ATOM      9  C   UNL A   1      31.851  26.236  22.103  1.00  0.00     0.032 A 
ATOM     10  C   UNL A   1      30.775  26.552  24.249  1.00  0.00     0.048 A 
ATOM     11  C   UNL A   1      32.704  27.305  22.347  1.00  0.00     0.049 A 
ATOM     12  C   UNL A   1      32.690  27.866  23.612  1.00  0.00     0.130 A 
BRANCH   8  13
ATOM     13  N   UNL A   1      30.403  24.528  23.049  1.00  0.00    -0.256 NA
ATOM     14  C   UNL A   1      30.862  23.501  23.707  1.00  0.00     0.121 C 
BRANCH  14  15
ATOM     15  C   UNL A   1      32.033  23.254  24.565  1.00  0.00     0.014 A 
ATOM     16  N   UNL A   1      34.045  22.866  25.569  1.00  0.00    -0.318 N 
ATOM     17  C   UNL A   1      33.073  22.663  26.527  1.00  0.00     0.021 A 
ATOM     18  C   UNL A   1      33.422  23.318  24.403  1.00  0.00     0.029 A 
ATOM     19  C   UNL A   1      33.374  22.326  27.940  1.00  0.00     0.065 C 
ATOM     20  C   UNL A   1      31.850  22.907  25.941  1.00  0.00     0.033 A 
ATOM     21  C   UNL A   1      34.255  23.664  23.230  1.00  0.00     0.065 C 
BRANCH  16  22
ATOM     22  C   UNL A   1      35.432  22.550  25.697  1.00  0.00     0.046 A 
ATOM     23  C   UNL A   1      37.754  19.668  24.792  1.00  0.00     0.044 C 
ATOM     24  C   UNL A   1      37.249  21.013  25.220  1.00  0.00    -0.049 A 
ATOM     25  C   UNL A   1      38.166  22.044  25.469  1.00  0.00     0.003 A 
ATOM     26  C   UNL A   1      35.874  21.271  25.336  1.00  0.00     0.030 A 
ATOM     27  C   UNL A   1      37.725  23.303  25.874  1.00  0.00     0.002 A 
ATOM     28  C   UNL A   1      36.361  23.548  26.014  1.00  0.00     0.026 A 
ENDBRANCH  16  22
ENDBRANCH  14  15
ENDBRANCH   8  13
BRANCH  12  29
ATOM     29  O   UNL A   1      33.893  28.352  24.055  1.00  0.00    -0.507 OA
ATOM     30  H   UNL A   1      34.278  29.098  23.640  1.00  0.00     0.293 HD
ENDBRANCH  12  29
ENDBRANCH   5   7
ENDBRANCH   4   5
ENDBRANCH   3   4
ENDBRANCH   2   3
ENDBRANCH   1   2
BRANCH   1  31
ATOM     31  C   UNL A   1      33.407  31.433  27.619  1.00  0.00     0.202 C 
BRANCH  31  32
ATOM     32  C   UNL A   1      34.771  32.033  27.996  1.00  0.00     0.261 C 
BRANCH  32  33
ATOM     33  O   UNL A   1      35.558  31.037  28.690  1.00  0.00    -0.460 OA
BRANCH  33  34
ATOM     34  C   UNL A   1      36.903  31.258  28.782  1.00  0.00     0.338 C 
ATOM     35  O   UNL A   1      37.442  32.350  28.748  1.00  0.00    -0.246 OA
BRANCH  34  36
ATOM     36  C   UNL A   1      37.633  29.954  28.713  1.00  0.00     0.060 A 
ATOM     37  C   UNL A   1      37.654  29.085  29.825  1.00  0.00     0.016 A 
ATOM     38  C   UNL A   1      38.541  29.766  27.676  1.00  0.00     0.016 A 
ATOM     39  C   UNL A   1      38.696  28.153  29.982  1.00  0.00     0.010 A 
ATOM     40  C   UNL A   1      39.609  28.919  27.881  1.00  0.00     0.010 A 
ATOM     41  C   UNL A   1      39.729  28.138  29.048  1.00  0.00    -0.014 A 
BRANCH  41  42
ATOM     42  C   UNL A   1      41.045  27.497  29.217  1.00  0.00     0.031 A 
ATOM     43  C   UNL A   1      41.190  26.124  28.703  1.00  0.00     0.074 A 
ATOM     44  C   UNL A   1      42.154  28.188  29.599  1.00  0.00     0.049 A 
ATOM     45  N   UNL A   1      42.067  25.290  29.130  1.00  0.00    -0.248 NA
ATOM     46  C   UNL A   1      40.311  25.532  27.697  1.00  0.00     0.031 C 
ATOM     47  C   UNL A   1      43.572  27.867  29.427  1.00  0.00     0.029 A 
ATOM     48  N   UNL A   1      42.222  29.419  30.246  1.00  0.00    -0.354 N 
ATOM     49  C   UNL A   1      42.131  24.265  28.215  1.00  0.00     0.074 A 
ATOM     50  C   UNL A   1      40.911  24.366  27.465  1.00  0.00     0.031 C 
ATOM     51  C   UNL A   1      44.324  28.685  30.198  1.00  0.00     0.029 A 
ATOM     52  C   UNL A   1      43.418  29.536  30.954  1.00  0.00     0.049 A 
ATOM     53  H   UNL A   1      41.522  30.110  30.209  1.00  0.00     0.167 HD
ATOM     54  C   UNL A   1      43.301  23.583  28.081  1.00  0.00     0.034 A 
ATOM     55  C   UNL A   1      43.377  29.833  32.277  1.00  0.00     0.034 A 
ATOM     56  C   UNL A   1      44.317  24.143  28.997  1.00  0.00     0.049 A 
ATOM     57  C   UNL A   1      43.799  28.538  32.944  1.00  0.00     0.074 A 
ATOM     58  C   UNL A   1      45.460  24.903  28.801  1.00  0.00     0.029 A 
ATOM     59  N   UNL A   1      44.029  24.238  30.359  1.00  0.00    -0.354 N 
ATOM     60  N   UNL A   1      43.709  27.374  32.347  1.00  0.00    -0.248 NA
ATOM     61  C   UNL A   1      44.540  28.464  34.197  1.00  0.00     0.031 C 
ATOM     62  C   UNL A   1      45.813  25.497  30.053  1.00  0.00     0.029 A 
ATOM     63  C   UNL A   1      44.895  25.093  31.012  1.00  0.00     0.049 A 
ATOM     64  H   UNL A   1      43.295  23.754  30.802  1.00  0.00     0.167 HD
ATOM     65  C   UNL A   1      44.510  26.473  32.980  1.00  0.00     0.074 A 
ATOM     66  C   UNL A   1      44.951  27.182  34.177  1.00  0.00     0.031 C 
ATOM     67  C   UNL A   1      44.823  25.245  32.463  1.00  0.00     0.034 A 
BRANCH  54  68
ATOM     68  C   UNL A   1      43.628  22.612  26.957  1.00  0.00     0.023 A 
ATOM     69  C   UNL A   1      43.068  21.318  27.000  1.00  0.00     0.031 A 
ATOM     70  C   UNL A   1      44.445  22.857  25.830  1.00  0.00     0.131 A 
ATOM     71  C   UNL A   1      43.359  20.349  26.020  1.00  0.00     0.055 A 
ATOM     72  C   UNL A   1      44.772  21.881  24.878  1.00  0.00     0.041 A 
ATOM     73  F   UNL A   1      44.923  24.066  25.529  1.00  0.00    -0.206 F 
ATOM     74  C   UNL A   1      44.226  20.615  24.967  1.00  0.00     0.022 A 
BRANCH  71  75
ATOM     75  S   UNL A   1      42.547  18.733  26.115  1.00  0.00     0.124 S 
ATOM     76  O   UNL A   1      41.185  19.049  25.697  1.00  0.00    -0.237 OA
ATOM     77  O   UNL A   1      43.341  17.933  25.188  1.00  0.00    -0.237 OA
ATOM     78  O   UNL A   1      42.691  18.363  27.522  1.00  0.00    -0.744 OA
ENDBRANCH  71  75
ENDBRANCH  54  68
BRANCH  55  79
ATOM     79  C   UNL A   1      42.250  30.805  32.574  1.00  0.00     0.023 A 
ATOM     80  C   UNL A   1      41.083  30.313  33.251  1.00  0.00     0.031 A 
ATOM     81  C   UNL A   1      42.474  32.188  32.644  1.00  0.00     0.131 A 
ATOM     82  C   UNL A   1      40.268  31.172  34.033  1.00  0.00     0.055 A 
ATOM     83  C   UNL A   1      41.672  33.029  33.437  1.00  0.00     0.041 A 
ATOM     84  F   UNL A   1      43.554  32.734  32.066  1.00  0.00    -0.206 F 
ATOM     85  C   UNL A   1      40.592  32.522  34.159  1.00  0.00     0.022 A 
BRANCH  82  86
ATOM     86  S   UNL A   1      38.903  30.530  35.073  1.00  0.00     0.124 S 
ATOM     87  O   UNL A   1      38.176  29.671  34.150  1.00  0.00    -0.237 OA
ATOM     88  O   UNL A   1      39.591  29.844  36.160  1.00  0.00    -0.237 OA
ATOM     89  O   UNL A   1      38.200  31.734  35.512  1.00  0.00    -0.744 OA
ENDBRANCH  82  86
ENDBRANCH  55  79
BRANCH  67  90
ATOM     90  C   UNL A   1      45.160  24.059  33.327  1.00  0.00     0.023 A 
ATOM     91  C   UNL A   1      46.435  23.890  33.868  1.00  0.00     0.031 A 
ATOM     92  C   UNL A   1      44.181  23.133  33.758  1.00  0.00     0.131 A 
ATOM     93  C   UNL A   1      46.739  22.793  34.678  1.00  0.00     0.055 A 
ATOM     94  C   UNL A   1      44.455  22.114  34.671  1.00  0.00     0.041 A 
ATOM     95  F   UNL A   1      42.908  23.181  33.341  1.00  0.00    -0.206 F 
ATOM     96  C   UNL A   1      45.752  21.919  35.116  1.00  0.00     0.022 A 
BRANCH  93  97
ATOM     97  S   UNL A   1      48.484  22.502  35.032  1.00  0.00     0.124 S 
ATOM     98  O   UNL A   1      49.111  23.656  34.392  1.00  0.00    -0.237 OA
ATOM     99  O   UNL A   1      48.514  22.498  36.490  1.00  0.00    -0.237 OA
ATOM    100  O   UNL A   1      48.751  21.214  34.396  1.00  0.00    -0.744 OA
ENDBRANCH  93  97
ENDBRANCH  67  90
ENDBRANCH  41  42
ENDBRANCH  34  36
ENDBRANCH  33  34
ENDBRANCH  32  33
ENDBRANCH  31  32
ENDBRANCH   1  31
TORSDOF 21
ENDMDL
MODEL 3
REMARK VINA RESULT:     -12.2      1.529      2.048
REMARK SMILES Cc1cccc(-n2c(C)cc(/C=N\c3ccc(O)c(C(=O)OCCOCCOC(=O)c4ccc(-c5c6nc(c(-c7cc(S(=O)(=O)[O-])ccc7F)c7ccc([nH]7)c(-c7cc(S(=O)(=O)[O-])ccc7F)c7nc(c(-c8cc(S(=O)(=O)[O-])ccc8F)c8ccc5[nH]8)C=C7)C=C6)cc4)c3)c2C)c1
REMARK SMILES IDX 25 1 24 2 23 3 22 4 20 5 21 6 19 7 14 8 15 9 94 10 16 11
REMARK SMILES IDX 17 12 13 13 12 14 11 15 7 16 8 17 95 18 9 19 10 20 96 21
REMARK SMILES IDX 6 22 1 23 2 24 3 25 97 26 4 27 5 28 18 29 26 31 27 32 28 33
REMARK SMILES IDX 29 34 30 35 31 36 32 37 93 38 33 39 92 40 34 41 35 42 36 43
REMARK SMILES IDX 86 44 37 45 91 46 85 47 87 48 38 49 90 50 84 51 83 52 39 54
REMARK SMILES IDX 71 55 51 56 70 57 52 58 55 59 69 60 88 61 53 62 54 63 68 65
REMARK SMILES IDX 89 66 56 67 40 68 41 69 49 70 42 71 48 72 50 73 47 74 43 75
REMARK SMILES IDX 44 76 45 77 46 78 72 79 73 80 81 81 74 82 80 83 82 84 79 85
REMARK SMILES IDX 75 86 76 87 77 88 78 89 57 90 58 91 66 92 59 93 65 94 67 95
REMARK SMILES IDX 64 96 60 97 61 98 62 99 63 100
REMARK H PARENT 18 30 87 53 55 64
REMARK Flexibility Score: inf
ROOT
ATOM      1  O   UNL A   1      37.908  22.843  26.057  1.00  0.00    -0.374 OA
ENDROOT
BRANCH   1   2
ATOM      2  C   UNL A   1      37.553  23.366  24.781  1.00  0.00     0.202 C 
BRANCH   2   3
ATOM      3  C   UNL A   1      36.129  23.742  24.927  1.00  0.00     0.261 C 
BRANCH   3   4
ATOM      4  O   UNL A   1      35.283  22.882  24.176  1.00  0.00    -0.460 OA
BRANCH   4   5
ATOM      5  C   UNL A   1      34.731  21.866  24.862  1.00  0.00     0.342 C 
ATOM      6  O   UNL A   1      35.291  20.836  25.238  1.00  0.00    -0.246 OA
BRANCH   5   7
ATOM      7  C   UNL A   1      33.373  22.281  25.222  1.00  0.00     0.103 A 
ATOM      8  C   UNL A   1      31.242  23.083  24.509  1.00  0.00     0.064 A 
ATOM      9  C   UNL A   1      30.803  23.143  25.836  1.00  0.00     0.032 A 
ATOM     10  C   UNL A   1      32.458  22.484  24.196  1.00  0.00     0.048 A 
ATOM     11  C   UNL A   1      31.693  22.885  26.871  1.00  0.00     0.049 A 
ATOM     12  C   UNL A   1      33.005  22.597  26.538  1.00  0.00     0.130 A 
BRANCH   8  13
ATOM     13  N   UNL A   1      30.516  23.663  23.479  1.00  0.00    -0.256 NA
ATOM     14  C   UNL A   1      30.741  24.879  23.065  1.00  0.00     0.121 C 
BRANCH  14  15
ATOM     15  C   UNL A   1      31.628  25.975  23.491  1.00  0.00     0.014 A 
ATOM     16  N   UNL A   1      32.777  27.694  24.456  1.00  0.00    -0.318 N 
ATOM     17  C   UNL A   1      33.239  27.579  23.161  1.00  0.00     0.021 A 
ATOM     18  C   UNL A   1      31.867  26.660  24.688  1.00  0.00     0.029 A 
ATOM     19  C   UNL A   1      34.332  28.415  22.605  1.00  0.00     0.065 C 
ATOM     20  C   UNL A   1      32.565  26.534  22.567  1.00  0.00     0.033 A 
ATOM     21  C   UNL A   1      31.260  26.523  26.031  1.00  0.00     0.065 C 
BRANCH  16  22
ATOM     22  C   UNL A   1      33.073  28.757  25.364  1.00  0.00     0.046 A 
ATOM     23  C   UNL A   1      31.375  31.919  26.640  1.00  0.00     0.044 C 
ATOM     24  C   UNL A   1      32.327  30.770  26.494  1.00  0.00    -0.049 A 
ATOM     25  C   UNL A   1      33.345  30.596  27.443  1.00  0.00     0.003 A 
ATOM     26  C   UNL A   1      32.193  29.843  25.449  1.00  0.00     0.030 A 
ATOM     27  C   UNL A   1      34.247  29.540  27.329  1.00  0.00     0.002 A 
ATOM     28  C   UNL A   1      34.128  28.636  26.275  1.00  0.00     0.026 A 
ENDBRANCH  16  22
ENDBRANCH  14  15
ENDBRANCH   8  13
BRANCH  12  29
ATOM     29  O   UNL A   1      33.948  23.031  27.433  1.00  0.00    -0.507 OA
ATOM     30  H   UNL A   1      34.306  22.437  28.062  1.00  0.00     0.293 HD
ENDBRANCH  12  29
ENDBRANCH   5   7
ENDBRANCH   4   5
ENDBRANCH   3   4
ENDBRANCH   2   3
ENDBRANCH   1   2
BRANCH   1  31
ATOM     31  C   UNL A   1      38.973  21.921  26.008  1.00  0.00     0.202 C 
BRANCH  31  32
ATOM     32  C   UNL A   1      40.052  22.208  27.064  1.00  0.00     0.261 C 
BRANCH  32  33
ATOM     33  O   UNL A   1      39.892  23.560  27.556  1.00  0.00    -0.460 OA
BRANCH  33  34
ATOM     34  C   UNL A   1      40.756  24.504  27.077  1.00  0.00     0.338 C 
ATOM     35  O   UNL A   1      41.889  24.289  26.685  1.00  0.00    -0.246 OA
BRANCH  34  36
ATOM     36  C   UNL A   1      40.187  25.869  27.305  1.00  0.00     0.060 A 
ATOM     37  C   UNL A   1      40.535  26.941  26.455  1.00  0.00     0.016 A 
ATOM     38  C   UNL A   1      39.584  26.130  28.530  1.00  0.00     0.016 A 
ATOM     39  C   UNL A   1      40.449  28.269  26.912  1.00  0.00     0.010 A 
ATOM     40  C   UNL A   1      39.591  27.424  29.006  1.00  0.00     0.010 A 
ATOM     41  C   UNL A   1      40.062  28.502  28.229  1.00  0.00    -0.014 A 
BRANCH  41  42
ATOM     42  C   UNL A   1      40.239  29.758  28.978  1.00  0.00     0.031 A 
ATOM     43  C   UNL A   1      39.071  30.652  29.069  1.00  0.00     0.074 A 
ATOM     44  C   UNL A   1      41.326  29.999  29.761  1.00  0.00     0.049 A 
ATOM     45  N   UNL A   1      39.153  31.915  29.282  1.00  0.00    -0.248 NA
ATOM     46  C   UNL A   1      37.692  30.217  28.859  1.00  0.00     0.031 C 
ATOM     47  C   UNL A   1      41.503  30.939  30.870  1.00  0.00     0.029 A 
ATOM     48  N   UNL A   1      42.572  29.378  29.720  1.00  0.00    -0.354 N 
ATOM     49  C   UNL A   1      37.896  32.348  29.633  1.00  0.00     0.074 A 
ATOM     50  C   UNL A   1      37.010  31.316  29.177  1.00  0.00     0.031 C 
ATOM     51  C   UNL A   1      42.815  31.045  31.177  1.00  0.00     0.029 A 
ATOM     52  C   UNL A   1      43.557  30.220  30.236  1.00  0.00     0.049 A 
ATOM     53  H   UNL A   1      42.734  28.471  29.374  1.00  0.00     0.167 HD
ATOM     54  C   UNL A   1      37.785  33.437  30.443  1.00  0.00     0.034 A 
ATOM     55  C   UNL A   1      44.650  30.500  29.482  1.00  0.00     0.034 A 
ATOM     56  C   UNL A   1      39.129  33.935  30.804  1.00  0.00     0.049 A 
ATOM     57  C   UNL A   1      44.451  31.952  29.093  1.00  0.00     0.074 A 
ATOM     58  C   UNL A   1      39.870  33.915  31.976  1.00  0.00     0.029 A 
ATOM     59  N   UNL A   1      40.036  34.245  29.789  1.00  0.00    -0.354 N 
ATOM     60  N   UNL A   1      43.273  32.531  29.104  1.00  0.00    -0.248 NA
ATOM     61  C   UNL A   1      45.535  32.903  28.889  1.00  0.00     0.031 C 
ATOM     62  C   UNL A   1      41.237  34.160  31.636  1.00  0.00     0.029 A 
ATOM     63  C   UNL A   1      41.330  34.339  30.263  1.00  0.00     0.049 A 
ATOM     64  H   UNL A   1      39.784  34.380  28.847  1.00  0.00     0.167 HD
ATOM     65  C   UNL A   1      43.430  33.883  29.119  1.00  0.00     0.074 A 
ATOM     66  C   UNL A   1      44.862  34.069  28.908  1.00  0.00     0.031 C 
ATOM     67  C   UNL A   1      42.410  34.759  29.374  1.00  0.00     0.034 A 
BRANCH  54  68
ATOM     68  C   UNL A   1      36.509  33.891  31.135  1.00  0.00     0.023 A 
ATOM     69  C   UNL A   1      35.507  34.511  30.359  1.00  0.00     0.031 A 
ATOM     70  C   UNL A   1      36.187  33.755  32.504  1.00  0.00     0.131 A 
ATOM     71  C   UNL A   1      34.316  34.999  30.935  1.00  0.00     0.055 A 
ATOM     72  C   UNL A   1      35.024  34.279  33.087  1.00  0.00     0.041 A 
ATOM     73  F   UNL A   1      36.930  33.049  33.358  1.00  0.00    -0.206 F 
ATOM     74  C   UNL A   1      34.077  34.905  32.301  1.00  0.00     0.022 A 
BRANCH  71  75
ATOM     75  S   UNL A   1      33.054  35.725  29.858  1.00  0.00     0.124 S 
ATOM     76  O   UNL A   1      32.504  34.547  29.195  1.00  0.00    -0.237 OA
ATOM     77  O   UNL A   1      32.182  36.398  30.814  1.00  0.00    -0.237 OA
ATOM     78  O   UNL A   1      33.821  36.619  28.992  1.00  0.00    -0.744 OA
ENDBRANCH  71  75
ENDBRANCH  54  68
BRANCH  55  79
ATOM     79  C   UNL A   1      45.071  29.284  28.677  1.00  0.00     0.023 A 
ATOM     80  C   UNL A   1      45.717  28.199  29.361  1.00  0.00     0.031 A 
ATOM     81  C   UNL A   1      44.468  28.974  27.449  1.00  0.00     0.131 A 
ATOM     82  C   UNL A   1      45.652  26.872  28.865  1.00  0.00     0.055 A 
ATOM     83  C   UNL A   1      44.391  27.652  26.975  1.00  0.00     0.041 A 
ATOM     84  F   UNL A   1      43.815  29.916  26.752  1.00  0.00    -0.206 F 
ATOM     85  C   UNL A   1      44.949  26.596  27.694  1.00  0.00     0.022 A 
BRANCH  82  86
ATOM     86  S   UNL A   1      46.284  25.447  29.828  1.00  0.00     0.124 S 
ATOM     87  O   UNL A   1      45.422  24.358  29.390  1.00  0.00    -0.237 OA
ATOM     88  O   UNL A   1      47.679  25.346  29.419  1.00  0.00    -0.237 OA
ATOM     89  O   UNL A   1      46.125  25.865  31.219  1.00  0.00    -0.744 OA
ENDBRANCH  82  86
ENDBRANCH  55  79
BRANCH  67  90
ATOM     90  C   UNL A   1      42.386  36.163  28.829  1.00  0.00     0.023 A 
ATOM     91  C   UNL A   1      42.998  37.219  29.505  1.00  0.00     0.031 A 
ATOM     92  C   UNL A   1      41.876  36.468  27.544  1.00  0.00     0.131 A 
ATOM     93  C   UNL A   1      42.982  38.516  28.989  1.00  0.00     0.055 A 
ATOM     94  C   UNL A   1      41.977  37.737  26.973  1.00  0.00     0.041 A 
ATOM     95  F   UNL A   1      41.280  35.552  26.769  1.00  0.00    -0.206 F 
ATOM     96  C   UNL A   1      42.508  38.783  27.710  1.00  0.00     0.022 A 
BRANCH  93  97
ATOM     97  S   UNL A   1      43.498  39.840  30.100  1.00  0.00     0.124 S 
ATOM     98  O   UNL A   1      43.818  39.096  31.316  1.00  0.00    -0.237 OA
ATOM     99  O   UNL A   1      44.639  40.417  29.397  1.00  0.00    -0.237 OA
ATOM    100  O   UNL A   1      42.317  40.695  30.183  1.00  0.00    -0.744 OA
ENDBRANCH  93  97
ENDBRANCH  67  90
ENDBRANCH  41  42
ENDBRANCH  34  36
ENDBRANCH  33  34
ENDBRANCH  32  33
ENDBRANCH  31  32
ENDBRANCH   1  31
TORSDOF 21
ENDMDL
