MODEL 1
REMARK VINA RESULT:     -12.3      0.000      0.000
REMARK SMILES O=C(OCCOCCOC(=O)c1cc(-c2ccccn2)nc2ccc(F)cc12)c1ccc(-c2c3nc(c(-c4cc(S(=O)(=O)[O-])ccc4F)c4ccc([nH]4)c(-c4cc(S(=O)(=O)[O-])ccc4F)c4nc(c(-c5cc(S(=O)(=O)[O-])ccc5F)c5ccc2[nH]5)C=C4)C=C3)cc1
REMARK SMILES IDX 5 1 4 2 3 3 2 4 1 5 29 6 30 7 91 8 31 9 90 10 32 11 33 12
REMARK SMILES IDX 34 13 84 14 35 15 89 16 83 17 85 18 36 19 88 20 82 21 81 22
REMARK SMILES IDX 37 24 69 25 49 26 68 27 50 28 53 29 67 30 86 31 51 32 52 33
REMARK SMILES IDX 66 35 87 36 54 37 38 38 39 39 47 40 40 41 46 42 48 43 45 44
REMARK SMILES IDX 41 45 42 46 43 47 44 48 70 49 71 50 79 51 72 52 78 53 80 54
REMARK SMILES IDX 77 55 73 56 74 57 75 58 76 59 55 60 56 61 64 62 57 63 63 64
REMARK SMILES IDX 65 65 62 66 58 67 59 68 60 69 61 70 6 71 7 72 8 73 9 74
REMARK SMILES IDX 10 75 11 76 12 77 13 78 28 79 14 80 22 81 27 82 21 83 23 84
REMARK SMILES IDX 25 85 24 86 26 87 15 88 16 89 20 90 17 91 19 92 18 93
REMARK H PARENT 85 23 53 34
REMARK Flexibility Score: inf
ROOT
ATOM      1  C   UNL A   1      32.253  31.081  26.519  1.00  0.00     0.202 C 
ENDROOT
BRANCH   1   2
ATOM      2  C   UNL A   1      31.639  32.346  27.117  1.00  0.00     0.261 C 
BRANCH   2   3
ATOM      3  O   UNL A   1      32.580  33.424  27.107  1.00  0.00    -0.460 OA
BRANCH   3   4
ATOM      4  C   UNL A   1      33.272  33.930  28.156  1.00  0.00     0.338 C 
ATOM      5  O   UNL A   1      32.896  35.016  28.603  1.00  0.00    -0.246 OA
BRANCH   4   6
ATOM      6  C   UNL A   1      34.447  33.274  28.828  1.00  0.00     0.060 A 
ATOM      7  C   UNL A   1      35.718  33.670  28.365  1.00  0.00     0.016 A 
ATOM      8  C   UNL A   1      34.406  32.261  29.791  1.00  0.00     0.016 A 
ATOM      9  C   UNL A   1      36.885  33.039  28.805  1.00  0.00     0.010 A 
ATOM     10  C   UNL A   1      35.556  31.605  30.213  1.00  0.00     0.010 A 
ATOM     11  C   UNL A   1      36.797  31.986  29.715  1.00  0.00    -0.014 A 
BRANCH  11  12
ATOM     12  C   UNL A   1      37.981  31.353  30.314  1.00  0.00     0.031 A 
ATOM     13  C   UNL A   1      38.697  30.246  29.611  1.00  0.00     0.074 A 
ATOM     14  C   UNL A   1      38.239  31.671  31.594  1.00  0.00     0.049 A 
ATOM     15  N   UNL A   1      39.736  29.565  30.010  1.00  0.00    -0.248 NA
ATOM     16  C   UNL A   1      38.165  29.827  28.304  1.00  0.00     0.031 C 
ATOM     17  C   UNL A   1      37.463  32.640  32.373  1.00  0.00     0.029 A 
ATOM     18  N   UNL A   1      39.161  31.187  32.477  1.00  0.00    -0.354 N 
ATOM     19  C   UNL A   1      39.995  28.644  29.002  1.00  0.00     0.074 A 
ATOM     20  C   UNL A   1      38.973  28.819  27.995  1.00  0.00     0.031 C 
ATOM     21  C   UNL A   1      37.924  32.658  33.629  1.00  0.00     0.029 A 
ATOM     22  C   UNL A   1      39.025  31.707  33.742  1.00  0.00     0.049 A 
ATOM     23  H   UNL A   1      39.853  30.530  32.234  1.00  0.00     0.167 HD
ATOM     24  C   UNL A   1      41.014  27.754  28.942  1.00  0.00     0.034 A 
ATOM     25  C   UNL A   1      39.718  31.448  34.867  1.00  0.00     0.034 A 
ATOM     26  C   UNL A   1      41.986  27.622  30.001  1.00  0.00     0.049 A 
ATOM     27  C   UNL A   1      40.888  30.513  34.760  1.00  0.00     0.074 A 
ATOM     28  C   UNL A   1      43.146  26.873  30.008  1.00  0.00     0.029 A 
ATOM     29  N   UNL A   1      41.894  28.233  31.247  1.00  0.00    -0.354 N 
ATOM     30  N   UNL A   1      41.268  29.799  33.724  1.00  0.00    -0.248 NA
ATOM     31  C   UNL A   1      41.748  30.370  35.938  1.00  0.00     0.031 C 
ATOM     32  C   UNL A   1      43.709  26.963  31.282  1.00  0.00     0.029 A 
ATOM     33  C   UNL A   1      42.951  27.839  32.048  1.00  0.00     0.049 A 
ATOM     34  H   UNL A   1      41.181  28.855  31.519  1.00  0.00     0.167 HD
ATOM     35  C   UNL A   1      42.420  29.132  34.116  1.00  0.00     0.074 A 
ATOM     36  C   UNL A   1      42.687  29.548  35.481  1.00  0.00     0.031 C 
ATOM     37  C   UNL A   1      43.186  28.259  33.412  1.00  0.00     0.034 A 
BRANCH  24  38
ATOM     38  C   UNL A   1      41.180  26.887  27.715  1.00  0.00     0.023 A 
ATOM     39  C   UNL A   1      40.880  25.511  27.772  1.00  0.00     0.031 A 
ATOM     40  C   UNL A   1      41.790  27.378  26.546  1.00  0.00     0.131 A 
ATOM     41  C   UNL A   1      41.226  24.673  26.701  1.00  0.00     0.055 A 
ATOM     42  C   UNL A   1      42.092  26.548  25.464  1.00  0.00     0.041 A 
ATOM     43  F   UNL A   1      42.114  28.677  26.438  1.00  0.00    -0.206 F 
ATOM     44  C   UNL A   1      41.824  25.186  25.546  1.00  0.00     0.022 A 
BRANCH  41  45
ATOM     45  S   UNL A   1      40.991  22.875  26.794  1.00  0.00     0.124 S 
ATOM     46  O   UNL A   1      41.376  22.593  28.176  1.00  0.00    -0.237 OA
ATOM     47  O   UNL A   1      39.567  22.740  26.505  1.00  0.00    -0.237 OA
ATOM     48  O   UNL A   1      41.896  22.349  25.779  1.00  0.00    -0.744 OA
ENDBRANCH  41  45
ENDBRANCH  24  38
BRANCH  25  49
ATOM     49  C   UNL A   1      39.364  32.216  36.093  1.00  0.00     0.023 A 
ATOM     50  C   UNL A   1      38.560  31.639  37.095  1.00  0.00     0.031 A 
ATOM     51  C   UNL A   1      39.605  33.598  36.149  1.00  0.00     0.131 A 
ATOM     52  C   UNL A   1      37.948  32.460  38.052  1.00  0.00     0.055 A 
ATOM     53  C   UNL A   1      39.049  34.401  37.145  1.00  0.00     0.041 A 
ATOM     54  F   UNL A   1      40.339  34.195  35.196  1.00  0.00    -0.206 F 
ATOM     55  C   UNL A   1      38.196  33.836  38.089  1.00  0.00     0.022 A 
BRANCH  52  56
ATOM     56  S   UNL A   1      36.665  31.806  39.159  1.00  0.00     0.124 S 
ATOM     57  O   UNL A   1      36.552  30.421  38.711  1.00  0.00    -0.237 OA
ATOM     58  O   UNL A   1      37.278  31.995  40.472  1.00  0.00    -0.237 OA
ATOM     59  O   UNL A   1      35.509  32.653  38.888  1.00  0.00    -0.744 OA
ENDBRANCH  52  56
ENDBRANCH  25  49
BRANCH  37  60
ATOM     60  C   UNL A   1      44.382  27.649  34.097  1.00  0.00     0.023 A 
ATOM     61  C   UNL A   1      44.242  26.437  34.800  1.00  0.00     0.031 A 
ATOM     62  C   UNL A   1      45.586  28.361  34.219  1.00  0.00     0.131 A 
ATOM     63  C   UNL A   1      45.268  26.008  35.649  1.00  0.00     0.055 A 
ATOM     64  C   UNL A   1      46.628  27.899  35.024  1.00  0.00     0.041 A 
ATOM     65  F   UNL A   1      45.758  29.526  33.574  1.00  0.00    -0.206 F 
ATOM     66  C   UNL A   1      46.462  26.728  35.758  1.00  0.00     0.022 A 
BRANCH  63  67
ATOM     67  S   UNL A   1      45.044  24.564  36.723  1.00  0.00     0.124 S 
ATOM     68  O   UNL A   1      44.163  23.721  35.918  1.00  0.00    -0.237 OA
ATOM     69  O   UNL A   1      46.413  24.076  36.868  1.00  0.00    -0.237 OA
ATOM     70  O   UNL A   1      44.440  25.112  37.933  1.00  0.00    -0.744 OA
ENDBRANCH  63  67
ENDBRANCH  37  60
ENDBRANCH  11  12
ENDBRANCH   4   6
ENDBRANCH   3   4
ENDBRANCH   2   3
ENDBRANCH   1   2
BRANCH   1  71
ATOM     71  O   UNL A   1      32.859  30.245  27.499  1.00  0.00    -0.374 OA
BRANCH  71  72
ATOM     72  C   UNL A   1      33.073  28.887  27.130  1.00  0.00     0.202 C 
BRANCH  72  73
ATOM     73  C   UNL A   1      31.778  28.100  27.311  1.00  0.00     0.261 C 
BRANCH  73  74
ATOM     74  O   UNL A   1      31.919  26.826  26.665  1.00  0.00    -0.460 OA
BRANCH  74  75
ATOM     75  C   UNL A   1      30.838  26.337  26.003  1.00  0.00     0.338 C 
ATOM     76  O   UNL A   1      29.905  25.707  26.460  1.00  0.00    -0.246 OA
BRANCH  75  77
ATOM     77  C   UNL A   1      30.951  26.820  24.606  1.00  0.00     0.071 A 
ATOM     78  C   UNL A   1      30.203  27.947  24.291  1.00  0.00     0.047 A 
ATOM     79  C   UNL A   1      31.695  26.155  23.606  1.00  0.00     0.018 A 
ATOM     80  C   UNL A   1      30.189  28.411  22.991  1.00  0.00     0.090 A 
ATOM     81  C   UNL A   1      31.532  26.640  22.288  1.00  0.00     0.072 A 
ATOM     82  C   UNL A   1      32.544  25.039  23.823  1.00  0.00     0.050 A 
ATOM     83  N   UNL A   1      30.817  27.742  21.993  1.00  0.00    -0.246 NA
ATOM     84  C   UNL A   1      32.134  25.944  21.244  1.00  0.00     0.032 A 
ATOM     85  C   UNL A   1      33.129  24.373  22.755  1.00  0.00     0.123 A 
ATOM     86  C   UNL A   1      32.916  24.806  21.461  1.00  0.00     0.041 A 
ATOM     87  F   UNL A   1      33.885  23.293  22.980  1.00  0.00    -0.207 F 
BRANCH  80  88
ATOM     88  C   UNL A   1      29.526  29.695  22.705  1.00  0.00     0.089 A 
ATOM     89  C   UNL A   1      29.471  30.682  23.698  1.00  0.00     0.030 A 
ATOM     90  N   UNL A   1      28.874  29.831  21.524  1.00  0.00    -0.255 NA
ATOM     91  C   UNL A   1      28.701  31.819  23.497  1.00  0.00     0.004 A 
ATOM     92  C   UNL A   1      28.146  30.956  21.349  1.00  0.00     0.112 A 
ATOM     93  C   UNL A   1      28.020  31.959  22.299  1.00  0.00     0.020 A 
ENDBRANCH  80  88
ENDBRANCH  75  77
ENDBRANCH  74  75
ENDBRANCH  73  74
ENDBRANCH  72  73
ENDBRANCH  71  72
ENDBRANCH   1  71
TORSDOF 18
ENDMDL
MODEL 2
REMARK VINA RESULT:     -12.2      5.953     11.425
REMARK SMILES O=C(OCCOCCOC(=O)c1cc(-c2ccccn2)nc2ccc(F)cc12)c1ccc(-c2c3nc(c(-c4cc(S(=O)(=O)[O-])ccc4F)c4ccc([nH]4)c(-c4cc(S(=O)(=O)[O-])ccc4F)c4nc(c(-c5cc(S(=O)(=O)[O-])ccc5F)c5ccc2[nH]5)C=C4)C=C3)cc1
REMARK SMILES IDX 5 1 4 2 3 3 2 4 1 5 29 6 30 7 91 8 31 9 90 10 32 11 33 12
REMARK SMILES IDX 34 13 84 14 35 15 89 16 83 17 85 18 36 19 88 20 82 21 81 22
REMARK SMILES IDX 37 24 69 25 49 26 68 27 50 28 53 29 67 30 86 31 51 32 52 33
REMARK SMILES IDX 66 35 87 36 54 37 38 38 39 39 47 40 40 41 46 42 48 43 45 44
REMARK SMILES IDX 41 45 42 46 43 47 44 48 70 49 71 50 79 51 72 52 78 53 80 54
REMARK SMILES IDX 77 55 73 56 74 57 75 58 76 59 55 60 56 61 64 62 57 63 63 64
REMARK SMILES IDX 65 65 62 66 58 67 59 68 60 69 61 70 6 71 7 72 8 73 9 74
REMARK SMILES IDX 10 75 11 76 12 77 13 78 28 79 14 80 22 81 27 82 21 83 23 84
REMARK SMILES IDX 25 85 24 86 26 87 15 88 16 89 20 90 17 91 19 92 18 93
REMARK H PARENT 85 23 53 34
REMARK Flexibility Score: inf
ROOT
ATOM      1  C   UNL A   1      38.880  20.940  25.661  1.00  0.00     0.202 C 
ENDROOT
BRANCH   1   2
ATOM      2  C   UNL A   1      39.293  19.478  25.828  1.00  0.00     0.261 C 
BRANCH   2   3
ATOM      3  O   UNL A   1      40.674  19.297  25.498  1.00  0.00    -0.460 OA
BRANCH   3   4
ATOM      4  C   UNL A   1      41.755  19.688  26.214  1.00  0.00     0.338 C 
ATOM      5  O   UNL A   1      42.490  18.799  26.650  1.00  0.00    -0.246 OA
BRANCH   4   6
ATOM      6  C   UNL A   1      42.140  21.112  26.511  1.00  0.00     0.060 A 
ATOM      7  C   UNL A   1      42.234  21.450  27.876  1.00  0.00     0.016 A 
ATOM      8  C   UNL A   1      42.327  22.142  25.585  1.00  0.00     0.016 A 
ATOM      9  C   UNL A   1      42.446  22.768  28.289  1.00  0.00     0.010 A 
ATOM     10  C   UNL A   1      42.507  23.461  25.983  1.00  0.00     0.010 A 
ATOM     11  C   UNL A   1      42.558  23.779  27.335  1.00  0.00    -0.014 A 
BRANCH  11  12
ATOM     12  C   UNL A   1      42.900  25.166  27.684  1.00  0.00     0.031 A 
ATOM     13  C   UNL A   1      41.860  26.104  28.204  1.00  0.00     0.074 A 
ATOM     14  C   UNL A   1      44.119  25.588  27.308  1.00  0.00     0.049 A 
ATOM     15  N   UNL A   1      41.987  27.360  28.533  1.00  0.00    -0.248 NA
ATOM     16  C   UNL A   1      40.493  25.577  28.350  1.00  0.00     0.031 C 
ATOM     17  C   UNL A   1      45.117  24.739  26.651  1.00  0.00     0.029 A 
ATOM     18  N   UNL A   1      44.704  26.821  27.359  1.00  0.00    -0.354 N 
ATOM     19  C   UNL A   1      40.724  27.776  28.936  1.00  0.00     0.074 A 
ATOM     20  C   UNL A   1      39.832  26.651  28.764  1.00  0.00     0.031 C 
ATOM     21  C   UNL A   1      46.182  25.485  26.333  1.00  0.00     0.029 A 
ATOM     22  C   UNL A   1      45.943  26.858  26.765  1.00  0.00     0.049 A 
ATOM     23  H   UNL A   1      44.281  27.605  27.778  1.00  0.00     0.167 HD
ATOM     24  C   UNL A   1      40.373  28.991  29.420  1.00  0.00     0.034 A 
ATOM     25  C   UNL A   1      46.793  27.888  26.593  1.00  0.00     0.034 A 
ATOM     26  C   UNL A   1      41.318  30.075  29.543  1.00  0.00     0.049 A 
ATOM     27  C   UNL A   1      46.415  29.208  27.201  1.00  0.00     0.074 A 
ATOM     28  C   UNL A   1      41.137  31.303  30.150  1.00  0.00     0.029 A 
ATOM     29  N   UNL A   1      42.610  30.068  29.025  1.00  0.00    -0.354 N 
ATOM     30  N   UNL A   1      45.287  29.541  27.788  1.00  0.00    -0.248 NA
ATOM     31  C   UNL A   1      47.416  30.277  27.170  1.00  0.00     0.031 C 
ATOM     32  C   UNL A   1      42.284  32.066  29.926  1.00  0.00     0.029 A 
ATOM     33  C   UNL A   1      43.220  31.288  29.256  1.00  0.00     0.049 A 
ATOM     34  H   UNL A   1      43.028  29.306  28.563  1.00  0.00     0.167 HD
ATOM     35  C   UNL A   1      45.444  30.853  28.211  1.00  0.00     0.074 A 
ATOM     36  C   UNL A   1      46.789  31.245  27.831  1.00  0.00     0.031 C 
ATOM     37  C   UNL A   1      44.559  31.657  28.854  1.00  0.00     0.034 A 
BRANCH  24  38
ATOM     38  C   UNL A   1      38.956  29.229  29.891  1.00  0.00     0.023 A 
ATOM     39  C   UNL A   1      38.074  30.013  29.120  1.00  0.00     0.031 A 
ATOM     40  C   UNL A   1      38.530  28.828  31.171  1.00  0.00     0.131 A 
ATOM     41  C   UNL A   1      36.835  30.402  29.651  1.00  0.00     0.055 A 
ATOM     42  C   UNL A   1      37.277  29.180  31.677  1.00  0.00     0.041 A 
ATOM     43  F   UNL A   1      39.333  28.093  31.958  1.00  0.00    -0.206 F 
ATOM     44  C   UNL A   1      36.430  29.983  30.922  1.00  0.00     0.022 A 
BRANCH  41  45
ATOM     45  S   UNL A   1      35.733  31.529  28.752  1.00  0.00     0.124 S 
ATOM     46  O   UNL A   1      34.843  31.991  29.815  1.00  0.00    -0.237 OA
ATOM     47  O   UNL A   1      36.669  32.530  28.247  1.00  0.00    -0.237 OA
ATOM     48  O   UNL A   1      35.108  30.681  27.744  1.00  0.00    -0.744 OA
ENDBRANCH  41  45
ENDBRANCH  24  38
BRANCH  25  49
ATOM     49  C   UNL A   1      48.103  27.605  25.944  1.00  0.00     0.023 A 
ATOM     50  C   UNL A   1      48.277  27.800  24.560  1.00  0.00     0.031 A 
ATOM     51  C   UNL A   1      49.096  26.902  26.646  1.00  0.00     0.131 A 
ATOM     52  C   UNL A   1      49.369  27.210  23.908  1.00  0.00     0.055 A 
ATOM     53  C   UNL A   1      50.218  26.376  26.002  1.00  0.00     0.041 A 
ATOM     54  F   UNL A   1      48.956  26.666  27.960  1.00  0.00    -0.206 F 
ATOM     55  C   UNL A   1      50.345  26.508  24.622  1.00  0.00     0.022 A 
BRANCH  52  56
ATOM     56  S   UNL A   1      49.459  27.168  22.094  1.00  0.00     0.124 S 
ATOM     57  O   UNL A   1      50.882  26.937  21.864  1.00  0.00    -0.237 OA
ATOM     58  O   UNL A   1      48.580  26.045  21.777  1.00  0.00    -0.237 OA
ATOM     59  O   UNL A   1      48.959  28.478  21.692  1.00  0.00    -0.744 OA
ENDBRANCH  52  56
ENDBRANCH  25  49
BRANCH  37  60
ATOM     60  C   UNL A   1      44.983  33.068  29.174  1.00  0.00     0.023 A 
ATOM     61  C   UNL A   1      44.941  34.055  28.171  1.00  0.00     0.031 A 
ATOM     62  C   UNL A   1      45.605  33.377  30.394  1.00  0.00     0.131 A 
ATOM     63  C   UNL A   1      45.574  35.284  28.383  1.00  0.00     0.055 A 
ATOM     64  C   UNL A   1      46.185  34.625  30.621  1.00  0.00     0.041 A 
ATOM     65  F   UNL A   1      45.675  32.462  31.374  1.00  0.00    -0.206 F 
ATOM     66  C   UNL A   1      46.189  35.577  29.605  1.00  0.00     0.022 A 
BRANCH  63  67
ATOM     67  S   UNL A   1      45.718  36.501  27.046  1.00  0.00     0.124 S 
ATOM     68  O   UNL A   1      44.409  37.148  27.082  1.00  0.00    -0.237 OA
ATOM     69  O   UNL A   1      46.834  37.325  27.502  1.00  0.00    -0.237 OA
ATOM     70  O   UNL A   1      45.977  35.692  25.859  1.00  0.00    -0.744 OA
ENDBRANCH  63  67
ENDBRANCH  37  60
ENDBRANCH  11  12
ENDBRANCH   4   6
ENDBRANCH   3   4
ENDBRANCH   2   3
ENDBRANCH   1   2
BRANCH   1  71
ATOM     71  O   UNL A   1      37.809  21.110  24.739  1.00  0.00    -0.374 OA
BRANCH  71  72
ATOM     72  C   UNL A   1      37.017  22.281  24.897  1.00  0.00     0.202 C 
BRANCH  72  73
ATOM     73  C   UNL A   1      36.495  22.729  23.534  1.00  0.00     0.261 C 
BRANCH  73  74
ATOM     74  O   UNL A   1      35.308  23.512  23.731  1.00  0.00    -0.460 OA
BRANCH  74  75
ATOM     75  C   UNL A   1      34.194  23.143  23.043  1.00  0.00     0.338 C 
ATOM     76  O   UNL A   1      33.949  23.325  21.867  1.00  0.00    -0.246 OA
BRANCH  75  77
ATOM     77  C   UNL A   1      33.361  22.362  23.988  1.00  0.00     0.071 A 
ATOM     78  C   UNL A   1      33.495  20.981  23.918  1.00  0.00     0.047 A 
ATOM     79  C   UNL A   1      32.415  22.943  24.861  1.00  0.00     0.018 A 
ATOM     80  C   UNL A   1      32.693  20.180  24.705  1.00  0.00     0.090 A 
ATOM     81  C   UNL A   1      31.568  22.041  25.545  1.00  0.00     0.072 A 
ATOM     82  C   UNL A   1      32.235  24.335  25.065  1.00  0.00     0.050 A 
ATOM     83  N   UNL A   1      31.714  20.703  25.483  1.00  0.00    -0.246 NA
ATOM     84  C   UNL A   1      30.530  22.556  26.317  1.00  0.00     0.032 A 
ATOM     85  C   UNL A   1      31.190  24.810  25.845  1.00  0.00     0.123 A 
ATOM     86  C   UNL A   1      30.321  23.931  26.460  1.00  0.00     0.041 A 
ATOM     87  F   UNL A   1      31.010  26.129  25.982  1.00  0.00    -0.207 F 
BRANCH  80  88
ATOM     88  C   UNL A   1      32.958  18.732  24.740  1.00  0.00     0.089 A 
ATOM     89  C   UNL A   1      33.676  18.133  23.696  1.00  0.00     0.030 A 
ATOM     90  N   UNL A   1      32.383  17.998  25.725  1.00  0.00    -0.255 NA
ATOM     91  C   UNL A   1      33.778  16.751  23.634  1.00  0.00     0.004 A 
ATOM     92  C   UNL A   1      32.514  16.655  25.648  1.00  0.00     0.112 A 
ATOM     93  C   UNL A   1      33.181  15.993  24.629  1.00  0.00     0.020 A 
ENDBRANCH  80  88
ENDBRANCH  75  77
ENDBRANCH  74  75
ENDBRANCH  73  74
ENDBRANCH  72  73
ENDBRANCH  71  72
ENDBRANCH   1  71
TORSDOF 18
ENDMDL
MODEL 3
REMARK VINA RESULT:     -12.1      6.439     11.608
REMARK SMILES O=C(OCCOCCOC(=O)c1cc(-c2ccccn2)nc2ccc(F)cc12)c1ccc(-c2c3nc(c(-c4cc(S(=O)(=O)[O-])ccc4F)c4ccc([nH]4)c(-c4cc(S(=O)(=O)[O-])ccc4F)c4nc(c(-c5cc(S(=O)(=O)[O-])ccc5F)c5ccc2[nH]5)C=C4)C=C3)cc1
REMARK SMILES IDX 5 1 4 2 3 3 2 4 1 5 29 6 30 7 91 8 31 9 90 10 32 11 33 12
REMARK SMILES IDX 34 13 84 14 35 15 89 16 83 17 85 18 36 19 88 20 82 21 81 22
REMARK SMILES IDX 37 24 69 25 49 26 68 27 50 28 53 29 67 30 86 31 51 32 52 33
REMARK SMILES IDX 66 35 87 36 54 37 38 38 39 39 47 40 40 41 46 42 48 43 45 44
REMARK SMILES IDX 41 45 42 46 43 47 44 48 70 49 71 50 79 51 72 52 78 53 80 54
REMARK SMILES IDX 77 55 73 56 74 57 75 58 76 59 55 60 56 61 64 62 57 63 63 64
REMARK SMILES IDX 65 65 62 66 58 67 59 68 60 69 61 70 6 71 7 72 8 73 9 74
REMARK SMILES IDX 10 75 11 76 12 77 13 78 28 79 14 80 22 81 27 82 21 83 23 84
REMARK SMILES IDX 25 85 24 86 26 87 15 88 16 89 20 90 17 91 19 92 18 93
REMARK H PARENT 85 23 53 34
REMARK Flexibility Score: inf
ROOT
ATOM      1  C   UNL A   1      38.098  19.476  24.917  1.00  0.00     0.202 C 
ENDROOT
BRANCH   1   2
ATOM      2  C   UNL A   1      39.181  19.850  25.929  1.00  0.00     0.261 C 
BRANCH   2   3
ATOM      3  O   UNL A   1      40.389  19.126  25.673  1.00  0.00    -0.460 OA
BRANCH   3   4
ATOM      4  C   UNL A   1      41.657  19.499  25.970  1.00  0.00     0.338 C 
ATOM      5  O   UNL A   1      42.528  18.629  25.902  1.00  0.00    -0.246 OA
BRANCH   4   6
ATOM      6  C   UNL A   1      42.093  20.885  26.361  1.00  0.00     0.060 A 
ATOM      7  C   UNL A   1      42.271  21.795  25.299  1.00  0.00     0.016 A 
ATOM      8  C   UNL A   1      42.422  21.331  27.645  1.00  0.00     0.016 A 
ATOM      9  C   UNL A   1      42.807  23.068  25.511  1.00  0.00     0.010 A 
ATOM     10  C   UNL A   1      42.984  22.583  27.863  1.00  0.00     0.010 A 
ATOM     11  C   UNL A   1      43.186  23.451  26.797  1.00  0.00    -0.014 A 
BRANCH  11  12
ATOM     12  C   UNL A   1      43.644  24.811  27.118  1.00  0.00     0.031 A 
ATOM     13  C   UNL A   1      42.683  25.850  27.594  1.00  0.00     0.074 A 
ATOM     14  C   UNL A   1      44.902  25.113  26.757  1.00  0.00     0.049 A 
ATOM     15  N   UNL A   1      42.916  27.098  27.895  1.00  0.00    -0.248 NA
ATOM     16  C   UNL A   1      41.272  25.451  27.726  1.00  0.00     0.031 C 
ATOM     17  C   UNL A   1      45.832  24.162  26.141  1.00  0.00     0.029 A 
ATOM     18  N   UNL A   1      45.594  26.291  26.789  1.00  0.00    -0.354 N 
ATOM     19  C   UNL A   1      41.688  27.635  28.263  1.00  0.00     0.074 A 
ATOM     20  C   UNL A   1      40.702  26.590  28.100  1.00  0.00     0.031 C 
ATOM     21  C   UNL A   1      46.965  24.802  25.826  1.00  0.00     0.029 A 
ATOM     22  C   UNL A   1      46.841  26.202  26.219  1.00  0.00     0.049 A 
ATOM     23  H   UNL A   1      45.235  27.120  27.180  1.00  0.00     0.167 HD
ATOM     24  C   UNL A   1      41.438  28.889  28.710  1.00  0.00     0.034 A 
ATOM     25  C   UNL A   1      47.783  27.147  26.039  1.00  0.00     0.034 A 
ATOM     26  C   UNL A   1      42.474  29.887  28.826  1.00  0.00     0.049 A 
ATOM     27  C   UNL A   1      47.513  28.511  26.607  1.00  0.00     0.074 A 
ATOM     28  C   UNL A   1      42.393  31.142  29.398  1.00  0.00     0.029 A 
ATOM     29  N   UNL A   1      43.768  29.752  28.334  1.00  0.00    -0.354 N 
ATOM     30  N   UNL A   1      46.410  28.958  27.163  1.00  0.00    -0.248 NA
ATOM     31  C   UNL A   1      48.606  29.486  26.570  1.00  0.00     0.031 C 
ATOM     32  C   UNL A   1      43.607  31.794  29.179  1.00  0.00     0.029 A 
ATOM     33  C   UNL A   1      44.481  30.919  28.547  1.00  0.00     0.049 A 
ATOM     34  H   UNL A   1      44.125  28.944  27.898  1.00  0.00     0.167 HD
ATOM     35  C   UNL A   1      46.676  30.261  27.557  1.00  0.00     0.074 A 
ATOM     36  C   UNL A   1      48.057  30.523  27.195  1.00  0.00     0.031 C 
ATOM     37  C   UNL A   1      45.855  31.157  28.163  1.00  0.00     0.034 A 
BRANCH  24  38
ATOM     38  C   UNL A   1      40.040  29.264  29.147  1.00  0.00     0.023 A 
ATOM     39  C   UNL A   1      39.677  29.189  30.506  1.00  0.00     0.031 A 
ATOM     40  C   UNL A   1      39.024  29.529  28.209  1.00  0.00     0.131 A 
ATOM     41  C   UNL A   1      38.333  29.337  30.883  1.00  0.00     0.055 A 
ATOM     42  C   UNL A   1      37.695  29.720  28.594  1.00  0.00     0.041 A 
ATOM     43  F   UNL A   1      39.305  29.596  26.897  1.00  0.00    -0.206 F 
ATOM     44  C   UNL A   1      37.342  29.609  29.934  1.00  0.00     0.022 A 
BRANCH  41  45
ATOM     45  S   UNL A   1      37.803  29.105  32.603  1.00  0.00     0.124 S 
ATOM     46  O   UNL A   1      36.423  29.585  32.559  1.00  0.00    -0.237 OA
ATOM     47  O   UNL A   1      37.954  27.663  32.775  1.00  0.00    -0.237 OA
ATOM     48  O   UNL A   1      38.724  29.934  33.371  1.00  0.00    -0.744 OA
ENDBRANCH  41  45
ENDBRANCH  24  38
BRANCH  25  49
ATOM     49  C   UNL A   1      49.074  26.732  25.423  1.00  0.00     0.023 A 
ATOM     50  C   UNL A   1      50.146  26.297  26.228  1.00  0.00     0.031 A 
ATOM     51  C   UNL A   1      49.329  27.010  24.071  1.00  0.00     0.131 A 
ATOM     52  C   UNL A   1      51.440  26.250  25.692  1.00  0.00     0.055 A 
ATOM     53  C   UNL A   1      50.608  26.894  23.525  1.00  0.00     0.041 A 
ATOM     54  F   UNL A   1      48.343  27.458  23.276  1.00  0.00    -0.206 F 
ATOM     55  C   UNL A   1      51.676  26.536  24.344  1.00  0.00     0.022 A 
BRANCH  52  56
ATOM     56  S   UNL A   1      52.885  26.004  26.765  1.00  0.00     0.124 S 
ATOM     57  O   UNL A   1      53.556  27.297  26.677  1.00  0.00    -0.237 OA
ATOM     58  O   UNL A   1      52.255  25.707  28.050  1.00  0.00    -0.237 OA
ATOM     59  O   UNL A   1      53.588  24.885  26.148  1.00  0.00    -0.744 OA
ENDBRANCH  52  56
ENDBRANCH  25  49
BRANCH  37  60
ATOM     60  C   UNL A   1      46.397  32.533  28.457  1.00  0.00     0.023 A 
ATOM     61  C   UNL A   1      46.559  33.459  27.409  1.00  0.00     0.031 A 
ATOM     62  C   UNL A   1      46.928  32.846  29.718  1.00  0.00     0.131 A 
ATOM     63  C   UNL A   1      47.300  34.626  27.625  1.00  0.00     0.055 A 
ATOM     64  C   UNL A   1      47.617  34.038  29.943  1.00  0.00     0.041 A 
ATOM     65  F   UNL A   1      46.804  31.988  30.742  1.00  0.00    -0.206 F 
ATOM     66  C   UNL A   1      47.822  34.924  28.888  1.00  0.00     0.022 A 
BRANCH  63  67
ATOM     67  S   UNL A   1      47.704  35.741  26.253  1.00  0.00     0.124 S 
ATOM     68  O   UNL A   1      48.909  36.403  26.746  1.00  0.00    -0.237 OA
ATOM     69  O   UNL A   1      47.912  34.806  25.151  1.00  0.00    -0.237 OA
ATOM     70  O   UNL A   1      46.529  36.599  26.138  1.00  0.00    -0.744 OA
ENDBRANCH  63  67
ENDBRANCH  37  60
ENDBRANCH  11  12
ENDBRANCH   4   6
ENDBRANCH   3   4
ENDBRANCH   2   3
ENDBRANCH   1   2
BRANCH   1  71
ATOM     71  O   UNL A   1      37.387  20.607  24.425  1.00  0.00    -0.374 OA
BRANCH  71  72
ATOM     72  C   UNL A   1      37.474  21.797  25.200  1.00  0.00     0.202 C 
BRANCH  72  73
ATOM     73  C   UNL A   1      37.085  22.995  24.337  1.00  0.00     0.261 C 
BRANCH  73  74
ATOM     74  O   UNL A   1      35.795  23.463  24.757  1.00  0.00    -0.460 OA
BRANCH  74  75
ATOM     75  C   UNL A   1      34.768  23.342  23.875  1.00  0.00     0.338 C 
ATOM     76  O   UNL A   1      34.718  23.742  22.729  1.00  0.00    -0.246 OA
BRANCH  75  77
ATOM     77  C   UNL A   1      33.738  22.514  24.546  1.00  0.00     0.071 A 
ATOM     78  C   UNL A   1      33.852  21.141  24.369  1.00  0.00     0.047 A 
ATOM     79  C   UNL A   1      32.643  23.053  25.258  1.00  0.00     0.018 A 
ATOM     80  C   UNL A   1      32.885  20.306  24.892  1.00  0.00     0.090 A 
ATOM     81  C   UNL A   1      31.652  22.128  25.661  1.00  0.00     0.072 A 
ATOM     82  C   UNL A   1      32.457  24.427  25.556  1.00  0.00     0.050 A 
ATOM     83  N   UNL A   1      31.778  20.797  25.499  1.00  0.00    -0.246 NA
ATOM     84  C   UNL A   1      30.488  22.615  26.248  1.00  0.00     0.032 A 
ATOM     85  C   UNL A   1      31.282  24.873  26.146  1.00  0.00     0.123 A 
ATOM     86  C   UNL A   1      30.284  23.979  26.480  1.00  0.00     0.041 A 
ATOM     87  F   UNL A   1      31.108  26.180  26.373  1.00  0.00    -0.207 F 
BRANCH  80  88
ATOM     88  C   UNL A   1      33.104  18.850  24.838  1.00  0.00     0.089 A 
ATOM     89  C   UNL A   1      33.912  18.308  23.830  1.00  0.00     0.030 A 
ATOM     90  N   UNL A   1      32.407  18.065  25.696  1.00  0.00    -0.255 NA
ATOM     91  C   UNL A   1      33.981  16.931  23.668  1.00  0.00     0.004 A 
ATOM     92  C   UNL A   1      32.507  16.728  25.526  1.00  0.00     0.112 A 
ATOM     93  C   UNL A   1      33.260  16.122  24.532  1.00  0.00     0.020 A 
ENDBRANCH  80  88
ENDBRANCH  75  77
ENDBRANCH  74  75
ENDBRANCH  73  74
ENDBRANCH  72  73
ENDBRANCH  71  72
ENDBRANCH   1  71
TORSDOF 18
ENDMDL
