MODEL 1
REMARK VINA RESULT:     -10.3      0.000      0.000
REMARK SMILES CC[NH2+][C@]1(C(=O)OCCOCCOC(=O)c2ccc(-c3c4nc(c(-c5cc(S(=O)(=O)[O-])ccc5F)c5ccc([nH]5)c(-c5cc(S(=O)(=O)[O-])ccc5F)c5nc(c(-c6cc(S(=O)(=O)[O-])ccc6F)c6ccc3[nH]6)C=C5)C=C4)cc2)CCC[C@H]1CCSc1ccc(Cl)cc1
REMARK SMILES IDX 9 1 8 2 7 3 5 4 6 5 4 6 79 7 82 8 80 9 81 10 3 11 2 14 1 15
REMARK SMILES IDX 83 16 84 17 85 18 86 19 87 20 92 21 88 22 91 23 89 24 90 25
REMARK SMILES IDX 10 26 11 27 12 28 13 29 14 30 15 31 16 32 17 33 78 34 18 35
REMARK SMILES IDX 77 36 19 37 20 38 21 39 71 40 22 41 76 42 70 43 72 44 23 45
REMARK SMILES IDX 75 46 69 47 68 48 24 50 56 51 36 52 55 53 37 54 40 55 54 56
REMARK SMILES IDX 73 57 38 58 39 59 53 61 74 62 41 63 25 64 26 65 34 66 27 67
REMARK SMILES IDX 33 68 35 69 32 70 28 71 29 72 30 73 31 74 57 75 58 76 66 77
REMARK SMILES IDX 59 78 65 79 67 80 64 81 60 82 61 83 62 84 63 85 42 86 43 87
REMARK SMILES IDX 51 88 44 89 50 90 52 91 49 92 45 93 46 94 47 95 48 96
REMARK H PARENT 3 12 3 13 72 49 40 60
REMARK Flexibility Score: inf
ROOT
ATOM      1  C   UNL A   1      33.681  18.701  24.363  1.00  0.00     0.202 C 
ENDROOT
BRANCH   1   2
ATOM      2  C   UNL A   1      32.850  19.762  25.108  1.00  0.00     0.261 C 
BRANCH   2   3
ATOM      3  O   UNL A   1      32.264  20.841  24.328  1.00  0.00    -0.459 OA
BRANCH   3   4
ATOM      4  C   UNL A   1      32.021  21.977  25.050  1.00  0.00     0.368 C 
ATOM      5  O   UNL A   1      31.066  22.078  25.820  1.00  0.00    -0.245 OA
BRANCH   4   6
ATOM      6  C   UNL A   1      32.909  23.212  24.677  1.00  0.00     0.197 C 
ATOM      7  C   UNL A   1      33.738  22.746  23.451  1.00  0.00     0.081 C 
ATOM      8  C   UNL A   1      32.352  24.569  24.156  1.00  0.00     0.063 C 
ATOM      9  C   UNL A   1      34.238  23.970  22.707  1.00  0.00     0.008 C 
ATOM     10  C   UNL A   1      33.522  25.153  23.326  1.00  0.00     0.011 C 
BRANCH   6  11
ATOM     11  N   UNL A   1      33.647  23.593  25.910  1.00  0.00    -0.332 N 
ATOM     12  H   UNL A   1      34.284  24.346  25.648  1.00  0.00     0.347 HD
ATOM     13  H   UNL A   1      32.899  23.813  26.568  1.00  0.00     0.347 HD
BRANCH  11  14
ATOM     14  C   UNL A   1      34.434  22.615  26.623  1.00  0.00     0.257 C 
ATOM     15  C   UNL A   1      33.798  22.392  27.990  1.00  0.00     0.071 C 
ENDBRANCH  11  14
ENDBRANCH   6  11
BRANCH   8  16
ATOM     16  C   UNL A   1      31.052  24.610  23.341  1.00  0.00     0.022 C 
BRANCH  16  17
ATOM     17  C   UNL A   1      29.919  25.444  23.969  1.00  0.00     0.075 C 
BRANCH  17  18
ATOM     18  S   UNL A   1      29.993  27.275  23.791  1.00  0.00    -0.126 SA
BRANCH  18  19
ATOM     19  C   UNL A   1      31.402  27.758  24.796  1.00  0.00     0.007 A 
ATOM     20  C   UNL A   1      32.525  28.441  24.308  1.00  0.00     0.016 A 
ATOM     21  C   UNL A   1      31.335  27.491  26.171  1.00  0.00     0.016 A 
ATOM     22  C   UNL A   1      33.526  28.897  25.169  1.00  0.00     0.021 A 
ATOM     23  C   UNL A   1      32.332  27.951  27.038  1.00  0.00     0.021 A 
ATOM     24  C   UNL A   1      33.416  28.666  26.534  1.00  0.00     0.041 A 
ATOM     25  Cl  UNL A   1      34.607  29.294  27.603  1.00  0.00    -0.084 Cl
ENDBRANCH  18  19
ENDBRANCH  17  18
ENDBRANCH  16  17
ENDBRANCH   8  16
ENDBRANCH   4   6
ENDBRANCH   3   4
ENDBRANCH   2   3
ENDBRANCH   1   2
BRANCH   1  26
ATOM     26  O   UNL A   1      35.088  18.661  24.591  1.00  0.00    -0.374 OA
BRANCH  26  27
ATOM     27  C   UNL A   1      35.741  19.882  24.915  1.00  0.00     0.202 C 
BRANCH  27  28
ATOM     28  C   UNL A   1      37.273  19.872  24.910  1.00  0.00     0.261 C 
BRANCH  28  29
ATOM     29  O   UNL A   1      37.829  21.102  25.396  1.00  0.00    -0.460 OA
BRANCH  29  30
ATOM     30  C   UNL A   1      39.089  20.988  25.884  1.00  0.00     0.338 C 
ATOM     31  O   UNL A   1      39.819  20.023  25.775  1.00  0.00    -0.246 OA
BRANCH  30  32
ATOM     32  C   UNL A   1      39.466  22.237  26.572  1.00  0.00     0.060 A 
ATOM     33  C   UNL A   1      38.914  23.452  26.164  1.00  0.00     0.016 A 
ATOM     34  C   UNL A   1      40.468  22.215  27.541  1.00  0.00     0.016 A 
ATOM     35  C   UNL A   1      39.430  24.650  26.676  1.00  0.00     0.010 A 
ATOM     36  C   UNL A   1      40.918  23.408  28.115  1.00  0.00     0.010 A 
ATOM     37  C   UNL A   1      40.463  24.644  27.631  1.00  0.00    -0.014 A 
BRANCH  37  38
ATOM     38  C   UNL A   1      41.160  25.917  27.999  1.00  0.00     0.031 A 
ATOM     39  C   UNL A   1      42.568  26.178  27.503  1.00  0.00     0.074 A 
ATOM     40  C   UNL A   1      40.540  26.858  28.740  1.00  0.00     0.049 A 
ATOM     41  N   UNL A   1      43.315  27.248  27.638  1.00  0.00    -0.248 NA
ATOM     42  C   UNL A   1      43.233  25.081  26.784  1.00  0.00     0.031 C 
ATOM     43  C   UNL A   1      39.208  26.726  29.330  1.00  0.00     0.029 A 
ATOM     44  N   UNL A   1      40.945  28.118  29.113  1.00  0.00    -0.354 N 
ATOM     45  C   UNL A   1      44.534  26.946  27.033  1.00  0.00     0.074 A 
ATOM     46  C   UNL A   1      44.450  25.570  26.598  1.00  0.00     0.031 C 
ATOM     47  C   UNL A   1      38.890  27.870  29.957  1.00  0.00     0.029 A 
ATOM     48  C   UNL A   1      40.001  28.813  29.835  1.00  0.00     0.049 A 
ATOM     49  H   UNL A   1      41.827  28.489  28.886  1.00  0.00     0.167 HD
ATOM     50  C   UNL A   1      45.613  27.743  26.824  1.00  0.00     0.034 A 
ATOM     51  C   UNL A   1      40.017  30.068  30.329  1.00  0.00     0.034 A 
ATOM     52  C   UNL A   1      45.685  29.123  27.239  1.00  0.00     0.049 A 
ATOM     53  C   UNL A   1      41.214  30.951  30.065  1.00  0.00     0.074 A 
ATOM     54  C   UNL A   1      46.707  30.036  27.031  1.00  0.00     0.029 A 
ATOM     55  N   UNL A   1      44.700  29.792  27.952  1.00  0.00    -0.354 N 
ATOM     56  N   UNL A   1      42.326  30.669  29.428  1.00  0.00    -0.248 NA
ATOM     57  C   UNL A   1      41.141  32.330  30.566  1.00  0.00     0.031 C 
ATOM     58  C   UNL A   1      46.365  31.234  27.669  1.00  0.00     0.029 A 
ATOM     59  C   UNL A   1      45.097  31.095  28.209  1.00  0.00     0.049 A 
ATOM     60  H   UNL A   1      43.842  29.398  28.234  1.00  0.00     0.167 HD
ATOM     61  C   UNL A   1      43.070  31.847  29.423  1.00  0.00     0.074 A 
ATOM     62  C   UNL A   1      42.273  32.844  30.105  1.00  0.00     0.031 C 
ATOM     63  C   UNL A   1      44.299  32.084  28.895  1.00  0.00     0.034 A 
BRANCH  50  64
ATOM     64  C   UNL A   1      46.809  27.130  26.127  1.00  0.00     0.023 A 
ATOM     65  C   UNL A   1      47.810  26.445  26.839  1.00  0.00     0.031 A 
ATOM     66  C   UNL A   1      46.966  27.252  24.735  1.00  0.00     0.131 A 
ATOM     67  C   UNL A   1      48.957  25.985  26.175  1.00  0.00     0.055 A 
ATOM     68  C   UNL A   1      48.069  26.716  24.067  1.00  0.00     0.041 A 
ATOM     69  F   UNL A   1      46.054  27.908  23.999  1.00  0.00    -0.206 F 
ATOM     70  C   UNL A   1      49.082  26.094  24.789  1.00  0.00     0.022 A 
BRANCH  67  71
ATOM     71  S   UNL A   1      50.350  25.379  27.168  1.00  0.00     0.124 S 
ATOM     72  O   UNL A   1      51.282  24.941  26.131  1.00  0.00    -0.237 OA
ATOM     73  O   UNL A   1      50.741  26.565  27.920  1.00  0.00    -0.237 OA
ATOM     74  O   UNL A   1      49.762  24.301  27.962  1.00  0.00    -0.744 OA
ENDBRANCH  67  71
ENDBRANCH  50  64
BRANCH  51  75
ATOM     75  C   UNL A   1      38.854  30.586  31.108  1.00  0.00     0.023 A 
ATOM     76  C   UNL A   1      37.864  31.375  30.500  1.00  0.00     0.031 A 
ATOM     77  C   UNL A   1      38.736  30.325  32.484  1.00  0.00     0.131 A 
ATOM     78  C   UNL A   1      36.822  31.912  31.274  1.00  0.00     0.055 A 
ATOM     79  C   UNL A   1      37.673  30.821  33.241  1.00  0.00     0.041 A 
ATOM     80  F   UNL A   1      39.652  29.571  33.112  1.00  0.00    -0.206 F 
ATOM     81  C   UNL A   1      36.715  31.629  32.638  1.00  0.00     0.022 A 
BRANCH  78  82
ATOM     82  S   UNL A   1      35.645  33.044  30.487  1.00  0.00     0.124 S 
ATOM     83  O   UNL A   1      35.009  33.667  31.643  1.00  0.00    -0.237 OA
ATOM     84  O   UNL A   1      36.528  33.901  29.702  1.00  0.00    -0.237 OA
ATOM     85  O   UNL A   1      34.787  32.155  29.705  1.00  0.00    -0.744 OA
ENDBRANCH  78  82
ENDBRANCH  51  75
BRANCH  63  86
ATOM     86  C   UNL A   1      44.830  33.494  28.992  1.00  0.00     0.023 A 
ATOM     87  C   UNL A   1      45.613  33.921  30.079  1.00  0.00     0.031 A 
ATOM     88  C   UNL A   1      44.527  34.431  27.988  1.00  0.00     0.131 A 
ATOM     89  C   UNL A   1      46.011  35.264  30.169  1.00  0.00     0.055 A 
ATOM     90  C   UNL A   1      44.977  35.751  28.052  1.00  0.00     0.041 A 
ATOM     91  F   UNL A   1      43.783  34.080  26.926  1.00  0.00    -0.206 F 
ATOM     92  C   UNL A   1      45.711  36.179  29.155  1.00  0.00     0.022 A 
BRANCH  89  93
ATOM     93  S   UNL A   1      46.839  35.828  31.682  1.00  0.00     0.124 S 
ATOM     94  O   UNL A   1      47.454  37.078  31.244  1.00  0.00    -0.237 OA
ATOM     95  O   UNL A   1      45.725  35.959  32.615  1.00  0.00    -0.237 OA
ATOM     96  O   UNL A   1      47.776  34.749  31.984  1.00  0.00    -0.744 OA
ENDBRANCH  89  93
ENDBRANCH  63  86
ENDBRANCH  37  38
ENDBRANCH  30  32
ENDBRANCH  29  30
ENDBRANCH  28  29
ENDBRANCH  27  28
ENDBRANCH  26  27
ENDBRANCH   1  26
TORSDOF 23
ENDMDL
MODEL 2
REMARK VINA RESULT:     -10.2      1.673      2.231
REMARK SMILES CC[NH2+][C@]1(C(=O)OCCOCCOC(=O)c2ccc(-c3c4nc(c(-c5cc(S(=O)(=O)[O-])ccc5F)c5ccc([nH]5)c(-c5cc(S(=O)(=O)[O-])ccc5F)c5nc(c(-c6cc(S(=O)(=O)[O-])ccc6F)c6ccc3[nH]6)C=C5)C=C4)cc2)CCC[C@H]1CCSc1ccc(Cl)cc1
REMARK SMILES IDX 9 1 8 2 7 3 5 4 6 5 4 6 79 7 82 8 80 9 81 10 3 11 2 14 1 15
REMARK SMILES IDX 83 16 84 17 85 18 86 19 87 20 92 21 88 22 91 23 89 24 90 25
REMARK SMILES IDX 10 26 11 27 12 28 13 29 14 30 15 31 16 32 17 33 78 34 18 35
REMARK SMILES IDX 77 36 19 37 20 38 21 39 71 40 22 41 76 42 70 43 72 44 23 45
REMARK SMILES IDX 75 46 69 47 68 48 24 50 56 51 36 52 55 53 37 54 40 55 54 56
REMARK SMILES IDX 73 57 38 58 39 59 53 61 74 62 41 63 25 64 26 65 34 66 27 67
REMARK SMILES IDX 33 68 35 69 32 70 28 71 29 72 30 73 31 74 57 75 58 76 66 77
REMARK SMILES IDX 59 78 65 79 67 80 64 81 60 82 61 83 62 84 63 85 42 86 43 87
REMARK SMILES IDX 51 88 44 89 50 90 52 91 49 92 45 93 46 94 47 95 48 96
REMARK H PARENT 3 12 3 13 72 49 40 60
REMARK Flexibility Score: inf
ROOT
ATOM      1  C   UNL A   1      33.645  19.465  24.630  1.00  0.00     0.202 C 
ENDROOT
BRANCH   1   2
ATOM      2  C   UNL A   1      33.008  20.519  25.555  1.00  0.00     0.261 C 
BRANCH   2   3
ATOM      3  O   UNL A   1      32.250  21.597  24.940  1.00  0.00    -0.459 OA
BRANCH   3   4
ATOM      4  C   UNL A   1      31.862  22.572  25.818  1.00  0.00     0.368 C 
ATOM      5  O   UNL A   1      30.768  22.555  26.382  1.00  0.00    -0.245 OA
BRANCH   4   6
ATOM      6  C   UNL A   1      32.809  23.817  25.899  1.00  0.00     0.197 C 
ATOM      7  C   UNL A   1      34.133  23.268  26.493  1.00  0.00     0.081 C 
ATOM      8  C   UNL A   1      33.344  24.595  24.661  1.00  0.00     0.063 C 
ATOM      9  C   UNL A   1      35.256  24.230  26.154  1.00  0.00     0.008 C 
ATOM     10  C   UNL A   1      34.672  25.215  25.162  1.00  0.00     0.011 C 
BRANCH   6  11
ATOM     11  N   UNL A   1      32.079  24.857  26.670  1.00  0.00    -0.332 N 
ATOM     12  H   UNL A   1      31.378  24.369  27.228  1.00  0.00     0.347 HD
ATOM     13  H   UNL A   1      32.826  25.343  27.167  1.00  0.00     0.347 HD
BRANCH  11  14
ATOM     14  C   UNL A   1      31.392  25.927  25.986  1.00  0.00     0.257 C 
ATOM     15  C   UNL A   1      31.467  27.178  26.853  1.00  0.00     0.071 C 
ENDBRANCH  11  14
ENDBRANCH   6  11
BRANCH   8  16
ATOM     16  C   UNL A   1      33.568  23.868  23.328  1.00  0.00     0.022 C 
BRANCH  16  17
ATOM     17  C   UNL A   1      32.507  24.151  22.248  1.00  0.00     0.075 C 
BRANCH  17  18
ATOM     18  S   UNL A   1      32.680  25.689  21.249  1.00  0.00    -0.126 SA
BRANCH  18  19
ATOM     19  C   UNL A   1      32.164  26.999  22.366  1.00  0.00     0.007 A 
ATOM     20  C   UNL A   1      33.044  27.869  23.025  1.00  0.00     0.016 A 
ATOM     21  C   UNL A   1      30.787  27.201  22.528  1.00  0.00     0.016 A 
ATOM     22  C   UNL A   1      32.570  28.945  23.778  1.00  0.00     0.021 A 
ATOM     23  C   UNL A   1      30.307  28.281  23.278  1.00  0.00     0.021 A 
ATOM     24  C   UNL A   1      31.202  29.158  23.886  1.00  0.00     0.041 A 
ATOM     25  Cl  UNL A   1      30.618  30.526  24.748  1.00  0.00    -0.084 Cl
ENDBRANCH  18  19
ENDBRANCH  17  18
ENDBRANCH  16  17
ENDBRANCH   8  16
ENDBRANCH   4   6
ENDBRANCH   3   4
ENDBRANCH   2   3
ENDBRANCH   1   2
BRANCH   1  26
ATOM     26  O   UNL A   1      35.065  19.337  24.627  1.00  0.00    -0.374 OA
BRANCH  26  27
ATOM     27  C   UNL A   1      35.832  20.465  25.028  1.00  0.00     0.202 C 
BRANCH  27  28
ATOM     28  C   UNL A   1      37.354  20.292  25.062  1.00  0.00     0.261 C 
BRANCH  28  29
ATOM     29  O   UNL A   1      38.037  21.520  25.352  1.00  0.00    -0.460 OA
BRANCH  29  30
ATOM     30  C   UNL A   1      39.212  21.361  26.009  1.00  0.00     0.338 C 
ATOM     31  O   UNL A   1      39.899  20.360  26.025  1.00  0.00    -0.246 OA
BRANCH  30  32
ATOM     32  C   UNL A   1      39.556  22.612  26.712  1.00  0.00     0.060 A 
ATOM     33  C   UNL A   1      38.968  23.816  26.322  1.00  0.00     0.016 A 
ATOM     34  C   UNL A   1      40.562  22.606  27.676  1.00  0.00     0.016 A 
ATOM     35  C   UNL A   1      39.452  25.021  26.847  1.00  0.00     0.010 A 
ATOM     36  C   UNL A   1      40.981  23.804  28.264  1.00  0.00     0.010 A 
ATOM     37  C   UNL A   1      40.489  25.033  27.799  1.00  0.00    -0.014 A 
BRANCH  37  38
ATOM     38  C   UNL A   1      41.151  26.320  28.180  1.00  0.00     0.031 A 
ATOM     39  C   UNL A   1      42.558  26.617  27.701  1.00  0.00     0.074 A 
ATOM     40  C   UNL A   1      40.500  27.242  28.918  1.00  0.00     0.049 A 
ATOM     41  N   UNL A   1      43.277  27.704  27.849  1.00  0.00    -0.248 NA
ATOM     42  C   UNL A   1      43.257  25.540  26.984  1.00  0.00     0.031 C 
ATOM     43  C   UNL A   1      39.165  27.075  29.493  1.00  0.00     0.029 A 
ATOM     44  N   UNL A   1      40.870  28.510  29.302  1.00  0.00    -0.354 N 
ATOM     45  C   UNL A   1      44.509  27.434  27.256  1.00  0.00     0.074 A 
ATOM     46  C   UNL A   1      44.463  26.059  26.814  1.00  0.00     0.031 C 
ATOM     47  C   UNL A   1      38.813  28.209  30.122  1.00  0.00     0.029 A 
ATOM     48  C   UNL A   1      39.902  29.179  30.017  1.00  0.00     0.049 A 
ATOM     49  H   UNL A   1      41.746  28.903  29.086  1.00  0.00     0.167 HD
ATOM     50  C   UNL A   1      45.571  28.259  27.063  1.00  0.00     0.034 A 
ATOM     51  C   UNL A   1      39.883  30.431  30.516  1.00  0.00     0.034 A 
ATOM     52  C   UNL A   1      45.606  29.638  27.486  1.00  0.00     0.049 A 
ATOM     53  C   UNL A   1      41.060  31.343  30.271  1.00  0.00     0.074 A 
ATOM     54  C   UNL A   1      46.606  30.576  27.293  1.00  0.00     0.029 A 
ATOM     55  N   UNL A   1      44.596  30.279  28.190  1.00  0.00    -0.354 N 
ATOM     56  N   UNL A   1      42.186  31.091  29.644  1.00  0.00    -0.248 NA
ATOM     57  C   UNL A   1      40.949  32.718  30.776  1.00  0.00     0.031 C 
ATOM     58  C   UNL A   1      46.229  31.763  27.932  1.00  0.00     0.029 A 
ATOM     59  C   UNL A   1      44.959  31.590  28.458  1.00  0.00     0.049 A 
ATOM     60  H   UNL A   1      43.745  29.863  28.461  1.00  0.00     0.167 HD
ATOM     61  C   UNL A   1      42.901  32.287  29.653  1.00  0.00     0.074 A 
ATOM     62  C   UNL A   1      42.073  33.261  30.331  1.00  0.00     0.031 C 
ATOM     63  C   UNL A   1      44.130  32.556  29.140  1.00  0.00     0.034 A 
BRANCH  50  64
ATOM     64  C   UNL A   1      46.789  27.677  26.376  1.00  0.00     0.023 A 
ATOM     65  C   UNL A   1      47.102  27.983  25.040  1.00  0.00     0.031 A 
ATOM     66  C   UNL A   1      47.636  26.785  27.058  1.00  0.00     0.131 A 
ATOM     67  C   UNL A   1      48.175  27.340  24.404  1.00  0.00     0.055 A 
ATOM     68  C   UNL A   1      48.754  26.215  26.445  1.00  0.00     0.041 A 
ATOM     69  F   UNL A   1      47.383  26.441  28.331  1.00  0.00    -0.206 F 
ATOM     70  C   UNL A   1      49.019  26.477  25.104  1.00  0.00     0.022 A 
BRANCH  67  71
ATOM     71  S   UNL A   1      48.361  27.533  22.609  1.00  0.00     0.124 S 
ATOM     72  O   UNL A   1      49.607  28.289  22.521  1.00  0.00    -0.237 OA
ATOM     73  O   UNL A   1      48.417  26.151  22.147  1.00  0.00    -0.237 OA
ATOM     74  O   UNL A   1      47.162  28.274  22.217  1.00  0.00    -0.744 OA
ENDBRANCH  67  71
ENDBRANCH  50  64
BRANCH  51  75
ATOM     75  C   UNL A   1      38.698  30.917  31.285  1.00  0.00     0.023 A 
ATOM     76  C   UNL A   1      37.731  31.741  30.688  1.00  0.00     0.031 A 
ATOM     77  C   UNL A   1      38.538  30.589  32.643  1.00  0.00     0.131 A 
ATOM     78  C   UNL A   1      36.669  32.245  31.456  1.00  0.00     0.055 A 
ATOM     79  C   UNL A   1      37.455  31.053  33.391  1.00  0.00     0.041 A 
ATOM     80  F   UNL A   1      39.432  29.799  33.260  1.00  0.00    -0.206 F 
ATOM     81  C   UNL A   1      36.519  31.896  32.800  1.00  0.00     0.022 A 
BRANCH  78  82
ATOM     82  S   UNL A   1      35.521  33.422  30.691  1.00  0.00     0.124 S 
ATOM     83  O   UNL A   1      36.223  33.766  29.458  1.00  0.00    -0.237 OA
ATOM     84  O   UNL A   1      34.316  32.614  30.539  1.00  0.00    -0.237 OA
ATOM     85  O   UNL A   1      35.428  34.497  31.677  1.00  0.00    -0.744 OA
ENDBRANCH  78  82
ENDBRANCH  51  75
BRANCH  63  86
ATOM     86  C   UNL A   1      44.626  33.978  29.249  1.00  0.00     0.023 A 
ATOM     87  C   UNL A   1      45.348  34.430  30.367  1.00  0.00     0.031 A 
ATOM     88  C   UNL A   1      44.349  34.901  28.224  1.00  0.00     0.131 A 
ATOM     89  C   UNL A   1      45.714  35.782  30.465  1.00  0.00     0.055 A 
ATOM     90  C   UNL A   1      44.768  36.230  28.298  1.00  0.00     0.041 A 
ATOM     91  F   UNL A   1      43.663  34.526  27.133  1.00  0.00    -0.206 F 
ATOM     92  C   UNL A   1      45.441  36.682  29.431  1.00  0.00     0.022 A 
BRANCH  89  93
ATOM     93  S   UNL A   1      46.458  36.375  32.009  1.00  0.00     0.124 S 
ATOM     94  O   UNL A   1      45.284  36.770  32.781  1.00  0.00    -0.237 OA
ATOM     95  O   UNL A   1      47.166  35.192  32.487  1.00  0.00    -0.237 OA
ATOM     96  O   UNL A   1      47.315  37.477  31.576  1.00  0.00    -0.744 OA
ENDBRANCH  89  93
ENDBRANCH  63  86
ENDBRANCH  37  38
ENDBRANCH  30  32
ENDBRANCH  29  30
ENDBRANCH  28  29
ENDBRANCH  27  28
ENDBRANCH  26  27
ENDBRANCH   1  26
TORSDOF 23
ENDMDL
MODEL 3
REMARK VINA RESULT:     -10.2      1.712      2.338
REMARK SMILES CC[NH2+][C@]1(C(=O)OCCOCCOC(=O)c2ccc(-c3c4nc(c(-c5cc(S(=O)(=O)[O-])ccc5F)c5ccc([nH]5)c(-c5cc(S(=O)(=O)[O-])ccc5F)c5nc(c(-c6cc(S(=O)(=O)[O-])ccc6F)c6ccc3[nH]6)C=C5)C=C4)cc2)CCC[C@H]1CCSc1ccc(Cl)cc1
REMARK SMILES IDX 9 1 8 2 7 3 5 4 6 5 4 6 79 7 82 8 80 9 81 10 3 11 2 14 1 15
REMARK SMILES IDX 83 16 84 17 85 18 86 19 87 20 92 21 88 22 91 23 89 24 90 25
REMARK SMILES IDX 10 26 11 27 12 28 13 29 14 30 15 31 16 32 17 33 78 34 18 35
REMARK SMILES IDX 77 36 19 37 20 38 21 39 71 40 22 41 76 42 70 43 72 44 23 45
REMARK SMILES IDX 75 46 69 47 68 48 24 50 56 51 36 52 55 53 37 54 40 55 54 56
REMARK SMILES IDX 73 57 38 58 39 59 53 61 74 62 41 63 25 64 26 65 34 66 27 67
REMARK SMILES IDX 33 68 35 69 32 70 28 71 29 72 30 73 31 74 57 75 58 76 66 77
REMARK SMILES IDX 59 78 65 79 67 80 64 81 60 82 61 83 62 84 63 85 42 86 43 87
REMARK SMILES IDX 51 88 44 89 50 90 52 91 49 92 45 93 46 94 47 95 48 96
REMARK H PARENT 3 12 3 13 72 49 40 60
REMARK Flexibility Score: inf
ROOT
ATOM      1  C   UNL A   1      33.851  18.810  24.755  1.00  0.00     0.202 C 
ENDROOT
BRANCH   1   2
ATOM      2  C   UNL A   1      32.945  19.696  23.879  1.00  0.00     0.261 C 
BRANCH   2   3
ATOM      3  O   UNL A   1      32.121  20.695  24.542  1.00  0.00    -0.459 OA
BRANCH   3   4
ATOM      4  C   UNL A   1      32.305  21.966  24.070  1.00  0.00     0.368 C 
ATOM      5  O   UNL A   1      33.236  22.265  23.322  1.00  0.00    -0.245 OA
BRANCH   4   6
ATOM      6  C   UNL A   1      31.381  23.058  24.709  1.00  0.00     0.197 C 
ATOM      7  C   UNL A   1      30.605  22.314  25.827  1.00  0.00     0.081 C 
ATOM      8  C   UNL A   1      31.901  24.301  25.489  1.00  0.00     0.063 C 
ATOM      9  C   UNL A   1      30.080  23.335  26.819  1.00  0.00     0.008 C 
ATOM     10  C   UNL A   1      30.733  24.650  26.446  1.00  0.00     0.011 C 
BRANCH   6  11
ATOM     11  N   UNL A   1      30.595  23.654  23.597  1.00  0.00    -0.332 N 
ATOM     12  H   UNL A   1      30.797  23.098  22.765  1.00  0.00     0.347 HD
ATOM     13  H   UNL A   1      29.641  23.641  23.955  1.00  0.00     0.347 HD
BRANCH  11  14
ATOM     14  C   UNL A   1      30.786  25.037  23.226  1.00  0.00     0.257 C 
ATOM     15  C   UNL A   1      31.653  25.082  21.973  1.00  0.00     0.071 C 
ENDBRANCH  11  14
ENDBRANCH   6  11
BRANCH   8  16
ATOM     16  C   UNL A   1      33.221  24.228  26.269  1.00  0.00     0.022 C 
BRANCH  16  17
ATOM     17  C   UNL A   1      34.323  25.182  25.770  1.00  0.00     0.075 C 
BRANCH  17  18
ATOM     18  S   UNL A   1      33.920  26.312  24.374  1.00  0.00    -0.126 SA
BRANCH  18  19
ATOM     19  C   UNL A   1      33.262  27.781  25.174  1.00  0.00     0.007 A 
ATOM     20  C   UNL A   1      34.004  28.623  26.014  1.00  0.00     0.016 A 
ATOM     21  C   UNL A   1      31.940  28.139  24.877  1.00  0.00     0.016 A 
ATOM     22  C   UNL A   1      33.466  29.818  26.500  1.00  0.00     0.021 A 
ATOM     23  C   UNL A   1      31.399  29.337  25.358  1.00  0.00     0.021 A 
ATOM     24  C   UNL A   1      32.171  30.179  26.154  1.00  0.00     0.041 A 
ATOM     25  Cl  UNL A   1      31.535  31.685  26.688  1.00  0.00    -0.084 Cl
ENDBRANCH  18  19
ENDBRANCH  17  18
ENDBRANCH  16  17
ENDBRANCH   8  16
ENDBRANCH   4   6
ENDBRANCH   3   4
ENDBRANCH   2   3
ENDBRANCH   1   2
BRANCH   1  26
ATOM     26  O   UNL A   1      35.263  18.943  24.617  1.00  0.00    -0.374 OA
BRANCH  26  27
ATOM     27  C   UNL A   1      35.833  20.225  24.850  1.00  0.00     0.202 C 
BRANCH  27  28
ATOM     28  C   UNL A   1      37.362  20.302  24.922  1.00  0.00     0.261 C 
BRANCH  28  29
ATOM     29  O   UNL A   1      37.817  21.416  25.703  1.00  0.00    -0.460 OA
BRANCH  29  30
ATOM     30  C   UNL A   1      39.132  21.365  26.030  1.00  0.00     0.338 C 
ATOM     31  O   UNL A   1      39.908  20.470  25.761  1.00  0.00    -0.246 OA
BRANCH  30  32
ATOM     32  C   UNL A   1      39.503  22.587  26.768  1.00  0.00     0.060 A 
ATOM     33  C   UNL A   1      38.852  23.792  26.496  1.00  0.00     0.016 A 
ATOM     34  C   UNL A   1      40.589  22.562  27.642  1.00  0.00     0.016 A 
ATOM     35  C   UNL A   1      39.349  24.983  27.043  1.00  0.00     0.010 A 
ATOM     36  C   UNL A   1      41.026  23.741  28.256  1.00  0.00     0.010 A 
ATOM     37  C   UNL A   1      40.464  24.976  27.902  1.00  0.00    -0.014 A 
BRANCH  37  38
ATOM     38  C   UNL A   1      41.123  26.262  28.294  1.00  0.00     0.031 A 
ATOM     39  C   UNL A   1      42.535  26.559  27.832  1.00  0.00     0.074 A 
ATOM     40  C   UNL A   1      40.465  27.181  29.029  1.00  0.00     0.049 A 
ATOM     41  N   UNL A   1      43.253  27.644  27.992  1.00  0.00    -0.248 NA
ATOM     42  C   UNL A   1      43.241  25.484  27.118  1.00  0.00     0.031 C 
ATOM     43  C   UNL A   1      39.124  27.014  29.588  1.00  0.00     0.029 A 
ATOM     44  N   UNL A   1      40.832  28.447  29.421  1.00  0.00    -0.354 N 
ATOM     45  C   UNL A   1      44.492  27.376  27.411  1.00  0.00     0.074 A 
ATOM     46  C   UNL A   1      44.450  26.002  26.964  1.00  0.00     0.031 C 
ATOM     47  C   UNL A   1      38.766  28.145  30.218  1.00  0.00     0.029 A 
ATOM     48  C   UNL A   1      39.856  29.115  30.128  1.00  0.00     0.049 A 
ATOM     49  H   UNL A   1      41.710  28.840  29.216  1.00  0.00     0.167 HD
ATOM     50  C   UNL A   1      45.557  28.200  27.232  1.00  0.00     0.034 A 
ATOM     51  C   UNL A   1      39.833  30.365  30.632  1.00  0.00     0.034 A 
ATOM     52  C   UNL A   1      45.588  29.577  27.660  1.00  0.00     0.049 A 
ATOM     53  C   UNL A   1      41.014  31.277  30.402  1.00  0.00     0.074 A 
ATOM     54  C   UNL A   1      46.592  30.515  27.482  1.00  0.00     0.029 A 
ATOM     55  N   UNL A   1      44.572  30.217  28.356  1.00  0.00    -0.354 N 
ATOM     56  N   UNL A   1      42.146  31.026  29.787  1.00  0.00    -0.248 NA
ATOM     57  C   UNL A   1      40.899  32.650  30.911  1.00  0.00     0.031 C 
ATOM     58  C   UNL A   1      46.208  31.700  28.121  1.00  0.00     0.029 A 
ATOM     59  C   UNL A   1      44.932  31.527  28.633  1.00  0.00     0.049 A 
ATOM     60  H   UNL A   1      43.717  29.801  28.616  1.00  0.00     0.167 HD
ATOM     61  C   UNL A   1      42.863  32.221  29.807  1.00  0.00     0.074 A 
ATOM     62  C   UNL A   1      42.028  33.194  30.480  1.00  0.00     0.031 C 
ATOM     63  C   UNL A   1      44.097  32.491  29.309  1.00  0.00     0.034 A 
BRANCH  50  64
ATOM     64  C   UNL A   1      46.781  27.620  26.557  1.00  0.00     0.023 A 
ATOM     65  C   UNL A   1      47.813  27.009  27.293  1.00  0.00     0.031 A 
ATOM     66  C   UNL A   1      46.934  27.701  25.162  1.00  0.00     0.131 A 
ATOM     67  C   UNL A   1      48.981  26.581  26.645  1.00  0.00     0.055 A 
ATOM     68  C   UNL A   1      48.062  27.195  24.512  1.00  0.00     0.041 A 
ATOM     69  F   UNL A   1      45.993  28.286  24.404  1.00  0.00    -0.206 F 
ATOM     70  C   UNL A   1      49.103  26.647  25.255  1.00  0.00     0.022 A 
BRANCH  67  71
ATOM     71  S   UNL A   1      50.400  26.077  27.658  1.00  0.00     0.124 S 
ATOM     72  O   UNL A   1      51.474  26.883  27.081  1.00  0.00    -0.237 OA
ATOM     73  O   UNL A   1      49.975  26.447  29.003  1.00  0.00    -0.237 OA
ATOM     74  O   UNL A   1      50.507  24.641  27.409  1.00  0.00    -0.744 OA
ENDBRANCH  67  71
ENDBRANCH  50  64
BRANCH  51  75
ATOM     75  C   UNL A   1      38.641  30.849  31.389  1.00  0.00     0.023 A 
ATOM     76  C   UNL A   1      37.546  31.431  30.730  1.00  0.00     0.031 A 
ATOM     77  C   UNL A   1      38.598  30.768  32.792  1.00  0.00     0.131 A 
ATOM     78  C   UNL A   1      36.473  31.946  31.473  1.00  0.00     0.055 A 
ATOM     79  C   UNL A   1      37.507  31.238  33.525  1.00  0.00     0.041 A 
ATOM     80  F   UNL A   1      39.617  30.215  33.470  1.00  0.00    -0.206 F 
ATOM     81  C   UNL A   1      36.442  31.843  32.866  1.00  0.00     0.022 A 
BRANCH  78  82
ATOM     82  S   UNL A   1      35.145  32.819  30.599  1.00  0.00     0.124 S 
ATOM     83  O   UNL A   1      35.818  34.044  30.179  1.00  0.00    -0.237 OA
ATOM     84  O   UNL A   1      34.811  31.875  29.538  1.00  0.00    -0.237 OA
ATOM     85  O   UNL A   1      34.118  32.992  31.624  1.00  0.00    -0.744 OA
ENDBRANCH  78  82
ENDBRANCH  51  75
BRANCH  63  86
ATOM     86  C   UNL A   1      44.593  33.912  29.429  1.00  0.00     0.023 A 
ATOM     87  C   UNL A   1      44.197  34.916  28.528  1.00  0.00     0.031 A 
ATOM     88  C   UNL A   1      45.496  34.259  30.450  1.00  0.00     0.131 A 
ATOM     89  C   UNL A   1      44.751  36.202  28.627  1.00  0.00     0.055 A 
ATOM     90  C   UNL A   1      45.998  35.555  30.580  1.00  0.00     0.041 A 
ATOM     91  F   UNL A   1      45.909  33.341  31.339  1.00  0.00    -0.206 F 
ATOM     92  C   UNL A   1      45.639  36.532  29.656  1.00  0.00     0.022 A 
BRANCH  89  93
ATOM     93  S   UNL A   1      44.380  37.414  27.328  1.00  0.00     0.124 S 
ATOM     94  O   UNL A   1      44.065  38.608  28.106  1.00  0.00    -0.237 OA
ATOM     95  O   UNL A   1      45.630  37.455  26.576  1.00  0.00    -0.237 OA
ATOM     96  O   UNL A   1      43.250  36.821  26.618  1.00  0.00    -0.744 OA
ENDBRANCH  89  93
ENDBRANCH  63  86
ENDBRANCH  37  38
ENDBRANCH  30  32
ENDBRANCH  29  30
ENDBRANCH  28  29
ENDBRANCH  27  28
ENDBRANCH  26  27
ENDBRANCH   1  26
TORSDOF 23
ENDMDL
