MODEL 1
REMARK VINA RESULT:     -11.9      0.000      0.000
REMARK SMILES O=C(OCCOCCOC(=O)c1c(C(F)(F)F)nn(-c2ccccc2)c1C(F)(F)Cl)c1ccc(-c2c3nc(c(-c4cc(S(=O)(=O)[O-])ccc4F)c4ccc([nH]4)c(-c4cc(S(=O)(=O)[O-])ccc4F)c4nc(c(-c5cc(S(=O)(=O)[O-])ccc5F)c5ccc2[nH]5)C=C4)C=C3)cc1
REMARK SMILES IDX 5 1 4 2 3 3 2 4 1 5 31 6 32 7 93 8 33 9 92 10 34 11 35 12
REMARK SMILES IDX 36 13 86 14 37 15 91 16 85 17 87 18 38 19 90 20 84 21 83 22
REMARK SMILES IDX 39 24 71 25 51 26 70 27 52 28 55 29 69 30 88 31 53 32 54 33
REMARK SMILES IDX 68 35 89 36 56 37 40 38 41 39 49 40 42 41 48 42 50 43 47 44
REMARK SMILES IDX 43 45 44 46 45 47 46 48 72 49 73 50 81 51 74 52 80 53 82 54
REMARK SMILES IDX 79 55 75 56 76 57 77 58 78 59 57 60 58 61 66 62 59 63 65 64
REMARK SMILES IDX 67 65 64 66 60 67 61 68 62 69 63 70 6 71 7 72 8 73 9 74
REMARK SMILES IDX 10 75 11 76 12 77 13 78 26 79 18 80 19 81 14 82 15 83 16 84
REMARK SMILES IDX 17 85 27 86 28 87 29 88 30 89 20 90 21 91 25 92 22 93 24 94
REMARK SMILES IDX 23 95
REMARK H PARENT 87 23 55 34
REMARK Flexibility Score: inf
ROOT
ATOM      1  C   UNL A   1      32.204  29.722  27.093  1.00  0.00     0.202 C 
ENDROOT
BRANCH   1   2
ATOM      2  C   UNL A   1      32.816  31.091  27.408  1.00  0.00     0.261 C 
BRANCH   2   3
ATOM      3  O   UNL A   1      34.195  31.171  27.036  1.00  0.00    -0.460 OA
BRANCH   3   4
ATOM      4  C   UNL A   1      35.194  31.804  27.688  1.00  0.00     0.338 C 
ATOM      5  O   UNL A   1      35.144  33.034  27.754  1.00  0.00    -0.246 OA
BRANCH   4   6
ATOM      6  C   UNL A   1      36.339  31.111  28.352  1.00  0.00     0.060 A 
ATOM      7  C   UNL A   1      37.377  31.712  29.061  1.00  0.00     0.016 A 
ATOM      8  C   UNL A   1      36.379  29.715  28.178  1.00  0.00     0.016 A 
ATOM      9  C   UNL A   1      38.535  31.010  29.333  1.00  0.00     0.010 A 
ATOM     10  C   UNL A   1      37.502  28.983  28.527  1.00  0.00     0.010 A 
ATOM     11  C   UNL A   1      38.615  29.658  29.008  1.00  0.00    -0.014 A 
BRANCH  11  12
ATOM     12  C   UNL A   1      39.878  28.990  29.275  1.00  0.00     0.031 A 
ATOM     13  C   UNL A   1      40.219  28.888  30.720  1.00  0.00     0.074 A 
ATOM     14  C   UNL A   1      40.660  28.486  28.301  1.00  0.00     0.049 A 
ATOM     15  N   UNL A   1      41.207  29.438  31.345  1.00  0.00    -0.248 NA
ATOM     16  C   UNL A   1      39.246  28.229  31.604  1.00  0.00     0.031 C 
ATOM     17  C   UNL A   1      40.358  28.323  26.878  1.00  0.00     0.029 A 
ATOM     18  N   UNL A   1      41.890  27.918  28.418  1.00  0.00    -0.354 N 
ATOM     19  C   UNL A   1      41.099  29.030  32.670  1.00  0.00     0.074 A 
ATOM     20  C   UNL A   1      39.798  28.429  32.801  1.00  0.00     0.031 C 
ATOM     21  C   UNL A   1      41.265  27.486  26.323  1.00  0.00     0.029 A 
ATOM     22  C   UNL A   1      42.286  27.179  27.310  1.00  0.00     0.049 A 
ATOM     23  H   UNL A   1      42.451  28.021  29.219  1.00  0.00     0.167 HD
ATOM     24  C   UNL A   1      42.172  29.041  33.509  1.00  0.00     0.034 A 
ATOM     25  C   UNL A   1      43.340  26.324  27.239  1.00  0.00     0.034 A 
ATOM     26  C   UNL A   1      43.194  29.943  33.038  1.00  0.00     0.049 A 
ATOM     27  C   UNL A   1      44.287  26.724  28.312  1.00  0.00     0.074 A 
ATOM     28  C   UNL A   1      43.232  31.303  32.795  1.00  0.00     0.029 A 
ATOM     29  N   UNL A   1      44.274  29.422  32.361  1.00  0.00    -0.354 N 
ATOM     30  N   UNL A   1      44.917  27.869  28.315  1.00  0.00    -0.248 NA
ATOM     31  C   UNL A   1      44.151  26.092  29.616  1.00  0.00     0.031 C 
ATOM     32  C   UNL A   1      43.982  31.438  31.589  1.00  0.00     0.029 A 
ATOM     33  C   UNL A   1      44.429  30.168  31.217  1.00  0.00     0.049 A 
ATOM     34  H   UNL A   1      44.829  28.659  32.643  1.00  0.00     0.167 HD
ATOM     35  C   UNL A   1      44.869  28.303  29.631  1.00  0.00     0.074 A 
ATOM     36  C   UNL A   1      44.463  27.129  30.402  1.00  0.00     0.031 C 
ATOM     37  C   UNL A   1      44.890  29.633  29.948  1.00  0.00     0.034 A 
BRANCH  24  38
ATOM     38  C   UNL A   1      42.424  27.996  34.571  1.00  0.00     0.023 A 
ATOM     39  C   UNL A   1      43.148  26.843  34.207  1.00  0.00     0.031 A 
ATOM     40  C   UNL A   1      41.759  27.934  35.818  1.00  0.00     0.131 A 
ATOM     41  C   UNL A   1      43.123  25.690  35.014  1.00  0.00     0.055 A 
ATOM     42  C   UNL A   1      41.790  26.810  36.645  1.00  0.00     0.041 A 
ATOM     43  F   UNL A   1      40.964  28.914  36.264  1.00  0.00    -0.206 F 
ATOM     44  C   UNL A   1      42.449  25.668  36.232  1.00  0.00     0.022 A 
BRANCH  41  45
ATOM     45  S   UNL A   1      43.836  24.158  34.361  1.00  0.00     0.124 S 
ATOM     46  O   UNL A   1      44.981  23.963  35.243  1.00  0.00    -0.237 OA
ATOM     47  O   UNL A   1      42.729  23.220  34.523  1.00  0.00    -0.237 OA
ATOM     48  O   UNL A   1      44.165  24.501  32.979  1.00  0.00    -0.744 OA
ENDBRANCH  41  45
ENDBRANCH  24  38
BRANCH  25  49
ATOM     49  C   UNL A   1      43.341  24.986  26.583  1.00  0.00     0.023 A 
ATOM     50  C   UNL A   1      42.473  23.939  26.962  1.00  0.00     0.031 A 
ATOM     51  C   UNL A   1      44.068  24.800  25.383  1.00  0.00     0.131 A 
ATOM     52  C   UNL A   1      42.369  22.775  26.161  1.00  0.00     0.055 A 
ATOM     53  C   UNL A   1      43.962  23.650  24.599  1.00  0.00     0.041 A 
ATOM     54  F   UNL A   1      44.848  25.773  24.885  1.00  0.00    -0.206 F 
ATOM     55  C   UNL A   1      43.104  22.634  24.982  1.00  0.00     0.022 A 
BRANCH  52  56
ATOM     56  S   UNL A   1      41.202  21.445  26.603  1.00  0.00     0.124 S 
ATOM     57  O   UNL A   1      41.882  20.257  26.104  1.00  0.00    -0.237 OA
ATOM     58  O   UNL A   1      41.109  21.580  28.053  1.00  0.00    -0.237 OA
ATOM     59  O   UNL A   1      39.982  21.805  25.878  1.00  0.00    -0.744 OA
ENDBRANCH  52  56
ENDBRANCH  25  49
BRANCH  37  60
ATOM     60  C   UNL A   1      45.215  30.637  28.857  1.00  0.00     0.023 A 
ATOM     61  C   UNL A   1      46.519  31.058  28.501  1.00  0.00     0.031 A 
ATOM     62  C   UNL A   1      44.149  31.080  28.053  1.00  0.00     0.131 A 
ATOM     63  C   UNL A   1      46.710  31.896  27.382  1.00  0.00     0.055 A 
ATOM     64  C   UNL A   1      44.344  31.889  26.935  1.00  0.00     0.041 A 
ATOM     65  F   UNL A   1      42.890  30.694  28.320  1.00  0.00    -0.206 F 
ATOM     66  C   UNL A   1      45.626  32.305  26.598  1.00  0.00     0.022 A 
BRANCH  63  67
ATOM     67  S   UNL A   1      48.375  32.483  26.922  1.00  0.00     0.124 S 
ATOM     68  O   UNL A   1      48.882  33.073  28.155  1.00  0.00    -0.237 OA
ATOM     69  O   UNL A   1      49.032  31.256  26.480  1.00  0.00    -0.237 OA
ATOM     70  O   UNL A   1      48.112  33.447  25.851  1.00  0.00    -0.744 OA
ENDBRANCH  63  67
ENDBRANCH  37  60
ENDBRANCH  11  12
ENDBRANCH   4   6
ENDBRANCH   3   4
ENDBRANCH   2   3
ENDBRANCH   1   2
BRANCH   1  71
ATOM     71  O   UNL A   1      32.751  28.943  26.036  1.00  0.00    -0.374 OA
BRANCH  71  72
ATOM     72  C   UNL A   1      32.372  29.245  24.688  1.00  0.00     0.202 C 
BRANCH  72  73
ATOM     73  C   UNL A   1      31.433  28.279  23.963  1.00  0.00     0.261 C 
BRANCH  73  74
ATOM     74  O   UNL A   1      31.196  27.092  24.741  1.00  0.00    -0.460 OA
BRANCH  74  75
ATOM     75  C   UNL A   1      30.661  26.020  24.093  1.00  0.00     0.342 C 
ATOM     76  O   UNL A   1      29.518  25.908  23.710  1.00  0.00    -0.246 OA
BRANCH  75  77
ATOM     77  C   UNL A   1      31.660  24.995  23.870  1.00  0.00     0.121 A 
ATOM     78  C   UNL A   1      32.504  24.830  22.729  1.00  0.00     0.181 A 
ATOM     79  C   UNL A   1      31.972  23.938  24.720  1.00  0.00     0.145 A 
ATOM     80  N   UNL A   1      33.342  23.796  22.923  1.00  0.00    -0.162 NA
ATOM     81  N   UNL A   1      32.859  23.159  24.008  1.00  0.00    -0.229 N 
BRANCH  78  82
ATOM     82  C   UNL A   1      32.570  25.635  21.453  1.00  0.00     0.436 C 
ATOM     83  F   UNL A   1      32.856  24.862  20.373  1.00  0.00    -0.164 F 
ATOM     84  F   UNL A   1      31.393  26.264  21.187  1.00  0.00    -0.164 F 
ATOM     85  F   UNL A   1      33.514  26.608  21.488  1.00  0.00    -0.164 F 
ENDBRANCH  78  82
BRANCH  79  86
ATOM     86  C   UNL A   1      31.549  23.522  26.083  1.00  0.00     0.365 C 
ATOM     87  F   UNL A   1      31.016  24.582  26.748  1.00  0.00    -0.181 F 
ATOM     88  F   UNL A   1      30.561  22.589  26.010  1.00  0.00    -0.181 F 
ATOM     89  Cl  UNL A   1      32.814  22.854  27.119  1.00  0.00    -0.040 Cl
ENDBRANCH  79  86
BRANCH  81  90
ATOM     90  C   UNL A   1      33.209  21.805  24.198  1.00  0.00     0.065 A 
ATOM     91  C   UNL A   1      32.244  20.813  23.996  1.00  0.00     0.028 A 
ATOM     92  C   UNL A   1      34.496  21.469  24.632  1.00  0.00     0.028 A 
ATOM     93  C   UNL A   1      32.607  19.474  24.135  1.00  0.00     0.002 A 
ATOM     94  C   UNL A   1      34.844  20.130  24.789  1.00  0.00     0.002 A 
ATOM     95  C   UNL A   1      33.906  19.135  24.520  1.00  0.00     0.000 A 
ENDBRANCH  81  90
ENDBRANCH  75  77
ENDBRANCH  74  75
ENDBRANCH  73  74
ENDBRANCH  72  73
ENDBRANCH  71  72
ENDBRANCH   1  71
TORSDOF 20
ENDMDL
MODEL 2
REMARK VINA RESULT:     -11.7      1.706      2.334
REMARK SMILES O=C(OCCOCCOC(=O)c1c(C(F)(F)F)nn(-c2ccccc2)c1C(F)(F)Cl)c1ccc(-c2c3nc(c(-c4cc(S(=O)(=O)[O-])ccc4F)c4ccc([nH]4)c(-c4cc(S(=O)(=O)[O-])ccc4F)c4nc(c(-c5cc(S(=O)(=O)[O-])ccc5F)c5ccc2[nH]5)C=C4)C=C3)cc1
REMARK SMILES IDX 5 1 4 2 3 3 2 4 1 5 31 6 32 7 93 8 33 9 92 10 34 11 35 12
REMARK SMILES IDX 36 13 86 14 37 15 91 16 85 17 87 18 38 19 90 20 84 21 83 22
REMARK SMILES IDX 39 24 71 25 51 26 70 27 52 28 55 29 69 30 88 31 53 32 54 33
REMARK SMILES IDX 68 35 89 36 56 37 40 38 41 39 49 40 42 41 48 42 50 43 47 44
REMARK SMILES IDX 43 45 44 46 45 47 46 48 72 49 73 50 81 51 74 52 80 53 82 54
REMARK SMILES IDX 79 55 75 56 76 57 77 58 78 59 57 60 58 61 66 62 59 63 65 64
REMARK SMILES IDX 67 65 64 66 60 67 61 68 62 69 63 70 6 71 7 72 8 73 9 74
REMARK SMILES IDX 10 75 11 76 12 77 13 78 26 79 18 80 19 81 14 82 15 83 16 84
REMARK SMILES IDX 17 85 27 86 28 87 29 88 30 89 20 90 21 91 25 92 22 93 24 94
REMARK SMILES IDX 23 95
REMARK H PARENT 87 23 55 34
REMARK Flexibility Score: inf
ROOT
ATOM      1  C   UNL A   1      32.325  29.541  25.993  1.00  0.00     0.202 C 
ENDROOT
BRANCH   1   2
ATOM      2  C   UNL A   1      32.902  30.378  27.140  1.00  0.00     0.261 C 
BRANCH   2   3
ATOM      3  O   UNL A   1      34.226  30.841  26.863  1.00  0.00    -0.460 OA
BRANCH   3   4
ATOM      4  C   UNL A   1      35.061  31.510  27.690  1.00  0.00     0.338 C 
ATOM      5  O   UNL A   1      34.809  32.694  27.920  1.00  0.00    -0.246 OA
BRANCH   4   6
ATOM      6  C   UNL A   1      36.250  30.901  28.359  1.00  0.00     0.060 A 
ATOM      7  C   UNL A   1      37.302  31.584  28.966  1.00  0.00     0.016 A 
ATOM      8  C   UNL A   1      36.317  29.496  28.303  1.00  0.00     0.016 A 
ATOM      9  C   UNL A   1      38.488  30.933  29.244  1.00  0.00     0.010 A 
ATOM     10  C   UNL A   1      37.473  28.822  28.663  1.00  0.00     0.010 A 
ATOM     11  C   UNL A   1      38.589  29.560  29.033  1.00  0.00    -0.014 A 
BRANCH  11  12
ATOM     12  C   UNL A   1      39.878  28.946  29.300  1.00  0.00     0.031 A 
ATOM     13  C   UNL A   1      40.224  28.855  30.744  1.00  0.00     0.074 A 
ATOM     14  C   UNL A   1      40.681  28.476  28.325  1.00  0.00     0.049 A 
ATOM     15  N   UNL A   1      41.187  29.445  31.370  1.00  0.00    -0.248 NA
ATOM     16  C   UNL A   1      39.278  28.154  31.627  1.00  0.00     0.031 C 
ATOM     17  C   UNL A   1      40.386  28.304  26.901  1.00  0.00     0.029 A 
ATOM     18  N   UNL A   1      41.933  27.960  28.441  1.00  0.00    -0.354 N 
ATOM     19  C   UNL A   1      41.096  29.031  32.695  1.00  0.00     0.074 A 
ATOM     20  C   UNL A   1      39.822  28.375  32.824  1.00  0.00     0.031 C 
ATOM     21  C   UNL A   1      41.327  27.506  26.345  1.00  0.00     0.029 A 
ATOM     22  C   UNL A   1      42.360  27.241  27.332  1.00  0.00     0.049 A 
ATOM     23  H   UNL A   1      42.490  28.086  29.242  1.00  0.00     0.167 HD
ATOM     24  C   UNL A   1      42.167  29.085  33.533  1.00  0.00     0.034 A 
ATOM     25  C   UNL A   1      43.450  26.430  27.259  1.00  0.00     0.034 A 
ATOM     26  C   UNL A   1      43.151  30.031  33.064  1.00  0.00     0.049 A 
ATOM     27  C   UNL A   1      44.379  26.868  28.333  1.00  0.00     0.074 A 
ATOM     28  C   UNL A   1      43.132  31.391  32.824  1.00  0.00     0.029 A 
ATOM     29  N   UNL A   1      44.251  29.556  32.387  1.00  0.00    -0.354 N 
ATOM     30  N   UNL A   1      44.960  28.038  28.338  1.00  0.00    -0.248 NA
ATOM     31  C   UNL A   1      44.269  26.229  29.636  1.00  0.00     0.031 C 
ATOM     32  C   UNL A   1      43.875  31.559  31.618  1.00  0.00     0.029 A 
ATOM     33  C   UNL A   1      44.375  30.310  31.244  1.00  0.00     0.049 A 
ATOM     34  H   UNL A   1      44.838  28.817  32.667  1.00  0.00     0.167 HD
ATOM     35  C   UNL A   1      44.894  28.469  29.654  1.00  0.00     0.074 A 
ATOM     36  C   UNL A   1      44.537  27.277  30.423  1.00  0.00     0.031 C 
ATOM     37  C   UNL A   1      44.859  29.797  29.974  1.00  0.00     0.034 A 
BRANCH  24  38
ATOM     38  C   UNL A   1      42.463  28.050  34.593  1.00  0.00     0.023 A 
ATOM     39  C   UNL A   1      43.174  26.895  34.212  1.00  0.00     0.031 A 
ATOM     40  C   UNL A   1      41.849  27.999  35.867  1.00  0.00     0.131 A 
ATOM     41  C   UNL A   1      43.182  25.749  35.028  1.00  0.00     0.055 A 
ATOM     42  C   UNL A   1      41.914  26.882  36.702  1.00  0.00     0.041 A 
ATOM     43  F   UNL A   1      41.071  28.982  36.336  1.00  0.00    -0.206 F 
ATOM     44  C   UNL A   1      42.558  25.737  36.273  1.00  0.00     0.022 A 
BRANCH  41  45
ATOM     45  S   UNL A   1      43.871  24.212  34.361  1.00  0.00     0.124 S 
ATOM     46  O   UNL A   1      45.031  24.007  35.220  1.00  0.00    -0.237 OA
ATOM     47  O   UNL A   1      42.760  23.282  34.545  1.00  0.00    -0.237 OA
ATOM     48  O   UNL A   1      44.175  24.552  32.973  1.00  0.00    -0.744 OA
ENDBRANCH  41  45
ENDBRANCH  24  38
BRANCH  25  49
ATOM     49  C   UNL A   1      43.507  25.095  26.601  1.00  0.00     0.023 A 
ATOM     50  C   UNL A   1      42.737  23.991  27.025  1.00  0.00     0.031 A 
ATOM     51  C   UNL A   1      44.176  24.959  25.361  1.00  0.00     0.131 A 
ATOM     52  C   UNL A   1      42.668  22.821  26.228  1.00  0.00     0.055 A 
ATOM     53  C   UNL A   1      44.106  23.803  24.581  1.00  0.00     0.041 A 
ATOM     54  F   UNL A   1      44.858  25.983  24.823  1.00  0.00    -0.206 F 
ATOM     55  C   UNL A   1      43.344  22.730  25.009  1.00  0.00     0.022 A 
BRANCH  52  56
ATOM     56  S   UNL A   1      41.623  21.414  26.732  1.00  0.00     0.124 S 
ATOM     57  O   UNL A   1      41.263  21.770  28.099  1.00  0.00    -0.237 OA
ATOM     58  O   UNL A   1      40.550  21.453  25.745  1.00  0.00    -0.237 OA
ATOM     59  O   UNL A   1      42.519  20.262  26.614  1.00  0.00    -0.744 OA
ENDBRANCH  52  56
ENDBRANCH  25  49
BRANCH  37  60
ATOM     60  C   UNL A   1      45.141  30.816  28.885  1.00  0.00     0.023 A 
ATOM     61  C   UNL A   1      46.429  31.273  28.513  1.00  0.00     0.031 A 
ATOM     62  C   UNL A   1      44.052  31.236  28.100  1.00  0.00     0.131 A 
ATOM     63  C   UNL A   1      46.581  32.122  27.396  1.00  0.00     0.055 A 
ATOM     64  C   UNL A   1      44.210  32.057  26.984  1.00  0.00     0.041 A 
ATOM     65  F   UNL A   1      42.808  30.816  28.383  1.00  0.00    -0.206 F 
ATOM     66  C   UNL A   1      45.475  32.508  26.631  1.00  0.00     0.022 A 
BRANCH  63  67
ATOM     67  S   UNL A   1      48.223  32.755  26.916  1.00  0.00     0.124 S 
ATOM     68  O   UNL A   1      48.949  31.556  26.519  1.00  0.00    -0.237 OA
ATOM     69  O   UNL A   1      47.899  33.694  25.844  1.00  0.00    -0.237 OA
ATOM     70  O   UNL A   1      48.716  33.387  28.143  1.00  0.00    -0.744 OA
ENDBRANCH  63  67
ENDBRANCH  37  60
ENDBRANCH  11  12
ENDBRANCH   4   6
ENDBRANCH   3   4
ENDBRANCH   2   3
ENDBRANCH   1   2
BRANCH   1  71
ATOM     71  O   UNL A   1      33.194  28.713  25.230  1.00  0.00    -0.374 OA
BRANCH  71  72
ATOM     72  C   UNL A   1      33.012  27.294  25.277  1.00  0.00     0.202 C 
BRANCH  72  73
ATOM     73  C   UNL A   1      33.683  26.438  24.200  1.00  0.00     0.261 C 
BRANCH  73  74
ATOM     74  O   UNL A   1      34.072  25.152  24.716  1.00  0.00    -0.460 OA
BRANCH  74  75
ATOM     75  C   UNL A   1      34.325  24.168  23.809  1.00  0.00     0.342 C 
ATOM     76  O   UNL A   1      34.444  24.307  22.612  1.00  0.00    -0.246 OA
BRANCH  75  77
ATOM     77  C   UNL A   1      34.479  22.885  24.462  1.00  0.00     0.121 A 
ATOM     78  C   UNL A   1      35.597  22.416  25.218  1.00  0.00     0.181 A 
ATOM     79  C   UNL A   1      33.570  21.831  24.451  1.00  0.00     0.145 A 
ATOM     80  N   UNL A   1      35.337  21.194  25.715  1.00  0.00    -0.162 NA
ATOM     81  N   UNL A   1      34.227  20.788  25.068  1.00  0.00    -0.229 N 
BRANCH  78  82
ATOM     82  C   UNL A   1      36.913  23.095  25.514  1.00  0.00     0.436 C 
ATOM     83  F   UNL A   1      36.754  24.218  26.262  1.00  0.00    -0.164 F 
ATOM     84  F   UNL A   1      37.762  22.283  26.199  1.00  0.00    -0.164 F 
ATOM     85  F   UNL A   1      37.579  23.472  24.395  1.00  0.00    -0.164 F 
ENDBRANCH  78  82
BRANCH  79  86
ATOM     86  C   UNL A   1      32.193  21.634  23.927  1.00  0.00     0.365 C 
ATOM     87  F   UNL A   1      31.380  21.173  24.917  1.00  0.00    -0.181 F 
ATOM     88  F   UNL A   1      31.662  22.821  23.527  1.00  0.00    -0.181 F 
ATOM     89  Cl  UNL A   1      32.030  20.512  22.572  1.00  0.00    -0.040 Cl
ENDBRANCH  79  86
BRANCH  81  90
ATOM     90  C   UNL A   1      33.959  19.404  25.005  1.00  0.00     0.065 A 
ATOM     91  C   UNL A   1      34.771  18.585  24.215  1.00  0.00     0.028 A 
ATOM     92  C   UNL A   1      32.862  18.871  25.690  1.00  0.00     0.028 A 
ATOM     93  C   UNL A   1      34.536  17.210  24.195  1.00  0.00     0.002 A 
ATOM     94  C   UNL A   1      32.621  17.500  25.647  1.00  0.00     0.002 A 
ATOM     95  C   UNL A   1      33.470  16.670  24.918  1.00  0.00     0.000 A 
ENDBRANCH  81  90
ENDBRANCH  75  77
ENDBRANCH  74  75
ENDBRANCH  73  74
ENDBRANCH  72  73
ENDBRANCH  71  72
ENDBRANCH   1  71
TORSDOF 20
ENDMDL
MODEL 3
REMARK VINA RESULT:     -11.6      2.644      7.447
REMARK SMILES O=C(OCCOCCOC(=O)c1c(C(F)(F)F)nn(-c2ccccc2)c1C(F)(F)Cl)c1ccc(-c2c3nc(c(-c4cc(S(=O)(=O)[O-])ccc4F)c4ccc([nH]4)c(-c4cc(S(=O)(=O)[O-])ccc4F)c4nc(c(-c5cc(S(=O)(=O)[O-])ccc5F)c5ccc2[nH]5)C=C4)C=C3)cc1
REMARK SMILES IDX 5 1 4 2 3 3 2 4 1 5 31 6 32 7 93 8 33 9 92 10 34 11 35 12
REMARK SMILES IDX 36 13 86 14 37 15 91 16 85 17 87 18 38 19 90 20 84 21 83 22
REMARK SMILES IDX 39 24 71 25 51 26 70 27 52 28 55 29 69 30 88 31 53 32 54 33
REMARK SMILES IDX 68 35 89 36 56 37 40 38 41 39 49 40 42 41 48 42 50 43 47 44
REMARK SMILES IDX 43 45 44 46 45 47 46 48 72 49 73 50 81 51 74 52 80 53 82 54
REMARK SMILES IDX 79 55 75 56 76 57 77 58 78 59 57 60 58 61 66 62 59 63 65 64
REMARK SMILES IDX 67 65 64 66 60 67 61 68 62 69 63 70 6 71 7 72 8 73 9 74
REMARK SMILES IDX 10 75 11 76 12 77 13 78 26 79 18 80 19 81 14 82 15 83 16 84
REMARK SMILES IDX 17 85 27 86 28 87 29 88 30 89 20 90 21 91 25 92 22 93 24 94
REMARK SMILES IDX 23 95
REMARK H PARENT 87 23 55 34
REMARK Flexibility Score: inf
ROOT
ATOM      1  C   UNL A   1      33.000  29.861  27.104  1.00  0.00     0.202 C 
ENDROOT
BRANCH   1   2
ATOM      2  C   UNL A   1      34.276  30.602  27.519  1.00  0.00     0.261 C 
BRANCH   2   3
ATOM      3  O   UNL A   1      35.415  29.740  27.569  1.00  0.00    -0.460 OA
BRANCH   3   4
ATOM      4  C   UNL A   1      36.382  29.696  28.513  1.00  0.00     0.338 C 
ATOM      5  O   UNL A   1      36.156  30.256  29.587  1.00  0.00    -0.246 OA
BRANCH   4   6
ATOM      6  C   UNL A   1      37.691  28.997  28.345  1.00  0.00     0.060 A 
ATOM      7  C   UNL A   1      38.210  27.996  29.165  1.00  0.00     0.016 A 
ATOM      8  C   UNL A   1      38.486  29.455  27.278  1.00  0.00     0.016 A 
ATOM      9  C   UNL A   1      39.551  27.672  29.108  1.00  0.00     0.010 A 
ATOM     10  C   UNL A   1      39.811  29.069  27.157  1.00  0.00     0.010 A 
ATOM     11  C   UNL A   1      40.362  28.258  28.139  1.00  0.00    -0.014 A 
BRANCH  11  12
ATOM     12  C   UNL A   1      41.773  27.911  28.164  1.00  0.00     0.031 A 
ATOM     13  C   UNL A   1      42.096  26.622  27.494  1.00  0.00     0.074 A 
ATOM     14  C   UNL A   1      42.711  28.700  28.723  1.00  0.00     0.049 A 
ATOM     15  N   UNL A   1      42.562  25.543  28.029  1.00  0.00    -0.248 NA
ATOM     16  C   UNL A   1      41.690  26.465  26.089  1.00  0.00     0.031 C 
ATOM     17  C   UNL A   1      42.577  30.070  29.218  1.00  0.00     0.029 A 
ATOM     18  N   UNL A   1      44.038  28.448  28.880  1.00  0.00    -0.354 N 
ATOM     19  C   UNL A   1      42.703  24.628  26.990  1.00  0.00     0.074 A 
ATOM     20  C   UNL A   1      42.007  25.189  25.864  1.00  0.00     0.031 C 
ATOM     21  C   UNL A   1      43.807  30.606  29.388  1.00  0.00     0.029 A 
ATOM     22  C   UNL A   1      44.804  29.573  29.158  1.00  0.00     0.049 A 
ATOM     23  H   UNL A   1      44.423  27.546  28.803  1.00  0.00     0.167 HD
ATOM     24  C   UNL A   1      43.555  23.570  27.084  1.00  0.00     0.034 A 
ATOM     25  C   UNL A   1      46.161  29.660  29.131  1.00  0.00     0.034 A 
ATOM     26  C   UNL A   1      43.853  23.258  28.461  1.00  0.00     0.049 A 
ATOM     27  C   UNL A   1      46.679  28.278  29.304  1.00  0.00     0.074 A 
ATOM     28  C   UNL A   1      43.084  22.874  29.543  1.00  0.00     0.029 A 
ATOM     29  N   UNL A   1      45.039  23.707  28.997  1.00  0.00    -0.354 N 
ATOM     30  N   UNL A   1      46.512  27.588  30.401  1.00  0.00    -0.248 NA
ATOM     31  C   UNL A   1      46.930  27.485  28.109  1.00  0.00     0.031 C 
ATOM     32  C   UNL A   1      43.621  23.598  30.648  1.00  0.00     0.029 A 
ATOM     33  C   UNL A   1      44.735  24.310  30.195  1.00  0.00     0.049 A 
ATOM     34  H   UNL A   1      45.934  23.615  28.598  1.00  0.00     0.167 HD
ATOM     35  C   UNL A   1      46.205  26.304  29.976  1.00  0.00     0.074 A 
ATOM     36  C   UNL A   1      46.562  26.280  28.558  1.00  0.00     0.031 C 
ATOM     37  C   UNL A   1      45.435  25.464  30.731  1.00  0.00     0.034 A 
BRANCH  24  38
ATOM     38  C   UNL A   1      44.366  23.034  25.926  1.00  0.00     0.023 A 
ATOM     39  C   UNL A   1      44.328  21.648  25.677  1.00  0.00     0.031 A 
ATOM     40  C   UNL A   1      45.379  23.752  25.248  1.00  0.00     0.131 A 
ATOM     41  C   UNL A   1      45.302  21.033  24.868  1.00  0.00     0.055 A 
ATOM     42  C   UNL A   1      46.304  23.147  24.395  1.00  0.00     0.041 A 
ATOM     43  F   UNL A   1      45.596  25.058  25.445  1.00  0.00    -0.206 F 
ATOM     44  C   UNL A   1      46.288  21.775  24.224  1.00  0.00     0.022 A 
BRANCH  41  45
ATOM     45  S   UNL A   1      45.368  19.224  24.813  1.00  0.00     0.124 S 
ATOM     46  O   UNL A   1      46.657  18.954  25.438  1.00  0.00    -0.237 OA
ATOM     47  O   UNL A   1      44.185  18.858  25.586  1.00  0.00    -0.237 OA
ATOM     48  O   UNL A   1      45.294  18.926  23.384  1.00  0.00    -0.744 OA
ENDBRANCH  41  45
ENDBRANCH  24  38
BRANCH  25  49
ATOM     49  C   UNL A   1      46.956  30.783  28.561  1.00  0.00     0.023 A 
ATOM     50  C   UNL A   1      46.438  31.698  27.620  1.00  0.00     0.031 A 
ATOM     51  C   UNL A   1      48.209  31.109  29.135  1.00  0.00     0.131 A 
ATOM     52  C   UNL A   1      47.166  32.867  27.286  1.00  0.00     0.055 A 
ATOM     53  C   UNL A   1      48.922  32.262  28.800  1.00  0.00     0.041 A 
ATOM     54  F   UNL A   1      48.745  30.354  30.107  1.00  0.00    -0.206 F 
ATOM     55  C   UNL A   1      48.399  33.151  27.878  1.00  0.00     0.022 A 
BRANCH  52  56
ATOM     56  S   UNL A   1      46.476  34.090  26.123  1.00  0.00     0.124 S 
ATOM     57  O   UNL A   1      47.655  34.507  25.376  1.00  0.00    -0.237 OA
ATOM     58  O   UNL A   1      45.487  33.305  25.392  1.00  0.00    -0.237 OA
ATOM     59  O   UNL A   1      45.911  35.117  27.001  1.00  0.00    -0.744 OA
ENDBRANCH  52  56
ENDBRANCH  25  49
BRANCH  37  60
ATOM     60  C   UNL A   1      45.115  25.857  32.162  1.00  0.00     0.023 A 
ATOM     61  C   UNL A   1      43.926  26.501  32.582  1.00  0.00     0.031 A 
ATOM     62  C   UNL A   1      46.008  25.430  33.161  1.00  0.00     0.131 A 
ATOM     63  C   UNL A   1      43.678  26.699  33.956  1.00  0.00     0.055 A 
ATOM     64  C   UNL A   1      45.749  25.608  34.519  1.00  0.00     0.041 A 
ATOM     65  F   UNL A   1      47.141  24.788  32.831  1.00  0.00    -0.206 F 
ATOM     66  C   UNL A   1      44.583  26.248  34.922  1.00  0.00     0.022 A 
BRANCH  63  67
ATOM     67  S   UNL A   1      42.171  27.558  34.523  1.00  0.00     0.124 S 
ATOM     68  O   UNL A   1      41.312  26.475  34.984  1.00  0.00    -0.237 OA
ATOM     69  O   UNL A   1      42.687  28.452  35.558  1.00  0.00    -0.237 OA
ATOM     70  O   UNL A   1      41.695  28.241  33.318  1.00  0.00    -0.744 OA
ENDBRANCH  63  67
ENDBRANCH  37  60
ENDBRANCH  11  12
ENDBRANCH   4   6
ENDBRANCH   3   4
ENDBRANCH   2   3
ENDBRANCH   1   2
BRANCH   1  71
ATOM     71  O   UNL A   1      33.047  28.957  26.008  1.00  0.00    -0.374 OA
BRANCH  71  72
ATOM     72  C   UNL A   1      32.151  29.157  24.909  1.00  0.00     0.202 C 
BRANCH  72  73
ATOM     73  C   UNL A   1      30.819  28.404  24.910  1.00  0.00     0.261 C 
BRANCH  73  74
ATOM     74  O   UNL A   1      30.937  27.127  25.564  1.00  0.00    -0.460 OA
BRANCH  74  75
ATOM     75  C   UNL A   1      30.520  26.032  24.870  1.00  0.00     0.342 C 
ATOM     76  O   UNL A   1      29.476  25.917  24.268  1.00  0.00    -0.246 OA
BRANCH  75  77
ATOM     77  C   UNL A   1      31.520  24.984  24.901  1.00  0.00     0.121 A 
ATOM     78  C   UNL A   1      31.485  23.763  25.641  1.00  0.00     0.181 A 
ATOM     79  C   UNL A   1      32.742  24.981  24.234  1.00  0.00     0.145 A 
ATOM     80  N   UNL A   1      32.572  23.023  25.359  1.00  0.00    -0.162 NA
ATOM     81  N   UNL A   1      33.396  23.860  24.698  1.00  0.00    -0.229 N 
BRANCH  78  82
ATOM     82  C   UNL A   1      30.439  23.246  26.599  1.00  0.00     0.436 C 
ATOM     83  F   UNL A   1      29.775  22.170  26.103  1.00  0.00    -0.164 F 
ATOM     84  F   UNL A   1      30.981  22.861  27.786  1.00  0.00    -0.164 F 
ATOM     85  F   UNL A   1      29.495  24.171  26.902  1.00  0.00    -0.164 F 
ENDBRANCH  78  82
BRANCH  79  86
ATOM     86  C   UNL A   1      33.409  25.876  23.253  1.00  0.00     0.365 C 
ATOM     87  F   UNL A   1      34.203  26.770  23.904  1.00  0.00    -0.181 F 
ATOM     88  F   UNL A   1      34.234  25.161  22.442  1.00  0.00    -0.181 F 
ATOM     89  Cl  UNL A   1      32.340  26.814  22.205  1.00  0.00    -0.040 Cl
ENDBRANCH  79  86
BRANCH  81  90
ATOM     90  C   UNL A   1      34.775  23.557  24.672  1.00  0.00     0.065 A 
ATOM     91  C   UNL A   1      35.259  22.649  23.726  1.00  0.00     0.028 A 
ATOM     92  C   UNL A   1      35.634  24.126  25.619  1.00  0.00     0.028 A 
ATOM     93  C   UNL A   1      36.628  22.391  23.670  1.00  0.00     0.002 A 
ATOM     94  C   UNL A   1      36.997  23.846  25.569  1.00  0.00     0.002 A 
ATOM     95  C   UNL A   1      37.494  22.997  24.582  1.00  0.00     0.000 A 
ENDBRANCH  81  90
ENDBRANCH  75  77
ENDBRANCH  74  75
ENDBRANCH  73  74
ENDBRANCH  72  73
ENDBRANCH  71  72
ENDBRANCH   1  71
TORSDOF 20
ENDMDL
