MODEL 1
REMARK VINA RESULT:     -10.6      0.000      0.000
REMARK SMILES Cc1cc(NC(=O)CC2(CC(=O)OCCOCCOC(=O)c3ccc(-c4c5nc(c(-c6cc(S(=O)(=O)[O-])ccc6F)c6ccc([nH]6)c(-c6cc(S(=O)(=O)[O-])ccc6F)c6nc(c(-c7cc(S(=O)(=O)[O-])ccc7F)c7ccc4[nH]7)C=C6)C=C5)cc3)CCCC2)ccn1
REMARK SMILES IDX 15 1 14 2 13 3 11 4 12 5 10 6 9 7 85 8 88 9 86 10 87 11 8 12
REMARK SMILES IDX 6 13 5 14 7 16 4 17 1 18 2 19 3 20 91 21 90 22 89 23 16 24
REMARK SMILES IDX 17 25 18 26 19 27 20 28 21 29 22 30 23 31 84 32 24 33 83 34
REMARK SMILES IDX 25 35 26 36 27 37 77 38 28 39 82 40 76 41 78 42 29 43 81 44
REMARK SMILES IDX 75 45 74 46 30 48 62 49 42 50 61 51 43 52 46 53 60 54 79 55
REMARK SMILES IDX 44 56 45 57 59 59 80 60 47 61 31 62 32 63 40 64 33 65 39 66
REMARK SMILES IDX 41 67 38 68 34 69 35 70 36 71 37 72 63 73 64 74 72 75 65 76
REMARK SMILES IDX 71 77 73 78 70 79 66 80 67 81 68 82 69 83 48 84 49 85 57 86
REMARK SMILES IDX 50 87 56 88 58 89 55 90 51 91 52 92 53 93 54 94
REMARK H PARENT 5 15 78 47 46 58
REMARK Flexibility Score: inf
ROOT
ATOM      1  C   UNL A   1      32.545  30.047  25.765  1.00  0.00     0.202 C 
ENDROOT
BRANCH   1   2
ATOM      2  C   UNL A   1      33.197  29.131  24.720  1.00  0.00     0.261 C 
BRANCH   2   3
ATOM      3  O   UNL A   1      33.967  28.059  25.315  1.00  0.00    -0.463 OA
BRANCH   3   4
ATOM      4  C   UNL A   1      33.310  26.891  25.532  1.00  0.00     0.306 C 
ATOM      5  O   UNL A   1      32.787  26.573  26.593  1.00  0.00    -0.252 OA
BRANCH   4   6
ATOM      6  C   UNL A   1      33.381  25.939  24.352  1.00  0.00     0.130 C 
BRANCH   6   7
ATOM      7  C   UNL A   1      32.149  25.101  23.887  1.00  0.00    -0.011 C 
ATOM      8  C   UNL A   1      32.048  25.282  22.356  1.00  0.00     0.008 C 
ATOM      9  C   UNL A   1      30.796  25.713  24.320  1.00  0.00     0.008 C 
ATOM     10  C   UNL A   1      31.375  26.635  22.137  1.00  0.00     0.001 C 
ATOM     11  C   UNL A   1      30.529  26.883  23.380  1.00  0.00     0.001 C 
BRANCH   7  12
ATOM     12  C   UNL A   1      32.217  23.625  24.358  1.00  0.00     0.108 C 
BRANCH  12  13
ATOM     13  C   UNL A   1      32.459  23.293  25.814  1.00  0.00     0.224 C 
ATOM     14  N   UNL A   1      33.665  22.920  26.317  1.00  0.00    -0.326 N 
ATOM     15  H   UNL A   1      33.630  22.681  27.272  1.00  0.00     0.169 HD
ATOM     16  O   UNL A   1      31.522  23.373  26.618  1.00  0.00    -0.275 OA
BRANCH  14  17
ATOM     17  C   UNL A   1      34.949  22.804  25.764  1.00  0.00     0.044 A 
ATOM     18  C   UNL A   1      37.143  19.856  24.896  1.00  0.00     0.067 C 
ATOM     19  C   UNL A   1      36.659  21.261  25.081  1.00  0.00     0.039 A 
ATOM     20  C   UNL A   1      35.335  21.508  25.422  1.00  0.00     0.049 A 
ATOM     21  N   UNL A   1      37.584  22.244  25.011  1.00  0.00    -0.261 NA
ATOM     22  C   UNL A   1      37.169  23.502  25.265  1.00  0.00     0.113 A 
ATOM     23  C   UNL A   1      35.872  23.833  25.627  1.00  0.00     0.046 A 
ENDBRANCH  14  17
ENDBRANCH  12  13
ENDBRANCH   7  12
ENDBRANCH   6   7
ENDBRANCH   4   6
ENDBRANCH   3   4
ENDBRANCH   2   3
ENDBRANCH   1   2
BRANCH   1  24
ATOM     24  O   UNL A   1      31.352  30.728  25.366  1.00  0.00    -0.374 OA
BRANCH  24  25
ATOM     25  C   UNL A   1      30.830  31.654  26.311  1.00  0.00     0.202 C 
BRANCH  25  26
ATOM     26  C   UNL A   1      31.657  32.922  26.552  1.00  0.00     0.261 C 
BRANCH  26  27
ATOM     27  O   UNL A   1      32.331  32.876  27.823  1.00  0.00    -0.460 OA
BRANCH  27  28
ATOM     28  C   UNL A   1      33.347  33.765  27.937  1.00  0.00     0.338 C 
ATOM     29  O   UNL A   1      33.248  34.985  27.987  1.00  0.00    -0.246 OA
BRANCH  28  30
ATOM     30  C   UNL A   1      34.618  33.068  28.200  1.00  0.00     0.060 A 
ATOM     31  C   UNL A   1      34.527  31.736  28.624  1.00  0.00     0.016 A 
ATOM     32  C   UNL A   1      35.860  33.703  28.114  1.00  0.00     0.016 A 
ATOM     33  C   UNL A   1      35.667  31.054  29.032  1.00  0.00     0.010 A 
ATOM     34  C   UNL A   1      37.007  33.016  28.532  1.00  0.00     0.010 A 
ATOM     35  C   UNL A   1      36.908  31.704  29.035  1.00  0.00    -0.014 A 
BRANCH  35  36
ATOM     36  C   UNL A   1      38.047  31.058  29.735  1.00  0.00     0.031 A 
ATOM     37  C   UNL A   1      38.294  31.400  31.181  1.00  0.00     0.074 A 
ATOM     38  C   UNL A   1      38.791  30.120  29.122  1.00  0.00     0.049 A 
ATOM     39  N   UNL A   1      39.214  30.953  31.996  1.00  0.00    -0.248 NA
ATOM     40  C   UNL A   1      37.377  32.376  31.788  1.00  0.00     0.031 C 
ATOM     41  C   UNL A   1      38.601  29.662  27.746  1.00  0.00     0.029 A 
ATOM     42  N   UNL A   1      39.850  29.377  29.580  1.00  0.00    -0.354 N 
ATOM     43  C   UNL A   1      38.991  31.596  33.210  1.00  0.00     0.074 A 
ATOM     44  C   UNL A   1      37.874  32.493  33.009  1.00  0.00     0.031 C 
ATOM     45  C   UNL A   1      39.514  28.715  27.473  1.00  0.00     0.029 A 
ATOM     46  C   UNL A   1      40.378  28.528  28.636  1.00  0.00     0.049 A 
ATOM     47  H   UNL A   1      40.198  29.445  30.499  1.00  0.00     0.167 HD
ATOM     48  C   UNL A   1      39.649  31.440  34.386  1.00  0.00     0.034 A 
ATOM     49  C   UNL A   1      41.451  27.712  28.698  1.00  0.00     0.034 A 
ATOM     50  C   UNL A   1      40.766  30.544  34.565  1.00  0.00     0.049 A 
ATOM     51  C   UNL A   1      42.229  27.627  29.989  1.00  0.00     0.074 A 
ATOM     52  C   UNL A   1      41.503  30.303  35.710  1.00  0.00     0.029 A 
ATOM     53  N   UNL A   1      41.315  29.748  33.566  1.00  0.00    -0.354 N 
ATOM     54  N   UNL A   1      42.009  28.242  31.130  1.00  0.00    -0.248 NA
ATOM     55  C   UNL A   1      43.393  26.731  30.006  1.00  0.00     0.031 C 
ATOM     56  C   UNL A   1      42.544  29.426  35.386  1.00  0.00     0.029 A 
ATOM     57  C   UNL A   1      42.404  29.046  34.061  1.00  0.00     0.049 A 
ATOM     58  H   UNL A   1      40.980  29.690  32.643  1.00  0.00     0.167 HD
ATOM     59  C   UNL A   1      42.988  27.779  32.006  1.00  0.00     0.074 A 
ATOM     60  C   UNL A   1      43.789  26.826  31.266  1.00  0.00     0.031 C 
ATOM     61  C   UNL A   1      43.201  28.105  33.308  1.00  0.00     0.034 A 
BRANCH  48  62
ATOM     62  C   UNL A   1      39.214  32.304  35.546  1.00  0.00     0.023 A 
ATOM     63  C   UNL A   1      39.659  33.630  35.696  1.00  0.00     0.031 A 
ATOM     64  C   UNL A   1      38.360  31.783  36.534  1.00  0.00     0.131 A 
ATOM     65  C   UNL A   1      39.306  34.362  36.841  1.00  0.00     0.055 A 
ATOM     66  C   UNL A   1      37.946  32.544  37.629  1.00  0.00     0.041 A 
ATOM     67  F   UNL A   1      37.922  30.516  36.460  1.00  0.00    -0.206 F 
ATOM     68  C   UNL A   1      38.433  33.837  37.795  1.00  0.00     0.022 A 
BRANCH  65  69
ATOM     69  S   UNL A   1      40.125  35.953  37.141  1.00  0.00     0.124 S 
ATOM     70  O   UNL A   1      39.797  36.689  35.922  1.00  0.00    -0.237 OA
ATOM     71  O   UNL A   1      39.476  36.416  38.362  1.00  0.00    -0.237 OA
ATOM     72  O   UNL A   1      41.534  35.592  37.282  1.00  0.00    -0.744 OA
ENDBRANCH  65  69
ENDBRANCH  48  62
BRANCH  49  73
ATOM     73  C   UNL A   1      41.885  26.943  27.495  1.00  0.00     0.023 A 
ATOM     74  C   UNL A   1      41.673  25.558  27.396  1.00  0.00     0.031 A 
ATOM     75  C   UNL A   1      42.571  27.581  26.444  1.00  0.00     0.131 A 
ATOM     76  C   UNL A   1      42.183  24.850  26.295  1.00  0.00     0.055 A 
ATOM     77  C   UNL A   1      43.025  26.880  25.325  1.00  0.00     0.041 A 
ATOM     78  F   UNL A   1      42.805  28.901  26.488  1.00  0.00    -0.206 F 
ATOM     79  C   UNL A   1      42.843  25.503  25.253  1.00  0.00     0.022 A 
BRANCH  76  80
ATOM     80  S   UNL A   1      42.051  23.041  26.290  1.00  0.00     0.124 S 
ATOM     81  O   UNL A   1      40.607  22.849  26.359  1.00  0.00    -0.237 OA
ATOM     82  O   UNL A   1      42.686  22.695  25.022  1.00  0.00    -0.237 OA
ATOM     83  O   UNL A   1      42.792  22.643  27.485  1.00  0.00    -0.744 OA
ENDBRANCH  76  80
ENDBRANCH  49  73
BRANCH  61  84
ATOM     84  C   UNL A   1      44.316  27.383  34.027  1.00  0.00     0.023 A 
ATOM     85  C   UNL A   1      44.079  26.231  34.799  1.00  0.00     0.031 A 
ATOM     86  C   UNL A   1      45.637  27.859  33.938  1.00  0.00     0.131 A 
ATOM     87  C   UNL A   1      45.138  25.629  35.498  1.00  0.00     0.055 A 
ATOM     88  C   UNL A   1      46.696  27.217  34.582  1.00  0.00     0.041 A 
ATOM     89  F   UNL A   1      45.921  28.955  33.217  1.00  0.00    -0.206 F 
ATOM     90  C   UNL A   1      46.446  26.103  35.379  1.00  0.00     0.022 A 
BRANCH  87  91
ATOM     91  S   UNL A   1      44.766  24.272  36.642  1.00  0.00     0.124 S 
ATOM     92  O   UNL A   1      44.217  23.260  35.745  1.00  0.00    -0.237 OA
ATOM     93  O   UNL A   1      46.077  23.975  37.212  1.00  0.00    -0.237 OA
ATOM     94  O   UNL A   1      43.806  24.862  37.573  1.00  0.00    -0.744 OA
ENDBRANCH  87  91
ENDBRANCH  61  84
ENDBRANCH  35  36
ENDBRANCH  28  30
ENDBRANCH  27  28
ENDBRANCH  26  27
ENDBRANCH  25  26
ENDBRANCH  24  25
ENDBRANCH   1  24
TORSDOF 21
ENDMDL
MODEL 2
REMARK VINA RESULT:     -10.5      1.732      2.111
REMARK SMILES Cc1cc(NC(=O)CC2(CC(=O)OCCOCCOC(=O)c3ccc(-c4c5nc(c(-c6cc(S(=O)(=O)[O-])ccc6F)c6ccc([nH]6)c(-c6cc(S(=O)(=O)[O-])ccc6F)c6nc(c(-c7cc(S(=O)(=O)[O-])ccc7F)c7ccc4[nH]7)C=C6)C=C5)cc3)CCCC2)ccn1
REMARK SMILES IDX 15 1 14 2 13 3 11 4 12 5 10 6 9 7 85 8 88 9 86 10 87 11 8 12
REMARK SMILES IDX 6 13 5 14 7 16 4 17 1 18 2 19 3 20 91 21 90 22 89 23 16 24
REMARK SMILES IDX 17 25 18 26 19 27 20 28 21 29 22 30 23 31 84 32 24 33 83 34
REMARK SMILES IDX 25 35 26 36 27 37 77 38 28 39 82 40 76 41 78 42 29 43 81 44
REMARK SMILES IDX 75 45 74 46 30 48 62 49 42 50 61 51 43 52 46 53 60 54 79 55
REMARK SMILES IDX 44 56 45 57 59 59 80 60 47 61 31 62 32 63 40 64 33 65 39 66
REMARK SMILES IDX 41 67 38 68 34 69 35 70 36 71 37 72 63 73 64 74 72 75 65 76
REMARK SMILES IDX 71 77 73 78 70 79 66 80 67 81 68 82 69 83 48 84 49 85 57 86
REMARK SMILES IDX 50 87 56 88 58 89 55 90 51 91 52 92 53 93 54 94
REMARK H PARENT 5 15 78 47 46 58
REMARK Flexibility Score: inf
ROOT
ATOM      1  C   UNL A   1      31.165  30.718  25.353  1.00  0.00     0.202 C 
ENDROOT
BRANCH   1   2
ATOM      2  C   UNL A   1      31.632  29.355  24.826  1.00  0.00     0.261 C 
BRANCH   2   3
ATOM      3  O   UNL A   1      30.914  28.247  25.420  1.00  0.00    -0.463 OA
BRANCH   3   4
ATOM      4  C   UNL A   1      31.627  27.433  26.239  1.00  0.00     0.306 C 
ATOM      5  O   UNL A   1      31.356  27.217  27.414  1.00  0.00    -0.252 OA
BRANCH   4   6
ATOM      6  C   UNL A   1      32.889  26.893  25.592  1.00  0.00     0.130 C 
BRANCH   6   7
ATOM      7  C   UNL A   1      32.990  25.424  25.072  1.00  0.00    -0.011 C 
ATOM      8  C   UNL A   1      34.065  25.426  23.961  1.00  0.00     0.008 C 
ATOM      9  C   UNL A   1      31.756  24.981  24.250  1.00  0.00     0.008 C 
ATOM     10  C   UNL A   1      33.374  25.960  22.709  1.00  0.00     0.001 C 
ATOM     11  C   UNL A   1      31.897  25.625  22.875  1.00  0.00     0.001 C 
BRANCH   7  12
ATOM     12  C   UNL A   1      33.242  24.402  26.209  1.00  0.00     0.108 C 
BRANCH  12  13
ATOM     13  C   UNL A   1      32.144  23.460  26.653  1.00  0.00     0.224 C 
ATOM     14  N   UNL A   1      32.096  22.142  26.327  1.00  0.00    -0.326 N 
ATOM     15  H   UNL A   1      31.281  21.692  26.647  1.00  0.00     0.169 HD
ATOM     16  O   UNL A   1      31.231  23.889  27.369  1.00  0.00    -0.275 OA
BRANCH  14  17
ATOM     17  C   UNL A   1      32.963  21.286  25.630  1.00  0.00     0.044 A 
ATOM     18  C   UNL A   1      32.431  18.150  23.595  1.00  0.00     0.067 C 
ATOM     19  C   UNL A   1      33.099  19.297  24.289  1.00  0.00     0.039 A 
ATOM     20  C   UNL A   1      32.339  20.324  24.835  1.00  0.00     0.049 A 
ATOM     21  N   UNL A   1      34.438  19.224  24.450  1.00  0.00    -0.261 NA
ATOM     22  C   UNL A   1      35.032  20.211  25.152  1.00  0.00     0.113 A 
ATOM     23  C   UNL A   1      34.347  21.262  25.743  1.00  0.00     0.046 A 
ENDBRANCH  14  17
ENDBRANCH  12  13
ENDBRANCH   7  12
ENDBRANCH   6   7
ENDBRANCH   4   6
ENDBRANCH   3   4
ENDBRANCH   2   3
ENDBRANCH   1   2
BRANCH   1  24
ATOM     24  O   UNL A   1      31.640  31.103  26.647  1.00  0.00    -0.374 OA
BRANCH  24  25
ATOM     25  C   UNL A   1      31.651  32.502  26.905  1.00  0.00     0.202 C 
BRANCH  25  26
ATOM     26  C   UNL A   1      32.904  33.059  27.588  1.00  0.00     0.261 C 
BRANCH  26  27
ATOM     27  O   UNL A   1      32.696  34.408  28.046  1.00  0.00    -0.460 OA
BRANCH  27  28
ATOM     28  C   UNL A   1      33.358  34.707  29.190  1.00  0.00     0.338 C 
ATOM     29  O   UNL A   1      32.978  35.460  30.079  1.00  0.00    -0.246 OA
BRANCH  28  30
ATOM     30  C   UNL A   1      34.542  33.845  29.343  1.00  0.00     0.060 A 
ATOM     31  C   UNL A   1      34.368  32.664  30.075  1.00  0.00     0.016 A 
ATOM     32  C   UNL A   1      35.804  34.201  28.859  1.00  0.00     0.016 A 
ATOM     33  C   UNL A   1      35.464  31.869  30.389  1.00  0.00     0.010 A 
ATOM     34  C   UNL A   1      36.909  33.402  29.182  1.00  0.00     0.010 A 
ATOM     35  C   UNL A   1      36.749  32.257  29.986  1.00  0.00    -0.014 A 
BRANCH  35  36
ATOM     36  C   UNL A   1      37.919  31.554  30.571  1.00  0.00     0.031 A 
ATOM     37  C   UNL A   1      38.311  31.861  31.992  1.00  0.00     0.074 A 
ATOM     38  C   UNL A   1      38.565  30.599  29.879  1.00  0.00     0.049 A 
ATOM     39  N   UNL A   1      39.282  31.364  32.713  1.00  0.00    -0.248 NA
ATOM     40  C   UNL A   1      37.494  32.863  32.694  1.00  0.00     0.031 C 
ATOM     41  C   UNL A   1      38.232  30.172  28.520  1.00  0.00     0.029 A 
ATOM     42  N   UNL A   1      39.630  29.806  30.228  1.00  0.00    -0.354 N 
ATOM     43  C   UNL A   1      39.197  31.994  33.951  1.00  0.00     0.074 A 
ATOM     44  C   UNL A   1      38.105  32.939  33.866  1.00  0.00     0.031 C 
ATOM     45  C   UNL A   1      39.076  29.195  28.151  1.00  0.00     0.029 A 
ATOM     46  C   UNL A   1      40.034  28.953  29.228  1.00  0.00     0.049 A 
ATOM     47  H   UNL A   1      40.063  29.844  31.112  1.00  0.00     0.167 HD
ATOM     48  C   UNL A   1      39.953  31.792  35.059  1.00  0.00     0.034 A 
ATOM     49  C   UNL A   1      41.074  28.094  29.180  1.00  0.00     0.034 A 
ATOM     50  C   UNL A   1      41.043  30.849  35.123  1.00  0.00     0.049 A 
ATOM     51  C   UNL A   1      41.962  27.956  30.393  1.00  0.00     0.074 A 
ATOM     52  C   UNL A   1      41.872  30.560  36.192  1.00  0.00     0.029 A 
ATOM     53  N   UNL A   1      41.466  30.050  34.067  1.00  0.00    -0.354 N 
ATOM     54  N   UNL A   1      41.873  28.559  31.557  1.00  0.00    -0.248 NA
ATOM     55  C   UNL A   1      43.084  27.014  30.291  1.00  0.00     0.031 C 
ATOM     56  C   UNL A   1      42.842  29.648  35.762  1.00  0.00     0.029 A 
ATOM     57  C   UNL A   1      42.566  29.296  34.451  1.00  0.00     0.049 A 
ATOM     58  H   UNL A   1      41.046  30.021  33.178  1.00  0.00     0.167 HD
ATOM     59  C   UNL A   1      42.907  28.042  32.334  1.00  0.00     0.074 A 
ATOM     60  C   UNL A   1      43.598  27.072  31.510  1.00  0.00     0.031 C 
ATOM     61  C   UNL A   1      43.251  28.337  33.614  1.00  0.00     0.034 A 
BRANCH  48  62
ATOM     62  C   UNL A   1      39.661  32.653  36.266  1.00  0.00     0.023 A 
ATOM     63  C   UNL A   1      38.817  32.219  37.304  1.00  0.00     0.031 A 
ATOM     64  C   UNL A   1      40.217  33.941  36.367  1.00  0.00     0.131 A 
ATOM     65  C   UNL A   1      38.497  33.091  38.357  1.00  0.00     0.055 A 
ATOM     66  C   UNL A   1      39.961  34.772  37.459  1.00  0.00     0.041 A 
ATOM     67  F   UNL A   1      41.011  34.421  35.395  1.00  0.00    -0.206 F 
ATOM     68  C   UNL A   1      39.084  34.355  38.455  1.00  0.00     0.022 A 
BRANCH  65  69
ATOM     69  S   UNL A   1      37.189  32.608  39.518  1.00  0.00     0.124 S 
ATOM     70  O   UNL A   1      35.995  32.732  38.685  1.00  0.00    -0.237 OA
ATOM     71  O   UNL A   1      37.578  31.251  39.883  1.00  0.00    -0.237 OA
ATOM     72  O   UNL A   1      37.298  33.597  40.588  1.00  0.00    -0.744 OA
ENDBRANCH  65  69
ENDBRANCH  48  62
BRANCH  49  73
ATOM     73  C   UNL A   1      41.364  27.329  27.932  1.00  0.00     0.023 A 
ATOM     74  C   UNL A   1      41.147  25.944  27.855  1.00  0.00     0.031 A 
ATOM     75  C   UNL A   1      41.919  27.972  26.809  1.00  0.00     0.131 A 
ATOM     76  C   UNL A   1      41.524  25.241  26.700  1.00  0.00     0.055 A 
ATOM     77  C   UNL A   1      42.238  27.275  25.642  1.00  0.00     0.041 A 
ATOM     78  F   UNL A   1      42.152  29.293  26.828  1.00  0.00    -0.206 F 
ATOM     79  C   UNL A   1      42.054  25.898  25.588  1.00  0.00     0.022 A 
BRANCH  76  80
ATOM     80  S   UNL A   1      41.398  23.431  26.705  1.00  0.00     0.124 S 
ATOM     81  O   UNL A   1      41.872  23.104  28.045  1.00  0.00    -0.237 OA
ATOM     82  O   UNL A   1      39.975  23.226  26.458  1.00  0.00    -0.237 OA
ATOM     83  O   UNL A   1      42.282  23.026  25.614  1.00  0.00    -0.744 OA
ENDBRANCH  76  80
ENDBRANCH  49  73
BRANCH  61  84
ATOM     84  C   UNL A   1      44.396  27.559  34.218  1.00  0.00     0.023 A 
ATOM     85  C   UNL A   1      44.191  26.356  34.918  1.00  0.00     0.031 A 
ATOM     86  C   UNL A   1      45.715  28.032  34.092  1.00  0.00     0.131 A 
ATOM     87  C   UNL A   1      45.280  25.700  35.514  1.00  0.00     0.055 A 
ATOM     88  C   UNL A   1      46.801  27.340  34.630  1.00  0.00     0.041 A 
ATOM     89  F   UNL A   1      45.971  29.176  33.436  1.00  0.00    -0.206 F 
ATOM     90  C   UNL A   1      46.585  26.174  35.357  1.00  0.00     0.022 A 
BRANCH  87  91
ATOM     91  S   UNL A   1      44.957  24.267  36.577  1.00  0.00     0.124 S 
ATOM     92  O   UNL A   1      44.114  23.437  35.722  1.00  0.00    -0.237 OA
ATOM     93  O   UNL A   1      46.301  23.758  36.833  1.00  0.00    -0.237 OA
ATOM     94  O   UNL A   1      44.284  24.846  37.738  1.00  0.00    -0.744 OA
ENDBRANCH  87  91
ENDBRANCH  61  84
ENDBRANCH  35  36
ENDBRANCH  28  30
ENDBRANCH  27  28
ENDBRANCH  26  27
ENDBRANCH  25  26
ENDBRANCH  24  25
ENDBRANCH   1  24
TORSDOF 21
ENDMDL
MODEL 3
REMARK VINA RESULT:     -10.4      2.989      4.153
REMARK SMILES Cc1cc(NC(=O)CC2(CC(=O)OCCOCCOC(=O)c3ccc(-c4c5nc(c(-c6cc(S(=O)(=O)[O-])ccc6F)c6ccc([nH]6)c(-c6cc(S(=O)(=O)[O-])ccc6F)c6nc(c(-c7cc(S(=O)(=O)[O-])ccc7F)c7ccc4[nH]7)C=C6)C=C5)cc3)CCCC2)ccn1
REMARK SMILES IDX 15 1 14 2 13 3 11 4 12 5 10 6 9 7 85 8 88 9 86 10 87 11 8 12
REMARK SMILES IDX 6 13 5 14 7 16 4 17 1 18 2 19 3 20 91 21 90 22 89 23 16 24
REMARK SMILES IDX 17 25 18 26 19 27 20 28 21 29 22 30 23 31 84 32 24 33 83 34
REMARK SMILES IDX 25 35 26 36 27 37 77 38 28 39 82 40 76 41 78 42 29 43 81 44
REMARK SMILES IDX 75 45 74 46 30 48 62 49 42 50 61 51 43 52 46 53 60 54 79 55
REMARK SMILES IDX 44 56 45 57 59 59 80 60 47 61 31 62 32 63 40 64 33 65 39 66
REMARK SMILES IDX 41 67 38 68 34 69 35 70 36 71 37 72 63 73 64 74 72 75 65 76
REMARK SMILES IDX 71 77 73 78 70 79 66 80 67 81 68 82 69 83 48 84 49 85 57 86
REMARK SMILES IDX 50 87 56 88 58 89 55 90 51 91 52 92 53 93 54 94
REMARK H PARENT 5 15 78 47 46 58
REMARK Flexibility Score: inf
ROOT
ATOM      1  C   UNL A   1      33.633  27.331  22.169  1.00  0.00     0.202 C 
ENDROOT
BRANCH   1   2
ATOM      2  C   UNL A   1      32.823  26.034  22.040  1.00  0.00     0.261 C 
BRANCH   2   3
ATOM      3  O   UNL A   1      33.649  24.884  21.733  1.00  0.00    -0.463 OA
BRANCH   3   4
ATOM      4  C   UNL A   1      33.664  23.888  22.654  1.00  0.00     0.306 C 
ATOM      5  O   UNL A   1      33.003  22.859  22.578  1.00  0.00    -0.252 OA
BRANCH   4   6
ATOM      6  C   UNL A   1      34.503  24.217  23.876  1.00  0.00     0.130 C 
BRANCH   6   7
ATOM      7  C   UNL A   1      34.848  23.147  24.958  1.00  0.00    -0.011 C 
ATOM      8  C   UNL A   1      35.911  23.784  25.882  1.00  0.00     0.008 C 
ATOM      9  C   UNL A   1      35.659  21.954  24.399  1.00  0.00     0.008 C 
ATOM     10  C   UNL A   1      37.240  23.657  25.143  1.00  0.00     0.001 C 
ATOM     11  C   UNL A   1      37.092  22.446  24.229  1.00  0.00     0.001 C 
BRANCH   7  12
ATOM     12  C   UNL A   1      33.593  22.612  25.694  1.00  0.00     0.108 C 
BRANCH  12  13
ATOM     13  C   UNL A   1      33.707  21.466  26.675  1.00  0.00     0.224 C 
ATOM     14  N   UNL A   1      33.403  20.176  26.374  1.00  0.00    -0.326 N 
ATOM     15  H   UNL A   1      33.475  19.570  27.146  1.00  0.00     0.169 HD
ATOM     16  O   UNL A   1      34.112  21.689  27.822  1.00  0.00    -0.275 OA
BRANCH  14  17
ATOM     17  C   UNL A   1      33.010  19.524  25.195  1.00  0.00     0.044 A 
ATOM     18  C   UNL A   1      34.160  16.371  23.465  1.00  0.00     0.067 C 
ATOM     19  C   UNL A   1      33.416  17.636  23.766  1.00  0.00     0.039 A 
ATOM     20  C   UNL A   1      33.566  18.259  24.999  1.00  0.00     0.049 A 
ATOM     21  N   UNL A   1      32.701  18.184  22.760  1.00  0.00    -0.261 NA
ATOM     22  C   UNL A   1      32.102  19.369  23.000  1.00  0.00     0.113 A 
ATOM     23  C   UNL A   1      32.212  20.064  24.194  1.00  0.00     0.046 A 
ENDBRANCH  14  17
ENDBRANCH  12  13
ENDBRANCH   7  12
ENDBRANCH   6   7
ENDBRANCH   4   6
ENDBRANCH   3   4
ENDBRANCH   2   3
ENDBRANCH   1   2
BRANCH   1  24
ATOM     24  O   UNL A   1      33.173  28.280  23.136  1.00  0.00    -0.374 OA
BRANCH  24  25
ATOM     25  C   UNL A   1      33.776  28.188  24.421  1.00  0.00     0.202 C 
BRANCH  25  26
ATOM     26  C   UNL A   1      33.305  29.201  25.470  1.00  0.00     0.261 C 
BRANCH  26  27
ATOM     27  O   UNL A   1      33.980  29.009  26.726  1.00  0.00    -0.460 OA
BRANCH  27  28
ATOM     28  C   UNL A   1      34.347  30.163  27.334  1.00  0.00     0.338 C 
ATOM     29  O   UNL A   1      33.673  31.181  27.437  1.00  0.00    -0.246 OA
BRANCH  28  30
ATOM     30  C   UNL A   1      35.620  29.987  28.054  1.00  0.00     0.060 A 
ATOM     31  C   UNL A   1      36.792  30.129  27.300  1.00  0.00     0.016 A 
ATOM     32  C   UNL A   1      35.682  29.620  29.401  1.00  0.00     0.016 A 
ATOM     33  C   UNL A   1      38.027  29.838  27.868  1.00  0.00     0.010 A 
ATOM     34  C   UNL A   1      36.928  29.321  29.969  1.00  0.00     0.010 A 
ATOM     35  C   UNL A   1      38.099  29.384  29.191  1.00  0.00    -0.014 A 
BRANCH  35  36
ATOM     36  C   UNL A   1      39.381  28.813  29.677  1.00  0.00     0.031 A 
ATOM     37  C   UNL A   1      40.033  29.426  30.889  1.00  0.00     0.074 A 
ATOM     38  C   UNL A   1      39.909  27.717  29.103  1.00  0.00     0.049 A 
ATOM     39  N   UNL A   1      41.140  29.089  31.497  1.00  0.00    -0.248 NA
ATOM     40  C   UNL A   1      39.338  30.572  31.494  1.00  0.00     0.031 C 
ATOM     41  C   UNL A   1      39.331  27.001  27.966  1.00  0.00     0.029 A 
ATOM     42  N   UNL A   1      41.044  27.007  29.405  1.00  0.00    -0.354 N 
ATOM     43  C   UNL A   1      41.278  29.983  32.555  1.00  0.00     0.074 A 
ATOM     44  C   UNL A   1      40.163  30.901  32.477  1.00  0.00     0.031 C 
ATOM     45  C   UNL A   1      40.116  25.953  27.667  1.00  0.00     0.029 A 
ATOM     46  C   UNL A   1      41.272  25.946  28.561  1.00  0.00     0.049 A 
ATOM     47  H   UNL A   1      41.639  27.236  30.155  1.00  0.00     0.167 HD
ATOM     48  C   UNL A   1      42.241  30.024  33.510  1.00  0.00     0.034 A 
ATOM     49  C   UNL A   1      42.307  25.082  28.503  1.00  0.00     0.034 A 
ATOM     50  C   UNL A   1      43.350  29.103  33.568  1.00  0.00     0.049 A 
ATOM     51  C   UNL A   1      43.418  25.207  29.519  1.00  0.00     0.074 A 
ATOM     52  C   UNL A   1      44.379  29.049  34.491  1.00  0.00     0.029 A 
ATOM     53  N   UNL A   1      43.583  28.081  32.656  1.00  0.00    -0.354 N 
ATOM     54  N   UNL A   1      43.539  26.058  30.513  1.00  0.00    -0.248 NA
ATOM     55  C   UNL A   1      44.526  24.250  29.411  1.00  0.00     0.031 C 
ATOM     56  C   UNL A   1      45.273  28.050  34.095  1.00  0.00     0.029 A 
ATOM     57  C   UNL A   1      44.759  27.416  32.975  1.00  0.00     0.049 A 
ATOM     58  H   UNL A   1      43.000  27.859  31.895  1.00  0.00     0.167 HD
ATOM     59  C   UNL A   1      44.719  25.713  31.167  1.00  0.00     0.074 A 
ATOM     60  C   UNL A   1      45.265  24.572  30.462  1.00  0.00     0.031 C 
ATOM     61  C   UNL A   1      45.297  26.284  32.256  1.00  0.00     0.034 A 
BRANCH  48  62
ATOM     62  C   UNL A   1      42.164  31.138  34.527  1.00  0.00     0.023 A 
ATOM     63  C   UNL A   1      42.726  32.405  34.289  1.00  0.00     0.031 A 
ATOM     64  C   UNL A   1      41.540  30.921  35.769  1.00  0.00     0.131 A 
ATOM     65  C   UNL A   1      42.716  33.378  35.302  1.00  0.00     0.055 A 
ATOM     66  C   UNL A   1      41.460  31.920  36.741  1.00  0.00     0.041 A 
ATOM     67  F   UNL A   1      41.007  29.724  36.065  1.00  0.00    -0.206 F 
ATOM     68  C   UNL A   1      42.065  33.152  36.516  1.00  0.00     0.022 A 
BRANCH  65  69
ATOM     69  S   UNL A   1      43.696  34.886  35.067  1.00  0.00     0.124 S 
ATOM     70  O   UNL A   1      43.284  35.301  33.728  1.00  0.00    -0.237 OA
ATOM     71  O   UNL A   1      43.243  35.730  36.166  1.00  0.00    -0.237 OA
ATOM     72  O   UNL A   1      45.077  34.418  35.169  1.00  0.00    -0.744 OA
ENDBRANCH  65  69
ENDBRANCH  48  62
BRANCH  49  73
ATOM     73  C   UNL A   1      42.372  24.052  27.425  1.00  0.00     0.023 A 
ATOM     74  C   UNL A   1      41.802  22.780  27.594  1.00  0.00     0.031 A 
ATOM     75  C   UNL A   1      43.058  24.311  26.225  1.00  0.00     0.131 A 
ATOM     76  C   UNL A   1      41.968  21.802  26.600  1.00  0.00     0.055 A 
ATOM     77  C   UNL A   1      43.170  23.354  25.215  1.00  0.00     0.041 A 
ATOM     78  F   UNL A   1      43.626  25.509  26.011  1.00  0.00    -0.206 F 
ATOM     79  C   UNL A   1      42.635  22.085  25.406  1.00  0.00     0.022 A 
BRANCH  76  80
ATOM     80  S   UNL A   1      41.377  20.119  26.929  1.00  0.00     0.124 S 
ATOM     81  O   UNL A   1      40.788  20.265  28.255  1.00  0.00    -0.237 OA
ATOM     82  O   UNL A   1      40.442  19.906  25.830  1.00  0.00    -0.237 OA
ATOM     83  O   UNL A   1      42.596  19.314  26.873  1.00  0.00    -0.744 OA
ENDBRANCH  76  80
ENDBRANCH  49  73
BRANCH  61  84
ATOM     84  C   UNL A   1      46.560  25.644  32.782  1.00  0.00     0.023 A 
ATOM     85  C   UNL A   1      47.823  25.932  32.236  1.00  0.00     0.031 A 
ATOM     86  C   UNL A   1      46.495  24.728  33.849  1.00  0.00     0.131 A 
ATOM     87  C   UNL A   1      48.961  25.267  32.719  1.00  0.00     0.055 A 
ATOM     88  C   UNL A   1      47.638  24.119  34.368  1.00  0.00     0.041 A 
ATOM     89  F   UNL A   1      45.315  24.413  34.408  1.00  0.00    -0.206 F 
ATOM     90  C   UNL A   1      48.879  24.378  33.793  1.00  0.00     0.022 A 
BRANCH  87  91
ATOM     91  S   UNL A   1      50.541  25.508  31.860  1.00  0.00     0.124 S 
ATOM     92  O   UNL A   1      51.417  25.928  32.948  1.00  0.00    -0.237 OA
ATOM     93  O   UNL A   1      50.801  24.183  31.307  1.00  0.00    -0.237 OA
ATOM     94  O   UNL A   1      50.240  26.542  30.872  1.00  0.00    -0.744 OA
ENDBRANCH  87  91
ENDBRANCH  61  84
ENDBRANCH  35  36
ENDBRANCH  28  30
ENDBRANCH  27  28
ENDBRANCH  26  27
ENDBRANCH  25  26
ENDBRANCH  24  25
ENDBRANCH   1  24
TORSDOF 21
ENDMDL
