MODEL 1
REMARK VINA RESULT:     -10.6      0.000      0.000
REMARK SMILES COCC1CCN(C(=O)NC[C@H]2CC[C@H](C(=O)OCCOCCOC(=O)c3ccc(-c4c5nc(c(-c6cc(S(=O)(=O)[O-])ccc6F)c6ccc([nH]6)c(-c6cc(S(=O)(=O)[O-])ccc6F)c6nc(c(-c7cc(S(=O)(=O)[O-])ccc7F)c7ccc4[nH]7)C=C6)C=C5)cc3)O2)CC1
REMARK SMILES IDX 20 1 19 2 18 3 16 4 17 5 15 6 12 7 13 8 90 9 14 10 11 11
REMARK SMILES IDX 10 12 4 13 5 14 92 15 6 16 91 17 7 18 8 19 9 20 3 22 2 23
REMARK SMILES IDX 1 24 21 25 22 26 23 27 24 28 25 29 26 30 27 31 28 32 89 33
REMARK SMILES IDX 29 34 88 35 30 36 31 37 32 38 82 39 33 40 87 41 81 42 83 43
REMARK SMILES IDX 34 44 86 45 80 46 79 47 35 49 67 50 47 51 66 52 48 53 51 54
REMARK SMILES IDX 65 55 84 56 49 57 50 58 64 60 85 61 52 62 36 63 37 64 45 65
REMARK SMILES IDX 38 66 44 67 46 68 43 69 39 70 40 71 41 72 42 73 68 74 69 75
REMARK SMILES IDX 77 76 70 77 76 78 78 79 75 80 71 81 72 82 73 83 74 84 53 85
REMARK SMILES IDX 54 86 62 87 55 88 61 89 63 90 60 91 56 92 57 93 58 94 59 95
REMARK H PARENT 10 21 83 48 51 59
REMARK Flexibility Score: inf
ROOT
ATOM      1  C   UNL A   1      29.163  30.487  23.549  1.00  0.00     0.202 C 
ENDROOT
BRANCH   1   2
ATOM      2  C   UNL A   1      29.829  30.408  22.173  1.00  0.00     0.261 C 
BRANCH   2   3
ATOM      3  O   UNL A   1      30.235  29.068  21.839  1.00  0.00    -0.461 OA
BRANCH   3   4
ATOM      4  C   UNL A   1      31.408  28.650  22.391  1.00  0.00     0.335 C 
ATOM      5  O   UNL A   1      32.417  29.337  22.504  1.00  0.00    -0.249 OA
BRANCH   4   6
ATOM      6  C   UNL A   1      31.331  27.201  22.870  1.00  0.00     0.228 C 
ATOM      7  C   UNL A   1      30.506  26.175  24.802  1.00  0.00     0.138 C 
ATOM      8  C   UNL A   1      31.957  26.521  25.069  1.00  0.00     0.037 C 
ATOM      9  O   UNL A   1      30.144  26.959  23.647  1.00  0.00    -0.361 OA
ATOM     10  C   UNL A   1      32.530  26.730  23.690  1.00  0.00     0.047 C 
BRANCH   7  11
ATOM     11  C   UNL A   1      30.193  24.683  24.545  1.00  0.00     0.149 C 
BRANCH  11  12
ATOM     12  N   UNL A   1      30.040  23.901  25.768  1.00  0.00    -0.335 N 
ATOM     13  C   UNL A   1      35.061  22.844  26.386  1.00  0.00     0.018 C 
ATOM     14  C   UNL A   1      34.249  22.776  27.690  1.00  0.00     0.027 C 
ATOM     15  C   UNL A   1      34.212  23.467  25.266  1.00  0.00     0.027 C 
ATOM     16  C   UNL A   1      32.822  22.256  27.520  1.00  0.00     0.121 C 
ATOM     17  C   UNL A   1      32.817  22.862  25.160  1.00  0.00     0.121 C 
ATOM     18  N   UNL A   1      32.112  22.927  26.432  1.00  0.00    -0.325 N 
ATOM     19  C   UNL A   1      30.803  23.242  26.649  1.00  0.00     0.317 C 
ATOM     20  O   UNL A   1      30.223  22.923  27.693  1.00  0.00    -0.249 OA
ATOM     21  H   UNL A   1      29.091  23.840  26.020  1.00  0.00     0.165 HD
BRANCH  13  22
ATOM     22  C   UNL A   1      35.678  21.491  25.991  1.00  0.00     0.163 C 
BRANCH  22  23
ATOM     23  O   UNL A   1      36.945  21.648  25.369  1.00  0.00    -0.384 OA
ATOM     24  C   UNL A   1      37.484  22.953  25.516  1.00  0.00     0.194 C 
ENDBRANCH  22  23
ENDBRANCH  13  22
ENDBRANCH  11  12
ENDBRANCH   7  11
ENDBRANCH   4   6
ENDBRANCH   3   4
ENDBRANCH   2   3
ENDBRANCH   1   2
BRANCH   1  25
ATOM     25  O   UNL A   1      29.733  31.415  24.473  1.00  0.00    -0.374 OA
BRANCH  25  26
ATOM     26  C   UNL A   1      30.846  30.962  25.240  1.00  0.00     0.202 C 
BRANCH  26  27
ATOM     27  C   UNL A   1      31.223  31.815  26.459  1.00  0.00     0.261 C 
BRANCH  27  28
ATOM     28  O   UNL A   1      32.492  31.436  27.023  1.00  0.00    -0.460 OA
BRANCH  28  29
ATOM     29  C   UNL A   1      33.246  32.473  27.462  1.00  0.00     0.338 C 
ATOM     30  O   UNL A   1      32.862  33.618  27.677  1.00  0.00    -0.246 OA
BRANCH  29  31
ATOM     31  C   UNL A   1      34.598  32.018  27.831  1.00  0.00     0.060 A 
ATOM     32  C   UNL A   1      34.769  30.648  28.069  1.00  0.00     0.016 A 
ATOM     33  C   UNL A   1      35.658  32.906  28.030  1.00  0.00     0.016 A 
ATOM     34  C   UNL A   1      35.985  30.168  28.554  1.00  0.00     0.010 A 
ATOM     35  C   UNL A   1      36.877  32.422  28.525  1.00  0.00     0.010 A 
ATOM     36  C   UNL A   1      37.036  31.055  28.822  1.00  0.00    -0.014 A 
BRANCH  36  37
ATOM     37  C   UNL A   1      38.235  30.552  29.542  1.00  0.00     0.031 A 
ATOM     38  C   UNL A   1      38.477  30.992  30.962  1.00  0.00     0.074 A 
ATOM     39  C   UNL A   1      39.058  29.658  28.964  1.00  0.00     0.049 A 
ATOM     40  N   UNL A   1      39.436  30.653  31.785  1.00  0.00    -0.248 NA
ATOM     41  C   UNL A   1      37.503  31.939  31.528  1.00  0.00     0.031 C 
ATOM     42  C   UNL A   1      38.907  29.129  27.609  1.00  0.00     0.029 A 
ATOM     43  N   UNL A   1      40.182  29.034  29.445  1.00  0.00    -0.354 N 
ATOM     44  C   UNL A   1      39.176  31.330  32.972  1.00  0.00     0.074 A 
ATOM     45  C   UNL A   1      37.996  32.138  32.742  1.00  0.00     0.031 C 
ATOM     46  C   UNL A   1      39.908  28.264  27.366  1.00  0.00     0.029 A 
ATOM     47  C   UNL A   1      40.783  28.198  28.534  1.00  0.00     0.049 A 
ATOM     48  H   UNL A   1      40.525  29.173  30.358  1.00  0.00     0.167 HD
ATOM     49  C   UNL A   1      39.846  31.272  34.149  1.00  0.00     0.034 A 
ATOM     50  C   UNL A   1      41.920  27.477  28.624  1.00  0.00     0.034 A 
ATOM     51  C   UNL A   1      41.035  30.480  34.363  1.00  0.00     0.049 A 
ATOM     52  C   UNL A   1      42.696  27.490  29.920  1.00  0.00     0.074 A 
ATOM     53  C   UNL A   1      41.796  30.360  35.513  1.00  0.00     0.029 A 
ATOM     54  N   UNL A   1      41.640  29.680  33.403  1.00  0.00    -0.354 N 
ATOM     55  N   UNL A   1      42.433  28.132  31.036  1.00  0.00    -0.248 NA
ATOM     56  C   UNL A   1      43.913  26.669  29.973  1.00  0.00     0.031 C 
ATOM     57  C   UNL A   1      42.894  29.538  35.230  1.00  0.00     0.029 A 
ATOM     58  C   UNL A   1      42.780  29.086  33.925  1.00  0.00     0.049 A 
ATOM     59  H   UNL A   1      41.309  29.553  32.484  1.00  0.00     0.167 HD
ATOM     60  C   UNL A   1      43.441  27.771  31.928  1.00  0.00     0.074 A 
ATOM     61  C   UNL A   1      44.300  26.839  31.228  1.00  0.00     0.031 C 
ATOM     62  C   UNL A   1      43.640  28.173  33.210  1.00  0.00     0.034 A 
BRANCH  49  63
ATOM     63  C   UNL A   1      39.327  32.122  35.283  1.00  0.00     0.023 A 
ATOM     64  C   UNL A   1      39.747  33.453  35.457  1.00  0.00     0.031 A 
ATOM     65  C   UNL A   1      38.417  31.591  36.213  1.00  0.00     0.131 A 
ATOM     66  C   UNL A   1      39.304  34.187  36.568  1.00  0.00     0.055 A 
ATOM     67  C   UNL A   1      37.924  32.349  37.277  1.00  0.00     0.041 A 
ATOM     68  F   UNL A   1      37.999  30.319  36.110  1.00  0.00    -0.206 F 
ATOM     69  C   UNL A   1      38.377  33.652  37.466  1.00  0.00     0.022 A 
BRANCH  66  70
ATOM     70  S   UNL A   1      40.050  35.808  36.893  1.00  0.00     0.124 S 
ATOM     71  O   UNL A   1      39.402  36.184  38.148  1.00  0.00    -0.237 OA
ATOM     72  O   UNL A   1      41.471  35.490  36.978  1.00  0.00    -0.237 OA
ATOM     73  O   UNL A   1      39.656  36.605  35.733  1.00  0.00    -0.744 OA
ENDBRANCH  66  70
ENDBRANCH  49  63
BRANCH  50  74
ATOM     74  C   UNL A   1      42.428  26.717  27.446  1.00  0.00     0.023 A 
ATOM     75  C   UNL A   1      42.118  25.361  27.258  1.00  0.00     0.031 A 
ATOM     76  C   UNL A   1      43.298  27.329  26.524  1.00  0.00     0.131 A 
ATOM     77  C   UNL A   1      42.712  24.648  26.204  1.00  0.00     0.055 A 
ATOM     78  C   UNL A   1      43.843  26.629  25.448  1.00  0.00     0.041 A 
ATOM     79  F   UNL A   1      43.629  28.623  26.659  1.00  0.00    -0.206 F 
ATOM     80  C   UNL A   1      43.563  25.276  25.292  1.00  0.00     0.022 A 
BRANCH  77  81
ATOM     81  S   UNL A   1      42.434  22.858  26.099  1.00  0.00     0.124 S 
ATOM     82  O   UNL A   1      42.931  22.557  24.761  1.00  0.00    -0.237 OA
ATOM     83  O   UNL A   1      43.240  22.363  27.210  1.00  0.00    -0.237 OA
ATOM     84  O   UNL A   1      40.989  22.728  26.273  1.00  0.00    -0.744 OA
ENDBRANCH  77  81
ENDBRANCH  50  74
BRANCH  62  85
ATOM     85  C   UNL A   1      44.818  27.574  33.939  1.00  0.00     0.023 A 
ATOM     86  C   UNL A   1      46.080  28.192  33.936  1.00  0.00     0.031 A 
ATOM     87  C   UNL A   1      44.683  26.354  34.626  1.00  0.00     0.131 A 
ATOM     88  C   UNL A   1      47.172  27.560  34.551  1.00  0.00     0.055 A 
ATOM     89  C   UNL A   1      45.758  25.759  35.286  1.00  0.00     0.041 A 
ATOM     90  F   UNL A   1      43.500  25.718  34.662  1.00  0.00    -0.206 F 
ATOM     91  C   UNL A   1      47.015  26.354  35.239  1.00  0.00     0.022 A 
BRANCH  88  92
ATOM     92  S   UNL A   1      48.823  28.286  34.356  1.00  0.00     0.124 S 
ATOM     93  O   UNL A   1      49.671  27.295  35.013  1.00  0.00    -0.237 OA
ATOM     94  O   UNL A   1      48.955  28.376  32.906  1.00  0.00    -0.237 OA
ATOM     95  O   UNL A   1      48.718  29.569  35.049  1.00  0.00    -0.744 OA
ENDBRANCH  88  92
ENDBRANCH  62  85
ENDBRANCH  36  37
ENDBRANCH  29  31
ENDBRANCH  28  29
ENDBRANCH  27  28
ENDBRANCH  26  27
ENDBRANCH  25  26
ENDBRANCH   1  25
TORSDOF 21
ENDMDL
MODEL 2
REMARK VINA RESULT:     -10.4      2.257      7.802
REMARK SMILES COCC1CCN(C(=O)NC[C@H]2CC[C@H](C(=O)OCCOCCOC(=O)c3ccc(-c4c5nc(c(-c6cc(S(=O)(=O)[O-])ccc6F)c6ccc([nH]6)c(-c6cc(S(=O)(=O)[O-])ccc6F)c6nc(c(-c7cc(S(=O)(=O)[O-])ccc7F)c7ccc4[nH]7)C=C6)C=C5)cc3)O2)CC1
REMARK SMILES IDX 20 1 19 2 18 3 16 4 17 5 15 6 12 7 13 8 90 9 14 10 11 11
REMARK SMILES IDX 10 12 4 13 5 14 92 15 6 16 91 17 7 18 8 19 9 20 3 22 2 23
REMARK SMILES IDX 1 24 21 25 22 26 23 27 24 28 25 29 26 30 27 31 28 32 89 33
REMARK SMILES IDX 29 34 88 35 30 36 31 37 32 38 82 39 33 40 87 41 81 42 83 43
REMARK SMILES IDX 34 44 86 45 80 46 79 47 35 49 67 50 47 51 66 52 48 53 51 54
REMARK SMILES IDX 65 55 84 56 49 57 50 58 64 60 85 61 52 62 36 63 37 64 45 65
REMARK SMILES IDX 38 66 44 67 46 68 43 69 39 70 40 71 41 72 42 73 68 74 69 75
REMARK SMILES IDX 77 76 70 77 76 78 78 79 75 80 71 81 72 82 73 83 74 84 53 85
REMARK SMILES IDX 54 86 62 87 55 88 61 89 63 90 60 91 56 92 57 93 58 94 59 95
REMARK H PARENT 10 21 83 48 51 59
REMARK Flexibility Score: inf
ROOT
ATOM      1  C   UNL A   1      29.194  29.943  23.270  1.00  0.00     0.202 C 
ENDROOT
BRANCH   1   2
ATOM      2  C   UNL A   1      30.118  29.766  22.063  1.00  0.00     0.261 C 
BRANCH   2   3
ATOM      3  O   UNL A   1      30.708  28.454  22.014  1.00  0.00    -0.461 OA
BRANCH   3   4
ATOM      4  C   UNL A   1      31.964  28.350  22.532  1.00  0.00     0.335 C 
ATOM      5  O   UNL A   1      32.838  29.205  22.435  1.00  0.00    -0.249 OA
BRANCH   4   6
ATOM      6  C   UNL A   1      32.173  27.028  23.268  1.00  0.00     0.228 C 
ATOM      7  C   UNL A   1      31.336  26.132  25.259  1.00  0.00     0.138 C 
ATOM      8  C   UNL A   1      32.598  26.894  25.611  1.00  0.00     0.037 C 
ATOM      9  O   UNL A   1      30.976  26.599  23.943  1.00  0.00    -0.361 OA
ATOM     10  C   UNL A   1      33.308  27.032  24.288  1.00  0.00     0.047 C 
BRANCH   7  11
ATOM     11  C   UNL A   1      31.444  24.589  25.259  1.00  0.00     0.149 C 
BRANCH  11  12
ATOM     12  N   UNL A   1      32.324  24.068  26.299  1.00  0.00    -0.335 N 
ATOM     13  C   UNL A   1      33.239  19.517  24.028  1.00  0.00     0.018 C 
ATOM     14  C   UNL A   1      34.334  19.945  25.019  1.00  0.00     0.027 C 
ATOM     15  C   UNL A   1      32.272  20.685  23.772  1.00  0.00     0.027 C 
ATOM     16  C   UNL A   1      33.820  20.710  26.238  1.00  0.00     0.121 C 
ATOM     17  C   UNL A   1      31.794  21.363  25.050  1.00  0.00     0.121 C 
ATOM     18  N   UNL A   1      32.916  21.799  25.870  1.00  0.00    -0.325 N 
ATOM     19  C   UNL A   1      33.045  22.970  26.558  1.00  0.00     0.317 C 
ATOM     20  O   UNL A   1      33.847  23.088  27.491  1.00  0.00    -0.249 OA
ATOM     21  H   UNL A   1      32.416  24.720  27.031  1.00  0.00     0.165 HD
BRANCH  13  22
ATOM     22  C   UNL A   1      32.522  18.222  24.448  1.00  0.00     0.163 C 
BRANCH  22  23
ATOM     23  O   UNL A   1      33.377  17.357  25.182  1.00  0.00    -0.384 OA
ATOM     24  C   UNL A   1      34.010  16.377  24.374  1.00  0.00     0.194 C 
ENDBRANCH  22  23
ENDBRANCH  13  22
ENDBRANCH  11  12
ENDBRANCH   7  11
ENDBRANCH   4   6
ENDBRANCH   3   4
ENDBRANCH   2   3
ENDBRANCH   1   2
BRANCH   1  25
ATOM     25  O   UNL A   1      29.618  30.885  24.257  1.00  0.00    -0.374 OA
BRANCH  25  26
ATOM     26  C   UNL A   1      30.834  30.600  24.943  1.00  0.00     0.202 C 
BRANCH  26  27
ATOM     27  C   UNL A   1      31.236  31.582  26.051  1.00  0.00     0.261 C 
BRANCH  27  28
ATOM     28  O   UNL A   1      32.442  31.183  26.728  1.00  0.00    -0.460 OA
BRANCH  28  29
ATOM     29  C   UNL A   1      33.110  32.194  27.334  1.00  0.00     0.338 C 
ATOM     30  O   UNL A   1      32.673  33.313  27.585  1.00  0.00    -0.246 OA
BRANCH  29  31
ATOM     31  C   UNL A   1      34.417  31.733  27.834  1.00  0.00     0.060 A 
ATOM     32  C   UNL A   1      34.522  30.386  28.203  1.00  0.00     0.016 A 
ATOM     33  C   UNL A   1      35.493  32.602  28.025  1.00  0.00     0.016 A 
ATOM     34  C   UNL A   1      35.685  29.914  28.810  1.00  0.00     0.010 A 
ATOM     35  C   UNL A   1      36.659  32.128  28.643  1.00  0.00     0.010 A 
ATOM     36  C   UNL A   1      36.748  30.790  29.070  1.00  0.00    -0.014 A 
BRANCH  36  37
ATOM     37  C   UNL A   1      37.878  30.318  29.912  1.00  0.00     0.031 A 
ATOM     38  C   UNL A   1      38.852  29.319  29.341  1.00  0.00     0.074 A 
ATOM     39  C   UNL A   1      38.078  30.826  31.141  1.00  0.00     0.049 A 
ATOM     40  N   UNL A   1      39.922  28.799  29.885  1.00  0.00    -0.248 NA
ATOM     41  C   UNL A   1      38.579  28.848  27.975  1.00  0.00     0.031 C 
ATOM     42  C   UNL A   1      37.227  31.826  31.787  1.00  0.00     0.029 A 
ATOM     43  N   UNL A   1      39.062  30.576  32.065  1.00  0.00    -0.354 N 
ATOM     44  C   UNL A   1      40.462  27.951  28.923  1.00  0.00     0.074 A 
ATOM     45  C   UNL A   1      39.571  27.991  27.782  1.00  0.00     0.031 C 
ATOM     46  C   UNL A   1      37.724  32.098  33.007  1.00  0.00     0.029 A 
ATOM     47  C   UNL A   1      38.909  31.275  33.239  1.00  0.00     0.049 A 
ATOM     48  H   UNL A   1      39.808  29.954  31.901  1.00  0.00     0.167 HD
ATOM     49  C   UNL A   1      41.604  27.221  28.977  1.00  0.00     0.034 A 
ATOM     50  C   UNL A   1      39.631  31.241  34.379  1.00  0.00     0.034 A 
ATOM     51  C   UNL A   1      42.476  27.170  30.128  1.00  0.00     0.049 A 
ATOM     52  C   UNL A   1      40.854  30.358  34.446  1.00  0.00     0.074 A 
ATOM     53  C   UNL A   1      43.649  26.454  30.291  1.00  0.00     0.029 A 
ATOM     54  N   UNL A   1      42.265  27.857  31.316  1.00  0.00    -0.354 N 
ATOM     55  N   UNL A   1      41.356  29.566  33.525  1.00  0.00    -0.248 NA
ATOM     56  C   UNL A   1      41.618  30.378  35.701  1.00  0.00     0.031 C 
ATOM     57  C   UNL A   1      44.113  26.659  31.596  1.00  0.00     0.029 A 
ATOM     58  C   UNL A   1      43.269  27.560  32.225  1.00  0.00     0.049 A 
ATOM     59  H   UNL A   1      41.511  28.467  31.489  1.00  0.00     0.167 HD
ATOM     60  C   UNL A   1      42.505  29.013  34.085  1.00  0.00     0.074 A 
ATOM     61  C   UNL A   1      42.635  29.580  35.411  1.00  0.00     0.031 C 
ATOM     62  C   UNL A   1      43.376  28.117  33.553  1.00  0.00     0.034 A 
BRANCH  49  63
ATOM     63  C   UNL A   1      41.949  26.386  27.768  1.00  0.00     0.023 A 
ATOM     64  C   UNL A   1      41.541  25.045  27.659  1.00  0.00     0.031 A 
ATOM     65  C   UNL A   1      42.711  26.931  26.721  1.00  0.00     0.131 A 
ATOM     66  C   UNL A   1      41.949  24.277  26.557  1.00  0.00     0.055 A 
ATOM     67  C   UNL A   1      43.053  26.183  25.593  1.00  0.00     0.041 A 
ATOM     68  F   UNL A   1      43.147  28.199  26.781  1.00  0.00    -0.206 F 
ATOM     69  C   UNL A   1      42.681  24.843  25.512  1.00  0.00     0.022 A 
BRANCH  66  70
ATOM     70  S   UNL A   1      41.612  22.495  26.567  1.00  0.00     0.124 S 
ATOM     71  O   UNL A   1      40.151  22.472  26.583  1.00  0.00    -0.237 OA
ATOM     72  O   UNL A   1      42.246  22.046  25.334  1.00  0.00    -0.237 OA
ATOM     73  O   UNL A   1      42.248  22.033  27.800  1.00  0.00    -0.744 OA
ENDBRANCH  66  70
ENDBRANCH  49  63
BRANCH  50  74
ATOM     74  C   UNL A   1      39.199  32.027  35.570  1.00  0.00     0.023 A 
ATOM     75  C   UNL A   1      38.522  31.425  36.642  1.00  0.00     0.031 A 
ATOM     76  C   UNL A   1      39.399  33.419  35.615  1.00  0.00     0.131 A 
ATOM     77  C   UNL A   1      38.025  32.218  37.689  1.00  0.00     0.055 A 
ATOM     78  C   UNL A   1      38.950  34.195  36.684  1.00  0.00     0.041 A 
ATOM     79  F   UNL A   1      40.039  34.047  34.615  1.00  0.00    -0.206 F 
ATOM     80  C   UNL A   1      38.245  33.597  37.723  1.00  0.00     0.022 A 
BRANCH  77  81
ATOM     81  S   UNL A   1      36.998  31.433  38.962  1.00  0.00     0.124 S 
ATOM     82  O   UNL A   1      37.808  31.630  40.160  1.00  0.00    -0.237 OA
ATOM     83  O   UNL A   1      35.769  32.215  38.882  1.00  0.00    -0.237 OA
ATOM     84  O   UNL A   1      36.887  30.050  38.504  1.00  0.00    -0.744 OA
ENDBRANCH  77  81
ENDBRANCH  50  74
BRANCH  62  85
ATOM     85  C   UNL A   1      44.561  27.727  34.403  1.00  0.00     0.023 A 
ATOM     86  C   UNL A   1      44.526  26.604  35.247  1.00  0.00     0.031 A 
ATOM     87  C   UNL A   1      45.733  28.505  34.389  1.00  0.00     0.131 A 
ATOM     88  C   UNL A   1      45.615  26.325  36.088  1.00  0.00     0.055 A 
ATOM     89  C   UNL A   1      46.835  28.189  35.184  1.00  0.00     0.041 A 
ATOM     90  F   UNL A   1      45.822  29.591  33.603  1.00  0.00    -0.206 F 
ATOM     91  C   UNL A   1      46.775  27.101  36.051  1.00  0.00     0.022 A 
BRANCH  88  92
ATOM     92  S   UNL A   1      45.456  24.988  37.304  1.00  0.00     0.124 S 
ATOM     93  O   UNL A   1      46.109  23.875  36.622  1.00  0.00    -0.237 OA
ATOM     94  O   UNL A   1      46.164  25.531  38.459  1.00  0.00    -0.237 OA
ATOM     95  O   UNL A   1      44.011  24.848  37.474  1.00  0.00    -0.744 OA
ENDBRANCH  88  92
ENDBRANCH  62  85
ENDBRANCH  36  37
ENDBRANCH  29  31
ENDBRANCH  28  29
ENDBRANCH  27  28
ENDBRANCH  26  27
ENDBRANCH  25  26
ENDBRANCH   1  25
TORSDOF 21
ENDMDL
MODEL 3
REMARK VINA RESULT:     -10.3      2.393      3.131
REMARK SMILES COCC1CCN(C(=O)NC[C@H]2CC[C@H](C(=O)OCCOCCOC(=O)c3ccc(-c4c5nc(c(-c6cc(S(=O)(=O)[O-])ccc6F)c6ccc([nH]6)c(-c6cc(S(=O)(=O)[O-])ccc6F)c6nc(c(-c7cc(S(=O)(=O)[O-])ccc7F)c7ccc4[nH]7)C=C6)C=C5)cc3)O2)CC1
REMARK SMILES IDX 20 1 19 2 18 3 16 4 17 5 15 6 12 7 13 8 90 9 14 10 11 11
REMARK SMILES IDX 10 12 4 13 5 14 92 15 6 16 91 17 7 18 8 19 9 20 3 22 2 23
REMARK SMILES IDX 1 24 21 25 22 26 23 27 24 28 25 29 26 30 27 31 28 32 89 33
REMARK SMILES IDX 29 34 88 35 30 36 31 37 32 38 82 39 33 40 87 41 81 42 83 43
REMARK SMILES IDX 34 44 86 45 80 46 79 47 35 49 67 50 47 51 66 52 48 53 51 54
REMARK SMILES IDX 65 55 84 56 49 57 50 58 64 60 85 61 52 62 36 63 37 64 45 65
REMARK SMILES IDX 38 66 44 67 46 68 43 69 39 70 40 71 41 72 42 73 68 74 69 75
REMARK SMILES IDX 77 76 70 77 76 78 78 79 75 80 71 81 72 82 73 83 74 84 53 85
REMARK SMILES IDX 54 86 62 87 55 88 61 89 63 90 60 91 56 92 57 93 58 94 59 95
REMARK H PARENT 10 21 83 48 51 59
REMARK Flexibility Score: inf
ROOT
ATOM      1  C   UNL A   1      30.581  29.237  24.121  1.00  0.00     0.202 C 
ENDROOT
BRANCH   1   2
ATOM      2  C   UNL A   1      31.195  28.677  22.836  1.00  0.00     0.261 C 
BRANCH   2   3
ATOM      3  O   UNL A   1      30.530  27.480  22.389  1.00  0.00    -0.461 OA
BRANCH   3   4
ATOM      4  C   UNL A   1      31.346  26.453  22.023  1.00  0.00     0.335 C 
ATOM      5  O   UNL A   1      31.629  26.155  20.867  1.00  0.00    -0.249 OA
BRANCH   4   6
ATOM      6  C   UNL A   1      31.888  25.693  23.233  1.00  0.00     0.228 C 
ATOM      7  C   UNL A   1      33.172  23.754  23.485  1.00  0.00     0.138 C 
ATOM      8  C   UNL A   1      31.719  23.325  23.464  1.00  0.00     0.037 C 
ATOM      9  O   UNL A   1      33.169  25.096  22.957  1.00  0.00    -0.361 OA
ATOM     10  C   UNL A   1      30.969  24.597  23.768  1.00  0.00     0.047 C 
BRANCH   7  11
ATOM     11  C   UNL A   1      33.874  23.732  24.862  1.00  0.00     0.149 C 
BRANCH  11  12
ATOM     12  N   UNL A   1      35.095  22.934  24.880  1.00  0.00    -0.335 N 
ATOM     13  C   UNL A   1      32.762  18.337  24.521  1.00  0.00     0.018 C 
ATOM     14  C   UNL A   1      34.216  18.333  24.024  1.00  0.00     0.027 C 
ATOM     15  C   UNL A   1      32.288  19.781  24.758  1.00  0.00     0.027 C 
ATOM     16  C   UNL A   1      35.152  19.259  24.800  1.00  0.00     0.121 C 
ATOM     17  C   UNL A   1      33.277  20.614  25.565  1.00  0.00     0.121 C 
ATOM     18  N   UNL A   1      34.599  20.603  24.956  1.00  0.00    -0.325 N 
ATOM     19  C   UNL A   1      35.464  21.649  24.815  1.00  0.00     0.317 C 
ATOM     20  O   UNL A   1      36.672  21.470  24.623  1.00  0.00    -0.249 OA
ATOM     21  H   UNL A   1      35.885  23.515  24.965  1.00  0.00     0.165 HD
BRANCH  13  22
ATOM     22  C   UNL A   1      32.540  17.423  25.738  1.00  0.00     0.163 C 
BRANCH  22  23
ATOM     23  O   UNL A   1      33.358  16.262  25.685  1.00  0.00    -0.384 OA
ATOM     24  C   UNL A   1      32.615  15.054  25.643  1.00  0.00     0.194 C 
ENDBRANCH  22  23
ENDBRANCH  13  22
ENDBRANCH  11  12
ENDBRANCH   7  11
ENDBRANCH   4   6
ENDBRANCH   3   4
ENDBRANCH   2   3
ENDBRANCH   1   2
BRANCH   1  25
ATOM     25  O   UNL A   1      31.470  29.941  24.990  1.00  0.00    -0.374 OA
BRANCH  25  26
ATOM     26  C   UNL A   1      31.815  29.304  26.217  1.00  0.00     0.202 C 
BRANCH  26  27
ATOM     27  C   UNL A   1      32.486  30.189  27.277  1.00  0.00     0.261 C 
BRANCH  27  28
ATOM     28  O   UNL A   1      33.645  30.873  26.767  1.00  0.00    -0.460 OA
BRANCH  28  29
ATOM     29  C   UNL A   1      34.264  31.680  27.663  1.00  0.00     0.338 C 
ATOM     30  O   UNL A   1      33.762  32.619  28.271  1.00  0.00    -0.246 OA
BRANCH  29  31
ATOM     31  C   UNL A   1      35.616  31.180  27.970  1.00  0.00     0.060 A 
ATOM     32  C   UNL A   1      35.806  29.793  27.947  1.00  0.00     0.016 A 
ATOM     33  C   UNL A   1      36.655  32.029  28.359  1.00  0.00     0.016 A 
ATOM     34  C   UNL A   1      37.020  29.245  28.360  1.00  0.00     0.010 A 
ATOM     35  C   UNL A   1      37.873  31.476  28.781  1.00  0.00     0.010 A 
ATOM     36  C   UNL A   1      38.050  30.080  28.816  1.00  0.00    -0.014 A 
BRANCH  36  37
ATOM     37  C   UNL A   1      39.243  29.465  29.455  1.00  0.00     0.031 A 
ATOM     38  C   UNL A   1      39.666  29.933  30.823  1.00  0.00     0.074 A 
ATOM     39  C   UNL A   1      39.896  28.453  28.857  1.00  0.00     0.049 A 
ATOM     40  N   UNL A   1      40.652  29.515  31.575  1.00  0.00    -0.248 NA
ATOM     41  C   UNL A   1      38.869  31.017  31.419  1.00  0.00     0.031 C 
ATOM     42  C   UNL A   1      39.558  27.886  27.551  1.00  0.00     0.029 A 
ATOM     43  N   UNL A   1      40.978  27.717  29.272  1.00  0.00    -0.354 N 
ATOM     44  C   UNL A   1      40.585  30.271  32.742  1.00  0.00     0.074 A 
ATOM     45  C   UNL A   1      39.493  31.206  32.572  1.00  0.00     0.031 C 
ATOM     46  C   UNL A   1      40.422  26.896  27.269  1.00  0.00     0.029 A 
ATOM     47  C   UNL A   1      41.389  26.774  28.358  1.00  0.00     0.049 A 
ATOM     48  H   UNL A   1      41.419  27.851  30.142  1.00  0.00     0.167 HD
ATOM     49  C   UNL A   1      41.351  30.182  33.858  1.00  0.00     0.034 A 
ATOM     50  C   UNL A   1      42.436  25.923  28.388  1.00  0.00     0.034 A 
ATOM     51  C   UNL A   1      42.452  29.260  34.010  1.00  0.00     0.049 A 
ATOM     52  C   UNL A   1      43.325  25.898  29.609  1.00  0.00     0.074 A 
ATOM     53  C   UNL A   1      43.298  29.098  35.093  1.00  0.00     0.029 A 
ATOM     54  N   UNL A   1      42.866  28.351  33.046  1.00  0.00    -0.354 N 
ATOM     55  N   UNL A   1      43.245  26.615  30.707  1.00  0.00    -0.248 NA
ATOM     56  C   UNL A   1      44.436  24.936  29.600  1.00  0.00     0.031 C 
ATOM     57  C   UNL A   1      44.260  28.135  34.761  1.00  0.00     0.029 A 
ATOM     58  C   UNL A   1      43.971  27.645  33.497  1.00  0.00     0.049 A 
ATOM     59  H   UNL A   1      42.438  28.225  32.168  1.00  0.00     0.167 HD
ATOM     60  C   UNL A   1      44.282  26.172  31.525  1.00  0.00     0.074 A 
ATOM     61  C   UNL A   1      44.956  25.112  30.805  1.00  0.00     0.031 C 
ATOM     62  C   UNL A   1      44.647  26.602  32.761  1.00  0.00     0.034 A 
BRANCH  49  63
ATOM     63  C   UNL A   1      41.044  31.138  34.984  1.00  0.00     0.023 A 
ATOM     64  C   UNL A   1      39.891  30.998  35.776  1.00  0.00     0.031 A 
ATOM     65  C   UNL A   1      41.904  32.216  35.257  1.00  0.00     0.131 A 
ATOM     66  C   UNL A   1      39.599  31.953  36.762  1.00  0.00     0.055 A 
ATOM     67  C   UNL A   1      41.645  33.123  36.286  1.00  0.00     0.041 A 
ATOM     68  F   UNL A   1      43.008  32.414  34.518  1.00  0.00    -0.206 F 
ATOM     69  C   UNL A   1      40.479  33.001  37.039  1.00  0.00     0.022 A 
BRANCH  66  70
ATOM     70  S   UNL A   1      37.990  31.877  37.596  1.00  0.00     0.124 S 
ATOM     71  O   UNL A   1      37.196  32.799  36.788  1.00  0.00    -0.237 OA
ATOM     72  O   UNL A   1      37.642  30.466  37.484  1.00  0.00    -0.237 OA
ATOM     73  O   UNL A   1      38.284  32.341  38.951  1.00  0.00    -0.744 OA
ENDBRANCH  66  70
ENDBRANCH  49  63
BRANCH  50  74
ATOM     74  C   UNL A   1      42.738  25.056  27.214  1.00  0.00     0.023 A 
ATOM     75  C   UNL A   1      42.328  23.714  27.167  1.00  0.00     0.031 A 
ATOM     76  C   UNL A   1      43.511  25.546  26.145  1.00  0.00     0.131 A 
ATOM     77  C   UNL A   1      42.734  22.896  26.100  1.00  0.00     0.055 A 
ATOM     78  C   UNL A   1      43.867  24.743  25.062  1.00  0.00     0.041 A 
ATOM     79  F   UNL A   1      43.931  26.822  26.141  1.00  0.00    -0.206 F 
ATOM     80  C   UNL A   1      43.491  23.404  25.043  1.00  0.00     0.022 A 
BRANCH  77  81
ATOM     81  S   UNL A   1      42.342  21.126  26.164  1.00  0.00     0.124 S 
ATOM     82  O   UNL A   1      41.030  21.088  25.527  1.00  0.00    -0.237 OA
ATOM     83  O   UNL A   1      43.443  20.545  25.402  1.00  0.00    -0.237 OA
ATOM     84  O   UNL A   1      42.351  20.827  27.594  1.00  0.00    -0.744 OA
ENDBRANCH  77  81
ENDBRANCH  50  74
BRANCH  62  85
ATOM     85  C   UNL A   1      45.808  25.895  33.416  1.00  0.00     0.023 A 
ATOM     86  C   UNL A   1      47.139  26.264  33.155  1.00  0.00     0.031 A 
ATOM     87  C   UNL A   1      45.582  24.820  34.295  1.00  0.00     0.131 A 
ATOM     88  C   UNL A   1      48.193  25.526  33.715  1.00  0.00     0.055 A 
ATOM     89  C   UNL A   1      46.634  24.127  34.895  1.00  0.00     0.041 A 
ATOM     90  F   UNL A   1      44.331  24.424  34.581  1.00  0.00    -0.206 F 
ATOM     91  C   UNL A   1      47.949  24.469  34.595  1.00  0.00     0.022 A 
BRANCH  88  92
ATOM     92  S   UNL A   1      49.891  25.903  33.198  1.00  0.00     0.124 S 
ATOM     93  O   UNL A   1      49.777  25.889  31.743  1.00  0.00    -0.237 OA
ATOM     94  O   UNL A   1      50.120  27.209  33.807  1.00  0.00    -0.237 OA
ATOM     95  O   UNL A   1      50.675  24.809  33.768  1.00  0.00    -0.744 OA
ENDBRANCH  88  92
ENDBRANCH  62  85
ENDBRANCH  36  37
ENDBRANCH  29  31
ENDBRANCH  28  29
ENDBRANCH  27  28
ENDBRANCH  26  27
ENDBRANCH  25  26
ENDBRANCH   1  25
TORSDOF 21
ENDMDL
