MODEL 1
REMARK VINA RESULT:     -10.8      0.000      0.000
REMARK SMILES CC(=O)[C@H]1CCC[N@@H+](CC(C)(C)C(=O)OCCOCCOC(=O)c2ccc(-c3c4nc(c(-c5cc(S(=O)(=O)[O-])ccc5F)c5ccc([nH]5)c(-c5cc(S(=O)(=O)[O-])ccc5F)c5nc(c(-c6cc(S(=O)(=O)[O-])ccc6F)c6ccc3[nH]6)C=C5)C=C4)cc2)C1
REMARK SMILES IDX 18 1 17 2 16 3 15 4 13 5 14 6 10 7 11 8 12 9 9 10 8 11 4 12
REMARK SMILES IDX 5 13 87 14 6 15 7 16 2 18 1 19 3 20 19 21 20 22 21 23 22 24
REMARK SMILES IDX 23 25 24 26 25 27 86 28 26 29 85 30 27 31 28 32 29 33 79 34
REMARK SMILES IDX 30 35 84 36 78 37 80 38 31 39 83 40 77 41 76 42 32 44 64 45
REMARK SMILES IDX 44 46 63 47 45 48 48 49 62 50 81 51 46 52 47 53 61 55 82 56
REMARK SMILES IDX 49 57 33 58 34 59 42 60 35 61 41 62 43 63 40 64 36 65 37 66
REMARK SMILES IDX 38 67 39 68 65 69 66 70 74 71 67 72 73 73 75 74 72 75 68 76
REMARK SMILES IDX 69 77 70 78 71 79 50 80 51 81 59 82 52 83 58 84 60 85 57 86
REMARK SMILES IDX 53 87 54 88 55 89 56 90
REMARK H PARENT 8 17 80 43 48 54
REMARK Flexibility Score: inf
ROOT
ATOM      1  O   UNL A   1      35.062  21.266  26.558  1.00  0.00    -0.374 OA
ENDROOT
BRANCH   1   2
ATOM      2  C   UNL A   1      33.694  21.617  26.737  1.00  0.00     0.202 C 
BRANCH   2   3
ATOM      3  C   UNL A   1      32.706  21.354  25.589  1.00  0.00     0.261 C 
BRANCH   3   4
ATOM      4  O   UNL A   1      31.475  22.075  25.728  1.00  0.00    -0.463 OA
BRANCH   4   5
ATOM      5  C   UNL A   1      31.582  23.330  26.239  1.00  0.00     0.317 C 
ATOM      6  O   UNL A   1      31.521  23.582  27.439  1.00  0.00    -0.251 OA
BRANCH   5   7
ATOM      7  C   UNL A   1      31.777  24.408  25.164  1.00  0.00     0.111 C 
ATOM      8  C   UNL A   1      31.185  23.833  23.858  1.00  0.00     0.029 C 
ATOM      9  C   UNL A   1      33.269  24.683  24.840  1.00  0.00     0.029 C 
BRANCH   7  10
ATOM     10  C   UNL A   1      31.150  25.790  25.610  1.00  0.00     0.280 C 
BRANCH  10  11
ATOM     11  N   UNL A   1      31.374  27.090  24.936  1.00  0.00    -0.333 N 
ATOM     12  C   UNL A   1      30.395  28.787  23.323  1.00  0.00     0.111 C 
ATOM     13  C   UNL A   1      30.629  29.876  24.373  1.00  0.00     0.023 C 
ATOM     14  C   UNL A   1      30.289  27.437  24.029  1.00  0.00     0.273 C 
ATOM     15  C   UNL A   1      31.867  29.540  25.195  1.00  0.00     0.062 C 
ATOM     16  C   UNL A   1      31.754  28.165  25.863  1.00  0.00     0.262 C 
ATOM     17  H   UNL A   1      32.194  26.971  24.341  1.00  0.00     0.348 HD
BRANCH  12  18
ATOM     18  C   UNL A   1      29.130  29.087  22.509  1.00  0.00     0.138 C 
ATOM     19  C   UNL A   1      27.789  28.617  23.034  1.00  0.00     0.088 C 
ATOM     20  O   UNL A   1      29.195  29.648  21.412  1.00  0.00    -0.299 OA
ENDBRANCH  12  18
ENDBRANCH  10  11
ENDBRANCH   7  10
ENDBRANCH   5   7
ENDBRANCH   4   5
ENDBRANCH   3   4
ENDBRANCH   2   3
ENDBRANCH   1   2
BRANCH   1  21
ATOM     21  C   UNL A   1      35.576  21.189  25.230  1.00  0.00     0.202 C 
BRANCH  21  22
ATOM     22  C   UNL A   1      36.968  20.593  24.972  1.00  0.00     0.261 C 
BRANCH  22  23
ATOM     23  O   UNL A   1      38.030  21.560  25.052  1.00  0.00    -0.460 OA
BRANCH  23  24
ATOM     24  C   UNL A   1      39.026  21.227  25.914  1.00  0.00     0.338 C 
ATOM     25  O   UNL A   1      39.574  20.145  26.017  1.00  0.00    -0.246 OA
BRANCH  24  26
ATOM     26  C   UNL A   1      39.532  22.436  26.587  1.00  0.00     0.060 A 
ATOM     27  C   UNL A   1      38.969  23.665  26.219  1.00  0.00     0.016 A 
ATOM     28  C   UNL A   1      40.606  22.381  27.477  1.00  0.00     0.016 A 
ATOM     29  C   UNL A   1      39.500  24.852  26.714  1.00  0.00     0.010 A 
ATOM     30  C   UNL A   1      41.149  23.575  27.960  1.00  0.00     0.010 A 
ATOM     31  C   UNL A   1      40.621  24.815  27.552  1.00  0.00    -0.014 A 
BRANCH  31  32
ATOM     32  C   UNL A   1      41.345  26.076  27.839  1.00  0.00     0.031 A 
ATOM     33  C   UNL A   1      40.631  27.155  28.606  1.00  0.00     0.074 A 
ATOM     34  C   UNL A   1      42.629  26.232  27.472  1.00  0.00     0.049 A 
ATOM     35  N   UNL A   1      41.043  28.350  28.941  1.00  0.00    -0.248 NA
ATOM     36  C   UNL A   1      39.267  26.840  29.055  1.00  0.00     0.031 C 
ATOM     37  C   UNL A   1      43.438  25.224  26.787  1.00  0.00     0.029 A 
ATOM     38  N   UNL A   1      43.478  27.298  27.626  1.00  0.00    -0.354 N 
ATOM     39  C   UNL A   1      39.988  28.932  29.635  1.00  0.00     0.074 A 
ATOM     40  C   UNL A   1      38.905  27.973  29.637  1.00  0.00     0.031 C 
ATOM     41  C   UNL A   1      44.667  25.724  26.575  1.00  0.00     0.029 A 
ATOM     42  C   UNL A   1      44.717  27.100  27.066  1.00  0.00     0.049 A 
ATOM     43  H   UNL A   1      43.224  28.126  28.094  1.00  0.00     0.167 HD
ATOM     44  C   UNL A   1      39.934  30.152  30.225  1.00  0.00     0.034 A 
ATOM     45  C   UNL A   1      45.761  27.945  26.941  1.00  0.00     0.034 A 
ATOM     46  C   UNL A   1      41.022  31.099  30.197  1.00  0.00     0.049 A 
ATOM     47  C   UNL A   1      45.639  29.340  27.509  1.00  0.00     0.074 A 
ATOM     48  C   UNL A   1      41.081  32.363  30.758  1.00  0.00     0.029 A 
ATOM     49  N   UNL A   1      42.242  30.891  29.564  1.00  0.00    -0.354 N 
ATOM     50  N   UNL A   1      44.634  29.886  28.156  1.00  0.00    -0.248 NA
ATOM     51  C   UNL A   1      46.795  30.229  27.335  1.00  0.00     0.031 C 
ATOM     52  C   UNL A   1      42.300  32.947  30.396  1.00  0.00     0.029 A 
ATOM     53  C   UNL A   1      43.043  32.015  29.687  1.00  0.00     0.049 A 
ATOM     54  H   UNL A   1      42.500  30.064  29.096  1.00  0.00     0.167 HD
ATOM     55  C   UNL A   1      45.054  31.170  28.497  1.00  0.00     0.074 A 
ATOM     56  C   UNL A   1      46.404  31.309  27.995  1.00  0.00     0.031 C 
ATOM     57  C   UNL A   1      44.386  32.143  29.171  1.00  0.00     0.034 A 
BRANCH  44  58
ATOM     58  C   UNL A   1      38.636  30.544  30.891  1.00  0.00     0.023 A 
ATOM     59  C   UNL A   1      37.596  31.172  30.181  1.00  0.00     0.031 A 
ATOM     60  C   UNL A   1      38.449  30.322  32.267  1.00  0.00     0.131 A 
ATOM     61  C   UNL A   1      36.455  31.623  30.863  1.00  0.00     0.055 A 
ATOM     62  C   UNL A   1      37.275  30.695  32.922  1.00  0.00     0.041 A 
ATOM     63  F   UNL A   1      39.415  29.752  33.005  1.00  0.00    -0.206 F 
ATOM     64  C   UNL A   1      36.275  31.364  32.224  1.00  0.00     0.022 A 
BRANCH  61  65
ATOM     65  S   UNL A   1      35.282  32.688  29.979  1.00  0.00     0.124 S 
ATOM     66  O   UNL A   1      34.796  31.788  28.935  1.00  0.00    -0.237 OA
ATOM     67  O   UNL A   1      34.323  33.034  31.021  1.00  0.00    -0.237 OA
ATOM     68  O   UNL A   1      36.114  33.791  29.502  1.00  0.00    -0.744 OA
ENDBRANCH  61  65
ENDBRANCH  44  58
BRANCH  45  69
ATOM     69  C   UNL A   1      46.995  27.522  26.216  1.00  0.00     0.023 A 
ATOM     70  C   UNL A   1      47.193  27.853  24.866  1.00  0.00     0.031 A 
ATOM     71  C   UNL A   1      47.970  26.731  26.850  1.00  0.00     0.131 A 
ATOM     72  C   UNL A   1      48.313  27.355  24.182  1.00  0.00     0.055 A 
ATOM     73  C   UNL A   1      49.111  26.286  26.180  1.00  0.00     0.041 A 
ATOM     74  F   UNL A   1      47.829  26.381  28.139  1.00  0.00    -0.206 F 
ATOM     75  C   UNL A   1      49.280  26.587  24.832  1.00  0.00     0.022 A 
BRANCH  72  76
ATOM     76  S   UNL A   1      48.437  27.645  22.395  1.00  0.00     0.124 S 
ATOM     77  O   UNL A   1      49.664  28.430  22.307  1.00  0.00    -0.237 OA
ATOM     78  O   UNL A   1      48.506  26.285  21.872  1.00  0.00    -0.237 OA
ATOM     79  O   UNL A   1      47.207  28.370  22.082  1.00  0.00    -0.744 OA
ENDBRANCH  72  76
ENDBRANCH  45  69
BRANCH  57  80
ATOM     80  C   UNL A   1      45.134  33.425  29.446  1.00  0.00     0.023 A 
ATOM     81  C   UNL A   1      45.905  33.603  30.609  1.00  0.00     0.031 A 
ATOM     82  C   UNL A   1      45.070  34.491  28.530  1.00  0.00     0.131 A 
ATOM     83  C   UNL A   1      46.529  34.836  30.854  1.00  0.00     0.055 A 
ATOM     84  C   UNL A   1      45.749  35.691  28.745  1.00  0.00     0.041 A 
ATOM     85  F   UNL A   1      44.349  34.380  27.402  1.00  0.00    -0.206 F 
ATOM     86  C   UNL A   1      46.472  35.873  29.919  1.00  0.00     0.022 A 
BRANCH  83  87
ATOM     87  S   UNL A   1      47.334  35.102  32.457  1.00  0.00     0.124 S 
ATOM     88  O   UNL A   1      47.643  33.737  32.871  1.00  0.00    -0.237 OA
ATOM     89  O   UNL A   1      48.478  35.934  32.098  1.00  0.00    -0.237 OA
ATOM     90  O   UNL A   1      46.306  35.773  33.250  1.00  0.00    -0.744 OA
ENDBRANCH  83  87
ENDBRANCH  57  80
ENDBRANCH  31  32
ENDBRANCH  24  26
ENDBRANCH  23  24
ENDBRANCH  22  23
ENDBRANCH  21  22
ENDBRANCH   1  21
TORSDOF 20
ENDMDL
MODEL 2
REMARK VINA RESULT:     -10.7      1.968      8.039
REMARK SMILES CC(=O)[C@H]1CCC[N@@H+](CC(C)(C)C(=O)OCCOCCOC(=O)c2ccc(-c3c4nc(c(-c5cc(S(=O)(=O)[O-])ccc5F)c5ccc([nH]5)c(-c5cc(S(=O)(=O)[O-])ccc5F)c5nc(c(-c6cc(S(=O)(=O)[O-])ccc6F)c6ccc3[nH]6)C=C5)C=C4)cc2)C1
REMARK SMILES IDX 18 1 17 2 16 3 15 4 13 5 14 6 10 7 11 8 12 9 9 10 8 11 4 12
REMARK SMILES IDX 5 13 87 14 6 15 7 16 2 18 1 19 3 20 19 21 20 22 21 23 22 24
REMARK SMILES IDX 23 25 24 26 25 27 86 28 26 29 85 30 27 31 28 32 29 33 79 34
REMARK SMILES IDX 30 35 84 36 78 37 80 38 31 39 83 40 77 41 76 42 32 44 64 45
REMARK SMILES IDX 44 46 63 47 45 48 48 49 62 50 81 51 46 52 47 53 61 55 82 56
REMARK SMILES IDX 49 57 33 58 34 59 42 60 35 61 41 62 43 63 40 64 36 65 37 66
REMARK SMILES IDX 38 67 39 68 65 69 66 70 74 71 67 72 73 73 75 74 72 75 68 76
REMARK SMILES IDX 69 77 70 78 71 79 50 80 51 81 59 82 52 83 58 84 60 85 57 86
REMARK SMILES IDX 53 87 54 88 55 89 56 90
REMARK H PARENT 8 17 80 43 48 54
REMARK Flexibility Score: inf
ROOT
ATOM      1  O   UNL A   1      34.740  21.311  26.159  1.00  0.00    -0.374 OA
ENDROOT
BRANCH   1   2
ATOM      2  C   UNL A   1      33.567  22.117  26.134  1.00  0.00     0.202 C 
BRANCH   2   3
ATOM      3  C   UNL A   1      33.169  22.804  24.818  1.00  0.00     0.261 C 
BRANCH   3   4
ATOM      4  O   UNL A   1      32.583  24.098  25.012  1.00  0.00    -0.463 OA
BRANCH   4   5
ATOM      5  C   UNL A   1      33.433  25.152  24.900  1.00  0.00     0.317 C 
ATOM      6  O   UNL A   1      34.431  25.298  25.600  1.00  0.00    -0.251 OA
BRANCH   5   7
ATOM      7  C   UNL A   1      33.019  26.153  23.813  1.00  0.00     0.111 C 
ATOM      8  C   UNL A   1      31.492  25.991  23.632  1.00  0.00     0.029 C 
ATOM      9  C   UNL A   1      33.622  25.828  22.422  1.00  0.00     0.029 C 
BRANCH   7  10
ATOM     10  C   UNL A   1      33.479  27.623  24.174  1.00  0.00     0.280 C 
BRANCH  10  11
ATOM     11  N   UNL A   1      33.179  28.327  25.442  1.00  0.00    -0.333 N 
ATOM     12  C   UNL A   1      34.182  29.333  27.545  1.00  0.00     0.111 C 
ATOM     13  C   UNL A   1      33.434  30.633  27.244  1.00  0.00     0.023 C 
ATOM     14  C   UNL A   1      34.374  28.562  26.241  1.00  0.00     0.273 C 
ATOM     15  C   UNL A   1      32.118  30.320  26.544  1.00  0.00     0.062 C 
ATOM     16  C   UNL A   1      32.332  29.515  25.258  1.00  0.00     0.262 C 
ATOM     17  H   UNL A   1      32.604  27.694  25.997  1.00  0.00     0.348 HD
BRANCH  12  18
ATOM     18  C   UNL A   1      35.529  29.628  28.216  1.00  0.00     0.138 C 
ATOM     19  C   UNL A   1      36.694  30.080  27.360  1.00  0.00     0.088 C 
ATOM     20  O   UNL A   1      35.693  29.448  29.426  1.00  0.00    -0.299 OA
ENDBRANCH  12  18
ENDBRANCH  10  11
ENDBRANCH   7  10
ENDBRANCH   5   7
ENDBRANCH   4   5
ENDBRANCH   3   4
ENDBRANCH   2   3
ENDBRANCH   1   2
BRANCH   1  21
ATOM     21  C   UNL A   1      35.632  21.374  25.049  1.00  0.00     0.202 C 
BRANCH  21  22
ATOM     22  C   UNL A   1      36.997  20.672  25.110  1.00  0.00     0.261 C 
BRANCH  22  23
ATOM     23  O   UNL A   1      38.112  21.577  25.013  1.00  0.00    -0.460 OA
BRANCH  23  24
ATOM     24  C   UNL A   1      39.143  21.287  25.849  1.00  0.00     0.338 C 
ATOM     25  O   UNL A   1      39.741  20.230  25.934  1.00  0.00    -0.246 OA
BRANCH  24  26
ATOM     26  C   UNL A   1      39.609  22.516  26.516  1.00  0.00     0.060 A 
ATOM     27  C   UNL A   1      38.888  23.693  26.280  1.00  0.00     0.016 A 
ATOM     28  C   UNL A   1      40.786  22.537  27.265  1.00  0.00     0.016 A 
ATOM     29  C   UNL A   1      39.359  24.909  26.766  1.00  0.00     0.010 A 
ATOM     30  C   UNL A   1      41.267  23.762  27.737  1.00  0.00     0.010 A 
ATOM     31  C   UNL A   1      40.574  24.955  27.459  1.00  0.00    -0.014 A 
BRANCH  31  32
ATOM     32  C   UNL A   1      41.202  26.273  27.719  1.00  0.00     0.031 A 
ATOM     33  C   UNL A   1      42.560  26.549  27.134  1.00  0.00     0.074 A 
ATOM     34  C   UNL A   1      40.550  27.222  28.413  1.00  0.00     0.049 A 
ATOM     35  N   UNL A   1      43.320  27.606  27.256  1.00  0.00    -0.248 NA
ATOM     36  C   UNL A   1      43.137  25.485  26.299  1.00  0.00     0.031 C 
ATOM     37  C   UNL A   1      39.202  27.085  28.964  1.00  0.00     0.029 A 
ATOM     38  N   UNL A   1      40.934  28.488  28.772  1.00  0.00    -0.354 N 
ATOM     39  C   UNL A   1      44.467  27.334  26.517  1.00  0.00     0.074 A 
ATOM     40  C   UNL A   1      44.318  25.997  25.986  1.00  0.00     0.031 C 
ATOM     41  C   UNL A   1      38.875  28.224  29.597  1.00  0.00     0.029 A 
ATOM     42  C   UNL A   1      40.005  29.150  29.537  1.00  0.00     0.049 A 
ATOM     43  H   UNL A   1      41.796  28.885  28.507  1.00  0.00     0.167 HD
ATOM     44  C   UNL A   1      45.540  28.134  26.296  1.00  0.00     0.034 A 
ATOM     45  C   UNL A   1      40.071  30.354  30.141  1.00  0.00     0.034 A 
ATOM     46  C   UNL A   1      45.672  29.460  26.848  1.00  0.00     0.049 A 
ATOM     47  C   UNL A   1      41.323  31.183  29.972  1.00  0.00     0.074 A 
ATOM     48  C   UNL A   1      46.713  30.359  26.694  1.00  0.00     0.029 A 
ATOM     49  N   UNL A   1      44.738  30.075  27.673  1.00  0.00    -0.354 N 
ATOM     50  N   UNL A   1      42.408  30.914  29.280  1.00  0.00    -0.248 NA
ATOM     51  C   UNL A   1      41.357  32.479  30.660  1.00  0.00     0.031 C 
ATOM     52  C   UNL A   1      46.446  31.479  27.487  1.00  0.00     0.029 A 
ATOM     53  C   UNL A   1      45.195  31.324  28.066  1.00  0.00     0.049 A 
ATOM     54  H   UNL A   1      43.876  29.681  27.940  1.00  0.00     0.167 HD
ATOM     55  C   UNL A   1      43.235  32.026  29.421  1.00  0.00     0.074 A 
ATOM     56  C   UNL A   1      42.519  32.969  30.253  1.00  0.00     0.031 C 
ATOM     57  C   UNL A   1      44.472  32.249  28.906  1.00  0.00     0.034 A 
BRANCH  44  58
ATOM     58  C   UNL A   1      46.671  27.563  25.473  1.00  0.00     0.023 A 
ATOM     59  C   UNL A   1      46.944  28.015  24.169  1.00  0.00     0.031 A 
ATOM     60  C   UNL A   1      47.465  26.522  25.986  1.00  0.00     0.131 A 
ATOM     61  C   UNL A   1      47.929  27.379  23.399  1.00  0.00     0.055 A 
ATOM     62  C   UNL A   1      48.501  25.951  25.245  1.00  0.00     0.041 A 
ATOM     63  F   UNL A   1      47.236  26.028  27.213  1.00  0.00    -0.206 F 
ATOM     64  C   UNL A   1      48.728  26.367  23.937  1.00  0.00     0.022 A 
BRANCH  61  65
ATOM     65  S   UNL A   1      48.045  27.784  21.634  1.00  0.00     0.124 S 
ATOM     66  O   UNL A   1      49.125  28.770  21.629  1.00  0.00    -0.237 OA
ATOM     67  O   UNL A   1      48.356  26.492  21.034  1.00  0.00    -0.237 OA
ATOM     68  O   UNL A   1      46.722  28.319  21.318  1.00  0.00    -0.744 OA
ENDBRANCH  61  65
ENDBRANCH  44  58
BRANCH  45  69
ATOM     69  C   UNL A   1      38.947  30.837  30.995  1.00  0.00     0.023 A 
ATOM     70  C   UNL A   1      37.896  31.592  30.452  1.00  0.00     0.031 A 
ATOM     71  C   UNL A   1      38.939  30.598  32.380  1.00  0.00     0.131 A 
ATOM     72  C   UNL A   1      36.907  32.121  31.296  1.00  0.00     0.055 A 
ATOM     73  C   UNL A   1      37.921  31.077  33.207  1.00  0.00     0.041 A 
ATOM     74  F   UNL A   1      39.923  29.886  32.954  1.00  0.00    -0.206 F 
ATOM     75  C   UNL A   1      36.904  31.856  32.667  1.00  0.00     0.022 A 
BRANCH  72  76
ATOM     76  S   UNL A   1      35.672  33.245  30.587  1.00  0.00     0.124 S 
ATOM     77  O   UNL A   1      36.072  33.279  29.185  1.00  0.00    -0.237 OA
ATOM     78  O   UNL A   1      34.424  32.548  30.883  1.00  0.00    -0.237 OA
ATOM     79  O   UNL A   1      35.879  34.488  31.326  1.00  0.00    -0.744 OA
ENDBRANCH  72  76
ENDBRANCH  45  69
BRANCH  57  80
ATOM     80  C   UNL A   1      45.102  33.593  29.188  1.00  0.00     0.023 A 
ATOM     81  C   UNL A   1      44.825  34.725  28.401  1.00  0.00     0.031 A 
ATOM     82  C   UNL A   1      46.000  33.740  30.260  1.00  0.00     0.131 A 
ATOM     83  C   UNL A   1      45.484  35.937  28.661  1.00  0.00     0.055 A 
ATOM     84  C   UNL A   1      46.600  34.965  30.557  1.00  0.00     0.041 A 
ATOM     85  F   UNL A   1      46.304  32.694  31.046  1.00  0.00    -0.206 F 
ATOM     86  C   UNL A   1      46.355  36.068  29.746  1.00  0.00     0.022 A 
BRANCH  83  87
ATOM     87  S   UNL A   1      45.266  37.314  27.501  1.00  0.00     0.124 S 
ATOM     88  O   UNL A   1      43.913  37.081  27.006  1.00  0.00    -0.237 OA
ATOM     89  O   UNL A   1      45.438  38.479  28.363  1.00  0.00    -0.237 OA
ATOM     90  O   UNL A   1      46.330  37.108  26.519  1.00  0.00    -0.744 OA
ENDBRANCH  83  87
ENDBRANCH  57  80
ENDBRANCH  31  32
ENDBRANCH  24  26
ENDBRANCH  23  24
ENDBRANCH  22  23
ENDBRANCH  21  22
ENDBRANCH   1  21
TORSDOF 20
ENDMDL
MODEL 3
REMARK VINA RESULT:     -10.6      2.659      8.554
REMARK SMILES CC(=O)[C@H]1CCC[N@@H+](CC(C)(C)C(=O)OCCOCCOC(=O)c2ccc(-c3c4nc(c(-c5cc(S(=O)(=O)[O-])ccc5F)c5ccc([nH]5)c(-c5cc(S(=O)(=O)[O-])ccc5F)c5nc(c(-c6cc(S(=O)(=O)[O-])ccc6F)c6ccc3[nH]6)C=C5)C=C4)cc2)C1
REMARK SMILES IDX 18 1 17 2 16 3 15 4 13 5 14 6 10 7 11 8 12 9 9 10 8 11 4 12
REMARK SMILES IDX 5 13 87 14 6 15 7 16 2 18 1 19 3 20 19 21 20 22 21 23 22 24
REMARK SMILES IDX 23 25 24 26 25 27 86 28 26 29 85 30 27 31 28 32 29 33 79 34
REMARK SMILES IDX 30 35 84 36 78 37 80 38 31 39 83 40 77 41 76 42 32 44 64 45
REMARK SMILES IDX 44 46 63 47 45 48 48 49 62 50 81 51 46 52 47 53 61 55 82 56
REMARK SMILES IDX 49 57 33 58 34 59 42 60 35 61 41 62 43 63 40 64 36 65 37 66
REMARK SMILES IDX 38 67 39 68 65 69 66 70 74 71 67 72 73 73 75 74 72 75 68 76
REMARK SMILES IDX 69 77 70 78 71 79 50 80 51 81 59 82 52 83 58 84 60 85 57 86
REMARK SMILES IDX 53 87 54 88 55 89 56 90
REMARK H PARENT 8 17 80 43 48 54
REMARK Flexibility Score: inf
ROOT
ATOM      1  O   UNL A   1      37.074  20.711  25.309  1.00  0.00    -0.374 OA
ENDROOT
BRANCH   1   2
ATOM      2  C   UNL A   1      37.216  21.907  24.550  1.00  0.00     0.202 C 
BRANCH   2   3
ATOM      3  C   UNL A   1      37.231  23.255  25.289  1.00  0.00     0.261 C 
BRANCH   3   4
ATOM      4  O   UNL A   1      35.994  23.547  25.953  1.00  0.00    -0.463 OA
BRANCH   4   5
ATOM      5  C   UNL A   1      34.925  23.761  25.142  1.00  0.00     0.317 C 
ATOM      6  O   UNL A   1      35.020  24.001  23.942  1.00  0.00    -0.251 OA
BRANCH   5   7
ATOM      7  C   UNL A   1      33.580  23.680  25.877  1.00  0.00     0.111 C 
ATOM      8  C   UNL A   1      33.180  25.135  26.211  1.00  0.00     0.029 C 
ATOM      9  C   UNL A   1      33.677  22.967  27.250  1.00  0.00     0.029 C 
BRANCH   7  10
ATOM     10  C   UNL A   1      32.505  22.888  25.030  1.00  0.00     0.280 C 
BRANCH  10  11
ATOM     11  N   UNL A   1      32.792  21.733  24.147  1.00  0.00    -0.333 N 
ATOM     12  C   UNL A   1      33.165  19.224  24.068  1.00  0.00     0.111 C 
ATOM     13  C   UNL A   1      32.090  19.129  22.983  1.00  0.00     0.023 C 
ATOM     14  C   UNL A   1      32.923  20.488  24.891  1.00  0.00     0.273 C 
ATOM     15  C   UNL A   1      32.099  20.395  22.136  1.00  0.00     0.062 C 
ATOM     16  C   UNL A   1      31.892  21.653  22.988  1.00  0.00     0.262 C 
ATOM     17  H   UNL A   1      33.711  21.901  23.739  1.00  0.00     0.348 HD
BRANCH  12  18
ATOM     18  C   UNL A   1      33.147  17.974  24.956  1.00  0.00     0.138 C 
ATOM     19  C   UNL A   1      33.915  16.746  24.513  1.00  0.00     0.088 C 
ATOM     20  O   UNL A   1      32.472  17.934  25.988  1.00  0.00    -0.299 OA
ENDBRANCH  12  18
ENDBRANCH  10  11
ENDBRANCH   7  10
ENDBRANCH   5   7
ENDBRANCH   4   5
ENDBRANCH   3   4
ENDBRANCH   2   3
ENDBRANCH   1   2
BRANCH   1  21
ATOM     21  C   UNL A   1      37.887  19.591  24.970  1.00  0.00     0.202 C 
BRANCH  21  22
ATOM     22  C   UNL A   1      39.206  19.335  25.717  1.00  0.00     0.261 C 
BRANCH  22  23
ATOM     23  O   UNL A   1      40.096  20.466  25.711  1.00  0.00    -0.460 OA
BRANCH  23  24
ATOM     24  C   UNL A   1      40.967  20.496  26.753  1.00  0.00     0.338 C 
ATOM     25  O   UNL A   1      41.719  19.606  27.106  1.00  0.00    -0.246 OA
BRANCH  24  26
ATOM     26  C   UNL A   1      41.053  21.865  27.295  1.00  0.00     0.060 A 
ATOM     27  C   UNL A   1      40.404  22.883  26.585  1.00  0.00     0.016 A 
ATOM     28  C   UNL A   1      41.839  22.160  28.409  1.00  0.00     0.016 A 
ATOM     29  C   UNL A   1      40.565  24.211  26.967  1.00  0.00     0.010 A 
ATOM     30  C   UNL A   1      42.015  23.497  28.780  1.00  0.00     0.010 A 
ATOM     31  C   UNL A   1      41.407  24.528  28.040  1.00  0.00    -0.014 A 
BRANCH  31  32
ATOM     32  C   UNL A   1      41.794  25.942  28.255  1.00  0.00     0.031 A 
ATOM     33  C   UNL A   1      43.162  26.388  27.815  1.00  0.00     0.074 A 
ATOM     34  C   UNL A   1      40.923  26.822  28.780  1.00  0.00     0.049 A 
ATOM     35  N   UNL A   1      43.734  27.558  27.933  1.00  0.00    -0.248 NA
ATOM     36  C   UNL A   1      43.995  25.373  27.153  1.00  0.00     0.031 C 
ATOM     37  C   UNL A   1      39.549  26.514  29.175  1.00  0.00     0.029 A 
ATOM     38  N   UNL A   1      41.066  28.155  29.068  1.00  0.00    -0.354 N 
ATOM     39  C   UNL A   1      44.996  27.420  27.364  1.00  0.00     0.074 A 
ATOM     40  C   UNL A   1      45.117  26.042  26.940  1.00  0.00     0.031 C 
ATOM     41  C   UNL A   1      38.977  27.628  29.661  1.00  0.00     0.029 A 
ATOM     42  C   UNL A   1      39.956  28.714  29.655  1.00  0.00     0.049 A 
ATOM     43  H   UNL A   1      41.886  28.664  28.874  1.00  0.00     0.167 HD
ATOM     44  C   UNL A   1      45.959  28.361  27.203  1.00  0.00     0.034 A 
ATOM     45  C   UNL A   1      39.764  29.952  30.153  1.00  0.00     0.034 A 
ATOM     46  C   UNL A   1      45.821  29.726  27.648  1.00  0.00     0.049 A 
ATOM     47  C   UNL A   1      40.891  30.954  30.063  1.00  0.00     0.074 A 
ATOM     48  C   UNL A   1      46.728  30.765  27.540  1.00  0.00     0.029 A 
ATOM     49  N   UNL A   1      44.705  30.242  28.297  1.00  0.00    -0.354 N 
ATOM     50  N   UNL A   1      42.085  30.812  29.532  1.00  0.00    -0.248 NA
ATOM     51  C   UNL A   1      40.642  32.284  30.633  1.00  0.00     0.031 C 
ATOM     52  C   UNL A   1      46.196  31.881  28.193  1.00  0.00     0.029 A 
ATOM     53  C   UNL A   1      44.917  31.571  28.630  1.00  0.00     0.049 A 
ATOM     54  H   UNL A   1      43.883  29.736  28.493  1.00  0.00     0.167 HD
ATOM     55  C   UNL A   1      42.714  32.048  29.673  1.00  0.00     0.074 A 
ATOM     56  C   UNL A   1      41.762  32.922  30.327  1.00  0.00     0.031 C 
ATOM     57  C   UNL A   1      43.961  32.427  29.291  1.00  0.00     0.034 A 
BRANCH  44  58
ATOM     58  C   UNL A   1      47.261  27.920  26.575  1.00  0.00     0.023 A 
ATOM     59  C   UNL A   1      47.458  27.938  25.183  1.00  0.00     0.031 A 
ATOM     60  C   UNL A   1      48.308  27.436  27.381  1.00  0.00     0.131 A 
ATOM     61  C   UNL A   1      48.639  27.412  24.636  1.00  0.00     0.055 A 
ATOM     62  C   UNL A   1      49.514  26.995  26.835  1.00  0.00     0.041 A 
ATOM     63  F   UNL A   1      48.169  27.369  28.714  1.00  0.00    -0.206 F 
ATOM     64  C   UNL A   1      49.680  26.965  25.454  1.00  0.00     0.022 A 
BRANCH  61  65
ATOM     65  S   UNL A   1      48.732  27.175  22.840  1.00  0.00     0.124 S 
ATOM     66  O   UNL A   1      48.354  25.769  22.709  1.00  0.00    -0.237 OA
ATOM     67  O   UNL A   1      47.764  28.146  22.343  1.00  0.00    -0.237 OA
ATOM     68  O   UNL A   1      50.129  27.468  22.527  1.00  0.00    -0.744 OA
ENDBRANCH  61  65
ENDBRANCH  44  58
BRANCH  45  69
ATOM     69  C   UNL A   1      38.478  30.310  30.820  1.00  0.00     0.023 A 
ATOM     70  C   UNL A   1      37.489  31.042  30.145  1.00  0.00     0.031 A 
ATOM     71  C   UNL A   1      38.244  29.972  32.165  1.00  0.00     0.131 A 
ATOM     72  C   UNL A   1      36.335  31.454  30.829  1.00  0.00     0.055 A 
ATOM     73  C   UNL A   1      37.068  30.334  32.825  1.00  0.00     0.041 A 
ATOM     74  F   UNL A   1      39.158  29.276  32.861  1.00  0.00    -0.206 F 
ATOM     75  C   UNL A   1      36.110  31.092  32.159  1.00  0.00     0.022 A 
BRANCH  72  76
ATOM     76  S   UNL A   1      35.170  32.556  29.981  1.00  0.00     0.124 S 
ATOM     77  O   UNL A   1      34.278  32.939  31.069  1.00  0.00    -0.237 OA
ATOM     78  O   UNL A   1      36.055  33.601  29.478  1.00  0.00    -0.237 OA
ATOM     79  O   UNL A   1      34.576  31.699  28.957  1.00  0.00    -0.744 OA
ENDBRANCH  72  76
ENDBRANCH  45  69
BRANCH  57  80
ATOM     80  C   UNL A   1      44.343  33.870  29.527  1.00  0.00     0.023 A 
ATOM     81  C   UNL A   1      43.816  34.916  28.748  1.00  0.00     0.031 A 
ATOM     82  C   UNL A   1      45.255  34.201  30.545  1.00  0.00     0.131 A 
ATOM     83  C   UNL A   1      44.250  36.233  28.961  1.00  0.00     0.055 A 
ATOM     84  C   UNL A   1      45.631  35.521  30.798  1.00  0.00     0.041 A 
ATOM     85  F   UNL A   1      45.792  33.244  31.320  1.00  0.00    -0.206 F 
ATOM     86  C   UNL A   1      45.139  36.544  29.994  1.00  0.00     0.022 A 
BRANCH  83  87
ATOM     87  S   UNL A   1      43.716  37.524  27.805  1.00  0.00     0.124 S 
ATOM     88  O   UNL A   1      42.570  38.100  28.502  1.00  0.00    -0.237 OA
ATOM     89  O   UNL A   1      44.900  38.373  27.715  1.00  0.00    -0.237 OA
ATOM     90  O   UNL A   1      43.392  36.783  26.587  1.00  0.00    -0.744 OA
ENDBRANCH  83  87
ENDBRANCH  57  80
ENDBRANCH  31  32
ENDBRANCH  24  26
ENDBRANCH  23  24
ENDBRANCH  22  23
ENDBRANCH  21  22
ENDBRANCH   1  21
TORSDOF 20
ENDMDL
