MODEL 1
REMARK VINA RESULT:     -10.9      0.000      0.000
REMARK SMILES CC(C)[NH2+][C@]1(C(=O)OCCOCCOC(=O)c2ccc(-c3c4nc(c(-c5cc(S(=O)(=O)[O-])ccc5F)c5ccc([nH]5)c(-c5cc(S(=O)(=O)[O-])ccc5F)c5nc(c(-c6cc(S(=O)(=O)[O-])ccc6F)c6ccc3[nH]6)C=C5)C=C4)cc2)CCC[C@@H](Sc2ccc(Cl)cc2)C1
REMARK SMILES IDX 12 1 11 2 10 3 9 4 8 5 6 6 7 7 5 8 80 9 92 10 81 11 83 12
REMARK SMILES IDX 82 13 4 14 2 17 1 18 3 19 84 20 85 21 86 22 91 23 87 24
REMARK SMILES IDX 90 25 88 26 89 27 13 28 14 29 15 30 16 31 17 32 18 33 79 34
REMARK SMILES IDX 19 35 78 36 20 37 21 38 22 39 72 40 23 41 77 42 71 43 73 44
REMARK SMILES IDX 24 45 76 46 70 47 69 48 25 50 57 51 37 52 56 53 38 54 41 55
REMARK SMILES IDX 55 56 74 57 39 58 40 59 54 61 75 62 42 63 26 64 27 65 35 66
REMARK SMILES IDX 28 67 34 68 36 69 33 70 29 71 30 72 31 73 32 74 58 75 59 76
REMARK SMILES IDX 67 77 60 78 66 79 68 80 65 81 61 82 62 83 63 84 64 85 43 86
REMARK SMILES IDX 44 87 52 88 45 89 51 90 53 91 50 92 46 93 47 94 48 95 49 96
REMARK H PARENT 4 15 4 16 73 49 41 60
REMARK Flexibility Score: inf
ROOT
ATOM      1  C   UNL A   1      37.236  19.898  24.995  1.00  0.00     0.202 C 
ENDROOT
BRANCH   1   2
ATOM      2  O   UNL A   1      37.416  21.097  24.241  1.00  0.00    -0.374 OA
BRANCH   2   3
ATOM      3  C   UNL A   1      36.712  22.250  24.703  1.00  0.00     0.202 C 
BRANCH   3   4
ATOM      4  C   UNL A   1      35.868  22.055  25.962  1.00  0.00     0.261 C 
BRANCH   4   5
ATOM      5  O   UNL A   1      34.955  23.152  26.159  1.00  0.00    -0.459 OA
BRANCH   5   6
ATOM      6  C   UNL A   1      33.641  22.830  26.067  1.00  0.00     0.368 C 
ATOM      7  O   UNL A   1      32.989  22.374  27.004  1.00  0.00    -0.245 OA
BRANCH   6   8
ATOM      8  C   UNL A   1      33.042  23.006  24.646  1.00  0.00     0.195 C 
ATOM      9  C   UNL A   1      31.511  23.114  24.902  1.00  0.00     0.081 C 
ATOM     10  C   UNL A   1      33.553  24.359  24.092  1.00  0.00     0.096 C 
ATOM     11  C   UNL A   1      30.712  23.701  23.739  1.00  0.00     0.008 C 
ATOM     12  C   UNL A   1      32.750  24.912  22.919  1.00  0.00     0.058 C 
ATOM     13  C   UNL A   1      31.273  25.051  23.290  1.00  0.00     0.015 C 
BRANCH   8  14
ATOM     14  N   UNL A   1      33.238  21.880  23.698  1.00  0.00    -0.330 N 
ATOM     15  H   UNL A   1      32.899  22.208  22.794  1.00  0.00     0.347 HD
ATOM     16  H   UNL A   1      34.229  21.674  23.818  1.00  0.00     0.347 HD
BRANCH  14  17
ATOM     17  C   UNL A   1      32.632  20.563  23.905  1.00  0.00     0.176 C 
ATOM     18  C   UNL A   1      32.195  20.048  22.522  1.00  0.00     0.075 C 
ATOM     19  C   UNL A   1      33.552  19.508  24.521  1.00  0.00     0.075 C 
ENDBRANCH  14  17
ENDBRANCH   8  14
BRANCH  12  20
ATOM     20  S   UNL A   1      33.462  26.477  22.234  1.00  0.00    -0.122 SA
BRANCH  20  21
ATOM     21  C   UNL A   1      33.033  27.719  23.442  1.00  0.00     0.008 A 
ATOM     22  C   UNL A   1      33.778  27.810  24.622  1.00  0.00     0.016 A 
ATOM     23  C   UNL A   1      31.899  28.528  23.293  1.00  0.00     0.016 A 
ATOM     24  C   UNL A   1      33.418  28.722  25.621  1.00  0.00     0.021 A 
ATOM     25  C   UNL A   1      31.552  29.459  24.278  1.00  0.00     0.021 A 
ATOM     26  C   UNL A   1      32.312  29.549  25.440  1.00  0.00     0.041 A 
ATOM     27  Cl  UNL A   1      31.868  30.668  26.669  1.00  0.00    -0.084 Cl
ENDBRANCH  20  21
ENDBRANCH  12  20
ENDBRANCH   6   8
ENDBRANCH   5   6
ENDBRANCH   4   5
ENDBRANCH   3   4
ENDBRANCH   2   3
ENDBRANCH   1   2
BRANCH   1  28
ATOM     28  C   UNL A   1      38.522  19.209  25.473  1.00  0.00     0.261 C 
BRANCH  28  29
ATOM     29  O   UNL A   1      39.663  20.085  25.355  1.00  0.00    -0.460 OA
BRANCH  29  30
ATOM     30  C   UNL A   1      40.526  20.038  26.401  1.00  0.00     0.338 C 
ATOM     31  O   UNL A   1      41.219  19.086  26.727  1.00  0.00    -0.246 OA
BRANCH  30  32
ATOM     32  C   UNL A   1      40.705  21.387  26.978  1.00  0.00     0.060 A 
ATOM     33  C   UNL A   1      40.018  22.443  26.362  1.00  0.00     0.016 A 
ATOM     34  C   UNL A   1      41.555  21.638  28.056  1.00  0.00     0.016 A 
ATOM     35  C   UNL A   1      40.234  23.757  26.769  1.00  0.00     0.010 A 
ATOM     36  C   UNL A   1      41.774  22.962  28.464  1.00  0.00     0.010 A 
ATOM     37  C   UNL A   1      41.153  24.032  27.790  1.00  0.00    -0.014 A 
BRANCH  37  38
ATOM     38  C   UNL A   1      41.613  25.431  28.000  1.00  0.00     0.031 A 
ATOM     39  C   UNL A   1      42.982  25.819  27.501  1.00  0.00     0.074 A 
ATOM     40  C   UNL A   1      40.819  26.357  28.568  1.00  0.00     0.049 A 
ATOM     41  N   UNL A   1      43.621  26.954  27.618  1.00  0.00    -0.248 NA
ATOM     42  C   UNL A   1      43.728  24.780  26.774  1.00  0.00     0.031 C 
ATOM     43  C   UNL A   1      39.451  26.130  29.029  1.00  0.00     0.029 A 
ATOM     44  N   UNL A   1      41.055  27.680  28.856  1.00  0.00    -0.354 N 
ATOM     45  C   UNL A   1      44.849  26.763  26.991  1.00  0.00     0.074 A 
ATOM     46  C   UNL A   1      44.878  25.391  26.534  1.00  0.00     0.031 C 
ATOM     47  C   UNL A   1      38.970  27.274  29.546  1.00  0.00     0.029 A 
ATOM     48  C   UNL A   1      40.009  28.300  29.500  1.00  0.00     0.049 A 
ATOM     49  H   UNL A   1      41.893  28.140  28.622  1.00  0.00     0.167 HD
ATOM     50  C   UNL A   1      45.856  27.652  26.805  1.00  0.00     0.034 A 
ATOM     51  C   UNL A   1      39.915  29.543  30.019  1.00  0.00     0.034 A 
ATOM     52  C   UNL A   1      45.815  29.019  27.266  1.00  0.00     0.049 A 
ATOM     53  C   UNL A   1      41.091  30.487  29.894  1.00  0.00     0.074 A 
ATOM     54  C   UNL A   1      46.778  30.004  27.123  1.00  0.00     0.029 A 
ATOM     55  N   UNL A   1      44.763  29.594  27.967  1.00  0.00    -0.354 N 
ATOM     56  N   UNL A   1      42.252  30.290  29.313  1.00  0.00    -0.248 NA
ATOM     57  C   UNL A   1      40.938  31.822  30.489  1.00  0.00     0.031 C 
ATOM     58  C   UNL A   1      46.344  31.143  27.808  1.00  0.00     0.029 A 
ATOM     59  C   UNL A   1      45.069  30.906  28.295  1.00  0.00     0.049 A 
ATOM     60  H   UNL A   1      43.922  29.136  28.197  1.00  0.00     0.167 HD
ATOM     61  C   UNL A   1      42.948  31.492  29.437  1.00  0.00     0.074 A 
ATOM     62  C   UNL A   1      42.074  32.406  30.141  1.00  0.00     0.031 C 
ATOM     63  C   UNL A   1      44.192  31.813  28.998  1.00  0.00     0.034 A 
BRANCH  50  64
ATOM     64  C   UNL A   1      47.109  27.153  26.124  1.00  0.00     0.023 A 
ATOM     65  C   UNL A   1      48.092  26.423  26.816  1.00  0.00     0.031 A 
ATOM     66  C   UNL A   1      47.335  27.435  24.765  1.00  0.00     0.131 A 
ATOM     67  C   UNL A   1      49.284  26.067  26.168  1.00  0.00     0.055 A 
ATOM     68  C   UNL A   1      48.485  27.001  24.103  1.00  0.00     0.041 A 
ATOM     69  F   UNL A   1      46.447  28.151  24.058  1.00  0.00    -0.206 F 
ATOM     70  C   UNL A   1      49.476  26.326  24.809  1.00  0.00     0.022 A 
BRANCH  67  71
ATOM     71  S   UNL A   1      50.645  25.399  27.164  1.00  0.00     0.124 S 
ATOM     72  O   UNL A   1      49.972  24.336  27.907  1.00  0.00    -0.237 OA
ATOM     73  O   UNL A   1      51.597  24.965  26.148  1.00  0.00    -0.237 OA
ATOM     74  O   UNL A   1      51.070  26.540  27.972  1.00  0.00    -0.744 OA
ENDBRANCH  67  71
ENDBRANCH  50  64
BRANCH  51  75
ATOM     75  C   UNL A   1      38.684  29.965  30.754  1.00  0.00     0.023 A 
ATOM     76  C   UNL A   1      37.678  30.713  30.122  1.00  0.00     0.031 A 
ATOM     77  C   UNL A   1      38.532  29.684  32.124  1.00  0.00     0.131 A 
ATOM     78  C   UNL A   1      36.593  31.197  30.868  1.00  0.00     0.055 A 
ATOM     79  C   UNL A   1      37.419  30.115  32.848  1.00  0.00     0.041 A 
ATOM     80  F   UNL A   1      39.467  28.981  32.782  1.00  0.00    -0.206 F 
ATOM     81  C   UNL A   1      36.448  30.890  32.224  1.00  0.00     0.022 A 
BRANCH  78  82
ATOM     82  S   UNL A   1      35.420  32.326  30.067  1.00  0.00     0.124 S 
ATOM     83  O   UNL A   1      35.011  31.548  28.903  1.00  0.00    -0.237 OA
ATOM     84  O   UNL A   1      34.413  32.505  31.107  1.00  0.00    -0.237 OA
ATOM     85  O   UNL A   1      36.230  33.507  29.775  1.00  0.00    -0.744 OA
ENDBRANCH  78  82
ENDBRANCH  51  75
BRANCH  63  86
ATOM     86  C   UNL A   1      44.662  33.236  29.204  1.00  0.00     0.023 A 
ATOM     87  C   UNL A   1      44.362  34.264  28.294  1.00  0.00     0.031 A 
ATOM     88  C   UNL A   1      45.422  33.564  30.342  1.00  0.00     0.131 A 
ATOM     89  C   UNL A   1      44.861  35.558  28.512  1.00  0.00     0.055 A 
ATOM     90  C   UNL A   1      45.861  34.867  30.586  1.00  0.00     0.041 A 
ATOM     91  F   UNL A   1      45.744  32.623  31.244  1.00  0.00    -0.206 F 
ATOM     92  C   UNL A   1      45.592  35.871  29.661  1.00  0.00     0.022 A 
BRANCH  89  93
ATOM     93  S   UNL A   1      44.623  36.814  27.224  1.00  0.00     0.124 S 
ATOM     94  O   UNL A   1      44.490  38.036  28.012  1.00  0.00    -0.237 OA
ATOM     95  O   UNL A   1      45.846  36.692  26.438  1.00  0.00    -0.237 OA
ATOM     96  O   UNL A   1      43.404  36.381  26.543  1.00  0.00    -0.744 OA
ENDBRANCH  89  93
ENDBRANCH  63  86
ENDBRANCH  37  38
ENDBRANCH  30  32
ENDBRANCH  29  30
ENDBRANCH  28  29
ENDBRANCH   1  28
TORSDOF 21
ENDMDL
MODEL 2
REMARK VINA RESULT:     -10.4      1.938      2.236
REMARK SMILES CC(C)[NH2+][C@]1(C(=O)OCCOCCOC(=O)c2ccc(-c3c4nc(c(-c5cc(S(=O)(=O)[O-])ccc5F)c5ccc([nH]5)c(-c5cc(S(=O)(=O)[O-])ccc5F)c5nc(c(-c6cc(S(=O)(=O)[O-])ccc6F)c6ccc3[nH]6)C=C5)C=C4)cc2)CCC[C@@H](Sc2ccc(Cl)cc2)C1
REMARK SMILES IDX 12 1 11 2 10 3 9 4 8 5 6 6 7 7 5 8 80 9 92 10 81 11 83 12
REMARK SMILES IDX 82 13 4 14 2 17 1 18 3 19 84 20 85 21 86 22 91 23 87 24
REMARK SMILES IDX 90 25 88 26 89 27 13 28 14 29 15 30 16 31 17 32 18 33 79 34
REMARK SMILES IDX 19 35 78 36 20 37 21 38 22 39 72 40 23 41 77 42 71 43 73 44
REMARK SMILES IDX 24 45 76 46 70 47 69 48 25 50 57 51 37 52 56 53 38 54 41 55
REMARK SMILES IDX 55 56 74 57 39 58 40 59 54 61 75 62 42 63 26 64 27 65 35 66
REMARK SMILES IDX 28 67 34 68 36 69 33 70 29 71 30 72 31 73 32 74 58 75 59 76
REMARK SMILES IDX 67 77 60 78 66 79 68 80 65 81 61 82 62 83 63 84 64 85 43 86
REMARK SMILES IDX 44 87 52 88 45 89 51 90 53 91 50 92 46 93 47 94 48 95 49 96
REMARK H PARENT 4 15 4 16 73 49 41 60
REMARK Flexibility Score: inf
ROOT
ATOM      1  C   UNL A   1      37.853  19.333  24.991  1.00  0.00     0.202 C 
ENDROOT
BRANCH   1   2
ATOM      2  O   UNL A   1      37.324  20.614  24.645  1.00  0.00    -0.374 OA
BRANCH   2   3
ATOM      3  C   UNL A   1      35.966  20.861  25.009  1.00  0.00     0.202 C 
BRANCH   3   4
ATOM      4  C   UNL A   1      35.753  21.855  26.151  1.00  0.00     0.261 C 
BRANCH   4   5
ATOM      5  O   UNL A   1      34.877  22.929  25.758  1.00  0.00    -0.459 OA
BRANCH   5   6
ATOM      6  C   UNL A   1      33.566  22.594  25.659  1.00  0.00     0.368 C 
ATOM      7  O   UNL A   1      32.956  21.987  26.537  1.00  0.00    -0.245 OA
BRANCH   6   8
ATOM      8  C   UNL A   1      32.915  22.970  24.302  1.00  0.00     0.195 C 
ATOM      9  C   UNL A   1      31.403  23.104  24.643  1.00  0.00     0.081 C 
ATOM     10  C   UNL A   1      33.461  24.362  23.895  1.00  0.00     0.096 C 
ATOM     11  C   UNL A   1      30.581  23.862  23.601  1.00  0.00     0.008 C 
ATOM     12  C   UNL A   1      32.633  25.087  22.840  1.00  0.00     0.058 C 
ATOM     13  C   UNL A   1      31.181  25.235  23.295  1.00  0.00     0.015 C 
BRANCH   8  14
ATOM     14  N   UNL A   1      33.020  21.965  23.213  1.00  0.00    -0.330 N 
ATOM     15  H   UNL A   1      32.888  22.477  22.341  1.00  0.00     0.347 HD
ATOM     16  H   UNL A   1      33.924  21.535  23.411  1.00  0.00     0.347 HD
BRANCH  14  17
ATOM     17  C   UNL A   1      32.143  20.795  23.135  1.00  0.00     0.176 C 
ATOM     18  C   UNL A   1      31.800  20.591  21.649  1.00  0.00     0.075 C 
ATOM     19  C   UNL A   1      32.745  19.489  23.655  1.00  0.00     0.075 C 
ENDBRANCH  14  17
ENDBRANCH   8  14
BRANCH  12  20
ATOM     20  S   UNL A   1      33.383  26.698  22.320  1.00  0.00    -0.122 SA
BRANCH  20  21
ATOM     21  C   UNL A   1      33.046  27.798  23.684  1.00  0.00     0.008 A 
ATOM     22  C   UNL A   1      32.002  28.723  23.574  1.00  0.00     0.016 A 
ATOM     23  C   UNL A   1      33.872  27.841  24.814  1.00  0.00     0.016 A 
ATOM     24  C   UNL A   1      31.763  29.650  24.596  1.00  0.00     0.021 A 
ATOM     25  C   UNL A   1      33.620  28.748  25.849  1.00  0.00     0.021 A 
ATOM     26  C   UNL A   1      32.568  29.651  25.733  1.00  0.00     0.041 A 
ATOM     27  Cl  UNL A   1      32.275  30.792  26.987  1.00  0.00    -0.084 Cl
ENDBRANCH  20  21
ENDBRANCH  12  20
ENDBRANCH   6   8
ENDBRANCH   5   6
ENDBRANCH   4   5
ENDBRANCH   3   4
ENDBRANCH   2   3
ENDBRANCH   1   2
BRANCH   1  28
ATOM     28  C   UNL A   1      39.268  19.333  25.586  1.00  0.00     0.261 C 
BRANCH  28  29
ATOM     29  O   UNL A   1      39.639  20.644  26.061  1.00  0.00    -0.460 OA
BRANCH  29  30
ATOM     30  C   UNL A   1      40.674  20.659  26.938  1.00  0.00     0.338 C 
ATOM     31  O   UNL A   1      41.471  19.754  27.134  1.00  0.00    -0.246 OA
BRANCH  30  32
ATOM     32  C   UNL A   1      40.869  22.022  27.477  1.00  0.00     0.060 A 
ATOM     33  C   UNL A   1      40.066  23.041  26.945  1.00  0.00     0.016 A 
ATOM     34  C   UNL A   1      41.838  22.321  28.436  1.00  0.00     0.016 A 
ATOM     35  C   UNL A   1      40.278  24.368  27.311  1.00  0.00     0.010 A 
ATOM     36  C   UNL A   1      42.052  23.657  28.803  1.00  0.00     0.010 A 
ATOM     37  C   UNL A   1      41.306  24.692  28.205  1.00  0.00    -0.014 A 
BRANCH  37  38
ATOM     38  C   UNL A   1      41.731  26.111  28.344  1.00  0.00     0.031 A 
ATOM     39  C   UNL A   1      43.061  26.523  27.765  1.00  0.00     0.074 A 
ATOM     40  C   UNL A   1      40.936  27.033  28.919  1.00  0.00     0.049 A 
ATOM     41  N   UNL A   1      43.669  27.681  27.812  1.00  0.00    -0.248 NA
ATOM     42  C   UNL A   1      43.804  25.482  27.038  1.00  0.00     0.031 C 
ATOM     43  C   UNL A   1      39.599  26.781  29.453  1.00  0.00     0.029 A 
ATOM     44  N   UNL A   1      41.143  28.372  29.149  1.00  0.00    -0.354 N 
ATOM     45  C   UNL A   1      44.870  27.505  27.132  1.00  0.00     0.074 A 
ATOM     46  C   UNL A   1      44.921  26.118  26.722  1.00  0.00     0.031 C 
ATOM     47  C   UNL A   1      39.107  27.928  29.954  1.00  0.00     0.029 A 
ATOM     48  C   UNL A   1      40.110  28.983  29.821  1.00  0.00     0.049 A 
ATOM     49  H   UNL A   1      41.953  28.848  28.858  1.00  0.00     0.167 HD
ATOM     50  C   UNL A   1      45.838  28.416  26.867  1.00  0.00     0.034 A 
ATOM     51  C   UNL A   1      40.001  30.240  30.302  1.00  0.00     0.034 A 
ATOM     52  C   UNL A   1      45.776  29.797  27.281  1.00  0.00     0.049 A 
ATOM     53  C   UNL A   1      41.138  31.214  30.087  1.00  0.00     0.074 A 
ATOM     54  C   UNL A   1      46.698  30.805  27.058  1.00  0.00     0.029 A 
ATOM     55  N   UNL A   1      44.740  30.364  28.014  1.00  0.00    -0.354 N 
ATOM     56  N   UNL A   1      42.276  31.032  29.456  1.00  0.00    -0.248 NA
ATOM     57  C   UNL A   1      40.971  32.564  30.642  1.00  0.00     0.031 C 
ATOM     58  C   UNL A   1      46.262  31.954  27.724  1.00  0.00     0.029 A 
ATOM     59  C   UNL A   1      45.020  31.696  28.281  1.00  0.00     0.049 A 
ATOM     60  H   UNL A   1      43.927  29.890  28.300  1.00  0.00     0.167 HD
ATOM     61  C   UNL A   1      42.938  32.258  29.505  1.00  0.00     0.074 A 
ATOM     62  C   UNL A   1      42.071  33.170  30.220  1.00  0.00     0.031 C 
ATOM     63  C   UNL A   1      44.149  32.601  28.995  1.00  0.00     0.034 A 
BRANCH  50  64
ATOM     64  C   UNL A   1      47.072  27.931  26.143  1.00  0.00     0.023 A 
ATOM     65  C   UNL A   1      47.250  28.127  24.762  1.00  0.00     0.031 A 
ATOM     66  C   UNL A   1      48.075  27.237  26.842  1.00  0.00     0.131 A 
ATOM     67  C   UNL A   1      48.364  27.571  24.114  1.00  0.00     0.055 A 
ATOM     68  C   UNL A   1      49.224  26.762  26.207  1.00  0.00     0.041 A 
ATOM     69  F   UNL A   1      47.949  26.995  28.156  1.00  0.00    -0.206 F 
ATOM     70  C   UNL A   1      49.366  26.915  24.831  1.00  0.00     0.022 A 
BRANCH  67  71
ATOM     71  S   UNL A   1      48.407  27.584  22.301  1.00  0.00     0.124 S 
ATOM     72  O   UNL A   1      47.100  28.150  21.979  1.00  0.00    -0.237 OA
ATOM     73  O   UNL A   1      49.559  28.432  22.017  1.00  0.00    -0.237 OA
ATOM     74  O   UNL A   1      48.569  26.173  21.953  1.00  0.00    -0.744 OA
ENDBRANCH  67  71
ENDBRANCH  50  64
BRANCH  51  75
ATOM     75  C   UNL A   1      38.794  30.650  31.081  1.00  0.00     0.023 A 
ATOM     76  C   UNL A   1      37.666  31.195  30.446  1.00  0.00     0.031 A 
ATOM     77  C   UNL A   1      38.782  30.569  32.486  1.00  0.00     0.131 A 
ATOM     78  C   UNL A   1      36.597  31.682  31.214  1.00  0.00     0.055 A 
ATOM     79  C   UNL A   1      37.690  30.997  33.242  1.00  0.00     0.041 A 
ATOM     80  F   UNL A   1      39.836  30.065  33.147  1.00  0.00    -0.206 F 
ATOM     81  C   UNL A   1      36.594  31.572  32.607  1.00  0.00     0.022 A 
BRANCH  78  82
ATOM     82  S   UNL A   1      35.251  32.559  30.373  1.00  0.00     0.124 S 
ATOM     83  O   UNL A   1      34.965  31.663  29.258  1.00  0.00    -0.237 OA
ATOM     84  O   UNL A   1      34.235  32.629  31.418  1.00  0.00    -0.237 OA
ATOM     85  O   UNL A   1      35.855  33.839  30.007  1.00  0.00    -0.744 OA
ENDBRANCH  78  82
ENDBRANCH  51  75
BRANCH  63  86
ATOM     86  C   UNL A   1      44.582  34.043  29.128  1.00  0.00     0.023 A 
ATOM     87  C   UNL A   1      45.356  34.498  30.210  1.00  0.00     0.031 A 
ATOM     88  C   UNL A   1      44.213  34.979  28.144  1.00  0.00     0.131 A 
ATOM     89  C   UNL A   1      45.693  35.857  30.307  1.00  0.00     0.055 A 
ATOM     90  C   UNL A   1      44.607  36.317  28.212  1.00  0.00     0.041 A 
ATOM     91  F   UNL A   1      43.471  34.605  27.089  1.00  0.00    -0.206 F 
ATOM     92  C   UNL A   1      45.341  36.765  29.306  1.00  0.00     0.022 A 
BRANCH  89  93
ATOM     93  S   UNL A   1      46.522  36.446  31.810  1.00  0.00     0.124 S 
ATOM     94  O   UNL A   1      47.618  37.238  31.262  1.00  0.00    -0.237 OA
ATOM     95  O   UNL A   1      45.463  37.197  32.477  1.00  0.00    -0.237 OA
ATOM     96  O   UNL A   1      46.925  35.213  32.485  1.00  0.00    -0.744 OA
ENDBRANCH  89  93
ENDBRANCH  63  86
ENDBRANCH  37  38
ENDBRANCH  30  32
ENDBRANCH  29  30
ENDBRANCH  28  29
ENDBRANCH   1  28
TORSDOF 21
ENDMDL
MODEL 3
REMARK VINA RESULT:     -10.4      1.787      2.161
REMARK SMILES CC(C)[NH2+][C@]1(C(=O)OCCOCCOC(=O)c2ccc(-c3c4nc(c(-c5cc(S(=O)(=O)[O-])ccc5F)c5ccc([nH]5)c(-c5cc(S(=O)(=O)[O-])ccc5F)c5nc(c(-c6cc(S(=O)(=O)[O-])ccc6F)c6ccc3[nH]6)C=C5)C=C4)cc2)CCC[C@@H](Sc2ccc(Cl)cc2)C1
REMARK SMILES IDX 12 1 11 2 10 3 9 4 8 5 6 6 7 7 5 8 80 9 92 10 81 11 83 12
REMARK SMILES IDX 82 13 4 14 2 17 1 18 3 19 84 20 85 21 86 22 91 23 87 24
REMARK SMILES IDX 90 25 88 26 89 27 13 28 14 29 15 30 16 31 17 32 18 33 79 34
REMARK SMILES IDX 19 35 78 36 20 37 21 38 22 39 72 40 23 41 77 42 71 43 73 44
REMARK SMILES IDX 24 45 76 46 70 47 69 48 25 50 57 51 37 52 56 53 38 54 41 55
REMARK SMILES IDX 55 56 74 57 39 58 40 59 54 61 75 62 42 63 26 64 27 65 35 66
REMARK SMILES IDX 28 67 34 68 36 69 33 70 29 71 30 72 31 73 32 74 58 75 59 76
REMARK SMILES IDX 67 77 60 78 66 79 68 80 65 81 61 82 62 83 63 84 64 85 43 86
REMARK SMILES IDX 44 87 52 88 45 89 51 90 53 91 50 92 46 93 47 94 48 95 49 96
REMARK H PARENT 4 15 4 16 73 49 41 60
REMARK Flexibility Score: inf
ROOT
ATOM      1  C   UNL A   1      37.470  19.592  24.835  1.00  0.00     0.202 C 
ENDROOT
BRANCH   1   2
ATOM      2  O   UNL A   1      36.734  20.797  25.048  1.00  0.00    -0.374 OA
BRANCH   2   3
ATOM      3  C   UNL A   1      35.312  20.676  25.083  1.00  0.00     0.202 C 
BRANCH   3   4
ATOM      4  C   UNL A   1      34.624  21.259  26.317  1.00  0.00     0.261 C 
BRANCH   4   5
ATOM      5  O   UNL A   1      34.298  22.650  26.131  1.00  0.00    -0.459 OA
BRANCH   5   6
ATOM      6  C   UNL A   1      33.124  23.044  26.683  1.00  0.00     0.368 C 
ATOM      7  O   UNL A   1      32.820  22.823  27.854  1.00  0.00    -0.245 OA
BRANCH   6   8
ATOM      8  C   UNL A   1      32.151  23.729  25.687  1.00  0.00     0.195 C 
ATOM      9  C   UNL A   1      30.867  23.969  26.531  1.00  0.00     0.081 C 
ATOM     10  C   UNL A   1      32.765  25.100  25.309  1.00  0.00     0.096 C 
ATOM     11  C   UNL A   1      29.897  24.990  25.938  1.00  0.00     0.008 C 
ATOM     12  C   UNL A   1      31.779  26.093  24.700  1.00  0.00     0.058 C 
ATOM     13  C   UNL A   1      30.589  26.319  25.633  1.00  0.00     0.015 C 
BRANCH   8  14
ATOM     14  N   UNL A   1      31.741  22.931  24.503  1.00  0.00    -0.330 N 
ATOM     15  H   UNL A   1      31.349  22.063  24.868  1.00  0.00     0.347 HD
ATOM     16  H   UNL A   1      31.136  23.587  24.008  1.00  0.00     0.347 HD
BRANCH  14  17
ATOM     17  C   UNL A   1      32.683  22.541  23.452  1.00  0.00     0.176 C 
ATOM     18  C   UNL A   1      32.086  21.309  22.750  1.00  0.00     0.075 C 
ATOM     19  C   UNL A   1      32.945  23.600  22.382  1.00  0.00     0.075 C 
ENDBRANCH  14  17
ENDBRANCH   8  14
BRANCH  12  20
ATOM     20  S   UNL A   1      32.584  27.676  24.176  1.00  0.00    -0.122 SA
BRANCH  20  21
ATOM     21  C   UNL A   1      31.223  28.814  23.978  1.00  0.00     0.008 A 
ATOM     22  C   UNL A   1      30.326  28.628  22.920  1.00  0.00     0.016 A 
ATOM     23  C   UNL A   1      31.096  29.953  24.781  1.00  0.00     0.016 A 
ATOM     24  C   UNL A   1      29.296  29.548  22.694  1.00  0.00     0.021 A 
ATOM     25  C   UNL A   1      30.051  30.860  24.574  1.00  0.00     0.021 A 
ATOM     26  C   UNL A   1      29.157  30.655  23.528  1.00  0.00     0.041 A 
ATOM     27  Cl  UNL A   1      27.891  31.785  23.248  1.00  0.00    -0.084 Cl
ENDBRANCH  20  21
ENDBRANCH  12  20
ENDBRANCH   6   8
ENDBRANCH   5   6
ENDBRANCH   4   5
ENDBRANCH   3   4
ENDBRANCH   2   3
ENDBRANCH   1   2
BRANCH   1  28
ATOM     28  C   UNL A   1      38.920  19.595  25.341  1.00  0.00     0.261 C 
BRANCH  28  29
ATOM     29  O   UNL A   1      39.173  20.725  26.201  1.00  0.00    -0.460 OA
BRANCH  29  30
ATOM     30  C   UNL A   1      40.455  20.836  26.630  1.00  0.00     0.338 C 
ATOM     31  O   UNL A   1      41.369  20.060  26.395  1.00  0.00    -0.246 OA
BRANCH  30  32
ATOM     32  C   UNL A   1      40.677  22.164  27.242  1.00  0.00     0.060 A 
ATOM     33  C   UNL A   1      39.858  23.215  26.805  1.00  0.00     0.016 A 
ATOM     34  C   UNL A   1      41.686  22.404  28.177  1.00  0.00     0.016 A 
ATOM     35  C   UNL A   1      40.090  24.517  27.241  1.00  0.00     0.010 A 
ATOM     36  C   UNL A   1      41.920  23.715  28.613  1.00  0.00     0.010 A 
ATOM     37  C   UNL A   1      41.155  24.786  28.109  1.00  0.00    -0.014 A 
BRANCH  37  38
ATOM     38  C   UNL A   1      41.591  26.193  28.316  1.00  0.00     0.031 A 
ATOM     39  C   UNL A   1      42.955  26.603  27.822  1.00  0.00     0.074 A 
ATOM     40  C   UNL A   1      40.780  27.108  28.877  1.00  0.00     0.049 A 
ATOM     41  N   UNL A   1      43.575  27.749  27.936  1.00  0.00    -0.248 NA
ATOM     42  C   UNL A   1      43.721  25.573  27.101  1.00  0.00     0.031 C 
ATOM     43  C   UNL A   1      39.413  26.860  29.333  1.00  0.00     0.029 A 
ATOM     44  N   UNL A   1      40.992  28.436  29.161  1.00  0.00    -0.354 N 
ATOM     45  C   UNL A   1      44.809  27.576  27.316  1.00  0.00     0.074 A 
ATOM     46  C   UNL A   1      44.862  26.202  26.865  1.00  0.00     0.031 C 
ATOM     47  C   UNL A   1      38.911  27.998  29.844  1.00  0.00     0.029 A 
ATOM     48  C   UNL A   1      39.933  29.042  29.797  1.00  0.00     0.049 A 
ATOM     49  H   UNL A   1      41.822  28.909  28.929  1.00  0.00     0.167 HD
ATOM     50  C   UNL A   1      45.801  28.480  27.131  1.00  0.00     0.034 A 
ATOM     51  C   UNL A   1      39.816  30.285  30.312  1.00  0.00     0.034 A 
ATOM     52  C   UNL A   1      45.736  29.848  27.585  1.00  0.00     0.049 A 
ATOM     53  C   UNL A   1      40.976  31.247  30.188  1.00  0.00     0.074 A 
ATOM     54  C   UNL A   1      46.682  30.848  27.443  1.00  0.00     0.029 A 
ATOM     55  N   UNL A   1      44.671  30.408  28.280  1.00  0.00    -0.354 N 
ATOM     56  N   UNL A   1      42.143  31.068  29.612  1.00  0.00    -0.248 NA
ATOM     57  C   UNL A   1      40.798  32.582  30.776  1.00  0.00     0.031 C 
ATOM     58  C   UNL A   1      46.227  31.983  28.121  1.00  0.00     0.029 A 
ATOM     59  C   UNL A   1      44.954  31.727  28.604  1.00  0.00     0.049 A 
ATOM     60  H   UNL A   1      43.837  29.937  28.508  1.00  0.00     0.167 HD
ATOM     61  C   UNL A   1      42.818  32.281  29.735  1.00  0.00     0.074 A 
ATOM     62  C   UNL A   1      41.927  33.184  30.432  1.00  0.00     0.031 C 
ATOM     63  C   UNL A   1      44.058  32.622  29.300  1.00  0.00     0.034 A 
BRANCH  50  64
ATOM     64  C   UNL A   1      47.065  27.999  26.457  1.00  0.00     0.023 A 
ATOM     65  C   UNL A   1      47.264  28.125  25.071  1.00  0.00     0.031 A 
ATOM     66  C   UNL A   1      48.077  27.380  27.212  1.00  0.00     0.131 A 
ATOM     67  C   UNL A   1      48.409  27.573  24.476  1.00  0.00     0.055 A 
ATOM     68  C   UNL A   1      49.254  26.911  26.625  1.00  0.00     0.041 A 
ATOM     69  F   UNL A   1      47.933  27.206  28.535  1.00  0.00    -0.206 F 
ATOM     70  C   UNL A   1      49.418  26.993  25.246  1.00  0.00     0.022 A 
BRANCH  67  71
ATOM     71  S   UNL A   1      48.488  27.488  22.665  1.00  0.00     0.124 S 
ATOM     72  O   UNL A   1      49.744  28.182  22.391  1.00  0.00    -0.237 OA
ATOM     73  O   UNL A   1      48.483  26.051  22.416  1.00  0.00    -0.237 OA
ATOM     74  O   UNL A   1      47.286  28.200  22.236  1.00  0.00    -0.744 OA
ENDBRANCH  67  71
ENDBRANCH  50  64
BRANCH  51  75
ATOM     75  C   UNL A   1      38.575  30.688  31.039  1.00  0.00     0.023 A 
ATOM     76  C   UNL A   1      37.513  31.322  30.374  1.00  0.00     0.031 A 
ATOM     77  C   UNL A   1      38.466  30.509  32.431  1.00  0.00     0.131 A 
ATOM     78  C   UNL A   1      36.414  31.798  31.105  1.00  0.00     0.055 A 
ATOM     79  C   UNL A   1      37.342  30.928  33.144  1.00  0.00     0.041 A 
ATOM     80  F   UNL A   1      39.454  29.918  33.120  1.00  0.00    -0.206 F 
ATOM     81  C   UNL A   1      36.313  31.591  32.483  1.00  0.00     0.022 A 
BRANCH  78  82
ATOM     82  S   UNL A   1      35.159  32.787  30.245  1.00  0.00     0.124 S 
ATOM     83  O   UNL A   1      34.755  31.883  29.174  1.00  0.00    -0.237 OA
ATOM     84  O   UNL A   1      34.177  33.013  31.300  1.00  0.00    -0.237 OA
ATOM     85  O   UNL A   1      35.897  33.973  29.817  1.00  0.00    -0.744 OA
ENDBRANCH  78  82
ENDBRANCH  51  75
BRANCH  63  86
ATOM     86  C   UNL A   1      44.504  34.052  29.502  1.00  0.00     0.023 A 
ATOM     87  C   UNL A   1      44.389  35.024  28.493  1.00  0.00     0.031 A 
ATOM     88  C   UNL A   1      45.049  34.448  30.737  1.00  0.00     0.131 A 
ATOM     89  C   UNL A   1      44.859  36.327  28.719  1.00  0.00     0.055 A 
ATOM     90  C   UNL A   1      45.455  35.762  30.979  1.00  0.00     0.041 A 
ATOM     91  F   UNL A   1      45.187  33.564  31.738  1.00  0.00    -0.206 F 
ATOM     92  C   UNL A   1      45.373  36.708  29.962  1.00  0.00     0.022 A 
BRANCH  89  93
ATOM     93  S   UNL A   1      44.878  37.502  27.336  1.00  0.00     0.124 S 
ATOM     94  O   UNL A   1      43.481  37.496  26.913  1.00  0.00    -0.237 OA
ATOM     95  O   UNL A   1      45.346  38.728  27.974  1.00  0.00    -0.237 OA
ATOM     96  O   UNL A   1      45.816  36.901  26.389  1.00  0.00    -0.744 OA
ENDBRANCH  89  93
ENDBRANCH  63  86
ENDBRANCH  37  38
ENDBRANCH  30  32
ENDBRANCH  29  30
ENDBRANCH  28  29
ENDBRANCH   1  28
TORSDOF 21
ENDMDL
