MODEL 1
REMARK VINA RESULT:      -9.5      0.000      0.000
REMARK SMILES C=CCN1C(=O)/C(=C/c2ccccc2[N+](=O)[O-])S/C1=[NH+]\c1ccc(O)cc1C(=O)OCCOCCOC(=O)c1ccc(-c2c3nc(c(-c4cc(S(=O)(=O)[O-])ccc4F)c4ccc([nH]4)c(-c4cc(S(=O)(=O)[O-])ccc4F)c4nc(c(-c5cc(S(=O)(=O)[O-])ccc5F)c5ccc2[nH]5)C=C4)C=C3)cc1
REMARK SMILES IDX 33 1 32 2 31 3 30 4 28 5 29 6 27 7 21 8 22 9 23 10 26 11
REMARK SMILES IDX 24 12 20 13 4 14 5 15 19 16 6 17 7 18 18 19 8 20 3 22 2 23
REMARK SMILES IDX 1 24 9 25 10 26 14 27 11 28 13 29 12 30 15 31 16 32 17 33
REMARK SMILES IDX 25 34 34 36 35 37 36 38 37 39 38 40 39 41 40 42 101 43 41 44
REMARK SMILES IDX 100 45 42 46 43 47 44 48 94 49 45 50 99 51 93 52 95 53 46 54
REMARK SMILES IDX 98 55 92 56 91 57 47 59 79 60 59 61 78 62 60 63 63 64 77 65
REMARK SMILES IDX 96 66 61 67 62 68 76 70 97 71 64 72 48 73 49 74 57 75 50 76
REMARK SMILES IDX 56 77 58 78 55 79 51 80 52 81 53 82 54 83 80 84 81 85 89 86
REMARK SMILES IDX 82 87 88 88 90 89 87 90 83 91 84 92 85 93 86 94 65 95 66 96
REMARK SMILES IDX 74 97 67 98 73 99 75 100 72 101 68 102 69 103 70 104 71 105
REMARK H PARENT 20 21 25 35 95 58 63 69
REMARK Flexibility Score: inf
ROOT
ATOM      1  O   UNL A   1      49.454  25.508  40.133  1.00  0.00    -0.374 OA
ENDROOT
BRANCH   1   2
ATOM      2  C   UNL A   1      49.283  24.118  39.870  1.00  0.00     0.202 C 
BRANCH   2   3
ATOM      3  C   UNL A   1      47.856  23.565  39.867  1.00  0.00     0.261 C 
BRANCH   3   4
ATOM      4  O   UNL A   1      47.559  22.808  38.684  1.00  0.00    -0.460 OA
BRANCH   4   5
ATOM      5  C   UNL A   1      46.242  22.725  38.374  1.00  0.00     0.342 C 
ATOM      6  O   UNL A   1      45.345  23.400  38.861  1.00  0.00    -0.246 OA
BRANCH   5   7
ATOM      7  C   UNL A   1      45.978  21.781  37.259  1.00  0.00     0.110 A 
ATOM      8  C   UNL A   1      46.375  20.426  37.207  1.00  0.00     0.140 A 
ATOM      9  C   UNL A   1      46.009  19.686  36.069  1.00  0.00     0.056 A 
ATOM     10  C   UNL A   1      45.275  20.253  35.023  1.00  0.00     0.050 A 
ATOM     11  C   UNL A   1      45.236  22.346  36.201  1.00  0.00     0.066 A 
ATOM     12  C   UNL A   1      44.900  21.583  35.094  1.00  0.00     0.116 A 
BRANCH   8  13
ATOM     13  N   UNL A   1      47.205  19.750  38.124  1.00  0.00    -0.234 N 
ATOM     14  N   UNL A   1      49.286  19.090  38.953  1.00  0.00    -0.182 N 
ATOM     15  C   UNL A   1      50.605  18.963  38.568  1.00  0.00     0.348 C 
ATOM     16  C   UNL A   1      48.492  19.838  38.126  1.00  0.00     0.324 C 
ATOM     17  O   UNL A   1      51.426  18.189  39.027  1.00  0.00    -0.240 OA
ATOM     18  C   UNL A   1      50.874  19.849  37.401  1.00  0.00     0.110 C 
ATOM     19  S   UNL A   1      49.496  20.819  37.086  1.00  0.00     0.007 SA
ATOM     20  C   UNL A   1      52.008  19.762  36.693  1.00  0.00     0.039 C 
ATOM     21  H   UNL A   1      46.776  19.180  38.802  1.00  0.00     0.313 HD
BRANCH  14  22
ATOM     22  C   UNL A   1      48.786  18.354  40.098  1.00  0.00     0.275 C 
BRANCH  22  23
ATOM     23  C   UNL A   1      49.100  19.155  41.333  1.00  0.00     0.011 C 
ATOM     24  C   UNL A   1      48.637  18.901  42.565  1.00  0.00     0.008 C 
ENDBRANCH  22  23
ENDBRANCH  14  22
BRANCH  20  25
ATOM     25  C   UNL A   1      52.327  20.466  35.438  1.00  0.00     0.054 A 
ATOM     26  C   UNL A   1      52.134  19.722  34.257  1.00  0.00     0.015 A 
ATOM     27  C   UNL A   1      52.802  21.781  35.302  1.00  0.00     0.276 A 
ATOM     28  C   UNL A   1      52.381  20.281  32.998  1.00  0.00     0.001 A 
ATOM     29  C   UNL A   1      53.035  22.352  34.039  1.00  0.00     0.086 A 
ATOM     30  C   UNL A   1      52.822  21.596  32.888  1.00  0.00     0.007 A 
BRANCH  27  31
ATOM     31  N   UNL A   1      53.115  22.610  36.461  1.00  0.00     0.063 N 
ATOM     32  O   UNL A   1      54.299  22.640  36.830  1.00  0.00    -0.258 OA
ATOM     33  O   UNL A   1      52.182  23.194  37.026  1.00  0.00    -0.258 OA
ENDBRANCH  27  31
ENDBRANCH  20  25
ENDBRANCH   8  13
BRANCH  12  34
ATOM     34  O   UNL A   1      44.208  22.117  34.049  1.00  0.00    -0.508 OA
ATOM     35  H   UNL A   1      44.608  22.178  33.204  1.00  0.00     0.293 HD
ENDBRANCH  12  34
ENDBRANCH   5   7
ENDBRANCH   4   5
ENDBRANCH   3   4
ENDBRANCH   2   3
ENDBRANCH   1   2
BRANCH   1  36
ATOM     36  C   UNL A   1      48.382  26.394  39.822  1.00  0.00     0.202 C 
BRANCH  36  37
ATOM     37  C   UNL A   1      48.400  27.146  38.483  1.00  0.00     0.261 C 
BRANCH  37  38
ATOM     38  O   UNL A   1      47.199  27.011  37.704  1.00  0.00    -0.460 OA
BRANCH  38  39
ATOM     39  C   UNL A   1      47.331  26.202  36.623  1.00  0.00     0.338 C 
ATOM     40  O   UNL A   1      48.061  25.226  36.525  1.00  0.00    -0.246 OA
BRANCH  39  41
ATOM     41  C   UNL A   1      46.342  26.544  35.586  1.00  0.00     0.060 A 
ATOM     42  C   UNL A   1      46.579  27.692  34.822  1.00  0.00     0.016 A 
ATOM     43  C   UNL A   1      45.142  25.841  35.460  1.00  0.00     0.016 A 
ATOM     44  C   UNL A   1      45.593  28.174  33.965  1.00  0.00     0.010 A 
ATOM     45  C   UNL A   1      44.149  26.331  34.601  1.00  0.00     0.010 A 
ATOM     46  C   UNL A   1      44.355  27.521  33.879  1.00  0.00    -0.014 A 
BRANCH  46  47
ATOM     47  C   UNL A   1      43.251  28.175  33.132  1.00  0.00     0.031 A 
ATOM     48  C   UNL A   1      43.006  27.804  31.693  1.00  0.00     0.074 A 
ATOM     49  C   UNL A   1      42.428  29.039  33.753  1.00  0.00     0.049 A 
ATOM     50  N   UNL A   1      42.063  28.205  30.880  1.00  0.00    -0.248 NA
ATOM     51  C   UNL A   1      43.957  26.858  31.094  1.00  0.00     0.031 C 
ATOM     52  C   UNL A   1      42.546  29.450  35.150  1.00  0.00     0.029 A 
ATOM     53  N   UNL A   1      41.328  29.716  33.294  1.00  0.00    -0.354 N 
ATOM     54  C   UNL A   1      42.302  27.557  29.672  1.00  0.00     0.074 A 
ATOM     55  C   UNL A   1      43.511  26.779  29.850  1.00  0.00     0.031 C 
ATOM     56  C   UNL A   1      41.550  30.303  35.439  1.00  0.00     0.029 A 
ATOM     57  C   UNL A   1      40.740  30.518  34.242  1.00  0.00     0.049 A 
ATOM     58  H   UNL A   1      40.992  29.635  32.372  1.00  0.00     0.167 HD
ATOM     59  C   UNL A   1      41.573  27.596  28.527  1.00  0.00     0.034 A 
ATOM     60  C   UNL A   1      39.674  31.339  34.154  1.00  0.00     0.034 A 
ATOM     61  C   UNL A   1      40.379  28.392  28.360  1.00  0.00     0.049 A 
ATOM     62  C   UNL A   1      38.922  31.427  32.850  1.00  0.00     0.074 A 
ATOM     63  C   UNL A   1      39.555  28.494  27.252  1.00  0.00     0.029 A 
ATOM     64  N   UNL A   1      39.846  29.241  29.325  1.00  0.00    -0.354 N 
ATOM     65  N   UNL A   1      39.144  30.794  31.722  1.00  0.00    -0.248 NA
ATOM     66  C   UNL A   1      37.766  32.331  32.815  1.00  0.00     0.031 C 
ATOM     67  C   UNL A   1      38.573  29.455  27.519  1.00  0.00     0.029 A 
ATOM     68  C   UNL A   1      38.728  29.894  28.824  1.00  0.00     0.049 A 
ATOM     69  H   UNL A   1      40.209  29.359  30.233  1.00  0.00     0.167 HD
ATOM     70  C   UNL A   1      38.134  31.200  30.852  1.00  0.00     0.074 A 
ATOM     71  C   UNL A   1      37.298  32.123  31.593  1.00  0.00     0.031 C 
ATOM     72  C   UNL A   1      37.911  30.832  29.563  1.00  0.00     0.034 A 
BRANCH  59  73
ATOM     73  C   UNL A   1      42.090  26.793  27.354  1.00  0.00     0.023 A 
ATOM     74  C   UNL A   1      41.794  25.426  27.203  1.00  0.00     0.031 A 
ATOM     75  C   UNL A   1      42.934  27.388  26.400  1.00  0.00     0.131 A 
ATOM     76  C   UNL A   1      42.406  24.684  26.181  1.00  0.00     0.055 A 
ATOM     77  C   UNL A   1      43.471  26.664  25.334  1.00  0.00     0.041 A 
ATOM     78  F   UNL A   1      43.272  28.684  26.500  1.00  0.00    -0.206 F 
ATOM     79  C   UNL A   1      43.223  25.299  25.230  1.00  0.00     0.022 A 
BRANCH  76  80
ATOM     80  S   UNL A   1      42.258  22.875  26.214  1.00  0.00     0.124 S 
ATOM     81  O   UNL A   1      40.819  22.700  26.395  1.00  0.00    -0.237 OA
ATOM     82  O   UNL A   1      42.790  22.492  24.912  1.00  0.00    -0.237 OA
ATOM     83  O   UNL A   1      43.075  22.485  27.362  1.00  0.00    -0.744 OA
ENDBRANCH  76  80
ENDBRANCH  59  73
BRANCH  60  84
ATOM     84  C   UNL A   1      39.258  32.151  35.332  1.00  0.00     0.023 A 
ATOM     85  C   UNL A   1      39.757  33.447  35.534  1.00  0.00     0.031 A 
ATOM     86  C   UNL A   1      38.369  31.628  36.287  1.00  0.00     0.131 A 
ATOM     87  C   UNL A   1      39.386  34.168  36.681  1.00  0.00     0.055 A 
ATOM     88  C   UNL A   1      37.968  32.365  37.402  1.00  0.00     0.041 A 
ATOM     89  F   UNL A   1      37.865  30.392  36.141  1.00  0.00    -0.206 F 
ATOM     90  C   UNL A   1      38.485  33.640  37.608  1.00  0.00     0.022 A 
BRANCH  87  91
ATOM     91  S   UNL A   1      40.146  35.788  36.974  1.00  0.00     0.124 S 
ATOM     92  O   UNL A   1      41.567  35.471  36.893  1.00  0.00    -0.237 OA
ATOM     93  O   UNL A   1      39.603  36.582  35.876  1.00  0.00    -0.237 OA
ATOM     94  O   UNL A   1      39.663  36.156  38.303  1.00  0.00    -0.744 OA
ENDBRANCH  87  91
ENDBRANCH  60  84
BRANCH  72  95
ATOM     95  C   UNL A   1      36.685  31.402  28.890  1.00  0.00     0.023 A 
ATOM     96  C   UNL A   1      35.614  30.589  28.478  1.00  0.00     0.031 A 
ATOM     97  C   UNL A   1      36.598  32.783  28.635  1.00  0.00     0.131 A 
ATOM     98  C   UNL A   1      34.534  31.152  27.780  1.00  0.00     0.055 A 
ATOM     99  C   UNL A   1      35.492  33.347  27.996  1.00  0.00     0.041 A 
ATOM    100  F   UNL A   1      37.591  33.610  29.002  1.00  0.00    -0.206 F 
ATOM    101  C   UNL A   1      34.459  32.528  27.552  1.00  0.00     0.022 A 
BRANCH  98 102
ATOM    102  S   UNL A   1      33.276  30.048  27.078  1.00  0.00     0.124 S 
ATOM    103  O   UNL A   1      33.211  28.987  28.078  1.00  0.00    -0.237 OA
ATOM    104  O   UNL A   1      32.109  30.919  26.994  1.00  0.00    -0.237 OA
ATOM    105  O   UNL A   1      33.846  29.653  25.791  1.00  0.00    -0.744 OA
ENDBRANCH  98 102
ENDBRANCH  72  95
ENDBRANCH  46  47
ENDBRANCH  39  41
ENDBRANCH  38  39
ENDBRANCH  37  38
ENDBRANCH  36  37
ENDBRANCH   1  36
TORSDOF 23
ENDMDL
MODEL 2
REMARK VINA RESULT:      -9.4      2.281      8.027
REMARK SMILES C=CCN1C(=O)/C(=C/c2ccccc2[N+](=O)[O-])S/C1=[NH+]\c1ccc(O)cc1C(=O)OCCOCCOC(=O)c1ccc(-c2c3nc(c(-c4cc(S(=O)(=O)[O-])ccc4F)c4ccc([nH]4)c(-c4cc(S(=O)(=O)[O-])ccc4F)c4nc(c(-c5cc(S(=O)(=O)[O-])ccc5F)c5ccc2[nH]5)C=C4)C=C3)cc1
REMARK SMILES IDX 33 1 32 2 31 3 30 4 28 5 29 6 27 7 21 8 22 9 23 10 26 11
REMARK SMILES IDX 24 12 20 13 4 14 5 15 19 16 6 17 7 18 18 19 8 20 3 22 2 23
REMARK SMILES IDX 1 24 9 25 10 26 14 27 11 28 13 29 12 30 15 31 16 32 17 33
REMARK SMILES IDX 25 34 34 36 35 37 36 38 37 39 38 40 39 41 40 42 101 43 41 44
REMARK SMILES IDX 100 45 42 46 43 47 44 48 94 49 45 50 99 51 93 52 95 53 46 54
REMARK SMILES IDX 98 55 92 56 91 57 47 59 79 60 59 61 78 62 60 63 63 64 77 65
REMARK SMILES IDX 96 66 61 67 62 68 76 70 97 71 64 72 48 73 49 74 57 75 50 76
REMARK SMILES IDX 56 77 58 78 55 79 51 80 52 81 53 82 54 83 80 84 81 85 89 86
REMARK SMILES IDX 82 87 88 88 90 89 87 90 83 91 84 92 85 93 86 94 65 95 66 96
REMARK SMILES IDX 74 97 67 98 73 99 75 100 72 101 68 102 69 103 70 104 71 105
REMARK H PARENT 20 21 25 35 95 58 63 69
REMARK Flexibility Score: inf
ROOT
ATOM      1  O   UNL A   1      49.465  26.199  39.317  1.00  0.00    -0.374 OA
ENDROOT
BRANCH   1   2
ATOM      2  C   UNL A   1      48.900  25.087  40.005  1.00  0.00     0.202 C 
BRANCH   2   3
ATOM      3  C   UNL A   1      47.456  24.704  39.671  1.00  0.00     0.261 C 
BRANCH   3   4
ATOM      4  O   UNL A   1      47.182  23.316  39.913  1.00  0.00    -0.460 OA
BRANCH   4   5
ATOM      5  C   UNL A   1      46.035  22.855  39.357  1.00  0.00     0.342 C 
ATOM      6  O   UNL A   1      45.035  22.497  39.964  1.00  0.00    -0.246 OA
BRANCH   5   7
ATOM      7  C   UNL A   1      46.051  22.929  37.874  1.00  0.00     0.110 A 
ATOM      8  C   UNL A   1      47.020  22.350  37.025  1.00  0.00     0.140 A 
ATOM      9  C   UNL A   1      46.848  22.514  35.638  1.00  0.00     0.056 A 
ATOM     10  C   UNL A   1      45.762  23.214  35.105  1.00  0.00     0.050 A 
ATOM     11  C   UNL A   1      44.957  23.634  37.330  1.00  0.00     0.066 A 
ATOM     12  C   UNL A   1      44.828  23.777  35.957  1.00  0.00     0.116 A 
BRANCH   8  13
ATOM     13  N   UNL A   1      48.216  21.715  37.412  1.00  0.00    -0.234 N 
ATOM     14  N   UNL A   1      49.427  19.971  38.386  1.00  0.00    -0.182 N 
ATOM     15  C   UNL A   1      49.274  18.914  39.261  1.00  0.00     0.348 C 
ATOM     16  C   UNL A   1      48.269  20.528  37.915  1.00  0.00     0.324 C 
ATOM     17  O   UNL A   1      50.141  18.412  39.953  1.00  0.00    -0.240 OA
ATOM     18  C   UNL A   1      47.837  18.528  39.333  1.00  0.00     0.110 C 
ATOM     19  S   UNL A   1      46.942  19.422  38.177  1.00  0.00     0.007 SA
ATOM     20  C   UNL A   1      47.379  17.680  40.264  1.00  0.00     0.039 C 
ATOM     21  H   UNL A   1      49.061  22.206  37.291  1.00  0.00     0.313 HD
BRANCH  14  22
ATOM     22  C   UNL A   1      50.746  20.507  38.113  1.00  0.00     0.275 C 
BRANCH  22  23
ATOM     23  C   UNL A   1      51.319  19.747  36.946  1.00  0.00     0.011 C 
ATOM     24  C   UNL A   1      52.092  20.265  35.983  1.00  0.00     0.008 C 
ENDBRANCH  22  23
ENDBRANCH  14  22
BRANCH  20  25
ATOM     25  C   UNL A   1      45.972  17.340  40.539  1.00  0.00     0.054 A 
ATOM     26  C   UNL A   1      45.381  16.424  39.647  1.00  0.00     0.015 A 
ATOM     27  C   UNL A   1      45.170  17.834  41.582  1.00  0.00     0.276 A 
ATOM     28  C   UNL A   1      44.056  16.002  39.809  1.00  0.00     0.001 A 
ATOM     29  C   UNL A   1      43.844  17.400  41.758  1.00  0.00     0.086 A 
ATOM     30  C   UNL A   1      43.291  16.482  40.868  1.00  0.00     0.007 A 
BRANCH  27  31
ATOM     31  N   UNL A   1      45.655  18.848  42.510  1.00  0.00     0.063 N 
ATOM     32  O   UNL A   1      45.525  20.034  42.169  1.00  0.00    -0.258 OA
ATOM     33  O   UNL A   1      46.198  18.467  43.555  1.00  0.00    -0.258 OA
ENDBRANCH  27  31
ENDBRANCH  20  25
ENDBRANCH   8  13
BRANCH  12  34
ATOM     34  O   UNL A   1      43.794  24.477  35.413  1.00  0.00    -0.508 OA
ATOM     35  H   UNL A   1      43.848  25.409  35.336  1.00  0.00     0.293 HD
ENDBRANCH  12  34
ENDBRANCH   5   7
ENDBRANCH   4   5
ENDBRANCH   3   4
ENDBRANCH   2   3
ENDBRANCH   1   2
BRANCH   1  36
ATOM     36  C   UNL A   1      48.652  26.905  38.385  1.00  0.00     0.202 C 
BRANCH  36  37
ATOM     37  C   UNL A   1      48.651  28.441  38.409  1.00  0.00     0.261 C 
BRANCH  37  38
ATOM     38  O   UNL A   1      47.697  29.054  37.526  1.00  0.00    -0.460 OA
BRANCH  38  39
ATOM     39  C   UNL A   1      48.134  29.186  36.248  1.00  0.00     0.338 C 
ATOM     40  O   UNL A   1      49.296  29.269  35.878  1.00  0.00    -0.246 OA
BRANCH  39  41
ATOM     41  C   UNL A   1      47.018  29.056  35.295  1.00  0.00     0.060 A 
ATOM     42  C   UNL A   1      46.841  30.087  34.364  1.00  0.00     0.016 A 
ATOM     43  C   UNL A   1      46.082  28.025  35.400  1.00  0.00     0.016 A 
ATOM     44  C   UNL A   1      45.698  30.119  33.569  1.00  0.00     0.010 A 
ATOM     45  C   UNL A   1      44.930  28.063  34.603  1.00  0.00     0.010 A 
ATOM     46  C   UNL A   1      44.714  29.130  33.712  1.00  0.00    -0.014 A 
BRANCH  46  47
ATOM     47  C   UNL A   1      43.414  29.307  33.016  1.00  0.00     0.031 A 
ATOM     48  C   UNL A   1      42.297  30.042  33.706  1.00  0.00     0.074 A 
ATOM     49  C   UNL A   1      43.258  28.877  31.751  1.00  0.00     0.049 A 
ATOM     50  N   UNL A   1      41.109  30.361  33.257  1.00  0.00    -0.248 NA
ATOM     51  C   UNL A   1      42.554  30.469  35.088  1.00  0.00     0.031 C 
ATOM     52  C   UNL A   1      44.278  28.182  30.970  1.00  0.00     0.029 A 
ATOM     53  N   UNL A   1      42.187  28.972  30.899  1.00  0.00    -0.354 N 
ATOM     54  C   UNL A   1      40.477  31.032  34.299  1.00  0.00     0.074 A 
ATOM     55  C   UNL A   1      41.398  31.024  35.418  1.00  0.00     0.031 C 
ATOM     56  C   UNL A   1      43.788  27.920  29.747  1.00  0.00     0.029 A 
ATOM     57  C   UNL A   1      42.412  28.405  29.668  1.00  0.00     0.049 A 
ATOM     58  H   UNL A   1      41.338  29.404  31.147  1.00  0.00     0.167 HD
ATOM     59  C   UNL A   1      39.249  31.612  34.316  1.00  0.00     0.034 A 
ATOM     60  C   UNL A   1      41.599  28.285  28.599  1.00  0.00     0.034 A 
ATOM     61  C   UNL A   1      38.335  31.594  33.198  1.00  0.00     0.049 A 
ATOM     62  C   UNL A   1      40.210  28.869  28.664  1.00  0.00     0.074 A 
ATOM     63  C   UNL A   1      37.077  32.163  33.100  1.00  0.00     0.029 A 
ATOM     64  N   UNL A   1      38.574  30.957  31.984  1.00  0.00    -0.354 N 
ATOM     65  N   UNL A   1      39.631  29.520  29.647  1.00  0.00    -0.248 NA
ATOM     66  C   UNL A   1      39.373  28.714  27.468  1.00  0.00     0.031 C 
ATOM     67  C   UNL A   1      36.527  31.808  31.862  1.00  0.00     0.029 A 
ATOM     68  C   UNL A   1      37.473  31.089  31.149  1.00  0.00     0.049 A 
ATOM     69  H   UNL A   1      39.405  30.483  31.751  1.00  0.00     0.167 HD
ATOM     70  C   UNL A   1      38.371  29.880  29.174  1.00  0.00     0.074 A 
ATOM     71  C   UNL A   1      38.282  29.382  27.815  1.00  0.00     0.031 C 
ATOM     72  C   UNL A   1      37.384  30.571  29.801  1.00  0.00     0.034 A 
BRANCH  59  73
ATOM     73  C   UNL A   1      38.813  32.263  35.610  1.00  0.00     0.023 A 
ATOM     74  C   UNL A   1      38.294  31.512  36.681  1.00  0.00     0.031 A 
ATOM     75  C   UNL A   1      38.870  33.660  35.758  1.00  0.00     0.131 A 
ATOM     76  C   UNL A   1      37.771  32.165  37.808  1.00  0.00     0.055 A 
ATOM     77  C   UNL A   1      38.428  34.298  36.920  1.00  0.00     0.041 A 
ATOM     78  F   UNL A   1      39.335  34.435  34.765  1.00  0.00    -0.206 F 
ATOM     79  C   UNL A   1      37.857  33.552  37.945  1.00  0.00     0.022 A 
BRANCH  76  80
ATOM     80  S   UNL A   1      36.822  31.193  39.011  1.00  0.00     0.124 S 
ATOM     81  O   UNL A   1      36.786  29.881  38.368  1.00  0.00    -0.237 OA
ATOM     82  O   UNL A   1      37.640  31.294  40.213  1.00  0.00    -0.237 OA
ATOM     83  O   UNL A   1      35.534  31.883  39.071  1.00  0.00    -0.744 OA
ENDBRANCH  76  80
ENDBRANCH  59  73
BRANCH  60  84
ATOM     84  C   UNL A   1      42.072  27.574  27.378  1.00  0.00     0.023 A 
ATOM     85  C   UNL A   1      42.090  26.172  27.314  1.00  0.00     0.031 A 
ATOM     86  C   UNL A   1      42.535  28.294  26.262  1.00  0.00     0.131 A 
ATOM     87  C   UNL A   1      42.591  25.531  26.169  1.00  0.00     0.055 A 
ATOM     88  C   UNL A   1      42.988  27.653  25.108  1.00  0.00     0.041 A 
ATOM     89  F   UNL A   1      42.539  29.636  26.273  1.00  0.00    -0.206 F 
ATOM     90  C   UNL A   1      43.026  26.262  25.061  1.00  0.00     0.022 A 
BRANCH  87  91
ATOM     91  S   UNL A   1      42.717  23.722  26.170  1.00  0.00     0.124 S 
ATOM     92  O   UNL A   1      41.335  23.327  26.416  1.00  0.00    -0.237 OA
ATOM     93  O   UNL A   1      43.232  23.453  24.832  1.00  0.00    -0.237 OA
ATOM     94  O   UNL A   1      43.650  23.446  27.260  1.00  0.00    -0.744 OA
ENDBRANCH  87  91
ENDBRANCH  60  84
BRANCH  72  95
ATOM     95  C   UNL A   1      36.136  30.864  29.000  1.00  0.00     0.023 A 
ATOM     96  C   UNL A   1      35.303  29.840  28.516  1.00  0.00     0.031 A 
ATOM     97  C   UNL A   1      35.790  32.194  28.697  1.00  0.00     0.131 A 
ATOM     98  C   UNL A   1      34.203  30.157  27.705  1.00  0.00     0.055 A 
ATOM     99  C   UNL A   1      34.658  32.506  27.941  1.00  0.00     0.041 A 
ATOM    100  F   UNL A   1      36.549  33.214  29.129  1.00  0.00    -0.206 F 
ATOM    101  C   UNL A   1      33.866  31.485  27.428  1.00  0.00     0.022 A 
BRANCH  98 102
ATOM    102  S   UNL A   1      33.276  28.806  26.923  1.00  0.00     0.124 S 
ATOM    103  O   UNL A   1      32.590  29.497  25.836  1.00  0.00    -0.237 OA
ATOM    104  O   UNL A   1      34.338  27.889  26.526  1.00  0.00    -0.237 OA
ATOM    105  O   UNL A   1      32.408  28.320  27.995  1.00  0.00    -0.744 OA
ENDBRANCH  98 102
ENDBRANCH  72  95
ENDBRANCH  46  47
ENDBRANCH  39  41
ENDBRANCH  38  39
ENDBRANCH  37  38
ENDBRANCH  36  37
ENDBRANCH   1  36
TORSDOF 23
ENDMDL
MODEL 3
REMARK VINA RESULT:      -9.3     10.202     15.518
REMARK SMILES C=CCN1C(=O)/C(=C/c2ccccc2[N+](=O)[O-])S/C1=[NH+]\c1ccc(O)cc1C(=O)OCCOCCOC(=O)c1ccc(-c2c3nc(c(-c4cc(S(=O)(=O)[O-])ccc4F)c4ccc([nH]4)c(-c4cc(S(=O)(=O)[O-])ccc4F)c4nc(c(-c5cc(S(=O)(=O)[O-])ccc5F)c5ccc2[nH]5)C=C4)C=C3)cc1
REMARK SMILES IDX 33 1 32 2 31 3 30 4 28 5 29 6 27 7 21 8 22 9 23 10 26 11
REMARK SMILES IDX 24 12 20 13 4 14 5 15 19 16 6 17 7 18 18 19 8 20 3 22 2 23
REMARK SMILES IDX 1 24 9 25 10 26 14 27 11 28 13 29 12 30 15 31 16 32 17 33
REMARK SMILES IDX 25 34 34 36 35 37 36 38 37 39 38 40 39 41 40 42 101 43 41 44
REMARK SMILES IDX 100 45 42 46 43 47 44 48 94 49 45 50 99 51 93 52 95 53 46 54
REMARK SMILES IDX 98 55 92 56 91 57 47 59 79 60 59 61 78 62 60 63 63 64 77 65
REMARK SMILES IDX 96 66 61 67 62 68 76 70 97 71 64 72 48 73 49 74 57 75 50 76
REMARK SMILES IDX 56 77 58 78 55 79 51 80 52 81 53 82 54 83 80 84 81 85 89 86
REMARK SMILES IDX 82 87 88 88 90 89 87 90 83 91 84 92 85 93 86 94 65 95 66 96
REMARK SMILES IDX 74 97 67 98 73 99 75 100 72 101 68 102 69 103 70 104 71 105
REMARK H PARENT 20 21 25 35 95 58 63 69
REMARK Flexibility Score: inf
ROOT
ATOM      1  O   UNL A   1      50.657  42.746  34.755  1.00  0.00    -0.374 OA
ENDROOT
BRANCH   1   2
ATOM      2  C   UNL A   1      49.341  43.291  34.816  1.00  0.00     0.202 C 
BRANCH   2   3
ATOM      3  C   UNL A   1      48.507  43.276  33.533  1.00  0.00     0.261 C 
BRANCH   3   4
ATOM      4  O   UNL A   1      47.160  42.830  33.754  1.00  0.00    -0.460 OA
BRANCH   4   5
ATOM      5  C   UNL A   1      46.355  42.878  32.665  1.00  0.00     0.342 C 
ATOM      6  O   UNL A   1      46.490  43.623  31.704  1.00  0.00    -0.246 OA
BRANCH   5   7
ATOM      7  C   UNL A   1      45.310  41.824  32.682  1.00  0.00     0.110 A 
ATOM      8  C   UNL A   1      45.434  40.523  32.145  1.00  0.00     0.140 A 
ATOM      9  C   UNL A   1      44.334  39.658  32.279  1.00  0.00     0.056 A 
ATOM     10  C   UNL A   1      43.157  40.052  32.923  1.00  0.00     0.050 A 
ATOM     11  C   UNL A   1      44.121  42.215  33.331  1.00  0.00     0.066 A 
ATOM     12  C   UNL A   1      43.057  41.333  33.437  1.00  0.00     0.116 A 
BRANCH   8  13
ATOM     13  N   UNL A   1      46.505  40.021  31.379  1.00  0.00    -0.234 N 
ATOM     14  N   UNL A   1      47.567  39.525  29.359  1.00  0.00    -0.182 N 
ATOM     15  C   UNL A   1      47.295  39.341  28.018  1.00  0.00     0.348 C 
ATOM     16  C   UNL A   1      46.575  40.115  30.094  1.00  0.00     0.324 C 
ATOM     17  O   UNL A   1      47.933  38.663  27.233  1.00  0.00    -0.240 OA
ATOM     18  C   UNL A   1      46.012  40.013  27.671  1.00  0.00     0.110 C 
ATOM     19  S   UNL A   1      45.446  40.906  29.021  1.00  0.00     0.007 SA
ATOM     20  C   UNL A   1      45.404  39.811  26.495  1.00  0.00     0.039 C 
ATOM     21  H   UNL A   1      47.244  39.574  31.853  1.00  0.00     0.313 HD
BRANCH  14  22
ATOM     22  C   UNL A   1      48.788  38.996  29.935  1.00  0.00     0.275 C 
BRANCH  22  23
ATOM     23  C   UNL A   1      48.554  37.545  30.260  1.00  0.00     0.011 C 
ATOM     24  C   UNL A   1      48.946  36.923  31.379  1.00  0.00     0.008 C 
ENDBRANCH  22  23
ENDBRANCH  14  22
BRANCH  20  25
ATOM     25  C   UNL A   1      44.068  40.288  26.093  1.00  0.00     0.054 A 
ATOM     26  C   UNL A   1      42.981  39.531  26.572  1.00  0.00     0.015 A 
ATOM     27  C   UNL A   1      43.775  41.401  25.286  1.00  0.00     0.276 A 
ATOM     28  C   UNL A   1      41.660  39.890  26.279  1.00  0.00     0.001 A 
ATOM     29  C   UNL A   1      42.449  41.774  25.004  1.00  0.00     0.086 A 
ATOM     30  C   UNL A   1      41.394  41.014  25.503  1.00  0.00     0.007 A 
BRANCH  27  31
ATOM     31  N   UNL A   1      44.825  42.203  24.670  1.00  0.00     0.063 N 
ATOM     32  O   UNL A   1      45.104  41.954  23.487  1.00  0.00    -0.258 OA
ATOM     33  O   UNL A   1      45.398  43.047  25.370  1.00  0.00    -0.258 OA
ENDBRANCH  27  31
ENDBRANCH  20  25
ENDBRANCH   8  13
BRANCH  12  34
ATOM     34  O   UNL A   1      41.890  41.700  34.036  1.00  0.00    -0.508 OA
ATOM     35  H   UNL A   1      41.140  41.141  33.986  1.00  0.00     0.293 HD
ENDBRANCH  12  34
ENDBRANCH   5   7
ENDBRANCH   4   5
ENDBRANCH   3   4
ENDBRANCH   2   3
ENDBRANCH   1   2
BRANCH   1  36
ATOM     36  C   UNL A   1      50.836  41.367  35.065  1.00  0.00     0.202 C 
BRANCH  36  37
ATOM     37  C   UNL A   1      50.571  40.885  36.499  1.00  0.00     0.261 C 
BRANCH  37  38
ATOM     38  O   UNL A   1      49.460  39.982  36.632  1.00  0.00    -0.460 OA
BRANCH  38  39
ATOM     39  C   UNL A   1      49.756  38.694  36.322  1.00  0.00     0.338 C 
ATOM     40  O   UNL A   1      50.743  38.065  36.677  1.00  0.00    -0.246 OA
BRANCH  39  41
ATOM     41  C   UNL A   1      48.637  38.054  35.610  1.00  0.00     0.060 A 
ATOM     42  C   UNL A   1      47.575  38.873  35.208  1.00  0.00     0.016 A 
ATOM     43  C   UNL A   1      48.560  36.667  35.465  1.00  0.00     0.016 A 
ATOM     44  C   UNL A   1      46.408  38.302  34.707  1.00  0.00     0.010 A 
ATOM     45  C   UNL A   1      47.381  36.096  34.966  1.00  0.00     0.010 A 
ATOM     46  C   UNL A   1      46.286  36.908  34.622  1.00  0.00    -0.014 A 
BRANCH  46  47
ATOM     47  C   UNL A   1      44.961  36.323  34.295  1.00  0.00     0.031 A 
ATOM     48  C   UNL A   1      43.971  36.063  35.398  1.00  0.00     0.074 A 
ATOM     49  C   UNL A   1      44.617  36.093  33.014  1.00  0.00     0.049 A 
ATOM     50  N   UNL A   1      42.742  35.619  35.326  1.00  0.00    -0.248 NA
ATOM     51  C   UNL A   1      44.434  36.338  36.766  1.00  0.00     0.031 C 
ATOM     52  C   UNL A   1      45.479  36.335  31.860  1.00  0.00     0.029 A 
ATOM     53  N   UNL A   1      43.452  35.616  32.472  1.00  0.00    -0.354 N 
ATOM     54  C   UNL A   1      42.280  35.564  36.638  1.00  0.00     0.074 A 
ATOM     55  C   UNL A   1      43.384  35.972  37.484  1.00  0.00     0.031 C 
ATOM     56  C   UNL A   1      44.808  36.014  30.741  1.00  0.00     0.029 A 
ATOM     57  C   UNL A   1      43.481  35.519  31.102  1.00  0.00     0.049 A 
ATOM     58  H   UNL A   1      42.669  35.365  33.014  1.00  0.00     0.167 HD
ATOM     59  C   UNL A   1      41.047  35.221  37.092  1.00  0.00     0.034 A 
ATOM     60  C   UNL A   1      42.548  35.076  30.235  1.00  0.00     0.034 A 
ATOM     61  C   UNL A   1      39.964  34.799  36.235  1.00  0.00     0.049 A 
ATOM     62  C   UNL A   1      41.210  34.626  30.766  1.00  0.00     0.074 A 
ATOM     63  C   UNL A   1      38.672  34.445  36.586  1.00  0.00     0.029 A 
ATOM     64  N   UNL A   1      40.049  34.655  34.854  1.00  0.00    -0.354 N 
ATOM     65  N   UNL A   1      40.777  34.599  32.006  1.00  0.00    -0.248 NA
ATOM     66  C   UNL A   1      40.231  34.160  29.776  1.00  0.00     0.031 C 
ATOM     67  C   UNL A   1      38.003  34.017  35.432  1.00  0.00     0.029 A 
ATOM     68  C   UNL A   1      38.847  34.184  34.346  1.00  0.00     0.049 A 
ATOM     69  H   UNL A   1      40.848  34.860  34.315  1.00  0.00     0.167 HD
ATOM     70  C   UNL A   1      39.463  34.144  31.940  1.00  0.00     0.074 A 
ATOM     71  C   UNL A   1      39.173  33.920  30.537  1.00  0.00     0.031 C 
ATOM     72  C   UNL A   1      38.572  33.942  32.946  1.00  0.00     0.034 A 
BRANCH  59  73
ATOM     73  C   UNL A   1      40.836  35.238  38.589  1.00  0.00     0.023 A 
ATOM     74  C   UNL A   1      41.234  34.165  39.407  1.00  0.00     0.031 A 
ATOM     75  C   UNL A   1      40.180  36.319  39.204  1.00  0.00     0.131 A 
ATOM     76  C   UNL A   1      40.895  34.156  40.769  1.00  0.00     0.055 A 
ATOM     77  C   UNL A   1      39.923  36.344  40.576  1.00  0.00     0.041 A 
ATOM     78  F   UNL A   1      39.755  37.365  38.475  1.00  0.00    -0.206 F 
ATOM     79  C   UNL A   1      40.263  35.250  41.365  1.00  0.00     0.022 A 
BRANCH  76  80
ATOM     80  S   UNL A   1      41.134  32.625  41.713  1.00  0.00     0.124 S 
ATOM     81  O   UNL A   1      39.844  32.488  42.385  1.00  0.00    -0.237 OA
ATOM     82  O   UNL A   1      41.417  31.650  40.666  1.00  0.00    -0.237 OA
ATOM     83  O   UNL A   1      42.257  32.937  42.596  1.00  0.00    -0.744 OA
ENDBRANCH  76  80
ENDBRANCH  59  73
BRANCH  60  84
ATOM     84  C   UNL A   1      42.848  35.026  28.777  1.00  0.00     0.023 A 
ATOM     85  C   UNL A   1      43.560  33.955  28.217  1.00  0.00     0.031 A 
ATOM     86  C   UNL A   1      42.440  36.068  27.924  1.00  0.00     0.131 A 
ATOM     87  C   UNL A   1      43.872  33.962  26.848  1.00  0.00     0.055 A 
ATOM     88  C   UNL A   1      42.712  36.049  26.556  1.00  0.00     0.041 A 
ATOM     89  F   UNL A   1      41.757  37.116  28.411  1.00  0.00    -0.206 F 
ATOM     90  C   UNL A   1      43.440  34.995  26.012  1.00  0.00     0.022 A 
BRANCH  87  91
ATOM     91  S   UNL A   1      44.901  32.626  26.182  1.00  0.00     0.124 S 
ATOM     92  O   UNL A   1      46.242  33.077  26.537  1.00  0.00    -0.237 OA
ATOM     93  O   UNL A   1      44.402  31.465  26.911  1.00  0.00    -0.237 OA
ATOM     94  O   UNL A   1      44.595  32.639  24.754  1.00  0.00    -0.744 OA
ENDBRANCH  87  91
ENDBRANCH  60  84
BRANCH  72  95
ATOM     95  C   UNL A   1      37.183  33.495  32.553  1.00  0.00     0.023 A 
ATOM     96  C   UNL A   1      36.152  34.413  32.285  1.00  0.00     0.031 A 
ATOM     97  C   UNL A   1      36.882  32.123  32.468  1.00  0.00     0.131 A 
ATOM     98  C   UNL A   1      34.856  33.949  32.008  1.00  0.00     0.055 A 
ATOM     99  C   UNL A   1      35.606  31.668  32.130  1.00  0.00     0.041 A 
ATOM    100  F   UNL A   1      37.825  31.199  32.716  1.00  0.00    -0.206 F 
ATOM    101  C   UNL A   1      34.581  32.583  31.912  1.00  0.00     0.022 A 
BRANCH  98 102
ATOM    102  S   UNL A   1      33.506  35.155  31.879  1.00  0.00     0.124 S 
ATOM    103  O   UNL A   1      34.152  36.384  32.329  1.00  0.00    -0.237 OA
ATOM    104  O   UNL A   1      33.169  35.094  30.461  1.00  0.00    -0.237 OA
ATOM    105  O   UNL A   1      32.485  34.625  32.780  1.00  0.00    -0.744 OA
ENDBRANCH  98 102
ENDBRANCH  72  95
ENDBRANCH  46  47
ENDBRANCH  39  41
ENDBRANCH  38  39
ENDBRANCH  37  38
ENDBRANCH  36  37
ENDBRANCH   1  36
TORSDOF 23
ENDMDL
