MODEL 1
REMARK VINA RESULT:     -10.6      0.000      0.000
REMARK SMILES CC(C)[C@@H](CCNC(=O)N1C[C@@H](C)[C@H](C)C1)CCC(=O)OCCOCCOC(=O)c1ccc(-c2c3nc(c(-c4cc(S(=O)(=O)[O-])ccc4F)c4ccc([nH]4)c(-c4cc(S(=O)(=O)[O-])ccc4F)c4nc(c(-c5cc(S(=O)(=O)[O-])ccc5F)c5ccc2[nH]5)C=C4)C=C3)cc1
REMARK SMILES IDX 23 1 22 2 21 3 19 4 20 5 18 6 17 7 4 8 2 9 1 10 3 11 5 12
REMARK SMILES IDX 6 13 7 14 8 15 9 17 10 18 11 19 16 20 12 21 14 22 13 23
REMARK SMILES IDX 15 24 24 25 25 26 26 27 27 28 28 29 29 30 30 31 31 32 92 33
REMARK SMILES IDX 32 34 91 35 33 36 34 37 35 38 85 39 36 40 90 41 84 42 86 43
REMARK SMILES IDX 37 44 89 45 83 46 82 47 38 49 70 50 50 51 69 52 51 53 54 54
REMARK SMILES IDX 68 55 87 56 52 57 53 58 67 60 88 61 55 62 39 63 40 64 48 65
REMARK SMILES IDX 41 66 47 67 49 68 46 69 42 70 43 71 44 72 45 73 71 74 72 75
REMARK SMILES IDX 80 76 73 77 79 78 81 79 78 80 74 81 75 82 76 83 77 84 56 85
REMARK SMILES IDX 57 86 65 87 58 88 64 89 66 90 63 91 59 92 60 93 61 94 62 95
REMARK H PARENT 7 16 86 48 54 59
REMARK Flexibility Score: inf
ROOT
ATOM      1  C   UNL A   1      30.283  29.218  24.184  1.00  0.00     0.202 C 
ENDROOT
BRANCH   1   2
ATOM      2  C   UNL A   1      31.036  27.907  24.414  1.00  0.00     0.261 C 
BRANCH   2   3
ATOM      3  O   UNL A   1      30.503  27.240  25.572  1.00  0.00    -0.463 OA
BRANCH   3   4
ATOM      4  C   UNL A   1      31.294  26.319  26.157  1.00  0.00     0.305 C 
ATOM      5  O   UNL A   1      30.969  25.157  26.381  1.00  0.00    -0.252 OA
BRANCH   4   6
ATOM      6  C   UNL A   1      32.668  26.836  26.518  1.00  0.00     0.123 C 
BRANCH   6   7
ATOM      7  C   UNL A   1      33.938  26.418  25.766  1.00  0.00     0.015 C 
BRANCH   7   8
ATOM      8  C   UNL A   1      34.091  25.059  25.037  1.00  0.00    -0.006 C 
BRANCH   8   9
ATOM      9  C   UNL A   1      34.000  25.099  23.479  1.00  0.00    -0.014 C 
ATOM     10  C   UNL A   1      32.937  24.119  22.952  1.00  0.00     0.007 C 
ATOM     11  C   UNL A   1      33.661  26.476  22.905  1.00  0.00     0.007 C 
ENDBRANCH   8   9
BRANCH   8  12
ATOM     12  C   UNL A   1      35.402  24.357  25.544  1.00  0.00     0.025 C 
BRANCH  12  13
ATOM     13  C   UNL A   1      35.305  22.899  26.030  1.00  0.00     0.118 C 
BRANCH  13  14
ATOM     14  N   UNL A   1      36.103  21.983  25.232  1.00  0.00    -0.338 N 
ATOM     15  C   UNL A   1      35.936  20.654  25.029  1.00  0.00     0.317 C 
ATOM     16  H   UNL A   1      36.877  22.386  24.775  1.00  0.00     0.165 HD
ATOM     17  O   UNL A   1      36.949  19.968  24.894  1.00  0.00    -0.249 OA
ATOM     18  N   UNL A   1      34.675  20.141  24.945  1.00  0.00    -0.324 N 
ATOM     19  C   UNL A   1      34.447  18.709  24.967  1.00  0.00     0.125 C 
ATOM     20  C   UNL A   1      33.524  20.834  24.387  1.00  0.00     0.125 C 
ATOM     21  C   UNL A   1      33.497  18.468  23.801  1.00  0.00     0.010 C 
ATOM     22  C   UNL A   1      32.633  19.745  23.764  1.00  0.00     0.010 C 
ATOM     23  C   UNL A   1      32.674  17.200  23.974  1.00  0.00     0.010 C 
ATOM     24  C   UNL A   1      32.150  20.094  22.357  1.00  0.00     0.010 C 
ENDBRANCH  13  14
ENDBRANCH  12  13
ENDBRANCH   8  12
ENDBRANCH   7   8
ENDBRANCH   6   7
ENDBRANCH   4   6
ENDBRANCH   3   4
ENDBRANCH   2   3
ENDBRANCH   1   2
BRANCH   1  25
ATOM     25  O   UNL A   1      30.831  30.354  24.857  1.00  0.00    -0.374 OA
BRANCH  25  26
ATOM     26  C   UNL A   1      31.973  30.124  25.684  1.00  0.00     0.202 C 
BRANCH  26  27
ATOM     27  C   UNL A   1      32.238  31.167  26.778  1.00  0.00     0.261 C 
BRANCH  27  28
ATOM     28  O   UNL A   1      33.281  30.755  27.679  1.00  0.00    -0.460 OA
BRANCH  28  29
ATOM     29  C   UNL A   1      34.245  31.684  27.887  1.00  0.00     0.338 C 
ATOM     30  O   UNL A   1      34.081  32.889  28.033  1.00  0.00    -0.246 OA
BRANCH  29  31
ATOM     31  C   UNL A   1      35.549  31.029  28.103  1.00  0.00     0.060 A 
ATOM     32  C   UNL A   1      35.579  29.627  28.092  1.00  0.00     0.016 A 
ATOM     33  C   UNL A   1      36.705  31.759  28.391  1.00  0.00     0.016 A 
ATOM     34  C   UNL A   1      36.747  28.948  28.433  1.00  0.00     0.010 A 
ATOM     35  C   UNL A   1      37.875  31.075  28.742  1.00  0.00     0.010 A 
ATOM     36  C   UNL A   1      37.887  29.669  28.808  1.00  0.00    -0.014 A 
BRANCH  36  37
ATOM     37  C   UNL A   1      39.020  28.969  29.465  1.00  0.00     0.031 A 
ATOM     38  C   UNL A   1      39.475  29.462  30.813  1.00  0.00     0.074 A 
ATOM     39  C   UNL A   1      39.622  27.913  28.891  1.00  0.00     0.049 A 
ATOM     40  N   UNL A   1      40.508  29.100  31.528  1.00  0.00    -0.248 NA
ATOM     41  C   UNL A   1      38.653  30.514  31.431  1.00  0.00     0.031 C 
ATOM     42  C   UNL A   1      39.223  27.299  27.626  1.00  0.00     0.029 A 
ATOM     43  N   UNL A   1      40.707  27.176  29.297  1.00  0.00    -0.354 N 
ATOM     44  C   UNL A   1      40.470  29.888  32.674  1.00  0.00     0.074 A 
ATOM     45  C   UNL A   1      39.329  30.769  32.541  1.00  0.00     0.031 C 
ATOM     46  C   UNL A   1      40.066  26.289  27.349  1.00  0.00     0.029 A 
ATOM     47  C   UNL A   1      41.091  26.217  28.389  1.00  0.00     0.049 A 
ATOM     48  H   UNL A   1      41.167  27.321  30.155  1.00  0.00     0.167 HD
ATOM     49  C   UNL A   1      41.308  29.876  33.739  1.00  0.00     0.034 A 
ATOM     50  C   UNL A   1      42.167  25.403  28.383  1.00  0.00     0.034 A 
ATOM     51  C   UNL A   1      42.443  28.994  33.852  1.00  0.00     0.049 A 
ATOM     52  C   UNL A   1      43.146  25.471  29.534  1.00  0.00     0.074 A 
ATOM     53  C   UNL A   1      43.362  28.898  34.883  1.00  0.00     0.029 A 
ATOM     54  N   UNL A   1      42.820  28.060  32.895  1.00  0.00    -0.354 N 
ATOM     55  N   UNL A   1      43.117  26.238  30.600  1.00  0.00    -0.248 NA
ATOM     56  C   UNL A   1      44.301  24.562  29.483  1.00  0.00     0.031 C 
ATOM     57  C   UNL A   1      44.331  27.957  34.519  1.00  0.00     0.029 A 
ATOM     58  C   UNL A   1      43.972  27.405  33.301  1.00  0.00     0.049 A 
ATOM     59  H   UNL A   1      42.339  27.888  32.054  1.00  0.00     0.167 HD
ATOM     60  C   UNL A   1      44.221  25.870  31.365  1.00  0.00     0.074 A 
ATOM     61  C   UNL A   1      44.901  24.819  30.636  1.00  0.00     0.031 C 
ATOM     62  C   UNL A   1      44.629  26.348  32.567  1.00  0.00     0.034 A 
BRANCH  49  63
ATOM     63  C   UNL A   1      41.059  30.889  34.830  1.00  0.00     0.023 A 
ATOM     64  C   UNL A   1      39.905  30.847  35.632  1.00  0.00     0.031 A 
ATOM     65  C   UNL A   1      41.976  31.932  35.048  1.00  0.00     0.131 A 
ATOM     66  C   UNL A   1      39.664  31.870  36.563  1.00  0.00     0.055 A 
ATOM     67  C   UNL A   1      41.770  32.900  36.032  1.00  0.00     0.041 A 
ATOM     68  F   UNL A   1      43.083  32.037  34.297  1.00  0.00    -0.206 F 
ATOM     69  C   UNL A   1      40.601  32.882  36.786  1.00  0.00     0.022 A 
BRANCH  66  70
ATOM     70  S   UNL A   1      38.042  31.940  37.373  1.00  0.00     0.124 S 
ATOM     71  O   UNL A   1      37.645  30.534  37.356  1.00  0.00    -0.237 OA
ATOM     72  O   UNL A   1      38.367  32.497  38.680  1.00  0.00    -0.237 OA
ATOM     73  O   UNL A   1      37.260  32.811  36.499  1.00  0.00    -0.744 OA
ENDBRANCH  66  70
ENDBRANCH  49  63
BRANCH  50  74
ATOM     74  C   UNL A   1      42.414  24.486  27.232  1.00  0.00     0.023 A 
ATOM     75  C   UNL A   1      41.953  23.160  27.245  1.00  0.00     0.031 A 
ATOM     76  C   UNL A   1      43.168  24.911  26.123  1.00  0.00     0.131 A 
ATOM     77  C   UNL A   1      42.287  22.294  26.192  1.00  0.00     0.055 A 
ATOM     78  C   UNL A   1      43.452  24.060  25.052  1.00  0.00     0.041 A 
ATOM     79  F   UNL A   1      43.637  26.167  26.060  1.00  0.00    -0.206 F 
ATOM     80  C   UNL A   1      43.022  22.738  25.090  1.00  0.00     0.022 A 
BRANCH  77  81
ATOM     81  S   UNL A   1      41.826  20.544  26.327  1.00  0.00     0.124 S 
ATOM     82  O   UNL A   1      40.399  20.592  26.026  1.00  0.00    -0.237 OA
ATOM     83  O   UNL A   1      42.677  19.929  25.314  1.00  0.00    -0.237 OA
ATOM     84  O   UNL A   1      42.163  20.209  27.708  1.00  0.00    -0.744 OA
ENDBRANCH  77  81
ENDBRANCH  50  74
BRANCH  62  85
ATOM     85  C   UNL A   1      45.819  25.685  33.216  1.00  0.00     0.023 A 
ATOM     86  C   UNL A   1      45.690  24.552  34.039  1.00  0.00     0.031 A 
ATOM     87  C   UNL A   1      47.111  26.184  32.971  1.00  0.00     0.131 A 
ATOM     88  C   UNL A   1      46.835  23.975  34.611  1.00  0.00     0.055 A 
ATOM     89  C   UNL A   1      48.249  25.576  33.502  1.00  0.00     0.041 A 
ATOM     90  F   UNL A   1      47.290  27.263  32.191  1.00  0.00    -0.206 F 
ATOM     91  C   UNL A   1      48.113  24.469  34.334  1.00  0.00     0.022 A 
BRANCH  88  92
ATOM     92  S   UNL A   1      46.632  22.594  35.771  1.00  0.00     0.124 S 
ATOM     93  O   UNL A   1      46.340  23.288  37.021  1.00  0.00    -0.237 OA
ATOM     94  O   UNL A   1      45.524  21.850  35.182  1.00  0.00    -0.237 OA
ATOM     95  O   UNL A   1      47.926  21.914  35.725  1.00  0.00    -0.744 OA
ENDBRANCH  88  92
ENDBRANCH  62  85
ENDBRANCH  36  37
ENDBRANCH  29  31
ENDBRANCH  28  29
ENDBRANCH  27  28
ENDBRANCH  26  27
ENDBRANCH  25  26
ENDBRANCH   1  25
TORSDOF 23
ENDMDL
MODEL 2
REMARK VINA RESULT:     -10.5      1.877      2.522
REMARK SMILES CC(C)[C@@H](CCNC(=O)N1C[C@@H](C)[C@H](C)C1)CCC(=O)OCCOCCOC(=O)c1ccc(-c2c3nc(c(-c4cc(S(=O)(=O)[O-])ccc4F)c4ccc([nH]4)c(-c4cc(S(=O)(=O)[O-])ccc4F)c4nc(c(-c5cc(S(=O)(=O)[O-])ccc5F)c5ccc2[nH]5)C=C4)C=C3)cc1
REMARK SMILES IDX 23 1 22 2 21 3 19 4 20 5 18 6 17 7 4 8 2 9 1 10 3 11 5 12
REMARK SMILES IDX 6 13 7 14 8 15 9 17 10 18 11 19 16 20 12 21 14 22 13 23
REMARK SMILES IDX 15 24 24 25 25 26 26 27 27 28 28 29 29 30 30 31 31 32 92 33
REMARK SMILES IDX 32 34 91 35 33 36 34 37 35 38 85 39 36 40 90 41 84 42 86 43
REMARK SMILES IDX 37 44 89 45 83 46 82 47 38 49 70 50 50 51 69 52 51 53 54 54
REMARK SMILES IDX 68 55 87 56 52 57 53 58 67 60 88 61 55 62 39 63 40 64 48 65
REMARK SMILES IDX 41 66 47 67 49 68 46 69 42 70 43 71 44 72 45 73 71 74 72 75
REMARK SMILES IDX 80 76 73 77 79 78 81 79 78 80 74 81 75 82 76 83 77 84 56 85
REMARK SMILES IDX 57 86 65 87 58 88 64 89 66 90 63 91 59 92 60 93 61 94 62 95
REMARK H PARENT 7 16 86 48 54 59
REMARK Flexibility Score: inf
ROOT
ATOM      1  C   UNL A   1      32.009  29.242  24.030  1.00  0.00     0.202 C 
ENDROOT
BRANCH   1   2
ATOM      2  C   UNL A   1      31.011  28.114  23.762  1.00  0.00     0.261 C 
BRANCH   2   3
ATOM      3  O   UNL A   1      30.669  27.467  25.000  1.00  0.00    -0.463 OA
BRANCH   3   4
ATOM      4  C   UNL A   1      31.532  26.536  25.455  1.00  0.00     0.305 C 
ATOM      5  O   UNL A   1      31.841  26.382  26.632  1.00  0.00    -0.252 OA
BRANCH   4   6
ATOM      6  C   UNL A   1      32.102  25.651  24.368  1.00  0.00     0.123 C 
BRANCH   6   7
ATOM      7  C   UNL A   1      33.246  24.662  24.618  1.00  0.00     0.015 C 
BRANCH   7   8
ATOM      8  C   UNL A   1      34.198  24.156  23.503  1.00  0.00    -0.006 C 
BRANCH   8   9
ATOM      9  C   UNL A   1      35.680  23.905  23.924  1.00  0.00    -0.014 C 
ATOM     10  C   UNL A   1      35.788  23.550  25.417  1.00  0.00     0.007 C 
ATOM     11  C   UNL A   1      36.373  22.783  23.147  1.00  0.00     0.007 C 
ENDBRANCH   8   9
BRANCH   8  12
ATOM     12  C   UNL A   1      33.549  22.903  22.813  1.00  0.00     0.025 C 
BRANCH  12  13
ATOM     13  C   UNL A   1      32.800  21.892  23.701  1.00  0.00     0.118 C 
BRANCH  13  14
ATOM     14  N   UNL A   1      33.598  21.421  24.820  1.00  0.00    -0.338 N 
ATOM     15  C   UNL A   1      33.427  20.322  25.594  1.00  0.00     0.317 C 
ATOM     16  H   UNL A   1      34.375  21.982  25.050  1.00  0.00     0.165 HD
ATOM     17  O   UNL A   1      33.750  20.405  26.779  1.00  0.00    -0.249 OA
ATOM     18  N   UNL A   1      32.947  19.175  25.034  1.00  0.00    -0.324 N 
ATOM     19  C   UNL A   1      32.527  18.059  25.858  1.00  0.00     0.125 C 
ATOM     20  C   UNL A   1      33.209  18.735  23.672  1.00  0.00     0.125 C 
ATOM     21  C   UNL A   1      33.203  16.852  25.219  1.00  0.00     0.010 C 
ATOM     22  C   UNL A   1      33.220  17.197  23.716  1.00  0.00     0.010 C 
ATOM     23  C   UNL A   1      32.474  15.551  25.520  1.00  0.00     0.010 C 
ATOM     24  C   UNL A   1      34.410  16.582  22.981  1.00  0.00     0.010 C 
ENDBRANCH  13  14
ENDBRANCH  12  13
ENDBRANCH   8  12
ENDBRANCH   7   8
ENDBRANCH   6   7
ENDBRANCH   4   6
ENDBRANCH   3   4
ENDBRANCH   2   3
ENDBRANCH   1   2
BRANCH   1  25
ATOM     25  O   UNL A   1      31.920  29.828  25.331  1.00  0.00    -0.374 OA
BRANCH  25  26
ATOM     26  C   UNL A   1      31.000  30.909  25.490  1.00  0.00     0.202 C 
BRANCH  26  27
ATOM     27  C   UNL A   1      31.398  31.995  26.498  1.00  0.00     0.261 C 
BRANCH  27  28
ATOM     28  O   UNL A   1      32.496  31.585  27.330  1.00  0.00    -0.460 OA
BRANCH  28  29
ATOM     29  C   UNL A   1      33.408  32.556  27.578  1.00  0.00     0.338 C 
ATOM     30  O   UNL A   1      33.193  33.759  27.659  1.00  0.00    -0.246 OA
BRANCH  29  31
ATOM     31  C   UNL A   1      34.711  31.958  27.928  1.00  0.00     0.060 A 
ATOM     32  C   UNL A   1      34.772  30.562  28.045  1.00  0.00     0.016 A 
ATOM     33  C   UNL A   1      35.831  32.742  28.216  1.00  0.00     0.016 A 
ATOM     34  C   UNL A   1      35.932  29.948  28.514  1.00  0.00     0.010 A 
ATOM     35  C   UNL A   1      36.992  32.124  28.695  1.00  0.00     0.010 A 
ATOM     36  C   UNL A   1      37.031  30.730  28.888  1.00  0.00    -0.014 A 
BRANCH  36  37
ATOM     37  C   UNL A   1      38.136  30.121  29.672  1.00  0.00     0.031 A 
ATOM     38  C   UNL A   1      38.355  30.599  31.083  1.00  0.00     0.074 A 
ATOM     39  C   UNL A   1      38.918  29.159  29.152  1.00  0.00     0.049 A 
ATOM     40  N   UNL A   1      39.318  30.313  31.919  1.00  0.00    -0.248 NA
ATOM     41  C   UNL A   1      37.350  31.533  31.615  1.00  0.00     0.031 C 
ATOM     42  C   UNL A   1      38.757  28.563  27.828  1.00  0.00     0.029 A 
ATOM     43  N   UNL A   1      40.014  28.520  29.679  1.00  0.00    -0.354 N 
ATOM     44  C   UNL A   1      39.046  31.043  33.072  1.00  0.00     0.074 A 
ATOM     45  C   UNL A   1      37.844  31.807  32.813  1.00  0.00     0.031 C 
ATOM     46  C   UNL A   1      39.733  27.658  27.637  1.00  0.00     0.029 A 
ATOM     47  C   UNL A   1      40.614  27.646  28.803  1.00  0.00     0.049 A 
ATOM     48  H   UNL A   1      40.340  28.674  30.595  1.00  0.00     0.167 HD
ATOM     49  C   UNL A   1      39.734  31.070  34.240  1.00  0.00     0.034 A 
ATOM     50  C   UNL A   1      41.764  26.948  28.918  1.00  0.00     0.034 A 
ATOM     51  C   UNL A   1      40.932  30.305  34.479  1.00  0.00     0.049 A 
ATOM     52  C   UNL A   1      42.570  27.066  30.192  1.00  0.00     0.074 A 
ATOM     53  C   UNL A   1      41.713  30.259  35.621  1.00  0.00     0.029 A 
ATOM     54  N   UNL A   1      41.530  29.458  33.555  1.00  0.00    -0.354 N 
ATOM     55  N   UNL A   1      42.319  27.779  31.267  1.00  0.00    -0.248 NA
ATOM     56  C   UNL A   1      43.812  26.283  30.271  1.00  0.00     0.031 C 
ATOM     57  C   UNL A   1      42.817  29.439  35.364  1.00  0.00     0.029 A 
ATOM     58  C   UNL A   1      42.682  28.907  34.092  1.00  0.00     0.049 A 
ATOM     59  H   UNL A   1      41.184  29.275  32.651  1.00  0.00     0.167 HD
ATOM     60  C   UNL A   1      43.347  27.493  32.162  1.00  0.00     0.074 A 
ATOM     61  C   UNL A   1      44.225  26.550  31.502  1.00  0.00     0.031 C 
ATOM     62  C   UNL A   1      43.540  27.957  33.423  1.00  0.00     0.034 A 
BRANCH  49  63
ATOM     63  C   UNL A   1      39.236  32.003  35.318  1.00  0.00     0.023 A 
ATOM     64  C   UNL A   1      39.724  33.315  35.447  1.00  0.00     0.031 A 
ATOM     65  C   UNL A   1      38.282  31.560  36.250  1.00  0.00     0.131 A 
ATOM     66  C   UNL A   1      39.311  34.111  36.526  1.00  0.00     0.055 A 
ATOM     67  C   UNL A   1      37.813  32.386  37.274  1.00  0.00     0.041 A 
ATOM     68  F   UNL A   1      37.798  30.310  36.192  1.00  0.00    -0.206 F 
ATOM     69  C   UNL A   1      38.340  33.665  37.425  1.00  0.00     0.022 A 
BRANCH  66  70
ATOM     70  S   UNL A   1      40.168  35.682  36.823  1.00  0.00     0.124 S 
ATOM     71  O   UNL A   1      39.653  36.508  35.733  1.00  0.00    -0.237 OA
ATOM     72  O   UNL A   1      39.718  36.038  38.163  1.00  0.00    -0.237 OA
ATOM     73  O   UNL A   1      41.581  35.328  36.712  1.00  0.00    -0.744 OA
ENDBRANCH  66  70
ENDBRANCH  49  63
BRANCH  50  74
ATOM     74  C   UNL A   1      42.257  26.113  27.784  1.00  0.00     0.023 A 
ATOM     75  C   UNL A   1      41.811  24.794  27.603  1.00  0.00     0.031 A 
ATOM     76  C   UNL A   1      43.228  26.608  26.895  1.00  0.00     0.131 A 
ATOM     77  C   UNL A   1      42.368  24.001  26.588  1.00  0.00     0.055 A 
ATOM     78  C   UNL A   1      43.739  25.833  25.852  1.00  0.00     0.041 A 
ATOM     79  F   UNL A   1      43.692  27.862  27.024  1.00  0.00    -0.206 F 
ATOM     80  C   UNL A   1      43.318  24.515  25.703  1.00  0.00     0.022 A 
BRANCH  77  81
ATOM     81  S   UNL A   1      41.899  22.251  26.496  1.00  0.00     0.124 S 
ATOM     82  O   UNL A   1      42.654  21.804  25.331  1.00  0.00    -0.237 OA
ATOM     83  O   UNL A   1      42.353  21.749  27.788  1.00  0.00    -0.237 OA
ATOM     84  O   UNL A   1      40.449  22.297  26.322  1.00  0.00    -0.744 OA
ENDBRANCH  77  81
ENDBRANCH  50  74
BRANCH  62  85
ATOM     85  C   UNL A   1      44.699  27.391  34.207  1.00  0.00     0.023 A 
ATOM     86  C   UNL A   1      44.534  26.366  35.154  1.00  0.00     0.031 A 
ATOM     87  C   UNL A   1      45.999  27.871  33.966  1.00  0.00     0.131 A 
ATOM     88  C   UNL A   1      45.651  25.877  35.849  1.00  0.00     0.055 A 
ATOM     89  C   UNL A   1      47.111  27.346  34.623  1.00  0.00     0.041 A 
ATOM     90  F   UNL A   1      46.211  28.850  33.070  1.00  0.00    -0.206 F 
ATOM     91  C   UNL A   1      46.940  26.347  35.577  1.00  0.00     0.022 A 
BRANCH  88  92
ATOM     92  S   UNL A   1      45.398  24.645  37.157  1.00  0.00     0.124 S 
ATOM     93  O   UNL A   1      43.985  24.827  37.474  1.00  0.00    -0.237 OA
ATOM     94  O   UNL A   1      45.744  23.397  36.484  1.00  0.00    -0.237 OA
ATOM     95  O   UNL A   1      46.328  25.060  38.205  1.00  0.00    -0.744 OA
ENDBRANCH  88  92
ENDBRANCH  62  85
ENDBRANCH  36  37
ENDBRANCH  29  31
ENDBRANCH  28  29
ENDBRANCH  27  28
ENDBRANCH  26  27
ENDBRANCH  25  26
ENDBRANCH   1  25
TORSDOF 23
ENDMDL
MODEL 3
REMARK VINA RESULT:     -10.4      2.451      2.785
REMARK SMILES CC(C)[C@@H](CCNC(=O)N1C[C@@H](C)[C@H](C)C1)CCC(=O)OCCOCCOC(=O)c1ccc(-c2c3nc(c(-c4cc(S(=O)(=O)[O-])ccc4F)c4ccc([nH]4)c(-c4cc(S(=O)(=O)[O-])ccc4F)c4nc(c(-c5cc(S(=O)(=O)[O-])ccc5F)c5ccc2[nH]5)C=C4)C=C3)cc1
REMARK SMILES IDX 23 1 22 2 21 3 19 4 20 5 18 6 17 7 4 8 2 9 1 10 3 11 5 12
REMARK SMILES IDX 6 13 7 14 8 15 9 17 10 18 11 19 16 20 12 21 14 22 13 23
REMARK SMILES IDX 15 24 24 25 25 26 26 27 27 28 28 29 29 30 30 31 31 32 92 33
REMARK SMILES IDX 32 34 91 35 33 36 34 37 35 38 85 39 36 40 90 41 84 42 86 43
REMARK SMILES IDX 37 44 89 45 83 46 82 47 38 49 70 50 50 51 69 52 51 53 54 54
REMARK SMILES IDX 68 55 87 56 52 57 53 58 67 60 88 61 55 62 39 63 40 64 48 65
REMARK SMILES IDX 41 66 47 67 49 68 46 69 42 70 43 71 44 72 45 73 71 74 72 75
REMARK SMILES IDX 80 76 73 77 79 78 81 79 78 80 74 81 75 82 76 83 77 84 56 85
REMARK SMILES IDX 57 86 65 87 58 88 64 89 66 90 63 91 59 92 60 93 61 94 62 95
REMARK H PARENT 7 16 86 48 54 59
REMARK Flexibility Score: inf
ROOT
ATOM      1  C   UNL A   1      30.042  28.447  23.621  1.00  0.00     0.202 C 
ENDROOT
BRANCH   1   2
ATOM      2  C   UNL A   1      30.800  27.212  24.110  1.00  0.00     0.261 C 
BRANCH   2   3
ATOM      3  O   UNL A   1      30.076  26.598  25.192  1.00  0.00    -0.463 OA
BRANCH   3   4
ATOM      4  C   UNL A   1      30.786  25.813  26.026  1.00  0.00     0.305 C 
ATOM      5  O   UNL A   1      30.410  24.728  26.458  1.00  0.00    -0.252 OA
BRANCH   4   6
ATOM      6  C   UNL A   1      32.139  26.382  26.395  1.00  0.00     0.123 C 
BRANCH   6   7
ATOM      7  C   UNL A   1      33.423  26.029  25.636  1.00  0.00     0.015 C 
BRANCH   7   8
ATOM      8  C   UNL A   1      33.738  24.609  25.101  1.00  0.00    -0.006 C 
BRANCH   8   9
ATOM      9  C   UNL A   1      33.489  24.376  23.577  1.00  0.00    -0.014 C 
ATOM     10  C   UNL A   1      32.047  23.912  23.307  1.00  0.00     0.007 C 
ATOM     11  C   UNL A   1      33.731  25.611  22.705  1.00  0.00     0.007 C 
ENDBRANCH   8   9
BRANCH   8  12
ATOM     12  C   UNL A   1      35.193  24.213  25.539  1.00  0.00     0.025 C 
BRANCH  12  13
ATOM     13  C   UNL A   1      35.417  22.809  26.132  1.00  0.00     0.118 C 
BRANCH  13  14
ATOM     14  N   UNL A   1      36.175  21.937  25.250  1.00  0.00    -0.338 N 
ATOM     15  C   UNL A   1      35.997  20.620  24.986  1.00  0.00     0.317 C 
ATOM     16  H   UNL A   1      36.925  22.364  24.777  1.00  0.00     0.165 HD
ATOM     17  O   UNL A   1      37.001  19.943  24.766  1.00  0.00    -0.249 OA
ATOM     18  N   UNL A   1      34.732  20.110  24.938  1.00  0.00    -0.324 N 
ATOM     19  C   UNL A   1      34.504  18.679  24.896  1.00  0.00     0.125 C 
ATOM     20  C   UNL A   1      33.556  20.829  24.473  1.00  0.00     0.125 C 
ATOM     21  C   UNL A   1      33.498  18.497  23.766  1.00  0.00     0.010 C 
ATOM     22  C   UNL A   1      32.635  19.773  23.839  1.00  0.00     0.010 C 
ATOM     23  C   UNL A   1      32.683  17.221  23.913  1.00  0.00     0.010 C 
ATOM     24  C   UNL A   1      32.084  20.194  22.477  1.00  0.00     0.010 C 
ENDBRANCH  13  14
ENDBRANCH  12  13
ENDBRANCH   8  12
ENDBRANCH   7   8
ENDBRANCH   6   7
ENDBRANCH   4   6
ENDBRANCH   3   4
ENDBRANCH   2   3
ENDBRANCH   1   2
BRANCH   1  25
ATOM     25  O   UNL A   1      30.575  29.697  24.064  1.00  0.00    -0.374 OA
BRANCH  25  26
ATOM     26  C   UNL A   1      31.624  29.643  25.032  1.00  0.00     0.202 C 
BRANCH  26  27
ATOM     27  C   UNL A   1      31.659  30.786  26.055  1.00  0.00     0.261 C 
BRANCH  27  28
ATOM     28  O   UNL A   1      32.642  30.564  27.082  1.00  0.00    -0.460 OA
BRANCH  28  29
ATOM     29  C   UNL A   1      33.325  31.672  27.457  1.00  0.00     0.338 C 
ATOM     30  O   UNL A   1      32.854  32.779  27.686  1.00  0.00    -0.246 OA
BRANCH  29  31
ATOM     31  C   UNL A   1      34.734  31.336  27.740  1.00  0.00     0.060 A 
ATOM     32  C   UNL A   1      35.065  29.977  27.848  1.00  0.00     0.016 A 
ATOM     33  C   UNL A   1      35.696  32.320  27.976  1.00  0.00     0.016 A 
ATOM     34  C   UNL A   1      36.342  29.598  28.258  1.00  0.00     0.010 A 
ATOM     35  C   UNL A   1      36.976  31.937  28.395  1.00  0.00     0.010 A 
ATOM     36  C   UNL A   1      37.289  30.577  28.580  1.00  0.00    -0.014 A 
BRANCH  36  37
ATOM     37  C   UNL A   1      38.527  30.195  29.306  1.00  0.00     0.031 A 
ATOM     38  C   UNL A   1      38.737  30.743  30.693  1.00  0.00     0.074 A 
ATOM     39  C   UNL A   1      39.437  29.371  28.757  1.00  0.00     0.049 A 
ATOM     40  N   UNL A   1      39.781  30.654  31.474  1.00  0.00    -0.248 NA
ATOM     41  C   UNL A   1      37.614  31.500  31.268  1.00  0.00     0.031 C 
ATOM     42  C   UNL A   1      39.309  28.719  27.455  1.00  0.00     0.029 A 
ATOM     43  N   UNL A   1      40.656  28.950  29.227  1.00  0.00    -0.354 N 
ATOM     44  C   UNL A   1      39.449  31.357  32.628  1.00  0.00     0.074 A 
ATOM     45  C   UNL A   1      38.118  31.890  32.429  1.00  0.00     0.031 C 
ATOM     46  C   UNL A   1      40.418  27.995  27.222  1.00  0.00     0.029 A 
ATOM     47  C   UNL A   1      41.352  28.171  28.333  1.00  0.00     0.049 A 
ATOM     48  H   UNL A   1      41.001  29.184  30.120  1.00  0.00     0.167 HD
ATOM     49  C   UNL A   1      40.186  31.537  33.752  1.00  0.00     0.034 A 
ATOM     50  C   UNL A   1      42.611  27.689  28.391  1.00  0.00     0.034 A 
ATOM     51  C   UNL A   1      41.513  31.001  33.931  1.00  0.00     0.049 A 
ATOM     52  C   UNL A   1      43.454  27.982  29.611  1.00  0.00     0.074 A 
ATOM     53  C   UNL A   1      42.352  31.125  35.025  1.00  0.00     0.029 A 
ATOM     54  N   UNL A   1      42.198  30.247  32.988  1.00  0.00    -0.354 N 
ATOM     55  N   UNL A   1      43.142  28.670  30.686  1.00  0.00    -0.248 NA
ATOM     56  C   UNL A   1      44.818  27.433  29.628  1.00  0.00     0.031 C 
ATOM     57  C   UNL A   1      43.568  30.506  34.716  1.00  0.00     0.029 A 
ATOM     58  C   UNL A   1      43.458  29.923  33.464  1.00  0.00     0.049 A 
ATOM     59  H   UNL A   1      41.840  29.981  32.110  1.00  0.00     0.167 HD
ATOM     60  C   UNL A   1      44.253  28.595  31.523  1.00  0.00     0.074 A 
ATOM     61  C   UNL A   1      45.246  27.803  30.827  1.00  0.00     0.031 C 
ATOM     62  C   UNL A   1      44.432  29.121  32.761  1.00  0.00     0.034 A 
BRANCH  49  63
ATOM     63  C   UNL A   1      39.592  32.398  34.841  1.00  0.00     0.023 A 
ATOM     64  C   UNL A   1      39.045  31.842  36.011  1.00  0.00     0.031 A 
ATOM     65  C   UNL A   1      39.544  33.794  34.689  1.00  0.00     0.131 A 
ATOM     66  C   UNL A   1      38.410  32.672  36.947  1.00  0.00     0.055 A 
ATOM     67  C   UNL A   1      38.983  34.623  35.663  1.00  0.00     0.041 A 
ATOM     68  F   UNL A   1      40.028  34.379  33.582  1.00  0.00    -0.206 F 
ATOM     69  C   UNL A   1      38.398  34.061  36.794  1.00  0.00     0.022 A 
BRANCH  66  70
ATOM     70  S   UNL A   1      37.471  31.901  38.294  1.00  0.00     0.124 S 
ATOM     71  O   UNL A   1      37.301  30.540  37.791  1.00  0.00    -0.237 OA
ATOM     72  O   UNL A   1      38.369  32.054  39.432  1.00  0.00    -0.237 OA
ATOM     73  O   UNL A   1      36.245  32.692  38.355  1.00  0.00    -0.744 OA
ENDBRANCH  66  70
ENDBRANCH  49  63
BRANCH  50  74
ATOM     74  C   UNL A   1      43.180  26.923  27.243  1.00  0.00     0.023 A 
ATOM     75  C   UNL A   1      42.889  25.561  27.062  1.00  0.00     0.031 A 
ATOM     76  C   UNL A   1      44.071  27.532  26.341  1.00  0.00     0.131 A 
ATOM     77  C   UNL A   1      43.518  24.844  26.033  1.00  0.00     0.055 A 
ATOM     78  C   UNL A   1      44.652  26.826  25.286  1.00  0.00     0.041 A 
ATOM     79  F   UNL A   1      44.387  28.831  26.471  1.00  0.00    -0.206 F 
ATOM     80  C   UNL A   1      44.387  25.469  25.135  1.00  0.00     0.022 A 
BRANCH  77  81
ATOM     81  S   UNL A   1      43.256  23.051  25.937  1.00  0.00     0.124 S 
ATOM     82  O   UNL A   1      41.975  22.904  26.620  1.00  0.00    -0.237 OA
ATOM     83  O   UNL A   1      43.246  22.824  24.496  1.00  0.00    -0.237 OA
ATOM     84  O   UNL A   1      44.409  22.501  26.645  1.00  0.00    -0.744 OA
ENDBRANCH  77  81
ENDBRANCH  50  74
BRANCH  62  85
ATOM     85  C   UNL A   1      45.715  28.790  33.483  1.00  0.00     0.023 A 
ATOM     86  C   UNL A   1      46.855  29.608  33.399  1.00  0.00     0.031 A 
ATOM     87  C   UNL A   1      45.776  27.647  34.300  1.00  0.00     0.131 A 
ATOM     88  C   UNL A   1      48.019  29.251  34.097  1.00  0.00     0.055 A 
ATOM     89  C   UNL A   1      46.919  27.324  35.031  1.00  0.00     0.041 A 
ATOM     90  F   UNL A   1      44.714  26.832  34.416  1.00  0.00    -0.206 F 
ATOM     91  C   UNL A   1      48.052  28.126  34.926  1.00  0.00     0.022 A 
BRANCH  88  92
ATOM     92  S   UNL A   1      49.516  30.251  33.872  1.00  0.00     0.124 S 
ATOM     93  O   UNL A   1      50.433  29.291  33.266  1.00  0.00    -0.237 OA
ATOM     94  O   UNL A   1      49.049  31.324  33.000  1.00  0.00    -0.237 OA
ATOM     95  O   UNL A   1      49.861  30.665  35.231  1.00  0.00    -0.744 OA
ENDBRANCH  88  92
ENDBRANCH  62  85
ENDBRANCH  36  37
ENDBRANCH  29  31
ENDBRANCH  28  29
ENDBRANCH  27  28
ENDBRANCH  26  27
ENDBRANCH  25  26
ENDBRANCH   1  25
TORSDOF 23
ENDMDL
