MODEL 1
REMARK VINA RESULT:     -11.5      0.000      0.000
REMARK SMILES COc1ccc(-c2noc(CC(=O)OCCOCCOC(=O)c3ccc(-c4c5nc(c(-c6cc(S(=O)(=O)[O-])ccc6F)c6ccc([nH]6)c(-c6cc(S(=O)(=O)[O-])ccc6F)c6nc(c(-c7cc(S(=O)(=O)[O-])ccc7F)c7ccc4[nH]7)C=C6)C=C5)cc3)c2-c2ccc(OC)cc2)cc1
REMARK SMILES IDX 17 1 16 2 15 3 14 4 12 5 13 6 11 7 10 8 7 9 8 10 86 11 9 12
REMARK SMILES IDX 6 13 3 14 4 15 96 16 5 17 95 18 2 19 1 20 87 21 88 22 94 23
REMARK SMILES IDX 89 24 93 25 90 26 91 27 92 28 18 29 19 30 20 31 21 32 22 33
REMARK SMILES IDX 23 34 24 35 85 36 25 37 84 38 26 39 27 40 28 41 78 42 29 43
REMARK SMILES IDX 83 44 77 45 79 46 30 47 82 48 76 49 75 50 31 52 63 53 43 54
REMARK SMILES IDX 62 55 44 56 47 57 61 58 80 59 45 60 46 61 60 63 81 64 48 65
REMARK SMILES IDX 32 66 33 67 41 68 34 69 40 70 42 71 39 72 35 73 36 74 37 75
REMARK SMILES IDX 38 76 64 77 65 78 73 79 66 80 72 81 74 82 71 83 67 84 68 85
REMARK SMILES IDX 69 86 70 87 49 88 50 89 58 90 51 91 57 92 59 93 56 94 52 95
REMARK SMILES IDX 53 96 54 97 55 98
REMARK H PARENT 79 51 47 62
REMARK Flexibility Score: inf
ROOT
ATOM      1  O   UNL A   1      35.311  20.836  24.941  1.00  0.00    -0.374 OA
ENDROOT
BRANCH   1   2
ATOM      2  C   UNL A   1      34.918  21.434  26.177  1.00  0.00     0.202 C 
BRANCH   2   3
ATOM      3  C   UNL A   1      34.899  22.966  26.221  1.00  0.00     0.261 C 
BRANCH   3   4
ATOM      4  O   UNL A   1      35.113  23.542  24.921  1.00  0.00    -0.463 OA
BRANCH   4   5
ATOM      5  C   UNL A   1      34.011  24.060  24.326  1.00  0.00     0.313 C 
ATOM      6  O   UNL A   1      33.948  24.399  23.147  1.00  0.00    -0.252 OA
BRANCH   5   7
ATOM      7  C   UNL A   1      32.787  24.131  25.197  1.00  0.00     0.201 C 
BRANCH   7   8
ATOM      8  C   UNL A   1      31.643  24.942  24.713  1.00  0.00     0.156 A 
ATOM      9  C   UNL A   1      30.242  26.414  23.820  1.00  0.00     0.122 A 
ATOM     10  N   UNL A   1      29.846  25.210  23.386  1.00  0.00    -0.079 NA
ATOM     11  C   UNL A   1      31.333  26.284  24.729  1.00  0.00     0.053 A 
ATOM     12  O   UNL A   1      30.735  24.300  23.926  1.00  0.00    -0.359 OA
BRANCH   9  13
ATOM     13  C   UNL A   1      29.683  27.649  23.286  1.00  0.00     0.005 A 
ATOM     14  C   UNL A   1      28.518  29.973  22.225  1.00  0.00     0.118 A 
ATOM     15  C   UNL A   1      29.878  29.710  22.037  1.00  0.00     0.047 A 
ATOM     16  C   UNL A   1      27.735  29.066  22.936  1.00  0.00     0.047 A 
ATOM     17  C   UNL A   1      30.467  28.561  22.579  1.00  0.00     0.014 A 
ATOM     18  C   UNL A   1      28.316  27.911  23.465  1.00  0.00     0.014 A 
BRANCH  14  19
ATOM     19  O   UNL A   1      28.049  31.114  21.635  1.00  0.00    -0.497 OA
ATOM     20  C   UNL A   1      28.724  32.313  22.001  1.00  0.00     0.278 C 
ENDBRANCH  14  19
ENDBRANCH   9  13
BRANCH  11  21
ATOM     21  C   UNL A   1      32.094  27.301  25.416  1.00  0.00    -0.012 A 
ATOM     22  C   UNL A   1      31.714  27.711  26.696  1.00  0.00     0.013 A 
ATOM     23  C   UNL A   1      33.197  27.900  24.799  1.00  0.00     0.013 A 
ATOM     24  C   UNL A   1      32.454  28.690  27.362  1.00  0.00     0.047 A 
ATOM     25  C   UNL A   1      33.942  28.870  25.472  1.00  0.00     0.047 A 
ATOM     26  C   UNL A   1      33.578  29.260  26.762  1.00  0.00     0.118 A 
BRANCH  26  27
ATOM     27  O   UNL A   1      34.228  30.194  27.522  1.00  0.00    -0.497 OA
ATOM     28  C   UNL A   1      35.475  29.799  28.077  1.00  0.00     0.278 C 
ENDBRANCH  26  27
ENDBRANCH  11  21
ENDBRANCH   7   8
ENDBRANCH   5   7
ENDBRANCH   4   5
ENDBRANCH   3   4
ENDBRANCH   2   3
ENDBRANCH   1   2
BRANCH   1  29
ATOM     29  C   UNL A   1      36.232  19.745  25.002  1.00  0.00     0.202 C 
BRANCH  29  30
ATOM     30  C   UNL A   1      37.708  20.047  24.715  1.00  0.00     0.261 C 
BRANCH  30  31
ATOM     31  O   UNL A   1      38.189  21.195  25.436  1.00  0.00    -0.460 OA
BRANCH  31  32
ATOM     32  C   UNL A   1      39.341  20.990  26.120  1.00  0.00     0.338 C 
ATOM     33  O   UNL A   1      40.040  19.984  26.096  1.00  0.00    -0.246 OA
BRANCH  32  34
ATOM     34  C   UNL A   1      39.779  22.234  26.778  1.00  0.00     0.060 A 
ATOM     35  C   UNL A   1      39.097  23.410  26.441  1.00  0.00     0.016 A 
ATOM     36  C   UNL A   1      40.885  22.277  27.631  1.00  0.00     0.016 A 
ATOM     37  C   UNL A   1      39.552  24.641  26.908  1.00  0.00     0.010 A 
ATOM     38  C   UNL A   1      41.347  23.518  28.091  1.00  0.00     0.010 A 
ATOM     39  C   UNL A   1      40.706  24.708  27.699  1.00  0.00    -0.014 A 
BRANCH  39  40
ATOM     40  C   UNL A   1      41.320  26.034  27.968  1.00  0.00     0.031 A 
ATOM     41  C   UNL A   1      42.707  26.312  27.454  1.00  0.00     0.074 A 
ATOM     42  C   UNL A   1      40.630  26.998  28.605  1.00  0.00     0.049 A 
ATOM     43  N   UNL A   1      43.436  27.393  27.566  1.00  0.00    -0.248 NA
ATOM     44  C   UNL A   1      43.356  25.222  26.710  1.00  0.00     0.031 C 
ATOM     45  C   UNL A   1      39.261  26.868  29.100  1.00  0.00     0.029 A 
ATOM     46  N   UNL A   1      40.988  28.280  28.939  1.00  0.00    -0.354 N 
ATOM     47  C   UNL A   1      44.629  27.117  26.906  1.00  0.00     0.074 A 
ATOM     48  C   UNL A   1      44.538  25.751  26.434  1.00  0.00     0.031 C 
ATOM     49  C   UNL A   1      38.896  28.024  29.680  1.00  0.00     0.029 A 
ATOM     50  C   UNL A   1      40.014  28.964  29.629  1.00  0.00     0.049 A 
ATOM     51  H   UNL A   1      41.859  28.674  28.707  1.00  0.00     0.167 HD
ATOM     52  C   UNL A   1      45.696  27.930  26.703  1.00  0.00     0.034 A 
ATOM     53  C   UNL A   1      40.032  30.198  30.173  1.00  0.00     0.034 A 
ATOM     54  C   UNL A   1      45.780  29.284  27.193  1.00  0.00     0.049 A 
ATOM     55  C   UNL A   1      41.270  31.049  30.022  1.00  0.00     0.074 A 
ATOM     56  C   UNL A   1      46.811  30.195  27.039  1.00  0.00     0.029 A 
ATOM     57  N   UNL A   1      44.799  29.920  27.944  1.00  0.00    -0.354 N 
ATOM     58  N   UNL A   1      42.391  30.777  29.394  1.00  0.00    -0.248 NA
ATOM     59  C   UNL A   1      41.240  32.379  30.646  1.00  0.00     0.031 C 
ATOM     60  C   UNL A   1      46.484  31.353  27.755  1.00  0.00     0.029 A 
ATOM     61  C   UNL A   1      45.216  31.196  28.290  1.00  0.00     0.049 A 
ATOM     62  H   UNL A   1      43.934  29.522  28.193  1.00  0.00     0.167 HD
ATOM     63  C   UNL A   1      43.185  31.913  29.525  1.00  0.00     0.074 A 
ATOM     64  C   UNL A   1      42.411  32.877  30.279  1.00  0.00     0.031 C 
ATOM     65  C   UNL A   1      44.439  32.143  29.057  1.00  0.00     0.034 A 
BRANCH  52  66
ATOM     66  C   UNL A   1      46.877  27.345  25.965  1.00  0.00     0.023 A 
ATOM     67  C   UNL A   1      47.901  26.652  26.635  1.00  0.00     0.031 A 
ATOM     68  C   UNL A   1      46.998  27.514  24.575  1.00  0.00     0.131 A 
ATOM     69  C   UNL A   1      49.031  26.217  25.927  1.00  0.00     0.055 A 
ATOM     70  C   UNL A   1      48.089  27.011  23.863  1.00  0.00     0.041 A 
ATOM     71  F   UNL A   1      46.062  28.185  23.884  1.00  0.00    -0.206 F 
ATOM     72  C   UNL A   1      49.122  26.371  24.542  1.00  0.00     0.022 A 
BRANCH  69  73
ATOM     73  S   UNL A   1      50.448  25.573  26.861  1.00  0.00     0.124 S 
ATOM     74  O   UNL A   1      51.360  25.189  25.787  1.00  0.00    -0.237 OA
ATOM     75  O   UNL A   1      50.847  26.724  27.660  1.00  0.00    -0.237 OA
ATOM     76  O   UNL A   1      49.880  24.455  27.615  1.00  0.00    -0.744 OA
ENDBRANCH  69  73
ENDBRANCH  52  66
BRANCH  53  77
ATOM     77  C   UNL A   1      38.863  30.694  30.956  1.00  0.00     0.023 A 
ATOM     78  C   UNL A   1      37.883  31.507  30.364  1.00  0.00     0.031 A 
ATOM     79  C   UNL A   1      38.743  30.408  32.326  1.00  0.00     0.131 A 
ATOM     80  C   UNL A   1      36.850  32.041  31.152  1.00  0.00     0.055 A 
ATOM     81  C   UNL A   1      37.685  30.898  33.094  1.00  0.00     0.041 A 
ATOM     82  F   UNL A   1      39.654  29.637  32.942  1.00  0.00    -0.206 F 
ATOM     83  C   UNL A   1      36.737  31.731  32.509  1.00  0.00     0.022 A 
BRANCH  80  84
ATOM     84  S   UNL A   1      35.695  33.215  30.392  1.00  0.00     0.124 S 
ATOM     85  O   UNL A   1      35.991  33.049  28.974  1.00  0.00    -0.237 OA
ATOM     86  O   UNL A   1      34.404  32.705  30.842  1.00  0.00    -0.237 OA
ATOM     87  O   UNL A   1      36.088  34.500  30.966  1.00  0.00    -0.744 OA
ENDBRANCH  80  84
ENDBRANCH  53  77
BRANCH  65  88
ATOM     88  C   UNL A   1      45.029  33.510  29.314  1.00  0.00     0.023 A 
ATOM     89  C   UNL A   1      44.854  34.575  28.412  1.00  0.00     0.031 A 
ATOM     90  C   UNL A   1      45.789  33.743  30.474  1.00  0.00     0.131 A 
ATOM     91  C   UNL A   1      45.475  35.809  28.660  1.00  0.00     0.055 A 
ATOM     92  C   UNL A   1      46.356  34.989  30.744  1.00  0.00     0.041 A 
ATOM     93  F   UNL A   1      45.991  32.762  31.367  1.00  0.00    -0.206 F 
ATOM     94  C   UNL A   1      46.211  36.027  29.828  1.00  0.00     0.022 A 
BRANCH  91  95
ATOM     95  S   UNL A   1      45.381  37.104  27.393  1.00  0.00     0.124 S 
ATOM     96  O   UNL A   1      43.967  37.076  27.033  1.00  0.00    -0.237 OA
ATOM     97  O   UNL A   1      45.830  38.287  28.121  1.00  0.00    -0.237 OA
ATOM     98  O   UNL A   1      46.296  36.634  26.354  1.00  0.00    -0.744 OA
ENDBRANCH  91  95
ENDBRANCH  65  88
ENDBRANCH  39  40
ENDBRANCH  32  34
ENDBRANCH  31  32
ENDBRANCH  30  31
ENDBRANCH  29  30
ENDBRANCH   1  29
TORSDOF 22
ENDMDL
MODEL 2
REMARK VINA RESULT:     -11.2      1.932      2.248
REMARK SMILES COc1ccc(-c2noc(CC(=O)OCCOCCOC(=O)c3ccc(-c4c5nc(c(-c6cc(S(=O)(=O)[O-])ccc6F)c6ccc([nH]6)c(-c6cc(S(=O)(=O)[O-])ccc6F)c6nc(c(-c7cc(S(=O)(=O)[O-])ccc7F)c7ccc4[nH]7)C=C6)C=C5)cc3)c2-c2ccc(OC)cc2)cc1
REMARK SMILES IDX 17 1 16 2 15 3 14 4 12 5 13 6 11 7 10 8 7 9 8 10 86 11 9 12
REMARK SMILES IDX 6 13 3 14 4 15 96 16 5 17 95 18 2 19 1 20 87 21 88 22 94 23
REMARK SMILES IDX 89 24 93 25 90 26 91 27 92 28 18 29 19 30 20 31 21 32 22 33
REMARK SMILES IDX 23 34 24 35 85 36 25 37 84 38 26 39 27 40 28 41 78 42 29 43
REMARK SMILES IDX 83 44 77 45 79 46 30 47 82 48 76 49 75 50 31 52 63 53 43 54
REMARK SMILES IDX 62 55 44 56 47 57 61 58 80 59 45 60 46 61 60 63 81 64 48 65
REMARK SMILES IDX 32 66 33 67 41 68 34 69 40 70 42 71 39 72 35 73 36 74 37 75
REMARK SMILES IDX 38 76 64 77 65 78 73 79 66 80 72 81 74 82 71 83 67 84 68 85
REMARK SMILES IDX 69 86 70 87 49 88 50 89 58 90 51 91 57 92 59 93 56 94 52 95
REMARK SMILES IDX 53 96 54 97 55 98
REMARK H PARENT 79 51 47 62
REMARK Flexibility Score: inf
ROOT
ATOM      1  O   UNL A   1      35.365  21.094  25.048  1.00  0.00    -0.374 OA
ENDROOT
BRANCH   1   2
ATOM      2  C   UNL A   1      34.656  21.305  26.270  1.00  0.00     0.202 C 
BRANCH   2   3
ATOM      3  C   UNL A   1      34.593  22.747  26.784  1.00  0.00     0.261 C 
BRANCH   3   4
ATOM      4  O   UNL A   1      34.956  23.696  25.766  1.00  0.00    -0.463 OA
BRANCH   4   5
ATOM      5  C   UNL A   1      33.941  24.108  24.968  1.00  0.00     0.313 C 
ATOM      6  O   UNL A   1      34.061  24.395  23.779  1.00  0.00    -0.252 OA
BRANCH   5   7
ATOM      7  C   UNL A   1      32.584  24.126  25.615  1.00  0.00     0.201 C 
BRANCH   7   8
ATOM      8  C   UNL A   1      31.539  24.981  25.000  1.00  0.00     0.156 A 
ATOM      9  C   UNL A   1      30.316  26.495  23.932  1.00  0.00     0.122 A 
ATOM     10  N   UNL A   1      29.884  25.299  23.509  1.00  0.00    -0.079 NA
ATOM     11  C   UNL A   1      31.313  26.339  24.940  1.00  0.00     0.053 A 
ATOM     12  O   UNL A   1      30.664  24.361  24.160  1.00  0.00    -0.359 OA
BRANCH   9  13
ATOM     13  C   UNL A   1      29.883  27.736  23.306  1.00  0.00     0.005 A 
ATOM     14  C   UNL A   1      29.139  30.177  22.134  1.00  0.00     0.118 A 
ATOM     15  C   UNL A   1      28.197  29.398  22.813  1.00  0.00     0.047 A 
ATOM     16  C   UNL A   1      30.459  29.741  22.051  1.00  0.00     0.047 A 
ATOM     17  C   UNL A   1      28.560  28.172  23.384  1.00  0.00     0.014 A 
ATOM     18  C   UNL A   1      30.828  28.526  22.633  1.00  0.00     0.014 A 
BRANCH  14  19
ATOM     19  O   UNL A   1      28.676  31.363  21.634  1.00  0.00    -0.497 OA
ATOM     20  C   UNL A   1      27.898  31.263  20.445  1.00  0.00     0.278 C 
ENDBRANCH  14  19
ENDBRANCH   9  13
BRANCH  11  21
ATOM     21  C   UNL A   1      32.074  27.337  25.654  1.00  0.00    -0.012 A 
ATOM     22  C   UNL A   1      31.504  27.998  26.745  1.00  0.00     0.013 A 
ATOM     23  C   UNL A   1      33.369  27.669  25.246  1.00  0.00     0.013 A 
ATOM     24  C   UNL A   1      32.242  28.959  27.440  1.00  0.00     0.047 A 
ATOM     25  C   UNL A   1      34.108  28.622  25.949  1.00  0.00     0.047 A 
ATOM     26  C   UNL A   1      33.550  29.262  27.057  1.00  0.00     0.118 A 
BRANCH  26  27
ATOM     27  O   UNL A   1      34.173  30.207  27.825  1.00  0.00    -0.497 OA
ATOM     28  C   UNL A   1      33.834  31.561  27.560  1.00  0.00     0.278 C 
ENDBRANCH  26  27
ENDBRANCH  11  21
ENDBRANCH   7   8
ENDBRANCH   5   7
ENDBRANCH   4   5
ENDBRANCH   3   4
ENDBRANCH   2   3
ENDBRANCH   1   2
BRANCH   1  29
ATOM     29  C   UNL A   1      36.327  20.038  25.020  1.00  0.00     0.202 C 
BRANCH  29  30
ATOM     30  C   UNL A   1      37.803  20.427  24.876  1.00  0.00     0.261 C 
BRANCH  30  31
ATOM     31  O   UNL A   1      38.180  21.504  25.754  1.00  0.00    -0.460 OA
BRANCH  31  32
ATOM     32  C   UNL A   1      39.415  21.382  26.299  1.00  0.00     0.338 C 
ATOM     33  O   UNL A   1      40.171  20.423  26.196  1.00  0.00    -0.246 OA
BRANCH  32  34
ATOM     34  C   UNL A   1      39.845  22.660  26.894  1.00  0.00     0.060 A 
ATOM     35  C   UNL A   1      39.272  23.830  26.380  1.00  0.00     0.016 A 
ATOM     36  C   UNL A   1      40.849  22.730  27.863  1.00  0.00     0.016 A 
ATOM     37  C   UNL A   1      39.739  25.077  26.789  1.00  0.00     0.010 A 
ATOM     38  C   UNL A   1      41.324  23.986  28.265  1.00  0.00     0.010 A 
ATOM     39  C   UNL A   1      40.798  25.163  27.701  1.00  0.00    -0.014 A 
BRANCH  39  40
ATOM     40  C   UNL A   1      41.450  26.479  27.925  1.00  0.00     0.031 A 
ATOM     41  C   UNL A   1      42.810  26.729  27.329  1.00  0.00     0.074 A 
ATOM     42  C   UNL A   1      40.816  27.460  28.594  1.00  0.00     0.049 A 
ATOM     43  N   UNL A   1      43.564  27.797  27.392  1.00  0.00    -0.248 NA
ATOM     44  C   UNL A   1      43.396  25.623  26.556  1.00  0.00     0.031 C 
ATOM     45  C   UNL A   1      39.476  27.358  29.168  1.00  0.00     0.029 A 
ATOM     46  N   UNL A   1      41.216  28.737  28.898  1.00  0.00    -0.354 N 
ATOM     47  C   UNL A   1      44.711  27.495  26.666  1.00  0.00     0.074 A 
ATOM     48  C   UNL A   1      44.569  26.128  26.209  1.00  0.00     0.031 C 
ATOM     49  C   UNL A   1      39.166  28.524  29.760  1.00  0.00     0.029 A 
ATOM     50  C   UNL A   1      40.296  29.443  29.638  1.00  0.00     0.049 A 
ATOM     51  H   UNL A   1      42.079  29.114  28.613  1.00  0.00     0.167 HD
ATOM     52  C   UNL A   1      45.779  28.286  26.396  1.00  0.00     0.034 A 
ATOM     53  C   UNL A   1      40.368  30.679  30.172  1.00  0.00     0.034 A 
ATOM     54  C   UNL A   1      45.916  29.642  26.871  1.00  0.00     0.049 A 
ATOM     55  C   UNL A   1      41.610  31.507  29.943  1.00  0.00     0.074 A 
ATOM     56  C   UNL A   1      46.953  30.533  26.652  1.00  0.00     0.029 A 
ATOM     57  N   UNL A   1      44.992  30.300  27.673  1.00  0.00    -0.354 N 
ATOM     58  N   UNL A   1      42.688  31.210  29.254  1.00  0.00    -0.248 NA
ATOM     59  C   UNL A   1      41.640  32.840  30.560  1.00  0.00     0.031 C 
ATOM     60  C   UNL A   1      46.689  31.701  27.377  1.00  0.00     0.029 A 
ATOM     61  C   UNL A   1      45.452  31.571  27.986  1.00  0.00     0.049 A 
ATOM     62  H   UNL A   1      44.136  29.920  27.975  1.00  0.00     0.167 HD
ATOM     63  C   UNL A   1      43.509  32.332  29.331  1.00  0.00     0.074 A 
ATOM     64  C   UNL A   1      42.797  33.314  30.122  1.00  0.00     0.031 C 
ATOM     65  C   UNL A   1      44.738  32.536  28.790  1.00  0.00     0.034 A 
BRANCH  52  66
ATOM     66  C   UNL A   1      46.905  27.676  25.595  1.00  0.00     0.023 A 
ATOM     67  C   UNL A   1      47.165  28.063  24.268  1.00  0.00     0.031 A 
ATOM     68  C   UNL A   1      47.709  26.669  26.156  1.00  0.00     0.131 A 
ATOM     69  C   UNL A   1      48.153  27.397  23.526  1.00  0.00     0.055 A 
ATOM     70  C   UNL A   1      48.742  26.064  25.437  1.00  0.00     0.041 A 
ATOM     71  F   UNL A   1      47.495  26.244  27.412  1.00  0.00    -0.206 F 
ATOM     72  C   UNL A   1      48.958  26.416  24.108  1.00  0.00     0.022 A 
BRANCH  69  73
ATOM     73  S   UNL A   1      48.276  27.732  21.746  1.00  0.00     0.124 S 
ATOM     74  O   UNL A   1      48.565  26.402  21.215  1.00  0.00    -0.237 OA
ATOM     75  O   UNL A   1      46.958  28.273  21.436  1.00  0.00    -0.237 OA
ATOM     76  O   UNL A   1      49.380  28.685  21.653  1.00  0.00    -0.744 OA
ENDBRANCH  69  73
ENDBRANCH  52  66
BRANCH  53  77
ATOM     77  C   UNL A   1      39.255  31.202  31.017  1.00  0.00     0.023 A 
ATOM     78  C   UNL A   1      39.355  31.231  32.418  1.00  0.00     0.031 A 
ATOM     79  C   UNL A   1      38.050  31.627  30.433  1.00  0.00     0.131 A 
ATOM     80  C   UNL A   1      38.252  31.634  33.187  1.00  0.00     0.055 A 
ATOM     81  C   UNL A   1      36.974  32.076  31.201  1.00  0.00     0.041 A 
ATOM     82  F   UNL A   1      37.901  31.617  29.098  1.00  0.00    -0.206 F 
ATOM     83  C   UNL A   1      37.068  32.069  32.588  1.00  0.00     0.022 A 
BRANCH  80  84
ATOM     84  S   UNL A   1      38.359  31.507  34.994  1.00  0.00     0.124 S 
ATOM     85  O   UNL A   1      37.167  32.232  35.414  1.00  0.00    -0.237 OA
ATOM     86  O   UNL A   1      38.337  30.062  35.198  1.00  0.00    -0.237 OA
ATOM     87  O   UNL A   1      39.630  32.158  35.307  1.00  0.00    -0.744 OA
ENDBRANCH  80  84
ENDBRANCH  53  77
BRANCH  65  88
ATOM     88  C   UNL A   1      45.366  33.893  29.003  1.00  0.00     0.023 A 
ATOM     89  C   UNL A   1      44.948  35.026  28.281  1.00  0.00     0.031 A 
ATOM     90  C   UNL A   1      46.409  34.049  29.934  1.00  0.00     0.131 A 
ATOM     91  C   UNL A   1      45.605  36.253  28.466  1.00  0.00     0.055 A 
ATOM     92  C   UNL A   1      47.019  35.284  30.154  1.00  0.00     0.041 A 
ATOM     93  F   UNL A   1      46.849  33.002  30.648  1.00  0.00    -0.206 F 
ATOM     94  C   UNL A   1      46.627  36.392  29.409  1.00  0.00     0.022 A 
BRANCH  91  95
ATOM     95  S   UNL A   1      45.166  37.648  27.392  1.00  0.00     0.124 S 
ATOM     96  O   UNL A   1      45.092  38.753  28.343  1.00  0.00    -0.237 OA
ATOM     97  O   UNL A   1      46.286  37.687  26.456  1.00  0.00    -0.237 OA
ATOM     98  O   UNL A   1      43.887  37.244  26.810  1.00  0.00    -0.744 OA
ENDBRANCH  91  95
ENDBRANCH  65  88
ENDBRANCH  39  40
ENDBRANCH  32  34
ENDBRANCH  31  32
ENDBRANCH  30  31
ENDBRANCH  29  30
ENDBRANCH   1  29
TORSDOF 22
ENDMDL
MODEL 3
REMARK VINA RESULT:     -11.2      1.512      7.392
REMARK SMILES COc1ccc(-c2noc(CC(=O)OCCOCCOC(=O)c3ccc(-c4c5nc(c(-c6cc(S(=O)(=O)[O-])ccc6F)c6ccc([nH]6)c(-c6cc(S(=O)(=O)[O-])ccc6F)c6nc(c(-c7cc(S(=O)(=O)[O-])ccc7F)c7ccc4[nH]7)C=C6)C=C5)cc3)c2-c2ccc(OC)cc2)cc1
REMARK SMILES IDX 17 1 16 2 15 3 14 4 12 5 13 6 11 7 10 8 7 9 8 10 86 11 9 12
REMARK SMILES IDX 6 13 3 14 4 15 96 16 5 17 95 18 2 19 1 20 87 21 88 22 94 23
REMARK SMILES IDX 89 24 93 25 90 26 91 27 92 28 18 29 19 30 20 31 21 32 22 33
REMARK SMILES IDX 23 34 24 35 85 36 25 37 84 38 26 39 27 40 28 41 78 42 29 43
REMARK SMILES IDX 83 44 77 45 79 46 30 47 82 48 76 49 75 50 31 52 63 53 43 54
REMARK SMILES IDX 62 55 44 56 47 57 61 58 80 59 45 60 46 61 60 63 81 64 48 65
REMARK SMILES IDX 32 66 33 67 41 68 34 69 40 70 42 71 39 72 35 73 36 74 37 75
REMARK SMILES IDX 38 76 64 77 65 78 73 79 66 80 72 81 74 82 71 83 67 84 68 85
REMARK SMILES IDX 69 86 70 87 49 88 50 89 58 90 51 91 57 92 59 93 56 94 52 95
REMARK SMILES IDX 53 96 54 97 55 98
REMARK H PARENT 79 51 47 62
REMARK Flexibility Score: inf
ROOT
ATOM      1  O   UNL A   1      36.581  23.293  24.207  1.00  0.00    -0.374 OA
ENDROOT
BRANCH   1   2
ATOM      2  C   UNL A   1      35.668  24.073  24.980  1.00  0.00     0.202 C 
BRANCH   2   3
ATOM      3  C   UNL A   1      34.606  24.855  24.201  1.00  0.00     0.261 C 
BRANCH   3   4
ATOM      4  O   UNL A   1      33.657  23.983  23.562  1.00  0.00    -0.463 OA
BRANCH   4   5
ATOM      5  C   UNL A   1      32.747  23.412  24.388  1.00  0.00     0.313 C 
ATOM      6  O   UNL A   1      32.528  22.204  24.456  1.00  0.00    -0.252 OA
BRANCH   5   7
ATOM      7  C   UNL A   1      32.040  24.360  25.317  1.00  0.00     0.201 C 
BRANCH   7   8
ATOM      8  C   UNL A   1      30.975  25.218  24.744  1.00  0.00     0.156 A 
ATOM      9  C   UNL A   1      29.715  26.749  23.745  1.00  0.00     0.122 A 
ATOM     10  N   UNL A   1      29.302  25.562  23.279  1.00  0.00    -0.079 NA
ATOM     11  C   UNL A   1      30.723  26.573  24.739  1.00  0.00     0.053 A 
ATOM     12  O   UNL A   1      30.105  24.615  23.887  1.00  0.00    -0.359 OA
BRANCH   9  13
ATOM     13  C   UNL A   1      29.253  28.006  23.171  1.00  0.00     0.005 A 
ATOM     14  C   UNL A   1      28.273  30.379  22.034  1.00  0.00     0.118 A 
ATOM     15  C   UNL A   1      29.608  30.002  21.854  1.00  0.00     0.047 A 
ATOM     16  C   UNL A   1      27.424  29.561  22.775  1.00  0.00     0.047 A 
ATOM     17  C   UNL A   1      30.105  28.828  22.433  1.00  0.00     0.014 A 
ATOM     18  C   UNL A   1      27.912  28.382  23.342  1.00  0.00     0.014 A 
BRANCH  14  19
ATOM     19  O   UNL A   1      27.895  31.534  21.406  1.00  0.00    -0.497 OA
ATOM     20  C   UNL A   1      28.504  32.724  21.897  1.00  0.00     0.278 C 
ENDBRANCH  14  19
ENDBRANCH   9  13
BRANCH  11  21
ATOM     21  C   UNL A   1      31.471  27.557  25.485  1.00  0.00    -0.012 A 
ATOM     22  C   UNL A   1      32.374  28.393  24.825  1.00  0.00     0.013 A 
ATOM     23  C   UNL A   1      31.317  27.664  26.871  1.00  0.00     0.013 A 
ATOM     24  C   UNL A   1      33.092  29.349  25.546  1.00  0.00     0.047 A 
ATOM     25  C   UNL A   1      32.028  28.629  27.588  1.00  0.00     0.047 A 
ATOM     26  C   UNL A   1      32.911  29.483  26.924  1.00  0.00     0.118 A 
BRANCH  26  27
ATOM     27  O   UNL A   1      33.658  30.465  27.514  1.00  0.00    -0.497 OA
ATOM     28  C   UNL A   1      34.999  30.129  27.841  1.00  0.00     0.278 C 
ENDBRANCH  26  27
ENDBRANCH  11  21
ENDBRANCH   7   8
ENDBRANCH   5   7
ENDBRANCH   4   5
ENDBRANCH   3   4
ENDBRANCH   2   3
ENDBRANCH   1   2
BRANCH   1  29
ATOM     29  C   UNL A   1      36.325  21.892  24.102  1.00  0.00     0.202 C 
BRANCH  29  30
ATOM     30  C   UNL A   1      37.403  20.933  24.625  1.00  0.00     0.261 C 
BRANCH  30  31
ATOM     31  O   UNL A   1      37.824  21.249  25.964  1.00  0.00    -0.460 OA
BRANCH  31  32
ATOM     32  C   UNL A   1      39.157  21.136  26.178  1.00  0.00     0.338 C 
ATOM     33  O   UNL A   1      39.886  20.226  25.804  1.00  0.00    -0.246 OA
BRANCH  32  34
ATOM     34  C   UNL A   1      39.692  22.376  26.771  1.00  0.00     0.060 A 
ATOM     35  C   UNL A   1      39.103  23.582  26.370  1.00  0.00     0.016 A 
ATOM     36  C   UNL A   1      40.798  22.378  27.623  1.00  0.00     0.016 A 
ATOM     37  C   UNL A   1      39.652  24.797  26.772  1.00  0.00     0.010 A 
ATOM     38  C   UNL A   1      41.356  23.601  28.018  1.00  0.00     0.010 A 
ATOM     39  C   UNL A   1      40.809  24.816  27.563  1.00  0.00    -0.014 A 
BRANCH  39  40
ATOM     40  C   UNL A   1      41.524  26.102  27.763  1.00  0.00     0.031 A 
ATOM     41  C   UNL A   1      40.858  27.188  28.566  1.00  0.00     0.074 A 
ATOM     42  C   UNL A   1      42.771  26.280  27.291  1.00  0.00     0.049 A 
ATOM     43  N   UNL A   1      41.292  28.385  28.870  1.00  0.00    -0.248 NA
ATOM     44  C   UNL A   1      39.522  26.878  29.099  1.00  0.00     0.031 C 
ATOM     45  C   UNL A   1      43.542  25.285  26.548  1.00  0.00     0.029 A 
ATOM     46  N   UNL A   1      43.612  27.363  27.373  1.00  0.00    -0.354 N 
ATOM     47  C   UNL A   1      40.286  28.970  29.633  1.00  0.00     0.074 A 
ATOM     48  C   UNL A   1      39.205  28.011  29.706  1.00  0.00     0.031 C 
ATOM     49  C   UNL A   1      44.741  25.805  26.238  1.00  0.00     0.029 A 
ATOM     50  C   UNL A   1      44.812  27.181  26.728  1.00  0.00     0.049 A 
ATOM     51  H   UNL A   1      43.377  28.192  27.849  1.00  0.00     0.167 HD
ATOM     52  C   UNL A   1      40.271  30.191  30.224  1.00  0.00     0.034 A 
ATOM     53  C   UNL A   1      45.840  28.032  26.539  1.00  0.00     0.034 A 
ATOM     54  C   UNL A   1      41.349  31.145  30.130  1.00  0.00     0.049 A 
ATOM     55  C   UNL A   1      45.759  29.423  27.122  1.00  0.00     0.074 A 
ATOM     56  C   UNL A   1      41.438  32.405  30.695  1.00  0.00     0.029 A 
ATOM     57  N   UNL A   1      42.523  30.949  29.413  1.00  0.00    -0.354 N 
ATOM     58  N   UNL A   1      44.803  29.965  27.842  1.00  0.00    -0.248 NA
ATOM     59  C   UNL A   1      46.901  30.313  26.873  1.00  0.00     0.031 C 
ATOM     60  C   UNL A   1      42.631  32.997  30.263  1.00  0.00     0.029 A 
ATOM     61  C   UNL A   1      43.325  32.078  29.492  1.00  0.00     0.049 A 
ATOM     62  H   UNL A   1      42.753  30.128  28.921  1.00  0.00     0.167 HD
ATOM     63  C   UNL A   1      45.244  31.248  28.155  1.00  0.00     0.074 A 
ATOM     64  C   UNL A   1      46.555  31.394  27.557  1.00  0.00     0.031 C 
ATOM     65  C   UNL A   1      44.625  32.216  28.878  1.00  0.00     0.034 A 
BRANCH  52  66
ATOM     66  C   UNL A   1      39.019  30.576  30.978  1.00  0.00     0.023 A 
ATOM     67  C   UNL A   1      38.025  31.385  30.399  1.00  0.00     0.031 A 
ATOM     68  C   UNL A   1      38.834  30.155  32.306  1.00  0.00     0.131 A 
ATOM     69  C   UNL A   1      36.929  31.805  31.168  1.00  0.00     0.055 A 
ATOM     70  C   UNL A   1      37.703  30.513  33.042  1.00  0.00     0.041 A 
ATOM     71  F   UNL A   1      39.759  29.399  32.919  1.00  0.00    -0.206 F 
ATOM     72  C   UNL A   1      36.750  31.356  32.478  1.00  0.00     0.022 A 
BRANCH  69  73
ATOM     73  S   UNL A   1      35.815  33.061  30.480  1.00  0.00     0.124 S 
ATOM     74  O   UNL A   1      34.505  32.527  30.846  1.00  0.00    -0.237 OA
ATOM     75  O   UNL A   1      36.232  34.269  31.179  1.00  0.00    -0.237 OA
ATOM     76  O   UNL A   1      36.111  33.034  29.048  1.00  0.00    -0.744 OA
ENDBRANCH  69  73
ENDBRANCH  52  66
BRANCH  53  77
ATOM     77  C   UNL A   1      47.020  27.622  25.723  1.00  0.00     0.023 A 
ATOM     78  C   UNL A   1      47.128  27.977  24.368  1.00  0.00     0.031 A 
ATOM     79  C   UNL A   1      48.030  26.816  26.277  1.00  0.00     0.131 A 
ATOM     80  C   UNL A   1      48.201  27.490  23.604  1.00  0.00     0.055 A 
ATOM     81  C   UNL A   1      49.121  26.377  25.525  1.00  0.00     0.041 A 
ATOM     82  F   UNL A   1      47.973  26.447  27.567  1.00  0.00    -0.206 F 
ATOM     83  C   UNL A   1      49.204  26.704  24.175  1.00  0.00     0.022 A 
BRANCH  80  84
ATOM     84  S   UNL A   1      48.225  27.833  21.823  1.00  0.00     0.124 S 
ATOM     85  O   UNL A   1      46.886  28.368  21.604  1.00  0.00    -0.237 OA
ATOM     86  O   UNL A   1      49.323  28.788  21.713  1.00  0.00    -0.237 OA
ATOM     87  O   UNL A   1      48.479  26.524  21.226  1.00  0.00    -0.744 OA
ENDBRANCH  80  84
ENDBRANCH  53  77
BRANCH  65  88
ATOM     88  C   UNL A   1      45.385  33.504  29.096  1.00  0.00     0.023 A 
ATOM     89  C   UNL A   1      45.290  34.582  28.198  1.00  0.00     0.031 A 
ATOM     90  C   UNL A   1      46.225  33.646  30.214  1.00  0.00     0.131 A 
ATOM     91  C   UNL A   1      46.064  35.734  28.406  1.00  0.00     0.055 A 
ATOM     92  C   UNL A   1      46.948  34.816  30.447  1.00  0.00     0.041 A 
ATOM     93  F   UNL A   1      46.355  32.648  31.102  1.00  0.00    -0.206 F 
ATOM     94  C   UNL A   1      46.880  35.864  29.533  1.00  0.00     0.022 A 
BRANCH  91  95
ATOM     95  S   UNL A   1      46.058  37.031  27.137  1.00  0.00     0.124 S 
ATOM     96  O   UNL A   1      46.760  36.380  26.035  1.00  0.00    -0.237 OA
ATOM     97  O   UNL A   1      44.632  37.264  26.935  1.00  0.00    -0.237 OA
ATOM     98  O   UNL A   1      46.782  38.133  27.769  1.00  0.00    -0.744 OA
ENDBRANCH  91  95
ENDBRANCH  65  88
ENDBRANCH  39  40
ENDBRANCH  32  34
ENDBRANCH  31  32
ENDBRANCH  30  31
ENDBRANCH  29  30
ENDBRANCH   1  29
TORSDOF 22
ENDMDL
