MODEL 1
REMARK VINA RESULT:     -12.5      0.000      0.000
REMARK SMILES C[C@@H]1CCc2nc(NC(=O)[C@H]3CC=CC[C@@H]3C(=O)OCCOCCOC(=O)c3ccc(-c4c5nc(c(-c6cc(S(=O)(=O)[O-])ccc6F)c6ccc([nH]6)c(-c6cc(S(=O)(=O)[O-])ccc6F)c6nc(c(-c7cc(S(=O)(=O)[O-])ccc7F)c7ccc4[nH]7)C=C6)C=C5)cc3)sc2C1
REMARK SMILES IDX 23 1 22 2 21 3 20 4 19 5 17 6 18 7 16 8 11 9 12 10 13 11
REMARK SMILES IDX 15 12 14 13 9 14 8 15 10 17 7 18 1 19 2 20 3 21 93 22 4 23
REMARK SMILES IDX 92 24 5 25 91 26 6 27 24 28 25 29 26 30 27 31 28 32 29 33
REMARK SMILES IDX 90 34 30 35 89 36 31 37 32 38 33 39 83 40 34 41 88 42 82 43
REMARK SMILES IDX 84 44 35 45 87 46 81 47 80 48 36 50 68 51 48 52 67 53 49 54
REMARK SMILES IDX 52 55 66 56 85 57 50 58 51 59 65 61 86 62 53 63 37 64 38 65
REMARK SMILES IDX 46 66 39 67 45 68 47 69 44 70 40 71 41 72 42 73 43 74 69 75
REMARK SMILES IDX 70 76 78 77 71 78 77 79 79 80 76 81 72 82 73 83 74 84 75 85
REMARK SMILES IDX 54 86 55 87 63 88 56 89 62 90 64 91 61 92 57 93 58 94 59 95
REMARK SMILES IDX 60 96
REMARK H PARENT 8 16 84 49 52 60
REMARK Flexibility Score: inf
ROOT
ATOM      1  C   UNL A   1      38.464  22.229  26.112  1.00  0.00     0.202 C 
ENDROOT
BRANCH   1   2
ATOM      2  O   UNL A   1      37.851  21.590  24.993  1.00  0.00    -0.374 OA
BRANCH   2   3
ATOM      3  C   UNL A   1      36.460  21.830  24.783  1.00  0.00     0.202 C 
BRANCH   3   4
ATOM      4  C   UNL A   1      36.138  23.018  23.880  1.00  0.00     0.261 C 
BRANCH   4   5
ATOM      5  O   UNL A   1      34.866  22.844  23.222  1.00  0.00    -0.463 OA
BRANCH   5   6
ATOM      6  C   UNL A   1      33.880  23.707  23.576  1.00  0.00     0.310 C 
ATOM      7  O   UNL A   1      33.996  24.929  23.572  1.00  0.00    -0.252 OA
BRANCH   6   8
ATOM      8  C   UNL A   1      32.576  23.019  23.963  1.00  0.00     0.116 C 
ATOM      9  C   UNL A   1      32.363  22.825  25.485  1.00  0.00     0.097 C 
ATOM     10  C   UNL A   1      33.016  21.534  26.003  1.00  0.00     0.041 C 
ATOM     11  C   UNL A   1      32.844  20.338  25.129  1.00  0.00    -0.030 C 
ATOM     12  C   UNL A   1      32.379  21.743  23.116  1.00  0.00     0.043 C 
ATOM     13  C   UNL A   1      32.546  20.436  23.831  1.00  0.00    -0.030 C 
BRANCH   9  14
ATOM     14  C   UNL A   1      30.880  22.871  25.853  1.00  0.00     0.230 C 
ATOM     15  N   UNL A   1      30.156  24.019  25.918  1.00  0.00    -0.302 N 
ATOM     16  H   UNL A   1      29.243  23.873  26.255  1.00  0.00     0.172 HD
ATOM     17  O   UNL A   1      30.275  21.826  26.127  1.00  0.00    -0.274 OA
BRANCH  15  18
ATOM     18  C   UNL A   1      30.405  25.332  25.624  1.00  0.00     0.189 A 
ATOM     19  C   UNL A   1      33.854  28.643  24.377  1.00  0.00     0.008 C 
ATOM     20  C   UNL A   1      32.494  29.367  24.408  1.00  0.00    -0.009 C 
ATOM     21  C   UNL A   1      32.081  29.694  25.863  1.00  0.00     0.010 C 
ATOM     22  C   UNL A   1      31.369  28.546  23.721  1.00  0.00     0.052 C 
ATOM     23  C   UNL A   1      31.901  28.430  26.729  1.00  0.00     0.058 C 
ATOM     24  C   UNL A   1      30.951  27.431  24.615  1.00  0.00     0.030 A 
ATOM     25  C   UNL A   1      31.197  27.354  25.969  1.00  0.00     0.057 A 
ATOM     26  S   UNL A   1      30.128  26.046  24.099  1.00  0.00    -0.101 S 
ATOM     27  N   UNL A   1      30.855  26.150  26.551  1.00  0.00    -0.225 NA
ENDBRANCH  15  18
ENDBRANCH   9  14
ENDBRANCH   6   8
ENDBRANCH   5   6
ENDBRANCH   4   5
ENDBRANCH   3   4
ENDBRANCH   2   3
ENDBRANCH   1   2
BRANCH   1  28
ATOM     28  C   UNL A   1      39.819  21.675  26.524  1.00  0.00     0.261 C 
BRANCH  28  29
ATOM     29  O   UNL A   1      40.443  22.551  27.455  1.00  0.00    -0.460 OA
BRANCH  29  30
ATOM     30  C   UNL A   1      41.097  23.618  26.951  1.00  0.00     0.338 C 
ATOM     31  O   UNL A   1      41.907  23.641  26.034  1.00  0.00    -0.246 OA
BRANCH  30  32
ATOM     32  C   UNL A   1      40.762  24.747  27.822  1.00  0.00     0.060 A 
ATOM     33  C   UNL A   1      39.652  25.500  27.458  1.00  0.00     0.016 A 
ATOM     34  C   UNL A   1      41.706  25.211  28.753  1.00  0.00     0.016 A 
ATOM     35  C   UNL A   1      39.632  26.822  27.835  1.00  0.00     0.010 A 
ATOM     36  C   UNL A   1      41.704  26.535  29.102  1.00  0.00     0.010 A 
ATOM     37  C   UNL A   1      40.709  27.341  28.570  1.00  0.00    -0.014 A 
BRANCH  37  38
ATOM     38  C   UNL A   1      40.672  28.743  28.916  1.00  0.00     0.031 A 
ATOM     39  C   UNL A   1      41.833  29.475  28.368  1.00  0.00     0.074 A 
ATOM     40  C   UNL A   1      39.645  29.314  29.576  1.00  0.00     0.049 A 
ATOM     41  N   UNL A   1      42.731  30.128  29.015  1.00  0.00    -0.248 NA
ATOM     42  C   UNL A   1      42.136  29.327  26.936  1.00  0.00     0.031 C 
ATOM     43  C   UNL A   1      38.353  28.724  29.936  1.00  0.00     0.029 A 
ATOM     44  N   UNL A   1      39.518  30.603  29.989  1.00  0.00    -0.354 N 
ATOM     45  C   UNL A   1      43.573  30.675  28.056  1.00  0.00     0.074 A 
ATOM     46  C   UNL A   1      43.239  30.057  26.806  1.00  0.00     0.031 C 
ATOM     47  C   UNL A   1      37.505  29.707  30.322  1.00  0.00     0.029 A 
ATOM     48  C   UNL A   1      38.227  30.970  30.356  1.00  0.00     0.049 A 
ATOM     49  H   UNL A   1      40.279  31.227  30.025  1.00  0.00     0.167 HD
ATOM     50  C   UNL A   1      44.324  31.762  28.354  1.00  0.00     0.034 A 
ATOM     51  C   UNL A   1      37.778  32.230  30.611  1.00  0.00     0.034 A 
ATOM     52  C   UNL A   1      44.552  31.840  29.781  1.00  0.00     0.049 A 
ATOM     53  C   UNL A   1      38.972  33.048  30.953  1.00  0.00     0.074 A 
ATOM     54  C   UNL A   1      45.102  30.958  30.694  1.00  0.00     0.029 A 
ATOM     55  N   UNL A   1      43.811  32.732  30.527  1.00  0.00    -0.354 N 
ATOM     56  N   UNL A   1      39.690  32.848  32.025  1.00  0.00    -0.248 NA
ATOM     57  C   UNL A   1      39.656  33.747  29.876  1.00  0.00     0.031 C 
ATOM     58  C   UNL A   1      44.255  31.042  31.836  1.00  0.00     0.029 A 
ATOM     59  C   UNL A   1      43.304  32.038  31.600  1.00  0.00     0.049 A 
ATOM     60  H   UNL A   1      43.670  33.686  30.329  1.00  0.00     0.167 HD
ATOM     61  C   UNL A   1      41.006  32.991  31.609  1.00  0.00     0.074 A 
ATOM     62  C   UNL A   1      40.919  33.638  30.301  1.00  0.00     0.031 C 
ATOM     63  C   UNL A   1      42.025  32.322  32.227  1.00  0.00     0.034 A 
BRANCH  50  64
ATOM     64  C   UNL A   1      44.444  32.946  27.429  1.00  0.00     0.023 A 
ATOM     65  C   UNL A   1      43.826  34.125  27.871  1.00  0.00     0.031 A 
ATOM     66  C   UNL A   1      44.787  32.899  26.058  1.00  0.00     0.131 A 
ATOM     67  C   UNL A   1      43.403  35.095  26.954  1.00  0.00     0.055 A 
ATOM     68  C   UNL A   1      44.436  33.911  25.160  1.00  0.00     0.041 A 
ATOM     69  F   UNL A   1      45.393  31.848  25.492  1.00  0.00    -0.206 F 
ATOM     70  C   UNL A   1      43.696  34.996  25.597  1.00  0.00     0.022 A 
BRANCH  67  71
ATOM     71  S   UNL A   1      42.250  36.351  27.555  1.00  0.00     0.124 S 
ATOM     72  O   UNL A   1      40.970  35.696  27.311  1.00  0.00    -0.237 OA
ATOM     73  O   UNL A   1      42.654  36.478  28.952  1.00  0.00    -0.237 OA
ATOM     74  O   UNL A   1      42.540  37.506  26.711  1.00  0.00    -0.744 OA
ENDBRANCH  67  71
ENDBRANCH  50  64
BRANCH  51  75
ATOM     75  C   UNL A   1      36.447  32.809  30.268  1.00  0.00     0.023 A 
ATOM     76  C   UNL A   1      35.629  33.477  31.207  1.00  0.00     0.031 A 
ATOM     77  C   UNL A   1      36.064  32.920  28.911  1.00  0.00     0.131 A 
ATOM     78  C   UNL A   1      34.495  34.210  30.775  1.00  0.00     0.055 A 
ATOM     79  C   UNL A   1      34.942  33.638  28.492  1.00  0.00     0.041 A 
ATOM     80  F   UNL A   1      36.821  32.403  27.930  1.00  0.00    -0.206 F 
ATOM     81  C   UNL A   1      34.157  34.295  29.423  1.00  0.00     0.022 A 
BRANCH  78  82
ATOM     82  S   UNL A   1      33.483  35.152  31.966  1.00  0.00     0.124 S 
ATOM     83  O   UNL A   1      32.342  35.556  31.153  1.00  0.00    -0.237 OA
ATOM     84  O   UNL A   1      33.224  34.166  33.008  1.00  0.00    -0.237 OA
ATOM     85  O   UNL A   1      34.365  36.248  32.371  1.00  0.00    -0.744 OA
ENDBRANCH  78  82
ENDBRANCH  51  75
BRANCH  63  86
ATOM     86  C   UNL A   1      41.759  31.651  33.560  1.00  0.00     0.023 A 
ATOM     87  C   UNL A   1      41.775  32.297  34.817  1.00  0.00     0.031 A 
ATOM     88  C   UNL A   1      41.337  30.309  33.524  1.00  0.00     0.131 A 
ATOM     89  C   UNL A   1      41.386  31.594  35.976  1.00  0.00     0.055 A 
ATOM     90  C   UNL A   1      40.929  29.626  34.667  1.00  0.00     0.041 A 
ATOM     91  F   UNL A   1      41.272  29.646  32.357  1.00  0.00    -0.206 F 
ATOM     92  C   UNL A   1      40.958  30.264  35.900  1.00  0.00     0.022 A 
BRANCH  89  93
ATOM     93  S   UNL A   1      41.441  32.390  37.615  1.00  0.00     0.124 S 
ATOM     94  O   UNL A   1      42.046  33.689  37.345  1.00  0.00    -0.237 OA
ATOM     95  O   UNL A   1      40.034  32.407  38.005  1.00  0.00    -0.237 OA
ATOM     96  O   UNL A   1      42.277  31.482  38.405  1.00  0.00    -0.744 OA
ENDBRANCH  89  93
ENDBRANCH  63  86
ENDBRANCH  37  38
ENDBRANCH  30  32
ENDBRANCH  29  30
ENDBRANCH  28  29
ENDBRANCH   1  28
TORSDOF 19
ENDMDL
MODEL 2
REMARK VINA RESULT:     -12.3      3.886      7.780
REMARK SMILES C[C@@H]1CCc2nc(NC(=O)[C@H]3CC=CC[C@@H]3C(=O)OCCOCCOC(=O)c3ccc(-c4c5nc(c(-c6cc(S(=O)(=O)[O-])ccc6F)c6ccc([nH]6)c(-c6cc(S(=O)(=O)[O-])ccc6F)c6nc(c(-c7cc(S(=O)(=O)[O-])ccc7F)c7ccc4[nH]7)C=C6)C=C5)cc3)sc2C1
REMARK SMILES IDX 23 1 22 2 21 3 20 4 19 5 17 6 18 7 16 8 11 9 12 10 13 11
REMARK SMILES IDX 15 12 14 13 9 14 8 15 10 17 7 18 1 19 2 20 3 21 93 22 4 23
REMARK SMILES IDX 92 24 5 25 91 26 6 27 24 28 25 29 26 30 27 31 28 32 29 33
REMARK SMILES IDX 90 34 30 35 89 36 31 37 32 38 33 39 83 40 34 41 88 42 82 43
REMARK SMILES IDX 84 44 35 45 87 46 81 47 80 48 36 50 68 51 48 52 67 53 49 54
REMARK SMILES IDX 52 55 66 56 85 57 50 58 51 59 65 61 86 62 53 63 37 64 38 65
REMARK SMILES IDX 46 66 39 67 45 68 47 69 44 70 40 71 41 72 42 73 43 74 69 75
REMARK SMILES IDX 70 76 78 77 71 78 77 79 79 80 76 81 72 82 73 83 74 84 75 85
REMARK SMILES IDX 54 86 55 87 63 88 56 89 62 90 64 91 61 92 57 93 58 94 59 95
REMARK SMILES IDX 60 96
REMARK H PARENT 8 16 84 49 52 60
REMARK Flexibility Score: inf
ROOT
ATOM      1  C   UNL A   1      37.675  21.256  25.217  1.00  0.00     0.202 C 
ENDROOT
BRANCH   1   2
ATOM      2  O   UNL A   1      36.688  22.052  25.871  1.00  0.00    -0.374 OA
BRANCH   2   3
ATOM      3  C   UNL A   1      36.700  23.455  25.607  1.00  0.00     0.202 C 
BRANCH   3   4
ATOM      4  C   UNL A   1      36.013  23.875  24.311  1.00  0.00     0.261 C 
BRANCH   4   5
ATOM      5  O   UNL A   1      34.585  23.986  24.488  1.00  0.00    -0.463 OA
BRANCH   5   6
ATOM      6  C   UNL A   1      33.815  23.556  23.457  1.00  0.00     0.310 C 
ATOM      7  O   UNL A   1      34.117  23.669  22.273  1.00  0.00    -0.252 OA
BRANCH   6   8
ATOM      8  C   UNL A   1      32.523  22.879  23.901  1.00  0.00     0.116 C 
ATOM      9  C   UNL A   1      32.334  22.769  25.434  1.00  0.00     0.097 C 
ATOM     10  C   UNL A   1      33.006  21.514  26.014  1.00  0.00     0.041 C 
ATOM     11  C   UNL A   1      32.833  20.270  25.211  1.00  0.00    -0.030 C 
ATOM     12  C   UNL A   1      32.326  21.556  23.130  1.00  0.00     0.043 C 
ATOM     13  C   UNL A   1      32.516  20.292  23.914  1.00  0.00    -0.030 C 
BRANCH   9  14
ATOM     14  C   UNL A   1      30.856  22.823  25.821  1.00  0.00     0.230 C 
ATOM     15  N   UNL A   1      30.163  23.979  25.988  1.00  0.00    -0.302 N 
ATOM     16  H   UNL A   1      29.249  23.829  26.322  1.00  0.00     0.172 HD
ATOM     17  O   UNL A   1      30.226  21.774  26.015  1.00  0.00    -0.274 OA
BRANCH  15  18
ATOM     18  C   UNL A   1      30.444  25.305  25.801  1.00  0.00     0.189 A 
ATOM     19  C   UNL A   1      33.993  28.634  24.942  1.00  0.00     0.008 C 
ATOM     20  C   UNL A   1      32.645  29.378  24.969  1.00  0.00    -0.009 C 
ATOM     21  C   UNL A   1      32.174  29.608  26.425  1.00  0.00     0.010 C 
ATOM     22  C   UNL A   1      31.537  28.629  24.178  1.00  0.00     0.052 C 
ATOM     23  C   UNL A   1      31.938  28.288  27.189  1.00  0.00     0.058 C 
ATOM     24  C   UNL A   1      31.064  27.461  24.971  1.00  0.00     0.030 A 
ATOM     25  C   UNL A   1      31.251  27.282  26.324  1.00  0.00     0.057 A 
ATOM     26  S   UNL A   1      30.243  26.132  24.322  1.00  0.00    -0.101 S 
ATOM     27  N   UNL A   1      30.866  26.046  26.803  1.00  0.00    -0.225 NA
ENDBRANCH  15  18
ENDBRANCH   9  14
ENDBRANCH   6   8
ENDBRANCH   5   6
ENDBRANCH   4   5
ENDBRANCH   3   4
ENDBRANCH   2   3
ENDBRANCH   1   2
BRANCH   1  28
ATOM     28  C   UNL A   1      39.093  21.400  25.749  1.00  0.00     0.261 C 
BRANCH  28  29
ATOM     29  O   UNL A   1      39.571  20.144  26.215  1.00  0.00    -0.460 OA
BRANCH  29  30
ATOM     30  C   UNL A   1      40.861  19.843  25.960  1.00  0.00     0.338 C 
ATOM     31  O   UNL A   1      41.304  18.859  25.382  1.00  0.00    -0.246 OA
BRANCH  30  32
ATOM     32  C   UNL A   1      41.658  20.860  26.648  1.00  0.00     0.060 A 
ATOM     33  C   UNL A   1      41.565  20.885  28.035  1.00  0.00     0.016 A 
ATOM     34  C   UNL A   1      42.199  21.931  25.918  1.00  0.00     0.016 A 
ATOM     35  C   UNL A   1      41.778  22.089  28.664  1.00  0.00     0.010 A 
ATOM     36  C   UNL A   1      42.380  23.138  26.538  1.00  0.00     0.010 A 
ATOM     37  C   UNL A   1      42.087  23.219  27.891  1.00  0.00    -0.014 A 
BRANCH  37  38
ATOM     38  C   UNL A   1      42.267  24.475  28.581  1.00  0.00     0.031 A 
ATOM     39  C   UNL A   1      41.201  25.443  28.247  1.00  0.00     0.074 A 
ATOM     40  C   UNL A   1      43.239  24.686  29.491  1.00  0.00     0.049 A 
ATOM     41  N   UNL A   1      41.329  26.602  27.707  1.00  0.00    -0.248 NA
ATOM     42  C   UNL A   1      39.801  25.006  28.370  1.00  0.00     0.031 C 
ATOM     43  C   UNL A   1      44.177  23.716  30.062  1.00  0.00     0.029 A 
ATOM     44  N   UNL A   1      43.528  25.827  30.169  1.00  0.00    -0.354 N 
ATOM     45  C   UNL A   1      40.050  27.140  27.646  1.00  0.00     0.074 A 
ATOM     46  C   UNL A   1      39.136  26.078  27.952  1.00  0.00     0.031 C 
ATOM     47  C   UNL A   1      44.783  24.264  31.143  1.00  0.00     0.029 A 
ATOM     48  C   UNL A   1      44.372  25.656  31.263  1.00  0.00     0.049 A 
ATOM     49  H   UNL A   1      43.170  26.707  29.908  1.00  0.00     0.167 HD
ATOM     50  C   UNL A   1      39.883  28.482  27.565  1.00  0.00     0.034 A 
ATOM     51  C   UNL A   1      44.661  26.575  32.223  1.00  0.00     0.034 A 
ATOM     52  C   UNL A   1      41.058  29.102  26.993  1.00  0.00     0.049 A 
ATOM     53  C   UNL A   1      44.371  27.911  31.637  1.00  0.00     0.074 A 
ATOM     54  C   UNL A   1      41.735  28.911  25.800  1.00  0.00     0.029 A 
ATOM     55  N   UNL A   1      41.951  29.738  27.829  1.00  0.00    -0.354 N 
ATOM     56  N   UNL A   1      45.047  28.413  30.640  1.00  0.00    -0.248 NA
ATOM     57  C   UNL A   1      43.038  28.466  31.818  1.00  0.00     0.031 C 
ATOM     58  C   UNL A   1      43.113  28.952  26.156  1.00  0.00     0.029 A 
ATOM     59  C   UNL A   1      43.204  29.268  27.514  1.00  0.00     0.049 A 
ATOM     60  H   UNL A   1      41.733  30.402  28.522  1.00  0.00     0.167 HD
ATOM     61  C   UNL A   1      44.095  29.005  29.821  1.00  0.00     0.074 A 
ATOM     62  C   UNL A   1      42.890  29.090  30.645  1.00  0.00     0.031 C 
ATOM     63  C   UNL A   1      44.284  29.114  28.472  1.00  0.00     0.034 A 
BRANCH  50  64
ATOM     64  C   UNL A   1      38.877  29.227  28.404  1.00  0.00     0.023 A 
ATOM     65  C   UNL A   1      39.050  29.124  29.792  1.00  0.00     0.031 A 
ATOM     66  C   UNL A   1      37.617  29.701  27.968  1.00  0.00     0.131 A 
ATOM     67  C   UNL A   1      37.965  29.292  30.661  1.00  0.00     0.055 A 
ATOM     68  C   UNL A   1      36.561  29.949  28.849  1.00  0.00     0.041 A 
ATOM     69  F   UNL A   1      37.306  29.866  26.677  1.00  0.00    -0.206 F 
ATOM     70  C   UNL A   1      36.716  29.697  30.202  1.00  0.00     0.022 A 
BRANCH  67  71
ATOM     71  S   UNL A   1      38.177  28.724  32.364  1.00  0.00     0.124 S 
ATOM     72  O   UNL A   1      36.846  28.969  32.909  1.00  0.00    -0.237 OA
ATOM     73  O   UNL A   1      38.545  27.325  32.165  1.00  0.00    -0.237 OA
ATOM     74  O   UNL A   1      39.238  29.585  32.877  1.00  0.00    -0.744 OA
ENDBRANCH  67  71
ENDBRANCH  50  64
BRANCH  51  75
ATOM     75  C   UNL A   1      44.861  26.336  33.682  1.00  0.00     0.023 A 
ATOM     76  C   UNL A   1      43.847  26.539  34.645  1.00  0.00     0.031 A 
ATOM     77  C   UNL A   1      46.021  25.658  34.124  1.00  0.00     0.131 A 
ATOM     78  C   UNL A   1      44.018  26.073  35.973  1.00  0.00     0.055 A 
ATOM     79  C   UNL A   1      46.186  25.206  35.435  1.00  0.00     0.041 A 
ATOM     80  F   UNL A   1      47.004  25.331  33.270  1.00  0.00    -0.206 F 
ATOM     81  C   UNL A   1      45.179  25.403  36.365  1.00  0.00     0.022 A 
BRANCH  78  82
ATOM     82  S   UNL A   1      42.681  26.246  37.202  1.00  0.00     0.124 S 
ATOM     83  O   UNL A   1      41.906  25.028  36.994  1.00  0.00    -0.237 OA
ATOM     84  O   UNL A   1      43.417  26.343  38.457  1.00  0.00    -0.237 OA
ATOM     85  O   UNL A   1      42.003  27.479  36.797  1.00  0.00    -0.744 OA
ENDBRANCH  78  82
ENDBRANCH  51  75
BRANCH  63  86
ATOM     86  C   UNL A   1      45.665  28.856  27.902  1.00  0.00     0.023 A 
ATOM     87  C   UNL A   1      46.202  27.582  27.608  1.00  0.00     0.031 A 
ATOM     88  C   UNL A   1      46.417  29.983  27.519  1.00  0.00     0.131 A 
ATOM     89  C   UNL A   1      47.451  27.476  26.961  1.00  0.00     0.055 A 
ATOM     90  C   UNL A   1      47.637  29.874  26.858  1.00  0.00     0.041 A 
ATOM     91  F   UNL A   1      45.950  31.222  27.746  1.00  0.00    -0.206 F 
ATOM     92  C   UNL A   1      48.163  28.619  26.582  1.00  0.00     0.022 A 
BRANCH  89  93
ATOM     93  S   UNL A   1      48.186  25.846  26.610  1.00  0.00     0.124 S 
ATOM     94  O   UNL A   1      47.535  24.962  27.570  1.00  0.00    -0.237 OA
ATOM     95  O   UNL A   1      47.835  25.636  25.208  1.00  0.00    -0.237 OA
ATOM     96  O   UNL A   1      49.615  26.059  26.851  1.00  0.00    -0.744 OA
ENDBRANCH  89  93
ENDBRANCH  63  86
ENDBRANCH  37  38
ENDBRANCH  30  32
ENDBRANCH  29  30
ENDBRANCH  28  29
ENDBRANCH   1  28
TORSDOF 19
ENDMDL
MODEL 3
REMARK VINA RESULT:     -12.3      4.388      9.240
REMARK SMILES C[C@@H]1CCc2nc(NC(=O)[C@H]3CC=CC[C@@H]3C(=O)OCCOCCOC(=O)c3ccc(-c4c5nc(c(-c6cc(S(=O)(=O)[O-])ccc6F)c6ccc([nH]6)c(-c6cc(S(=O)(=O)[O-])ccc6F)c6nc(c(-c7cc(S(=O)(=O)[O-])ccc7F)c7ccc4[nH]7)C=C6)C=C5)cc3)sc2C1
REMARK SMILES IDX 23 1 22 2 21 3 20 4 19 5 17 6 18 7 16 8 11 9 12 10 13 11
REMARK SMILES IDX 15 12 14 13 9 14 8 15 10 17 7 18 1 19 2 20 3 21 93 22 4 23
REMARK SMILES IDX 92 24 5 25 91 26 6 27 24 28 25 29 26 30 27 31 28 32 29 33
REMARK SMILES IDX 90 34 30 35 89 36 31 37 32 38 33 39 83 40 34 41 88 42 82 43
REMARK SMILES IDX 84 44 35 45 87 46 81 47 80 48 36 50 68 51 48 52 67 53 49 54
REMARK SMILES IDX 52 55 66 56 85 57 50 58 51 59 65 61 86 62 53 63 37 64 38 65
REMARK SMILES IDX 46 66 39 67 45 68 47 69 44 70 40 71 41 72 42 73 43 74 69 75
REMARK SMILES IDX 70 76 78 77 71 78 77 79 79 80 76 81 72 82 73 83 74 84 75 85
REMARK SMILES IDX 54 86 55 87 63 88 56 89 62 90 64 91 61 92 57 93 58 94 59 95
REMARK SMILES IDX 60 96
REMARK H PARENT 8 16 84 49 52 60
REMARK Flexibility Score: inf
ROOT
ATOM      1  C   UNL A   1      34.328  31.858  28.585  1.00  0.00     0.202 C 
ENDROOT
BRANCH   1   2
ATOM      2  O   UNL A   1      34.369  31.339  27.257  1.00  0.00    -0.374 OA
BRANCH   2   3
ATOM      3  C   UNL A   1      33.423  30.323  26.922  1.00  0.00     0.202 C 
BRANCH   3   4
ATOM      4  C   UNL A   1      34.000  28.914  26.810  1.00  0.00     0.261 C 
BRANCH   4   5
ATOM      5  O   UNL A   1      33.815  28.378  25.483  1.00  0.00    -0.463 OA
BRANCH   5   6
ATOM      6  C   UNL A   1      33.572  27.045  25.400  1.00  0.00     0.310 C 
ATOM      7  O   UNL A   1      34.173  26.191  26.045  1.00  0.00    -0.252 OA
BRANCH   6   8
ATOM      8  C   UNL A   1      32.446  26.688  24.437  1.00  0.00     0.116 C 
ATOM      9  C   UNL A   1      32.734  26.998  22.947  1.00  0.00     0.097 C 
ATOM     10  C   UNL A   1      32.381  28.447  22.576  1.00  0.00     0.041 C 
ATOM     11  C   UNL A   1      31.102  28.957  23.148  1.00  0.00    -0.030 C 
ATOM     12  C   UNL A   1      31.104  27.242  24.964  1.00  0.00     0.043 C 
ATOM     13  C   UNL A   1      30.523  28.405  24.217  1.00  0.00    -0.030 C 
BRANCH   9  14
ATOM     14  C   UNL A   1      32.022  26.010  22.023  1.00  0.00     0.230 C 
ATOM     15  N   UNL A   1      32.318  24.685  21.965  1.00  0.00    -0.302 N 
ATOM     16  H   UNL A   1      31.824  24.217  21.254  1.00  0.00     0.172 HD
ATOM     17  O   UNL A   1      31.130  26.405  21.260  1.00  0.00    -0.274 OA
BRANCH  15  18
ATOM     18  C   UNL A   1      33.148  23.853  22.666  1.00  0.00     0.189 A 
ATOM     19  C   UNL A   1      36.631  23.572  26.160  1.00  0.00     0.008 C 
ATOM     20  C   UNL A   1      36.311  22.138  25.695  1.00  0.00    -0.009 C 
ATOM     21  C   UNL A   1      37.014  21.827  24.352  1.00  0.00     0.010 C 
ATOM     22  C   UNL A   1      34.785  21.886  25.553  1.00  0.00     0.052 C 
ATOM     23  C   UNL A   1      36.546  22.751  23.209  1.00  0.00     0.058 C 
ATOM     24  C   UNL A   1      34.286  22.546  24.314  1.00  0.00     0.030 A 
ATOM     25  C   UNL A   1      35.067  22.957  23.256  1.00  0.00     0.057 A 
ATOM     26  S   UNL A   1      32.666  22.932  24.019  1.00  0.00    -0.101 S 
ATOM     27  N   UNL A   1      34.399  23.688  22.294  1.00  0.00    -0.225 NA
ENDBRANCH  15  18
ENDBRANCH   9  14
ENDBRANCH   6   8
ENDBRANCH   5   6
ENDBRANCH   4   5
ENDBRANCH   3   4
ENDBRANCH   2   3
ENDBRANCH   1   2
BRANCH   1  28
ATOM     28  C   UNL A   1      35.657  31.870  29.326  1.00  0.00     0.261 C 
BRANCH  28  29
ATOM     29  O   UNL A   1      36.472  30.790  28.886  1.00  0.00    -0.460 OA
BRANCH  29  30
ATOM     30  C   UNL A   1      36.712  29.801  29.771  1.00  0.00     0.338 C 
ATOM     31  O   UNL A   1      36.260  29.674  30.901  1.00  0.00    -0.246 OA
BRANCH  30  32
ATOM     32  C   UNL A   1      37.753  28.964  29.170  1.00  0.00     0.060 A 
ATOM     33  C   UNL A   1      38.308  27.985  29.987  1.00  0.00     0.016 A 
ATOM     34  C   UNL A   1      38.362  29.365  27.970  1.00  0.00     0.016 A 
ATOM     35  C   UNL A   1      39.601  27.598  29.725  1.00  0.00     0.010 A 
ATOM     36  C   UNL A   1      39.660  29.006  27.726  1.00  0.00     0.010 A 
ATOM     37  C   UNL A   1      40.288  28.189  28.654  1.00  0.00    -0.014 A 
BRANCH  37  38
ATOM     38  C   UNL A   1      41.657  27.786  28.432  1.00  0.00     0.031 A 
ATOM     39  C   UNL A   1      41.740  26.479  27.746  1.00  0.00     0.074 A 
ATOM     40  C   UNL A   1      42.715  28.565  28.732  1.00  0.00     0.049 A 
ATOM     41  N   UNL A   1      42.300  25.401  28.167  1.00  0.00    -0.248 NA
ATOM     42  C   UNL A   1      40.962  26.290  26.511  1.00  0.00     0.031 C 
ATOM     43  C   UNL A   1      42.720  29.960  29.179  1.00  0.00     0.029 A 
ATOM     44  N   UNL A   1      44.038  28.279  28.606  1.00  0.00    -0.354 N 
ATOM     45  C   UNL A   1      42.154  24.470  27.147  1.00  0.00     0.074 A 
ATOM     46  C   UNL A   1      41.224  25.024  26.206  1.00  0.00     0.031 C 
ATOM     47  C   UNL A   1      43.978  30.454  29.085  1.00  0.00     0.029 A 
ATOM     48  C   UNL A   1      44.881  29.383  28.693  1.00  0.00     0.049 A 
ATOM     49  H   UNL A   1      44.373  27.364  28.465  1.00  0.00     0.167 HD
ATOM     50  C   UNL A   1      42.999  23.414  27.069  1.00  0.00     0.034 A 
ATOM     51  C   UNL A   1      46.211  29.418  28.406  1.00  0.00     0.034 A 
ATOM     52  C   UNL A   1      43.558  23.119  28.370  1.00  0.00     0.049 A 
ATOM     53  C   UNL A   1      46.708  28.021  28.508  1.00  0.00     0.074 A 
ATOM     54  C   UNL A   1      42.984  22.827  29.595  1.00  0.00     0.029 A 
ATOM     55  N   UNL A   1      44.845  23.525  28.651  1.00  0.00    -0.354 N 
ATOM     56  N   UNL A   1      46.742  27.356  29.632  1.00  0.00    -0.248 NA
ATOM     57  C   UNL A   1      46.696  27.198  27.307  1.00  0.00     0.031 C 
ATOM     58  C   UNL A   1      43.752  23.565  30.540  1.00  0.00     0.029 A 
ATOM     59  C   UNL A   1      44.809  24.177  29.860  1.00  0.00     0.049 A 
ATOM     60  H   UNL A   1      45.641  23.377  28.090  1.00  0.00     0.167 HD
ATOM     61  C   UNL A   1      46.317  26.076  29.307  1.00  0.00     0.074 A 
ATOM     62  C   UNL A   1      46.396  26.012  27.848  1.00  0.00     0.031 C 
ATOM     63  C   UNL A   1      45.677  25.284  30.218  1.00  0.00     0.034 A 
BRANCH  50  64
ATOM     64  C   UNL A   1      43.634  22.976  25.774  1.00  0.00     0.023 A 
ATOM     65  C   UNL A   1      43.537  21.607  25.485  1.00  0.00     0.031 A 
ATOM     66  C   UNL A   1      44.590  23.703  25.028  1.00  0.00     0.131 A 
ATOM     67  C   UNL A   1      44.477  20.985  24.653  1.00  0.00     0.055 A 
ATOM     68  C   UNL A   1      45.472  23.089  24.134  1.00  0.00     0.041 A 
ATOM     69  F   UNL A   1      44.789  25.018  25.180  1.00  0.00    -0.206 F 
ATOM     70  C   UNL A   1      45.452  21.713  23.979  1.00  0.00     0.022 A 
BRANCH  67  71
ATOM     71  S   UNL A   1      44.537  19.179  24.683  1.00  0.00     0.124 S 
ATOM     72  O   UNL A   1      43.188  18.860  25.139  1.00  0.00    -0.237 OA
ATOM     73  O   UNL A   1      44.837  18.870  23.288  1.00  0.00    -0.237 OA
ATOM     74  O   UNL A   1      45.608  18.893  25.633  1.00  0.00    -0.744 OA
ENDBRANCH  67  71
ENDBRANCH  50  64
BRANCH  51  75
ATOM     75  C   UNL A   1      46.973  30.523  27.754  1.00  0.00     0.023 A 
ATOM     76  C   UNL A   1      46.351  31.608  27.098  1.00  0.00     0.031 A 
ATOM     77  C   UNL A   1      48.364  30.642  27.987  1.00  0.00     0.131 A 
ATOM     78  C   UNL A   1      47.112  32.740  26.709  1.00  0.00     0.055 A 
ATOM     79  C   UNL A   1      49.108  31.757  27.596  1.00  0.00     0.041 A 
ATOM     80  F   UNL A   1      49.035  29.712  28.685  1.00  0.00    -0.206 F 
ATOM     81  C   UNL A   1      48.483  32.817  26.963  1.00  0.00     0.022 A 
BRANCH  78  82
ATOM     82  S   UNL A   1      46.306  34.187  25.943  1.00  0.00     0.124 S 
ATOM     83  O   UNL A   1      45.199  33.578  25.214  1.00  0.00    -0.237 OA
ATOM     84  O   UNL A   1      45.955  35.001  27.100  1.00  0.00    -0.237 OA
ATOM     85  O   UNL A   1      47.358  34.755  25.096  1.00  0.00    -0.744 OA
ENDBRANCH  78  82
ENDBRANCH  51  75
BRANCH  63  86
ATOM     86  C   UNL A   1      45.691  25.691  31.679  1.00  0.00     0.023 A 
ATOM     87  C   UNL A   1      46.748  25.443  32.585  1.00  0.00     0.031 A 
ATOM     88  C   UNL A   1      44.622  26.489  32.128  1.00  0.00     0.131 A 
ATOM     89  C   UNL A   1      46.700  25.982  33.888  1.00  0.00     0.055 A 
ATOM     90  C   UNL A   1      44.591  27.040  33.407  1.00  0.00     0.041 A 
ATOM     91  F   UNL A   1      43.601  26.785  31.307  1.00  0.00    -0.206 F 
ATOM     92  C   UNL A   1      45.627  26.783  34.295  1.00  0.00     0.022 A 
BRANCH  89  93
ATOM     93  S   UNL A   1      48.026  25.640  35.090  1.00  0.00     0.124 S 
ATOM     94  O   UNL A   1      49.185  26.323  34.525  1.00  0.00    -0.237 OA
ATOM     95  O   UNL A   1      47.488  26.207  36.323  1.00  0.00    -0.237 OA
ATOM     96  O   UNL A   1      48.120  24.179  35.086  1.00  0.00    -0.744 OA
ENDBRANCH  89  93
ENDBRANCH  63  86
ENDBRANCH  37  38
ENDBRANCH  30  32
ENDBRANCH  29  30
ENDBRANCH  28  29
ENDBRANCH   1  28
TORSDOF 19
ENDMDL
