MODEL 1
REMARK VINA RESULT:     -10.6      0.000      0.000
REMARK SMILES O=C(CCn1cc(/C=C\C(=O)c2ccc(F)cc2)c(-c2cccc(Cl)c2)n1)OCCOCCOC(=O)c1ccc(-c2c3nc(c(-c4cc(S(=O)(=O)[O-])ccc4F)c4ccc([nH]4)c(-c4cc(S(=O)(=O)[O-])ccc4F)c4nc(c(-c5cc(S(=O)(=O)[O-])ccc5F)c5ccc2[nH]5)C=C4)C=C3)cc1
REMARK SMILES IDX 30 1 29 2 28 3 2 4 1 5 3 6 4 7 5 8 6 9 27 10 7 11 19 12 8 13
REMARK SMILES IDX 9 14 10 15 11 16 12 17 13 18 18 19 14 20 17 21 15 22 16 23
REMARK SMILES IDX 20 24 21 25 26 26 22 27 24 28 23 29 25 30 31 31 32 32 33 33
REMARK SMILES IDX 34 34 35 35 36 36 37 37 38 38 99 39 39 40 98 41 40 42 41 43
REMARK SMILES IDX 42 44 92 45 43 46 97 47 91 48 93 49 44 50 96 51 90 52 89 53
REMARK SMILES IDX 45 55 77 56 57 57 76 58 58 59 61 60 75 61 94 62 59 63 60 64
REMARK SMILES IDX 74 66 95 67 62 68 46 69 47 70 55 71 48 72 54 73 56 74 53 75
REMARK SMILES IDX 49 76 50 77 51 78 52 79 78 80 79 81 87 82 80 83 86 84 88 85
REMARK SMILES IDX 85 86 81 87 82 88 83 89 84 90 63 91 64 92 72 93 65 94 71 95
REMARK SMILES IDX 73 96 70 97 66 98 67 99 68 100 69 101
REMARK H PARENT 93 54 61 65
REMARK Flexibility Score: inf
ROOT
ATOM      1  C   UNL A   1      42.034  20.720  26.918  1.00  0.00     0.202 C 
ENDROOT
BRANCH   1   2
ATOM      2  C   UNL A   1      40.948  21.064  25.887  1.00  0.00     0.261 C 
BRANCH   2   3
ATOM      3  O   UNL A   1      39.588  21.214  26.310  1.00  0.00    -0.463 OA
BRANCH   3   4
ATOM      4  C   UNL A   1      38.919  22.384  26.246  1.00  0.00     0.307 C 
ATOM      5  O   UNL A   1      39.237  23.326  26.971  1.00  0.00    -0.252 OA
BRANCH   4   6
ATOM      6  C   UNL A   1      37.684  22.468  25.396  1.00  0.00     0.146 C 
BRANCH   6   7
ATOM      7  C   UNL A   1      36.717  23.533  25.870  1.00  0.00     0.156 C 
BRANCH   7   8
ATOM      8  N   UNL A   1      35.358  23.034  25.961  1.00  0.00    -0.271 N 
ATOM      9  C   UNL A   1      34.377  23.382  26.843  1.00  0.00     0.117 A 
ATOM     10  N   UNL A   1      34.937  22.219  24.993  1.00  0.00    -0.172 NA
ATOM     11  C   UNL A   1      33.213  22.793  26.378  1.00  0.00     0.021 A 
ATOM     12  C   UNL A   1      33.629  22.044  25.222  1.00  0.00     0.100 A 
BRANCH  11  13
ATOM     13  C   UNL A   1      31.917  22.979  26.966  1.00  0.00     0.016 C 
ATOM     14  C   UNL A   1      30.909  23.842  26.707  1.00  0.00     0.053 C 
BRANCH  14  15
ATOM     15  C   UNL A   1      30.648  24.976  25.716  1.00  0.00     0.185 C 
ATOM     16  O   UNL A   1      29.615  25.628  25.823  1.00  0.00    -0.289 OA
BRANCH  15  17
ATOM     17  C   UNL A   1      31.649  25.213  24.560  1.00  0.00     0.022 A 
ATOM     18  C   UNL A   1      32.736  26.480  25.283  1.00  0.00     0.015 A 
ATOM     19  C   UNL A   1      31.704  25.013  22.535  1.00  0.00     0.015 A 
ATOM     20  C   UNL A   1      33.670  27.520  24.189  1.00  0.00     0.040 A 
ATOM     21  C   UNL A   1      32.689  26.155  21.572  1.00  0.00     0.040 A 
ATOM     22  C   UNL A   1      33.602  27.365  22.422  1.00  0.00     0.123 A 
ATOM     23  F   UNL A   1      34.271  28.267  21.687  1.00  0.00    -0.207 F 
ENDBRANCH  15  17
ENDBRANCH  14  15
ENDBRANCH  11  13
BRANCH  12  24
ATOM     24  C   UNL A   1      32.711  21.131  24.372  1.00  0.00     0.004 A 
ATOM     25  C   UNL A   1      32.127  21.133  22.423  1.00  0.00     0.010 A 
ATOM     26  C   UNL A   1      32.909  19.486  25.145  1.00  0.00     0.031 A 
ATOM     27  C   UNL A   1      31.964  19.578  21.555  1.00  0.00     0.002 A 
ATOM     28  C   UNL A   1      32.709  18.048  24.140  1.00  0.00     0.041 A 
ATOM     29  C   UNL A   1      32.277  18.106  22.428  1.00  0.00     0.020 A 
ATOM     30  Cl  UNL A   1      32.895  16.495  24.863  1.00  0.00    -0.084 Cl
ENDBRANCH  12  24
ENDBRANCH   7   8
ENDBRANCH   6   7
ENDBRANCH   4   6
ENDBRANCH   3   4
ENDBRANCH   2   3
ENDBRANCH   1   2
BRANCH   1  31
ATOM     31  O   UNL A   1      43.328  20.271  26.556  1.00  0.00    -0.374 OA
BRANCH  31  32
ATOM     32  C   UNL A   1      43.506  19.150  25.711  1.00  0.00     0.202 C 
BRANCH  32  33
ATOM     33  C   UNL A   1      44.004  19.417  24.308  1.00  0.00     0.261 C 
BRANCH  33  34
ATOM     34  O   UNL A   1      45.126  20.280  24.339  1.00  0.00    -0.460 OA
BRANCH  34  35
ATOM     35  C   UNL A   1      44.842  21.593  24.151  1.00  0.00     0.338 C 
ATOM     36  O   UNL A   1      43.791  22.072  23.763  1.00  0.00    -0.246 OA
BRANCH  35  37
ATOM     37  C   UNL A   1      46.041  22.375  24.581  1.00  0.00     0.060 A 
ATOM     38  C   UNL A   1      46.340  22.173  25.921  1.00  0.00     0.016 A 
ATOM     39  C   UNL A   1      46.043  23.666  24.068  1.00  0.00     0.016 A 
ATOM     40  C   UNL A   1      45.889  23.144  26.792  1.00  0.00     0.010 A 
ATOM     41  C   UNL A   1      45.636  24.650  24.925  1.00  0.00     0.010 A 
ATOM     42  C   UNL A   1      45.362  24.332  26.261  1.00  0.00    -0.014 A 
BRANCH  42  43
ATOM     43  C   UNL A   1      44.992  25.451  27.126  1.00  0.00     0.031 A 
ATOM     44  C   UNL A   1      46.109  26.434  26.952  1.00  0.00     0.074 A 
ATOM     45  C   UNL A   1      43.823  25.584  27.816  1.00  0.00     0.049 A 
ATOM     46  N   UNL A   1      47.178  26.489  27.686  1.00  0.00    -0.248 NA
ATOM     47  C   UNL A   1      46.324  27.069  25.624  1.00  0.00     0.031 C 
ATOM     48  C   UNL A   1      42.676  24.670  27.946  1.00  0.00     0.029 A 
ATOM     49  N   UNL A   1      43.385  26.652  28.578  1.00  0.00    -0.354 N 
ATOM     50  C   UNL A   1      47.933  27.496  27.098  1.00  0.00     0.074 A 
ATOM     51  C   UNL A   1      47.594  27.476  25.712  1.00  0.00     0.031 C 
ATOM     52  C   UNL A   1      41.604  25.317  28.488  1.00  0.00     0.029 A 
ATOM     53  C   UNL A   1      41.987  26.666  28.870  1.00  0.00     0.049 A 
ATOM     54  H   UNL A   1      43.995  27.355  28.896  1.00  0.00     0.167 HD
ATOM     55  C   UNL A   1      48.268  28.580  27.850  1.00  0.00     0.034 A 
ATOM     56  C   UNL A   1      41.266  27.705  29.437  1.00  0.00     0.034 A 
ATOM     57  C   UNL A   1      48.223  28.232  29.253  1.00  0.00     0.049 A 
ATOM     58  C   UNL A   1      42.278  28.537  30.147  1.00  0.00     0.074 A 
ATOM     59  C   UNL A   1      48.795  27.236  30.024  1.00  0.00     0.029 A 
ATOM     60  N   UNL A   1      47.095  28.636  29.925  1.00  0.00    -0.354 N 
ATOM     61  N   UNL A   1      42.959  28.078  31.165  1.00  0.00    -0.248 NA
ATOM     62  C   UNL A   1      42.934  29.546  29.327  1.00  0.00     0.031 C 
ATOM     63  C   UNL A   1      47.754  26.785  30.887  1.00  0.00     0.029 A 
ATOM     64  C   UNL A   1      46.651  27.624  30.736  1.00  0.00     0.049 A 
ATOM     65  H   UNL A   1      46.670  29.519  29.836  1.00  0.00     0.167 HD
ATOM     66  C   UNL A   1      44.276  28.358  30.836  1.00  0.00     0.074 A 
ATOM     67  C   UNL A   1      44.193  29.259  29.674  1.00  0.00     0.031 C 
ATOM     68  C   UNL A   1      45.304  27.573  31.275  1.00  0.00     0.034 A 
BRANCH  55  69
ATOM     69  C   UNL A   1      48.101  30.008  27.354  1.00  0.00     0.023 A 
ATOM     70  C   UNL A   1      49.203  30.865  27.473  1.00  0.00     0.031 A 
ATOM     71  C   UNL A   1      46.878  30.642  26.999  1.00  0.00     0.131 A 
ATOM     72  C   UNL A   1      49.067  32.249  27.251  1.00  0.00     0.055 A 
ATOM     73  C   UNL A   1      46.758  32.005  26.734  1.00  0.00     0.041 A 
ATOM     74  F   UNL A   1      45.699  30.016  26.973  1.00  0.00    -0.206 F 
ATOM     75  C   UNL A   1      47.856  32.823  26.871  1.00  0.00     0.022 A 
BRANCH  72  76
ATOM     76  S   UNL A   1      50.500  33.314  27.527  1.00  0.00     0.124 S 
ATOM     77  O   UNL A   1      50.267  34.383  26.563  1.00  0.00    -0.237 OA
ATOM     78  O   UNL A   1      50.341  33.666  28.934  1.00  0.00    -0.237 OA
ATOM     79  O   UNL A   1      51.632  32.438  27.232  1.00  0.00    -0.744 OA
ENDBRANCH  72  76
ENDBRANCH  55  69
BRANCH  56  80
ATOM     80  C   UNL A   1      39.923  28.315  29.042  1.00  0.00     0.023 A 
ATOM     81  C   UNL A   1      38.963  28.877  29.954  1.00  0.00     0.031 A 
ATOM     82  C   UNL A   1      39.710  28.623  27.685  1.00  0.00     0.131 A 
ATOM     83  C   UNL A   1      37.895  29.708  29.485  1.00  0.00     0.055 A 
ATOM     84  C   UNL A   1      38.679  29.458  27.238  1.00  0.00     0.041 A 
ATOM     85  F   UNL A   1      40.557  28.192  26.740  1.00  0.00    -0.206 F 
ATOM     86  C   UNL A   1      37.778  30.013  28.131  1.00  0.00     0.022 A 
BRANCH  83  87
ATOM     87  S   UNL A   1      36.664  30.514  30.601  1.00  0.00     0.124 S 
ATOM     88  O   UNL A   1      35.665  31.007  29.662  1.00  0.00    -0.237 OA
ATOM     89  O   UNL A   1      36.252  29.422  31.476  1.00  0.00    -0.237 OA
ATOM     90  O   UNL A   1      37.440  31.564  31.268  1.00  0.00    -0.744 OA
ENDBRANCH  83  87
ENDBRANCH  56  80
BRANCH  68  91
ATOM     91  C   UNL A   1      45.066  26.555  32.377  1.00  0.00     0.023 A 
ATOM     92  C   UNL A   1      44.879  26.805  33.762  1.00  0.00     0.031 A 
ATOM     93  C   UNL A   1      44.818  25.253  31.908  1.00  0.00     0.131 A 
ATOM     94  C   UNL A   1      44.445  25.750  34.606  1.00  0.00     0.055 A 
ATOM     95  C   UNL A   1      44.359  24.236  32.736  1.00  0.00     0.041 A 
ATOM     96  F   UNL A   1      44.951  24.972  30.601  1.00  0.00    -0.206 F 
ATOM     97  C   UNL A   1      44.171  24.479  34.088  1.00  0.00     0.022 A 
BRANCH  94  98
ATOM     98  S   UNL A   1      44.193  25.998  36.403  1.00  0.00     0.124 S 
ATOM     99  O   UNL A   1      43.463  24.800  36.801  1.00  0.00    -0.237 OA
ATOM    100  O   UNL A   1      45.558  26.114  36.907  1.00  0.00    -0.237 OA
ATOM    101  O   UNL A   1      43.413  27.237  36.475  1.00  0.00    -0.744 OA
ENDBRANCH  94  98
ENDBRANCH  68  91
ENDBRANCH  42  43
ENDBRANCH  35  37
ENDBRANCH  34  35
ENDBRANCH  33  34
ENDBRANCH  32  33
ENDBRANCH  31  32
ENDBRANCH   1  31
TORSDOF 23
ENDMDL
MODEL 2
REMARK VINA RESULT:     -10.5      3.137      9.147
REMARK SMILES O=C(CCn1cc(/C=C\C(=O)c2ccc(F)cc2)c(-c2cccc(Cl)c2)n1)OCCOCCOC(=O)c1ccc(-c2c3nc(c(-c4cc(S(=O)(=O)[O-])ccc4F)c4ccc([nH]4)c(-c4cc(S(=O)(=O)[O-])ccc4F)c4nc(c(-c5cc(S(=O)(=O)[O-])ccc5F)c5ccc2[nH]5)C=C4)C=C3)cc1
REMARK SMILES IDX 30 1 29 2 28 3 2 4 1 5 3 6 4 7 5 8 6 9 27 10 7 11 19 12 8 13
REMARK SMILES IDX 9 14 10 15 11 16 12 17 13 18 18 19 14 20 17 21 15 22 16 23
REMARK SMILES IDX 20 24 21 25 26 26 22 27 24 28 23 29 25 30 31 31 32 32 33 33
REMARK SMILES IDX 34 34 35 35 36 36 37 37 38 38 99 39 39 40 98 41 40 42 41 43
REMARK SMILES IDX 42 44 92 45 43 46 97 47 91 48 93 49 44 50 96 51 90 52 89 53
REMARK SMILES IDX 45 55 77 56 57 57 76 58 58 59 61 60 75 61 94 62 59 63 60 64
REMARK SMILES IDX 74 66 95 67 62 68 46 69 47 70 55 71 48 72 54 73 56 74 53 75
REMARK SMILES IDX 49 76 50 77 51 78 52 79 78 80 79 81 87 82 80 83 86 84 88 85
REMARK SMILES IDX 85 86 81 87 82 88 83 89 84 90 63 91 64 92 72 93 65 94 71 95
REMARK SMILES IDX 73 96 70 97 66 98 67 99 68 100 69 101
REMARK H PARENT 93 54 61 65
REMARK Flexibility Score: inf
ROOT
ATOM      1  C   UNL A   1      34.716  33.765  29.082  1.00  0.00     0.202 C 
ENDROOT
BRANCH   1   2
ATOM      2  C   UNL A   1      34.527  32.318  28.600  1.00  0.00     0.261 C 
BRANCH   2   3
ATOM      3  O   UNL A   1      35.454  31.754  27.665  1.00  0.00    -0.463 OA
BRANCH   3   4
ATOM      4  C   UNL A   1      35.901  30.483  27.744  1.00  0.00     0.307 C 
ATOM      5  O   UNL A   1      37.085  30.224  27.532  1.00  0.00    -0.252 OA
BRANCH   4   6
ATOM      6  C   UNL A   1      34.907  29.374  27.934  1.00  0.00     0.146 C 
BRANCH   6   7
ATOM      7  C   UNL A   1      33.887  29.303  26.817  1.00  0.00     0.156 C 
BRANCH   7   8
ATOM      8  N   UNL A   1      33.386  27.956  26.620  1.00  0.00    -0.271 N 
ATOM      9  C   UNL A   1      32.112  27.488  26.759  1.00  0.00     0.117 A 
ATOM     10  N   UNL A   1      34.230  27.054  26.116  1.00  0.00    -0.172 NA
ATOM     11  C   UNL A   1      32.116  26.200  26.250  1.00  0.00     0.021 A 
ATOM     12  C   UNL A   1      33.487  25.965  25.884  1.00  0.00     0.100 A 
BRANCH  11  13
ATOM     13  C   UNL A   1      30.949  25.374  26.121  1.00  0.00     0.016 C 
ATOM     14  C   UNL A   1      29.859  25.446  25.324  1.00  0.00     0.053 C 
BRANCH  14  15
ATOM     15  C   UNL A   1      29.353  26.375  24.222  1.00  0.00     0.185 C 
ATOM     16  O   UNL A   1      28.174  26.309  23.888  1.00  0.00    -0.289 OA
BRANCH  15  17
ATOM     17  C   UNL A   1      30.354  27.308  23.501  1.00  0.00     0.022 A 
ATOM     18  C   UNL A   1      31.247  26.126  22.444  1.00  0.00     0.015 A 
ATOM     19  C   UNL A   1      31.257  29.104  23.823  1.00  0.00     0.015 A 
ATOM     20  C   UNL A   1      32.869  26.561  21.868  1.00  0.00     0.040 A 
ATOM     21  C   UNL A   1      32.906  29.380  23.182  1.00  0.00     0.040 A 
ATOM     22  C   UNL A   1      33.649  28.105  22.264  1.00  0.00     0.123 A 
ATOM     23  F   UNL A   1      34.915  28.290  21.859  1.00  0.00    -0.207 F 
ENDBRANCH  15  17
ENDBRANCH  14  15
ENDBRANCH  11  13
BRANCH  12  24
ATOM     24  C   UNL A   1      34.047  24.631  25.332  1.00  0.00     0.004 A 
ATOM     25  C   UNL A   1      33.885  23.657  23.552  1.00  0.00     0.010 A 
ATOM     26  C   UNL A   1      35.643  24.443  26.203  1.00  0.00     0.031 A 
ATOM     27  C   UNL A   1      35.309  22.799  22.889  1.00  0.00     0.002 A 
ATOM     28  C   UNL A   1      36.946  23.558  25.403  1.00  0.00     0.041 A 
ATOM     29  C   UNL A   1      36.779  22.797  23.819  1.00  0.00     0.020 A 
ATOM     30  Cl  UNL A   1      38.453  23.379  26.220  1.00  0.00    -0.084 Cl
ENDBRANCH  12  24
ENDBRANCH   7   8
ENDBRANCH   6   7
ENDBRANCH   4   6
ENDBRANCH   3   4
ENDBRANCH   2   3
ENDBRANCH   1   2
BRANCH   1  31
ATOM     31  O   UNL A   1      35.391  34.097  30.282  1.00  0.00    -0.374 OA
BRANCH  31  32
ATOM     32  C   UNL A   1      34.864  33.737  31.545  1.00  0.00     0.202 C 
BRANCH  32  33
ATOM     33  C   UNL A   1      35.714  32.835  32.414  1.00  0.00     0.261 C 
BRANCH  33  34
ATOM     34  O   UNL A   1      35.898  31.579  31.788  1.00  0.00    -0.460 OA
BRANCH  34  35
ATOM     35  C   UNL A   1      37.190  31.255  31.527  1.00  0.00     0.338 C 
ATOM     36  O   UNL A   1      37.843  31.563  30.546  1.00  0.00    -0.246 OA
BRANCH  35  37
ATOM     37  C   UNL A   1      37.709  30.502  32.709  1.00  0.00     0.060 A 
ATOM     38  C   UNL A   1      38.874  31.063  33.212  1.00  0.00     0.016 A 
ATOM     39  C   UNL A   1      37.633  29.126  32.535  1.00  0.00     0.016 A 
ATOM     40  C   UNL A   1      40.052  30.463  32.814  1.00  0.00     0.010 A 
ATOM     41  C   UNL A   1      38.796  28.504  32.178  1.00  0.00     0.010 A 
ATOM     42  C   UNL A   1      39.985  29.242  32.124  1.00  0.00    -0.014 A 
BRANCH  42  43
ATOM     43  C   UNL A   1      41.194  28.491  31.794  1.00  0.00     0.031 A 
ATOM     44  C   UNL A   1      41.752  28.090  33.126  1.00  0.00     0.074 A 
ATOM     45  C   UNL A   1      41.613  28.145  30.542  1.00  0.00     0.049 A 
ATOM     46  N   UNL A   1      42.614  28.775  33.813  1.00  0.00    -0.248 NA
ATOM     47  C   UNL A   1      40.980  27.157  33.991  1.00  0.00     0.031 C 
ATOM     48  C   UNL A   1      41.046  28.459  29.220  1.00  0.00     0.029 A 
ATOM     49  N   UNL A   1      42.696  27.367  30.176  1.00  0.00    -0.354 N 
ATOM     50  C   UNL A   1      42.760  28.045  34.985  1.00  0.00     0.074 A 
ATOM     51  C   UNL A   1      41.508  27.394  35.196  1.00  0.00     0.031 C 
ATOM     52  C   UNL A   1      41.610  27.677  28.256  1.00  0.00     0.029 A 
ATOM     53  C   UNL A   1      42.674  26.872  28.837  1.00  0.00     0.049 A 
ATOM     54  H   UNL A   1      43.433  27.168  30.798  1.00  0.00     0.167 HD
ATOM     55  C   UNL A   1      43.997  27.578  35.310  1.00  0.00     0.034 A 
ATOM     56  C   UNL A   1      43.521  25.925  28.285  1.00  0.00     0.034 A 
ATOM     57  C   UNL A   1      45.007  28.375  34.649  1.00  0.00     0.049 A 
ATOM     58  C   UNL A   1      44.733  25.938  29.152  1.00  0.00     0.074 A 
ATOM     59  C   UNL A   1      45.285  29.729  34.584  1.00  0.00     0.029 A 
ATOM     60  N   UNL A   1      45.550  27.817  33.518  1.00  0.00    -0.354 N 
ATOM     61  N   UNL A   1      45.506  26.989  29.244  1.00  0.00    -0.248 NA
ATOM     62  C   UNL A   1      44.663  25.077  30.324  1.00  0.00     0.031 C 
ATOM     63  C   UNL A   1      45.588  29.984  33.214  1.00  0.00     0.029 A 
ATOM     64  C   UNL A   1      45.653  28.767  32.535  1.00  0.00     0.049 A 
ATOM     65  H   UNL A   1      45.825  26.876  33.427  1.00  0.00     0.167 HD
ATOM     66  C   UNL A   1      45.626  27.193  30.609  1.00  0.00     0.074 A 
ATOM     67  C   UNL A   1      45.067  25.978  31.225  1.00  0.00     0.031 C 
ATOM     68  C   UNL A   1      45.818  28.442  31.131  1.00  0.00     0.034 A 
BRANCH  55  69
ATOM     69  C   UNL A   1      44.244  26.145  35.754  1.00  0.00     0.023 A 
ATOM     70  C   UNL A   1      44.940  25.953  36.956  1.00  0.00     0.031 A 
ATOM     71  C   UNL A   1      44.058  24.973  34.970  1.00  0.00     0.131 A 
ATOM     72  C   UNL A   1      45.405  24.675  37.322  1.00  0.00     0.055 A 
ATOM     73  C   UNL A   1      44.479  23.703  35.359  1.00  0.00     0.041 A 
ATOM     74  F   UNL A   1      43.542  24.980  33.738  1.00  0.00    -0.206 F 
ATOM     75  C   UNL A   1      45.170  23.548  36.539  1.00  0.00     0.022 A 
BRANCH  72  76
ATOM     76  S   UNL A   1      46.390  24.514  38.828  1.00  0.00     0.124 S 
ATOM     77  O   UNL A   1      46.661  25.908  39.157  1.00  0.00    -0.237 OA
ATOM     78  O   UNL A   1      45.466  23.810  39.712  1.00  0.00    -0.237 OA
ATOM     79  O   UNL A   1      47.547  23.734  38.393  1.00  0.00    -0.744 OA
ENDBRANCH  72  76
ENDBRANCH  55  69
BRANCH  56  80
ATOM     80  C   UNL A   1      43.218  24.704  27.420  1.00  0.00     0.023 A 
ATOM     81  C   UNL A   1      44.104  24.140  26.437  1.00  0.00     0.031 A 
ATOM     82  C   UNL A   1      42.133  23.886  27.786  1.00  0.00     0.131 A 
ATOM     83  C   UNL A   1      43.885  22.827  25.910  1.00  0.00     0.055 A 
ATOM     84  C   UNL A   1      41.941  22.593  27.286  1.00  0.00     0.041 A 
ATOM     85  F   UNL A   1      41.258  24.281  28.721  1.00  0.00    -0.206 F 
ATOM     86  C   UNL A   1      42.817  22.052  26.360  1.00  0.00     0.022 A 
BRANCH  83  87
ATOM     87  S   UNL A   1      45.013  22.013  24.695  1.00  0.00     0.124 S 
ATOM     88  O   UNL A   1      46.222  21.802  25.482  1.00  0.00    -0.237 OA
ATOM     89  O   UNL A   1      44.272  20.819  24.309  1.00  0.00    -0.237 OA
ATOM     90  O   UNL A   1      45.150  23.011  23.631  1.00  0.00    -0.744 OA
ENDBRANCH  83  87
ENDBRANCH  56  80
BRANCH  68  91
ATOM     91  C   UNL A   1      46.205  29.594  30.220  1.00  0.00     0.023 A 
ATOM     92  C   UNL A   1      45.343  30.549  29.617  1.00  0.00     0.031 A 
ATOM     93  C   UNL A   1      47.589  29.823  30.147  1.00  0.00     0.131 A 
ATOM     94  C   UNL A   1      45.904  31.687  28.982  1.00  0.00     0.055 A 
ATOM     95  C   UNL A   1      48.128  30.959  29.553  1.00  0.00     0.041 A 
ATOM     96  F   UNL A   1      48.445  28.967  30.727  1.00  0.00    -0.206 F 
ATOM     97  C   UNL A   1      47.289  31.895  28.967  1.00  0.00     0.022 A 
BRANCH  94  98
ATOM     98  S   UNL A   1      44.855  32.953  28.175  1.00  0.00     0.124 S 
ATOM     99  O   UNL A   1      43.539  32.704  28.749  1.00  0.00    -0.237 OA
ATOM    100  O   UNL A   1      45.500  34.203  28.566  1.00  0.00    -0.237 OA
ATOM    101  O   UNL A   1      44.966  32.635  26.748  1.00  0.00    -0.744 OA
ENDBRANCH  94  98
ENDBRANCH  68  91
ENDBRANCH  42  43
ENDBRANCH  35  37
ENDBRANCH  34  35
ENDBRANCH  33  34
ENDBRANCH  32  33
ENDBRANCH  31  32
ENDBRANCH   1  31
TORSDOF 23
ENDMDL
MODEL 3
REMARK VINA RESULT:     -10.3      4.188      9.132
REMARK SMILES O=C(CCn1cc(/C=C\C(=O)c2ccc(F)cc2)c(-c2cccc(Cl)c2)n1)OCCOCCOC(=O)c1ccc(-c2c3nc(c(-c4cc(S(=O)(=O)[O-])ccc4F)c4ccc([nH]4)c(-c4cc(S(=O)(=O)[O-])ccc4F)c4nc(c(-c5cc(S(=O)(=O)[O-])ccc5F)c5ccc2[nH]5)C=C4)C=C3)cc1
REMARK SMILES IDX 30 1 29 2 28 3 2 4 1 5 3 6 4 7 5 8 6 9 27 10 7 11 19 12 8 13
REMARK SMILES IDX 9 14 10 15 11 16 12 17 13 18 18 19 14 20 17 21 15 22 16 23
REMARK SMILES IDX 20 24 21 25 26 26 22 27 24 28 23 29 25 30 31 31 32 32 33 33
REMARK SMILES IDX 34 34 35 35 36 36 37 37 38 38 99 39 39 40 98 41 40 42 41 43
REMARK SMILES IDX 42 44 92 45 43 46 97 47 91 48 93 49 44 50 96 51 90 52 89 53
REMARK SMILES IDX 45 55 77 56 57 57 76 58 58 59 61 60 75 61 94 62 59 63 60 64
REMARK SMILES IDX 74 66 95 67 62 68 46 69 47 70 55 71 48 72 54 73 56 74 53 75
REMARK SMILES IDX 49 76 50 77 51 78 52 79 78 80 79 81 87 82 80 83 86 84 88 85
REMARK SMILES IDX 85 86 81 87 82 88 83 89 84 90 63 91 64 92 72 93 65 94 71 95
REMARK SMILES IDX 73 96 70 97 66 98 67 99 68 100 69 101
REMARK H PARENT 93 54 61 65
REMARK Flexibility Score: inf
ROOT
ATOM      1  C   UNL A   1      43.791  22.867  26.323  1.00  0.00     0.202 C 
ENDROOT
BRANCH   1   2
ATOM      2  C   UNL A   1      42.613  22.400  25.452  1.00  0.00     0.261 C 
BRANCH   2   3
ATOM      3  O   UNL A   1      41.309  22.276  26.027  1.00  0.00    -0.463 OA
BRANCH   3   4
ATOM      4  C   UNL A   1      40.657  21.099  26.135  1.00  0.00     0.307 C 
ATOM      5  O   UNL A   1      41.284  20.044  26.224  1.00  0.00    -0.252 OA
BRANCH   4   6
ATOM      6  C   UNL A   1      39.163  21.081  25.983  1.00  0.00     0.146 C 
BRANCH   6   7
ATOM      7  C   UNL A   1      38.569  22.468  25.851  1.00  0.00     0.156 C 
BRANCH   7   8
ATOM      8  N   UNL A   1      37.227  22.436  25.302  1.00  0.00    -0.271 N 
ATOM      9  C   UNL A   1      36.595  23.372  24.535  1.00  0.00     0.117 A 
ATOM     10  N   UNL A   1      36.533  21.306  25.439  1.00  0.00    -0.172 NA
ATOM     11  C   UNL A   1      35.425  22.779  24.091  1.00  0.00     0.021 A 
ATOM     12  C   UNL A   1      35.420  21.484  24.716  1.00  0.00     0.100 A 
BRANCH  11  13
ATOM     13  C   UNL A   1      34.501  23.390  23.178  1.00  0.00     0.016 C 
ATOM     14  C   UNL A   1      33.269  23.924  23.341  1.00  0.00     0.053 C 
BRANCH  14  15
ATOM     15  C   UNL A   1      32.302  24.143  24.504  1.00  0.00     0.185 C 
ATOM     16  O   UNL A   1      31.489  23.264  24.770  1.00  0.00    -0.289 OA
BRANCH  15  17
ATOM     17  C   UNL A   1      32.318  25.495  25.255  1.00  0.00     0.022 A 
ATOM     18  C   UNL A   1      30.828  26.295  24.583  1.00  0.00     0.015 A 
ATOM     19  C   UNL A   1      33.675  26.713  26.160  1.00  0.00     0.015 A 
ATOM     20  C   UNL A   1      30.709  28.064  24.655  1.00  0.00     0.040 A 
ATOM     21  C   UNL A   1      33.414  28.484  26.133  1.00  0.00     0.040 A 
ATOM     22  C   UNL A   1      31.973  29.085  25.369  1.00  0.00     0.123 A 
ATOM     23  F   UNL A   1      31.827  30.417  25.281  1.00  0.00    -0.207 F 
ENDBRANCH  15  17
ENDBRANCH  14  15
ENDBRANCH  11  13
BRANCH  12  24
ATOM     24  C   UNL A   1      34.278  20.443  24.607  1.00  0.00     0.004 A 
ATOM     25  C   UNL A   1      32.649  20.253  23.403  1.00  0.00     0.010 A 
ATOM     26  C   UNL A   1      35.070  18.882  25.132  1.00  0.00     0.031 A 
ATOM     27  C   UNL A   1      32.163  18.627  22.835  1.00  0.00     0.002 A 
ATOM     28  C   UNL A   1      34.460  17.360  24.476  1.00  0.00     0.041 A 
ATOM     29  C   UNL A   1      33.089  17.254  23.369  1.00  0.00     0.020 A 
ATOM     30  Cl  UNL A   1      35.204  15.885  24.968  1.00  0.00    -0.084 Cl
ENDBRANCH  12  24
ENDBRANCH   7   8
ENDBRANCH   6   7
ENDBRANCH   4   6
ENDBRANCH   3   4
ENDBRANCH   2   3
ENDBRANCH   1   2
BRANCH   1  31
ATOM     31  O   UNL A   1      43.882  24.175  26.859  1.00  0.00    -0.374 OA
BRANCH  31  32
ATOM     32  C   UNL A   1      43.508  24.448  28.196  1.00  0.00     0.202 C 
BRANCH  32  33
ATOM     33  C   UNL A   1      42.028  24.443  28.513  1.00  0.00     0.261 C 
BRANCH  33  34
ATOM     34  O   UNL A   1      41.525  25.766  28.536  1.00  0.00    -0.460 OA
BRANCH  34  35
ATOM     35  C   UNL A   1      40.870  26.146  27.410  1.00  0.00     0.338 C 
ATOM     36  O   UNL A   1      41.226  25.977  26.257  1.00  0.00    -0.246 OA
BRANCH  35  37
ATOM     37  C   UNL A   1      39.574  26.757  27.833  1.00  0.00     0.060 A 
ATOM     38  C   UNL A   1      39.381  28.011  27.270  1.00  0.00     0.016 A 
ATOM     39  C   UNL A   1      39.315  26.569  29.184  1.00  0.00     0.016 A 
ATOM     40  C   UNL A   1      39.694  29.087  28.076  1.00  0.00     0.010 A 
ATOM     41  C   UNL A   1      39.582  27.635  29.998  1.00  0.00     0.010 A 
ATOM     42  C   UNL A   1      39.973  28.853  29.432  1.00  0.00    -0.014 A 
BRANCH  42  43
ATOM     43  C   UNL A   1      40.179  29.960  30.365  1.00  0.00     0.031 A 
ATOM     44  C   UNL A   1      38.865  30.679  30.376  1.00  0.00     0.074 A 
ATOM     45  C   UNL A   1      41.289  30.175  31.129  1.00  0.00     0.049 A 
ATOM     46  N   UNL A   1      38.547  31.668  29.598  1.00  0.00    -0.248 NA
ATOM     47  C   UNL A   1      37.658  29.989  30.905  1.00  0.00     0.031 C 
ATOM     48  C   UNL A   1      42.564  29.442  31.195  1.00  0.00     0.029 A 
ATOM     49  N   UNL A   1      41.505  31.149  32.086  1.00  0.00    -0.354 N 
ATOM     50  C   UNL A   1      37.226  31.939  29.929  1.00  0.00     0.074 A 
ATOM     51  C   UNL A   1      36.668  30.697  30.352  1.00  0.00     0.031 C 
ATOM     52  C   UNL A   1      43.278  29.818  32.295  1.00  0.00     0.029 A 
ATOM     53  C   UNL A   1      42.596  30.907  32.975  1.00  0.00     0.049 A 
ATOM     54  H   UNL A   1      40.944  31.955  32.150  1.00  0.00     0.167 HD
ATOM     55  C   UNL A   1      36.914  33.183  30.389  1.00  0.00     0.034 A 
ATOM     56  C   UNL A   1      42.903  31.612  34.127  1.00  0.00     0.034 A 
ATOM     57  C   UNL A   1      37.914  34.130  29.947  1.00  0.00     0.049 A 
ATOM     58  C   UNL A   1      42.237  32.935  33.960  1.00  0.00     0.074 A 
ATOM     59  C   UNL A   1      38.451  34.471  28.718  1.00  0.00     0.029 A 
ATOM     60  N   UNL A   1      38.856  34.474  30.885  1.00  0.00    -0.354 N 
ATOM     61  N   UNL A   1      42.586  33.771  33.017  1.00  0.00    -0.248 NA
ATOM     62  C   UNL A   1      40.849  32.987  34.395  1.00  0.00     0.031 C 
ATOM     63  C   UNL A   1      39.854  34.588  28.942  1.00  0.00     0.029 A 
ATOM     64  C   UNL A   1      40.100  34.487  30.310  1.00  0.00     0.049 A 
ATOM     65  H   UNL A   1      38.665  34.680  31.828  1.00  0.00     0.167 HD
ATOM     66  C   UNL A   1      41.387  34.096  32.403  1.00  0.00     0.074 A 
ATOM     67  C   UNL A   1      40.347  33.565  33.299  1.00  0.00     0.031 C 
ATOM     68  C   UNL A   1      41.330  34.430  31.079  1.00  0.00     0.034 A 
BRANCH  55  69
ATOM     69  C   UNL A   1      36.058  33.411  31.625  1.00  0.00     0.023 A 
ATOM     70  C   UNL A   1      34.965  34.280  31.500  1.00  0.00     0.031 A 
ATOM     71  C   UNL A   1      36.378  33.029  32.957  1.00  0.00     0.131 A 
ATOM     72  C   UNL A   1      34.262  34.721  32.638  1.00  0.00     0.055 A 
ATOM     73  C   UNL A   1      35.649  33.429  34.075  1.00  0.00     0.041 A 
ATOM     74  F   UNL A   1      37.461  32.321  33.285  1.00  0.00    -0.206 F 
ATOM     75  C   UNL A   1      34.588  34.293  33.923  1.00  0.00     0.022 A 
BRANCH  72  76
ATOM     76  S   UNL A   1      32.934  35.926  32.420  1.00  0.00     0.124 S 
ATOM     77  O   UNL A   1      33.311  36.960  33.375  1.00  0.00    -0.237 OA
ATOM     78  O   UNL A   1      33.073  36.268  31.009  1.00  0.00    -0.237 OA
ATOM     79  O   UNL A   1      31.732  35.167  32.759  1.00  0.00    -0.744 OA
ENDBRANCH  72  76
ENDBRANCH  55  69
BRANCH  56  80
ATOM     80  C   UNL A   1      43.279  31.121  35.523  1.00  0.00     0.023 A 
ATOM     81  C   UNL A   1      43.430  29.743  35.908  1.00  0.00     0.031 A 
ATOM     82  C   UNL A   1      43.798  32.058  36.437  1.00  0.00     0.131 A 
ATOM     83  C   UNL A   1      44.090  29.383  37.127  1.00  0.00     0.055 A 
ATOM     84  C   UNL A   1      44.466  31.696  37.613  1.00  0.00     0.041 A 
ATOM     85  F   UNL A   1      43.755  33.371  36.176  1.00  0.00    -0.206 F 
ATOM     86  C   UNL A   1      44.627  30.365  37.957  1.00  0.00     0.022 A 
BRANCH  83  87
ATOM     87  S   UNL A   1      44.376  27.637  37.655  1.00  0.00     0.124 S 
ATOM     88  O   UNL A   1      45.206  27.115  36.576  1.00  0.00    -0.237 OA
ATOM     89  O   UNL A   1      45.019  27.789  38.954  1.00  0.00    -0.237 OA
ATOM     90  O   UNL A   1      43.027  27.068  37.710  1.00  0.00    -0.744 OA
ENDBRANCH  83  87
ENDBRANCH  56  80
BRANCH  68  91
ATOM     91  C   UNL A   1      42.606  34.745  30.319  1.00  0.00     0.023 A 
ATOM     92  C   UNL A   1      43.409  35.912  30.420  1.00  0.00     0.031 A 
ATOM     93  C   UNL A   1      43.120  33.659  29.590  1.00  0.00     0.131 A 
ATOM     94  C   UNL A   1      44.685  35.934  29.800  1.00  0.00     0.055 A 
ATOM     95  C   UNL A   1      44.386  33.676  29.016  1.00  0.00     0.041 A 
ATOM     96  F   UNL A   1      42.414  32.521  29.490  1.00  0.00    -0.206 F 
ATOM     97  C   UNL A   1      45.174  34.813  29.117  1.00  0.00     0.022 A 
BRANCH  94  98
ATOM     98  S   UNL A   1      45.769  37.408  29.879  1.00  0.00     0.124 S 
ATOM     99  O   UNL A   1      46.986  36.957  29.216  1.00  0.00    -0.237 OA
ATOM    100  O   UNL A   1      44.990  38.420  29.172  1.00  0.00    -0.237 OA
ATOM    101  O   UNL A   1      45.915  37.652  31.317  1.00  0.00    -0.744 OA
ENDBRANCH  94  98
ENDBRANCH  68  91
ENDBRANCH  42  43
ENDBRANCH  35  37
ENDBRANCH  34  35
ENDBRANCH  33  34
ENDBRANCH  32  33
ENDBRANCH  31  32
ENDBRANCH   1  31
TORSDOF 23
ENDMDL
