MODEL 1
REMARK VINA RESULT:     -10.9      0.000      0.000
REMARK SMILES CC[NH2+][C@@]1(C(=O)OCCOCCOC(=O)c2ccc(-c3c4nc(c(-c5cc(S(=O)(=O)[O-])ccc5F)c5ccc([nH]5)c(-c5cc(S(=O)(=O)[O-])ccc5F)c5nc(c(-c6cc(S(=O)(=O)[O-])ccc6F)c6ccc3[nH]6)C=C5)C=C4)cc2)CC[C@H](Sc2nccc(=O)[nH]2)C1
REMARK SMILES IDX 11 1 10 2 9 3 8 4 7 5 5 6 6 7 4 8 79 9 90 10 80 11 81 12
REMARK SMILES IDX 3 13 2 16 1 17 82 18 83 19 84 20 89 21 85 22 87 23 86 25
REMARK SMILES IDX 88 26 12 27 13 28 14 29 15 30 16 31 17 32 78 33 18 34 77 35
REMARK SMILES IDX 19 36 20 37 21 38 71 39 22 40 76 41 70 42 72 43 23 44 75 45
REMARK SMILES IDX 69 46 68 47 24 49 56 50 36 51 55 52 37 53 40 54 54 55 73 56
REMARK SMILES IDX 38 57 39 58 53 60 74 61 41 62 25 63 26 64 34 65 27 66 33 67
REMARK SMILES IDX 35 68 32 69 28 70 29 71 30 72 31 73 57 74 58 75 66 76 59 77
REMARK SMILES IDX 65 78 67 79 64 80 60 81 61 82 62 83 63 84 42 85 43 86 51 87
REMARK SMILES IDX 44 88 50 89 52 90 49 91 45 92 46 93 47 94 48 95
REMARK H PARENT 3 14 3 15 89 24 72 48 40 59
REMARK Flexibility Score: inf
ROOT
ATOM      1  C   UNL A   1      31.269  31.537  26.428  1.00  0.00     0.202 C 
ENDROOT
BRANCH   1   2
ATOM      2  O   UNL A   1      32.275  30.533  26.538  1.00  0.00    -0.374 OA
BRANCH   2   3
ATOM      3  C   UNL A   1      31.893  29.286  27.125  1.00  0.00     0.202 C 
BRANCH   3   4
ATOM      4  C   UNL A   1      32.616  28.052  26.589  1.00  0.00     0.261 C 
BRANCH   4   5
ATOM      5  O   UNL A   1      31.654  27.074  26.157  1.00  0.00    -0.459 OA
BRANCH   5   6
ATOM      6  C   UNL A   1      32.039  26.265  25.141  1.00  0.00     0.368 C 
ATOM      7  O   UNL A   1      33.200  25.921  24.941  1.00  0.00    -0.245 OA
BRANCH   6   8
ATOM      8  C   UNL A   1      30.834  25.798  24.248  1.00  0.00     0.195 C 
ATOM      9  C   UNL A   1      31.376  25.714  22.815  1.00  0.00     0.082 C 
ATOM     10  C   UNL A   1      29.668  26.795  24.077  1.00  0.00     0.096 C 
ATOM     11  C   UNL A   1      31.356  27.176  22.351  1.00  0.00     0.022 C 
ATOM     12  C   UNL A   1      30.066  27.759  22.940  1.00  0.00     0.062 C 
BRANCH   8  13
ATOM     13  N   UNL A   1      30.355  24.561  24.898  1.00  0.00    -0.332 N 
ATOM     14  H   UNL A   1      30.482  24.681  25.903  1.00  0.00     0.347 HD
ATOM     15  H   UNL A   1      29.393  24.467  24.572  1.00  0.00     0.347 HD
BRANCH  13  16
ATOM     16  C   UNL A   1      30.971  23.301  24.539  1.00  0.00     0.257 C 
ATOM     17  C   UNL A   1      31.481  22.633  25.811  1.00  0.00     0.071 C 
ENDBRANCH  13  16
ENDBRANCH   8  13
BRANCH  12  18
ATOM     18  S   UNL A   1      30.227  29.436  23.610  1.00  0.00    -0.084 SA
BRANCH  18  19
ATOM     19  C   UNL A   1      29.311  30.404  22.511  1.00  0.00     0.168 A 
ATOM     20  N   UNL A   1      28.720  29.960  21.454  1.00  0.00    -0.233 NA
ATOM     21  N   UNL A   1      29.288  31.698  22.920  1.00  0.00    -0.301 N 
ATOM     22  C   UNL A   1      28.056  30.903  20.706  1.00  0.00     0.120 A 
ATOM     23  C   UNL A   1      28.575  32.651  22.266  1.00  0.00     0.251 A 
ATOM     24  H   UNL A   1      29.806  31.954  23.717  1.00  0.00     0.172 HD
ATOM     25  C   UNL A   1      27.944  32.199  21.020  1.00  0.00     0.091 A 
ATOM     26  O   UNL A   1      28.435  33.788  22.690  1.00  0.00    -0.269 OA
ENDBRANCH  18  19
ENDBRANCH  12  18
ENDBRANCH   6   8
ENDBRANCH   5   6
ENDBRANCH   4   5
ENDBRANCH   3   4
ENDBRANCH   2   3
ENDBRANCH   1   2
BRANCH   1  27
ATOM     27  C   UNL A   1      31.622  32.936  26.950  1.00  0.00     0.261 C 
BRANCH  27  28
ATOM     28  O   UNL A   1      33.029  33.227  26.890  1.00  0.00    -0.460 OA
BRANCH  28  29
ATOM     29  C   UNL A   1      33.567  33.617  28.072  1.00  0.00     0.338 C 
ATOM     30  O   UNL A   1      33.027  34.315  28.924  1.00  0.00    -0.246 OA
BRANCH  29  31
ATOM     31  C   UNL A   1      34.852  32.933  28.317  1.00  0.00     0.060 A 
ATOM     32  C   UNL A   1      34.790  31.607  28.765  1.00  0.00     0.016 A 
ATOM     33  C   UNL A   1      36.083  33.585  28.211  1.00  0.00     0.016 A 
ATOM     34  C   UNL A   1      35.948  30.952  29.177  1.00  0.00     0.010 A 
ATOM     35  C   UNL A   1      37.247  32.922  28.626  1.00  0.00     0.010 A 
ATOM     36  C   UNL A   1      37.180  31.618  29.158  1.00  0.00    -0.014 A 
BRANCH  36  37
ATOM     37  C   UNL A   1      38.326  31.021  29.897  1.00  0.00     0.031 A 
ATOM     38  C   UNL A   1      38.528  31.403  31.344  1.00  0.00     0.074 A 
ATOM     39  C   UNL A   1      39.114  30.086  29.333  1.00  0.00     0.049 A 
ATOM     40  N   UNL A   1      39.412  30.972  32.206  1.00  0.00    -0.248 NA
ATOM     41  C   UNL A   1      37.607  32.413  31.886  1.00  0.00     0.031 C 
ATOM     42  C   UNL A   1      39.009  29.609  27.954  1.00  0.00     0.029 A 
ATOM     43  N   UNL A   1      40.153  29.356  29.859  1.00  0.00    -0.354 N 
ATOM     44  C   UNL A   1      39.158  31.664  33.386  1.00  0.00     0.074 A 
ATOM     45  C   UNL A   1      38.077  32.583  33.110  1.00  0.00     0.031 C 
ATOM     46  C   UNL A   1      39.937  28.659  27.747  1.00  0.00     0.029 A 
ATOM     47  C   UNL A   1      40.721  28.476  28.967  1.00  0.00     0.049 A 
ATOM     48  H   UNL A   1      40.461  29.454  30.789  1.00  0.00     0.167 HD
ATOM     49  C   UNL A   1      39.752  31.533  34.599  1.00  0.00     0.034 A 
ATOM     50  C   UNL A   1      41.758  27.627  29.117  1.00  0.00     0.034 A 
ATOM     51  C   UNL A   1      40.827  30.610  34.868  1.00  0.00     0.049 A 
ATOM     52  C   UNL A   1      42.442  27.534  30.462  1.00  0.00     0.074 A 
ATOM     53  C   UNL A   1      41.490  30.382  36.062  1.00  0.00     0.029 A 
ATOM     54  N   UNL A   1      41.403  29.764  33.928  1.00  0.00    -0.354 N 
ATOM     55  N   UNL A   1      42.175  28.180  31.575  1.00  0.00    -0.248 NA
ATOM     56  C   UNL A   1      43.556  26.584  30.572  1.00  0.00     0.031 C 
ATOM     57  C   UNL A   1      42.507  29.449  35.828  1.00  0.00     0.029 A 
ATOM     58  C   UNL A   1      42.430  29.035  34.507  1.00  0.00     0.049 A 
ATOM     59  H   UNL A   1      41.122  29.694  32.987  1.00  0.00     0.167 HD
ATOM     60  C   UNL A   1      43.071  27.690  32.523  1.00  0.00     0.074 A 
ATOM     61  C   UNL A   1      43.867  26.679  31.856  1.00  0.00     0.031 C 
ATOM     62  C   UNL A   1      43.226  28.040  33.826  1.00  0.00     0.034 A 
BRANCH  49  63
ATOM     63  C   UNL A   1      39.271  32.446  35.703  1.00  0.00     0.023 A 
ATOM     64  C   UNL A   1      39.686  33.787  35.789  1.00  0.00     0.031 A 
ATOM     65  C   UNL A   1      38.429  31.951  36.716  1.00  0.00     0.131 A 
ATOM     66  C   UNL A   1      39.330  34.561  36.904  1.00  0.00     0.055 A 
ATOM     67  C   UNL A   1      38.008  32.753  37.779  1.00  0.00     0.041 A 
ATOM     68  F   UNL A   1      38.020  30.674  36.701  1.00  0.00    -0.206 F 
ATOM     69  C   UNL A   1      38.472  34.060  37.887  1.00  0.00     0.022 A 
BRANCH  66  70
ATOM     70  S   UNL A   1      40.130  36.172  37.133  1.00  0.00     0.124 S 
ATOM     71  O   UNL A   1      39.331  36.747  38.214  1.00  0.00    -0.237 OA
ATOM     72  O   UNL A   1      41.497  35.802  37.475  1.00  0.00    -0.237 OA
ATOM     73  O   UNL A   1      39.965  36.824  35.834  1.00  0.00    -0.744 OA
ENDBRANCH  66  70
ENDBRANCH  49  63
BRANCH  50  74
ATOM     74  C   UNL A   1      42.242  26.806  27.968  1.00  0.00     0.023 A 
ATOM     75  C   UNL A   1      41.887  25.452  27.836  1.00  0.00     0.031 A 
ATOM     76  C   UNL A   1      43.130  27.347  27.022  1.00  0.00     0.131 A 
ATOM     77  C   UNL A   1      42.456  24.675  26.814  1.00  0.00     0.055 A 
ATOM     78  C   UNL A   1      43.652  26.583  25.977  1.00  0.00     0.041 A 
ATOM     79  F   UNL A   1      43.505  28.634  27.100  1.00  0.00    -0.206 F 
ATOM     80  C   UNL A   1      43.328  25.234  25.877  1.00  0.00     0.022 A 
BRANCH  77  81
ATOM     81  S   UNL A   1      42.111  22.893  26.777  1.00  0.00     0.124 S 
ATOM     82  O   UNL A   1      43.138  22.409  25.862  1.00  0.00    -0.237 OA
ATOM     83  O   UNL A   1      42.275  22.525  28.179  1.00  0.00    -0.237 OA
ATOM     84  O   UNL A   1      40.742  22.823  26.273  1.00  0.00    -0.744 OA
ENDBRANCH  77  81
ENDBRANCH  50  74
BRANCH  62  85
ATOM     85  C   UNL A   1      44.271  27.290  34.619  1.00  0.00     0.023 A 
ATOM     86  C   UNL A   1      45.592  27.763  34.736  1.00  0.00     0.031 A 
ATOM     87  C   UNL A   1      43.950  26.071  35.241  1.00  0.00     0.131 A 
ATOM     88  C   UNL A   1      46.557  26.985  35.395  1.00  0.00     0.055 A 
ATOM     89  C   UNL A   1      44.899  25.335  35.952  1.00  0.00     0.041 A 
ATOM     90  F   UNL A   1      42.707  25.569  35.162  1.00  0.00    -0.206 F 
ATOM     91  C   UNL A   1      46.215  25.783  36.018  1.00  0.00     0.022 A 
BRANCH  88  92
ATOM     92  S   UNL A   1      48.292  27.509  35.324  1.00  0.00     0.124 S 
ATOM     93  O   UNL A   1      48.171  28.914  34.951  1.00  0.00    -0.237 OA
ATOM     94  O   UNL A   1      48.752  27.248  36.684  1.00  0.00    -0.237 OA
ATOM     95  O   UNL A   1      48.871  26.643  34.298  1.00  0.00    -0.744 OA
ENDBRANCH  88  92
ENDBRANCH  62  85
ENDBRANCH  36  37
ENDBRANCH  29  31
ENDBRANCH  28  29
ENDBRANCH  27  28
ENDBRANCH   1  27
TORSDOF 21
ENDMDL
MODEL 2
REMARK VINA RESULT:     -10.7      3.056      5.196
REMARK SMILES CC[NH2+][C@@]1(C(=O)OCCOCCOC(=O)c2ccc(-c3c4nc(c(-c5cc(S(=O)(=O)[O-])ccc5F)c5ccc([nH]5)c(-c5cc(S(=O)(=O)[O-])ccc5F)c5nc(c(-c6cc(S(=O)(=O)[O-])ccc6F)c6ccc3[nH]6)C=C5)C=C4)cc2)CC[C@H](Sc2nccc(=O)[nH]2)C1
REMARK SMILES IDX 11 1 10 2 9 3 8 4 7 5 5 6 6 7 4 8 79 9 90 10 80 11 81 12
REMARK SMILES IDX 3 13 2 16 1 17 82 18 83 19 84 20 89 21 85 22 87 23 86 25
REMARK SMILES IDX 88 26 12 27 13 28 14 29 15 30 16 31 17 32 78 33 18 34 77 35
REMARK SMILES IDX 19 36 20 37 21 38 71 39 22 40 76 41 70 42 72 43 23 44 75 45
REMARK SMILES IDX 69 46 68 47 24 49 56 50 36 51 55 52 37 53 40 54 54 55 73 56
REMARK SMILES IDX 38 57 39 58 53 60 74 61 41 62 25 63 26 64 34 65 27 66 33 67
REMARK SMILES IDX 35 68 32 69 28 70 29 71 30 72 31 73 57 74 58 75 66 76 59 77
REMARK SMILES IDX 65 78 67 79 64 80 60 81 61 82 62 83 63 84 42 85 43 86 51 87
REMARK SMILES IDX 44 88 50 89 52 90 49 91 45 92 46 93 47 94 48 95
REMARK H PARENT 3 14 3 15 89 24 72 48 40 59
REMARK Flexibility Score: inf
ROOT
ATOM      1  C   UNL A   1      33.054  29.145  24.807  1.00  0.00     0.202 C 
ENDROOT
BRANCH   1   2
ATOM      2  O   UNL A   1      33.472  27.811  25.087  1.00  0.00    -0.374 OA
BRANCH   2   3
ATOM      3  C   UNL A   1      32.518  26.768  24.871  1.00  0.00     0.202 C 
BRANCH   3   4
ATOM      4  C   UNL A   1      32.516  25.647  25.909  1.00  0.00     0.261 C 
BRANCH   4   5
ATOM      5  O   UNL A   1      33.833  25.080  26.015  1.00  0.00    -0.459 OA
BRANCH   5   6
ATOM      6  C   UNL A   1      33.894  23.770  26.355  1.00  0.00     0.368 C 
ATOM      7  O   UNL A   1      33.141  23.235  27.164  1.00  0.00    -0.245 OA
BRANCH   6   8
ATOM      8  C   UNL A   1      35.029  22.997  25.592  1.00  0.00     0.195 C 
ATOM      9  C   UNL A   1      35.033  23.554  24.162  1.00  0.00     0.082 C 
ATOM     10  C   UNL A   1      34.796  21.493  25.335  1.00  0.00     0.096 C 
ATOM     11  C   UNL A   1      33.867  22.812  23.498  1.00  0.00     0.022 C 
ATOM     12  C   UNL A   1      33.938  21.386  24.056  1.00  0.00     0.062 C 
BRANCH   8  13
ATOM     13  N   UNL A   1      36.230  23.189  26.431  1.00  0.00    -0.332 N 
ATOM     14  H   UNL A   1      36.011  23.921  27.106  1.00  0.00     0.347 HD
ATOM     15  H   UNL A   1      36.416  22.262  26.812  1.00  0.00     0.347 HD
BRANCH  13  16
ATOM     16  C   UNL A   1      37.475  23.560  25.791  1.00  0.00     0.257 C 
ATOM     17  C   UNL A   1      38.523  22.504  26.126  1.00  0.00     0.071 C 
ENDBRANCH  13  16
ENDBRANCH   8  13
BRANCH  12  18
ATOM     18  S   UNL A   1      32.333  20.653  24.475  1.00  0.00    -0.084 SA
BRANCH  18  19
ATOM     19  C   UNL A   1      32.696  18.979  24.703  1.00  0.00     0.168 A 
ATOM     20  N   UNL A   1      32.433  18.307  25.773  1.00  0.00    -0.233 NA
ATOM     21  N   UNL A   1      33.285  18.463  23.594  1.00  0.00    -0.301 N 
ATOM     22  C   UNL A   1      32.819  16.988  25.753  1.00  0.00     0.120 A 
ATOM     23  C   UNL A   1      33.606  17.148  23.491  1.00  0.00     0.251 A 
ATOM     24  H   UNL A   1      33.487  19.064  22.841  1.00  0.00     0.172 HD
ATOM     25  C   UNL A   1      33.384  16.364  24.713  1.00  0.00     0.091 A 
ATOM     26  O   UNL A   1      34.014  16.640  22.457  1.00  0.00    -0.269 OA
ENDBRANCH  18  19
ENDBRANCH  12  18
ENDBRANCH   6   8
ENDBRANCH   5   6
ENDBRANCH   4   5
ENDBRANCH   3   4
ENDBRANCH   2   3
ENDBRANCH   1   2
BRANCH   1  27
ATOM     27  C   UNL A   1      32.109  29.805  25.821  1.00  0.00     0.261 C 
BRANCH  27  28
ATOM     28  O   UNL A   1      32.687  29.944  27.131  1.00  0.00    -0.460 OA
BRANCH  28  29
ATOM     29  C   UNL A   1      33.345  31.112  27.327  1.00  0.00     0.338 C 
ATOM     30  O   UNL A   1      32.841  32.226  27.418  1.00  0.00    -0.246 OA
BRANCH  29  31
ATOM     31  C   UNL A   1      34.772  30.871  27.618  1.00  0.00     0.060 A 
ATOM     32  C   UNL A   1      35.198  29.537  27.647  1.00  0.00     0.016 A 
ATOM     33  C   UNL A   1      35.656  31.900  27.949  1.00  0.00     0.016 A 
ATOM     34  C   UNL A   1      36.485  29.220  28.076  1.00  0.00     0.010 A 
ATOM     35  C   UNL A   1      36.952  31.578  28.381  1.00  0.00     0.010 A 
ATOM     36  C   UNL A   1      37.357  30.234  28.494  1.00  0.00    -0.014 A 
BRANCH  36  37
ATOM     37  C   UNL A   1      38.585  29.853  29.244  1.00  0.00     0.031 A 
ATOM     38  C   UNL A   1      38.760  30.371  30.651  1.00  0.00     0.074 A 
ATOM     39  C   UNL A   1      39.481  28.988  28.731  1.00  0.00     0.049 A 
ATOM     40  N   UNL A   1      39.708  30.130  31.519  1.00  0.00    -0.248 NA
ATOM     41  C   UNL A   1      37.721  31.291  31.141  1.00  0.00     0.031 C 
ATOM     42  C   UNL A   1      39.417  28.394  27.396  1.00  0.00     0.029 A 
ATOM     43  N   UNL A   1      40.617  28.445  29.282  1.00  0.00    -0.354 N 
ATOM     44  C   UNL A   1      39.385  30.874  32.650  1.00  0.00     0.074 A 
ATOM     45  C   UNL A   1      38.186  31.618  32.335  1.00  0.00     0.031 C 
ATOM     46  C   UNL A   1      40.460  27.561  27.236  1.00  0.00     0.029 A 
ATOM     47  C   UNL A   1      41.282  27.580  28.445  1.00  0.00     0.049 A 
ATOM     48  H   UNL A   1      40.925  28.656  30.193  1.00  0.00     0.167 HD
ATOM     49  C   UNL A   1      40.012  30.919  33.852  1.00  0.00     0.034 A 
ATOM     50  C   UNL A   1      42.426  26.890  28.630  1.00  0.00     0.034 A 
ATOM     51  C   UNL A   1      41.204  30.170  34.161  1.00  0.00     0.049 A 
ATOM     52  C   UNL A   1      43.139  26.994  29.959  1.00  0.00     0.074 A 
ATOM     53  C   UNL A   1      41.913  30.126  35.350  1.00  0.00     0.029 A 
ATOM     54  N   UNL A   1      41.872  29.336  33.272  1.00  0.00    -0.354 N 
ATOM     55  N   UNL A   1      42.808  27.685  31.026  1.00  0.00    -0.248 NA
ATOM     56  C   UNL A   1      44.371  26.211  30.110  1.00  0.00     0.031 C 
ATOM     57  C   UNL A   1      43.041  29.321  35.159  1.00  0.00     0.029 A 
ATOM     58  C   UNL A   1      42.997  28.796  33.876  1.00  0.00     0.049 A 
ATOM     59  H   UNL A   1      41.587  29.155  32.348  1.00  0.00     0.167 HD
ATOM     60  C   UNL A   1      43.778  27.394  31.984  1.00  0.00     0.074 A 
ATOM     61  C   UNL A   1      44.690  26.448  31.374  1.00  0.00     0.031 C 
ATOM     62  C   UNL A   1      43.907  27.865  33.252  1.00  0.00     0.034 A 
BRANCH  49  63
ATOM     63  C   UNL A   1      39.433  31.845  34.896  1.00  0.00     0.023 A 
ATOM     64  C   UNL A   1      39.959  33.130  35.122  1.00  0.00     0.031 A 
ATOM     65  C   UNL A   1      38.373  31.416  35.716  1.00  0.00     0.131 A 
ATOM     66  C   UNL A   1      39.486  33.904  36.192  1.00  0.00     0.055 A 
ATOM     67  C   UNL A   1      37.848  32.226  36.725  1.00  0.00     0.041 A 
ATOM     68  F   UNL A   1      37.844  30.192  35.564  1.00  0.00    -0.206 F 
ATOM     69  C   UNL A   1      38.416  33.471  36.979  1.00  0.00     0.022 A 
BRANCH  66  70
ATOM     70  S   UNL A   1      40.391  35.410  36.641  1.00  0.00     0.124 S 
ATOM     71  O   UNL A   1      41.710  35.142  36.070  1.00  0.00    -0.237 OA
ATOM     72  O   UNL A   1      39.611  36.455  35.988  1.00  0.00    -0.237 OA
ATOM     73  O   UNL A   1      40.343  35.416  38.103  1.00  0.00    -0.744 OA
ENDBRANCH  66  70
ENDBRANCH  49  63
BRANCH  50  74
ATOM     74  C   UNL A   1      42.995  26.051  27.534  1.00  0.00     0.023 A 
ATOM     75  C   UNL A   1      42.684  24.685  27.422  1.00  0.00     0.031 A 
ATOM     76  C   UNL A   1      43.920  26.591  26.624  1.00  0.00     0.131 A 
ATOM     77  C   UNL A   1      43.330  23.896  26.456  1.00  0.00     0.055 A 
ATOM     78  C   UNL A   1      44.520  25.813  25.631  1.00  0.00     0.041 A 
ATOM     79  F   UNL A   1      44.256  27.889  26.685  1.00  0.00    -0.206 F 
ATOM     80  C   UNL A   1      44.238  24.453  25.553  1.00  0.00     0.022 A 
BRANCH  77  81
ATOM     81  S   UNL A   1      43.034  22.105  26.452  1.00  0.00     0.124 S 
ATOM     82  O   UNL A   1      42.565  21.878  27.814  1.00  0.00    -0.237 OA
ATOM     83  O   UNL A   1      42.036  21.965  25.398  1.00  0.00    -0.237 OA
ATOM     84  O   UNL A   1      44.347  21.545  26.142  1.00  0.00    -0.744 OA
ENDBRANCH  77  81
ENDBRANCH  50  74
BRANCH  62  85
ATOM     85  C   UNL A   1      45.057  27.324  34.070  1.00  0.00     0.023 A 
ATOM     86  C   UNL A   1      44.899  26.224  34.933  1.00  0.00     0.031 A 
ATOM     87  C   UNL A   1      46.320  27.938  34.009  1.00  0.00     0.131 A 
ATOM     88  C   UNL A   1      45.964  25.818  35.751  1.00  0.00     0.055 A 
ATOM     89  C   UNL A   1      47.396  27.486  34.776  1.00  0.00     0.041 A 
ATOM     90  F   UNL A   1      46.531  28.993  33.205  1.00  0.00    -0.206 F 
ATOM     91  C   UNL A   1      47.216  26.431  35.665  1.00  0.00     0.022 A 
BRANCH  88  92
ATOM     92  S   UNL A   1      45.658  24.554  37.015  1.00  0.00     0.124 S 
ATOM     93  O   UNL A   1      46.966  23.920  37.136  1.00  0.00    -0.237 OA
ATOM     94  O   UNL A   1      45.229  25.354  38.158  1.00  0.00    -0.237 OA
ATOM     95  O   UNL A   1      44.616  23.718  36.420  1.00  0.00    -0.744 OA
ENDBRANCH  88  92
ENDBRANCH  62  85
ENDBRANCH  36  37
ENDBRANCH  29  31
ENDBRANCH  28  29
ENDBRANCH  27  28
ENDBRANCH   1  27
TORSDOF 21
ENDMDL
MODEL 3
REMARK VINA RESULT:     -10.7      1.431      7.867
REMARK SMILES CC[NH2+][C@@]1(C(=O)OCCOCCOC(=O)c2ccc(-c3c4nc(c(-c5cc(S(=O)(=O)[O-])ccc5F)c5ccc([nH]5)c(-c5cc(S(=O)(=O)[O-])ccc5F)c5nc(c(-c6cc(S(=O)(=O)[O-])ccc6F)c6ccc3[nH]6)C=C5)C=C4)cc2)CC[C@H](Sc2nccc(=O)[nH]2)C1
REMARK SMILES IDX 11 1 10 2 9 3 8 4 7 5 5 6 6 7 4 8 79 9 90 10 80 11 81 12
REMARK SMILES IDX 3 13 2 16 1 17 82 18 83 19 84 20 89 21 85 22 87 23 86 25
REMARK SMILES IDX 88 26 12 27 13 28 14 29 15 30 16 31 17 32 78 33 18 34 77 35
REMARK SMILES IDX 19 36 20 37 21 38 71 39 22 40 76 41 70 42 72 43 23 44 75 45
REMARK SMILES IDX 69 46 68 47 24 49 56 50 36 51 55 52 37 53 40 54 54 55 73 56
REMARK SMILES IDX 38 57 39 58 53 60 74 61 41 62 25 63 26 64 34 65 27 66 33 67
REMARK SMILES IDX 35 68 32 69 28 70 29 71 30 72 31 73 57 74 58 75 66 76 59 77
REMARK SMILES IDX 65 78 67 79 64 80 60 81 61 82 62 83 63 84 42 85 43 86 51 87
REMARK SMILES IDX 44 88 50 89 52 90 49 91 45 92 46 93 47 94 48 95
REMARK H PARENT 3 14 3 15 89 24 72 48 40 59
REMARK Flexibility Score: inf
ROOT
ATOM      1  C   UNL A   1      31.193  31.183  26.025  1.00  0.00     0.202 C 
ENDROOT
BRANCH   1   2
ATOM      2  O   UNL A   1      32.383  30.407  25.902  1.00  0.00    -0.374 OA
BRANCH   2   3
ATOM      3  C   UNL A   1      32.418  29.151  26.585  1.00  0.00     0.202 C 
BRANCH   3   4
ATOM      4  C   UNL A   1      33.584  28.232  26.223  1.00  0.00     0.261 C 
BRANCH   4   5
ATOM      5  O   UNL A   1      33.254  26.874  26.559  1.00  0.00    -0.459 OA
BRANCH   5   6
ATOM      6  C   UNL A   1      33.144  26.011  25.520  1.00  0.00     0.368 C 
ATOM      7  O   UNL A   1      34.085  25.676  24.805  1.00  0.00    -0.245 OA
BRANCH   6   8
ATOM      8  C   UNL A   1      31.682  25.469  25.333  1.00  0.00     0.195 C 
ATOM      9  C   UNL A   1      31.722  24.558  24.099  1.00  0.00     0.082 C 
ATOM     10  C   UNL A   1      30.607  26.497  24.921  1.00  0.00     0.096 C 
ATOM     11  C   UNL A   1      31.669  25.552  22.932  1.00  0.00     0.022 C 
ATOM     12  C   UNL A   1      30.691  26.641  23.387  1.00  0.00     0.062 C 
BRANCH   8  13
ATOM     13  N   UNL A   1      31.342  24.875  26.642  1.00  0.00    -0.332 N 
ATOM     14  H   UNL A   1      32.017  25.232  27.319  1.00  0.00     0.347 HD
ATOM     15  H   UNL A   1      30.369  25.142  26.790  1.00  0.00     0.347 HD
BRANCH  13  16
ATOM     16  C   UNL A   1      31.332  23.433  26.772  1.00  0.00     0.257 C 
ATOM     17  C   UNL A   1      29.892  22.977  26.979  1.00  0.00     0.071 C 
ENDBRANCH  13  16
ENDBRANCH   8  13
BRANCH  12  18
ATOM     18  S   UNL A   1      31.193  28.334  22.974  1.00  0.00    -0.084 SA
BRANCH  18  19
ATOM     19  C   UNL A   1      29.698  29.194  22.885  1.00  0.00     0.168 A 
ATOM     20  N   UNL A   1      28.533  28.665  23.053  1.00  0.00    -0.233 NA
ATOM     21  N   UNL A   1      29.917  30.508  22.624  1.00  0.00    -0.301 N 
ATOM     22  C   UNL A   1      27.468  29.525  22.924  1.00  0.00     0.120 A 
ATOM     23  C   UNL A   1      28.908  31.414  22.574  1.00  0.00     0.251 A 
ATOM     24  H   UNL A   1      30.840  30.813  22.466  1.00  0.00     0.172 HD
ATOM     25  C   UNL A   1      27.561  30.840  22.694  1.00  0.00     0.091 A 
ATOM     26  O   UNL A   1      29.095  32.617  22.472  1.00  0.00    -0.269 OA
ENDBRANCH  18  19
ENDBRANCH  12  18
ENDBRANCH   6   8
ENDBRANCH   5   6
ENDBRANCH   4   5
ENDBRANCH   3   4
ENDBRANCH   2   3
ENDBRANCH   1   2
BRANCH   1  27
ATOM     27  C   UNL A   1      31.329  32.566  26.676  1.00  0.00     0.261 C 
BRANCH  27  28
ATOM     28  O   UNL A   1      32.650  33.124  26.556  1.00  0.00    -0.460 OA
BRANCH  28  29
ATOM     29  C   UNL A   1      33.135  33.655  27.705  1.00  0.00     0.338 C 
ATOM     30  O   UNL A   1      32.563  34.457  28.436  1.00  0.00    -0.246 OA
BRANCH  29  31
ATOM     31  C   UNL A   1      34.399  32.999  28.095  1.00  0.00     0.060 A 
ATOM     32  C   UNL A   1      34.324  31.655  28.481  1.00  0.00     0.016 A 
ATOM     33  C   UNL A   1      35.609  33.691  28.181  1.00  0.00     0.016 A 
ATOM     34  C   UNL A   1      35.439  31.017  29.020  1.00  0.00     0.010 A 
ATOM     35  C   UNL A   1      36.730  33.046  28.724  1.00  0.00     0.010 A 
ATOM     36  C   UNL A   1      36.638  31.720  29.192  1.00  0.00    -0.014 A 
BRANCH  36  37
ATOM     37  C   UNL A   1      37.695  31.126  30.056  1.00  0.00     0.031 A 
ATOM     38  C   UNL A   1      38.619  30.093  29.457  1.00  0.00     0.074 A 
ATOM     39  C   UNL A   1      37.899  31.560  31.315  1.00  0.00     0.049 A 
ATOM     40  N   UNL A   1      39.647  29.482  29.988  1.00  0.00    -0.248 NA
ATOM     41  C   UNL A   1      38.340  29.696  28.069  1.00  0.00     0.031 C 
ATOM     42  C   UNL A   1      37.095  32.570  32.002  1.00  0.00     0.029 A 
ATOM     43  N   UNL A   1      38.859  31.215  32.235  1.00  0.00    -0.354 N 
ATOM     44  C   UNL A   1      40.127  28.623  29.004  1.00  0.00     0.074 A 
ATOM     45  C   UNL A   1      39.244  28.752  27.867  1.00  0.00     0.031 C 
ATOM     46  C   UNL A   1      37.603  32.771  33.231  1.00  0.00     0.029 A 
ATOM     47  C   UNL A   1      38.750  31.887  33.430  1.00  0.00     0.049 A 
ATOM     48  H   UNL A   1      39.560  30.548  32.055  1.00  0.00     0.167 HD
ATOM     49  C   UNL A   1      41.219  27.818  29.031  1.00  0.00     0.034 A 
ATOM     50  C   UNL A   1      39.487  31.794  34.556  1.00  0.00     0.034 A 
ATOM     51  C   UNL A   1      42.098  27.700  30.168  1.00  0.00     0.049 A 
ATOM     52  C   UNL A   1      40.667  30.851  34.585  1.00  0.00     0.074 A 
ATOM     53  C   UNL A   1      43.240  26.928  30.299  1.00  0.00     0.029 A 
ATOM     54  N   UNL A   1      41.931  28.366  31.375  1.00  0.00    -0.354 N 
ATOM     55  N   UNL A   1      41.123  30.062  33.637  1.00  0.00    -0.248 NA
ATOM     56  C   UNL A   1      41.442  30.801  35.831  1.00  0.00     0.031 C 
ATOM     57  C   UNL A   1      43.724  27.078  31.604  1.00  0.00     0.029 A 
ATOM     58  C   UNL A   1      42.931  28.003  32.265  1.00  0.00     0.049 A 
ATOM     59  H   UNL A   1      41.207  29.004  31.571  1.00  0.00     0.167 HD
ATOM     60  C   UNL A   1      42.254  29.445  34.167  1.00  0.00     0.074 A 
ATOM     61  C   UNL A   1      42.424  29.972  35.506  1.00  0.00     0.031 C 
ATOM     62  C   UNL A   1      43.080  28.526  33.603  1.00  0.00     0.034 A 
BRANCH  49  63
ATOM     63  C   UNL A   1      41.483  26.976  27.805  1.00  0.00     0.023 A 
ATOM     64  C   UNL A   1      41.103  25.624  27.738  1.00  0.00     0.031 A 
ATOM     65  C   UNL A   1      42.174  27.520  26.707  1.00  0.00     0.131 A 
ATOM     66  C   UNL A   1      41.490  24.840  26.640  1.00  0.00     0.055 A 
ATOM     67  C   UNL A   1      42.481  26.756  25.579  1.00  0.00     0.041 A 
ATOM     68  F   UNL A   1      42.583  28.797  26.721  1.00  0.00    -0.206 F 
ATOM     69  C   UNL A   1      42.154  25.404  25.548  1.00  0.00     0.022 A 
BRANCH  66  70
ATOM     70  S   UNL A   1      41.255  23.044  26.731  1.00  0.00     0.124 S 
ATOM     71  O   UNL A   1      41.751  22.749  28.073  1.00  0.00    -0.237 OA
ATOM     72  O   UNL A   1      39.818  22.902  26.534  1.00  0.00    -0.237 OA
ATOM     73  O   UNL A   1      42.087  22.534  25.641  1.00  0.00    -0.744 OA
ENDBRANCH  66  70
ENDBRANCH  49  63
BRANCH  50  74
ATOM     74  C   UNL A   1      39.132  32.593  35.766  1.00  0.00     0.023 A 
ATOM     75  C   UNL A   1      39.586  33.913  35.931  1.00  0.00     0.031 A 
ATOM     76  C   UNL A   1      38.391  32.018  36.814  1.00  0.00     0.131 A 
ATOM     77  C   UNL A   1      39.338  34.595  37.134  1.00  0.00     0.055 A 
ATOM     78  C   UNL A   1      38.102  32.719  37.987  1.00  0.00     0.041 A 
ATOM     79  F   UNL A   1      37.933  30.760  36.712  1.00  0.00    -0.206 F 
ATOM     80  C   UNL A   1      38.590  34.010  38.158  1.00  0.00     0.022 A 
BRANCH  77  81
ATOM     81  S   UNL A   1      40.086  36.230  37.380  1.00  0.00     0.124 S 
ATOM     82  O   UNL A   1      39.929  36.831  36.060  1.00  0.00    -0.237 OA
ATOM     83  O   UNL A   1      39.255  36.786  38.441  1.00  0.00    -0.237 OA
ATOM     84  O   UNL A   1      41.461  35.920  37.766  1.00  0.00    -0.744 OA
ENDBRANCH  77  81
ENDBRANCH  50  74
BRANCH  62  85
ATOM     85  C   UNL A   1      44.262  28.069  34.425  1.00  0.00     0.023 A 
ATOM     86  C   UNL A   1      44.179  26.962  35.290  1.00  0.00     0.031 A 
ATOM     87  C   UNL A   1      45.480  28.770  34.367  1.00  0.00     0.131 A 
ATOM     88  C   UNL A   1      45.269  26.633  36.112  1.00  0.00     0.055 A 
ATOM     89  C   UNL A   1      46.582  28.397  35.137  1.00  0.00     0.041 A 
ATOM     90  F   UNL A   1      45.618  29.836  33.561  1.00  0.00    -0.206 F 
ATOM     91  C   UNL A   1      46.475  27.333  36.028  1.00  0.00     0.022 A 
BRANCH  88  92
ATOM     92  S   UNL A   1      45.048  25.353  37.377  1.00  0.00     0.124 S 
ATOM     93  O   UNL A   1      43.882  25.842  38.105  1.00  0.00    -0.237 OA
ATOM     94  O   UNL A   1      44.840  24.153  36.573  1.00  0.00    -0.237 OA
ATOM     95  O   UNL A   1      46.304  25.387  38.124  1.00  0.00    -0.744 OA
ENDBRANCH  88  92
ENDBRANCH  62  85
ENDBRANCH  36  37
ENDBRANCH  29  31
ENDBRANCH  28  29
ENDBRANCH  27  28
ENDBRANCH   1  27
TORSDOF 21
ENDMDL
