MODEL 1
REMARK VINA RESULT:     -11.5      0.000      0.000
REMARK SMILES Cc1cc(C[N@@H+]2C[C@H](C)[C@H](C(=O)OCCOCCOC(=O)c3ccc(-c4c5nc(c(-c6cc(S(=O)(=O)[O-])ccc6F)c6ccc([nH]6)c(-c6cc(S(=O)(=O)[O-])ccc6F)c6nc(c(-c7cc(S(=O)(=O)[O-])ccc7F)c7ccc4[nH]7)C=C6)C=C5)cc3)C2)ccc1Br
REMARK SMILES IDX 17 1 16 2 15 3 14 4 13 5 11 6 12 7 10 8 6 9 7 10 85 11 8 13
REMARK SMILES IDX 9 14 5 15 4 16 1 17 2 18 3 19 88 20 87 21 89 22 86 23 18 24
REMARK SMILES IDX 19 25 20 26 21 27 22 28 23 29 84 30 24 31 83 32 25 33 26 34
REMARK SMILES IDX 27 35 77 36 28 37 82 38 76 39 78 40 29 41 81 42 75 43 74 44
REMARK SMILES IDX 30 46 62 47 42 48 61 49 43 50 46 51 60 52 79 53 44 54 45 55
REMARK SMILES IDX 59 57 80 58 47 59 31 60 32 61 40 62 33 63 39 64 41 65 38 66
REMARK SMILES IDX 34 67 35 68 36 69 37 70 63 71 64 72 72 73 65 74 71 75 73 76
REMARK SMILES IDX 70 77 66 78 67 79 68 80 69 81 48 82 49 83 57 84 50 85 56 86
REMARK SMILES IDX 58 87 55 88 51 89 52 90 53 91 54 92
REMARK H PARENT 6 12 78 45 46 56
REMARK Flexibility Score: inf
ROOT
ATOM      1  C   UNL A   1      36.075  19.771  24.828  1.00  0.00     0.202 C 
ENDROOT
BRANCH   1   2
ATOM      2  O   UNL A   1      35.505  21.035  25.159  1.00  0.00    -0.374 OA
BRANCH   2   3
ATOM      3  C   UNL A   1      34.167  21.277  24.716  1.00  0.00     0.202 C 
BRANCH   3   4
ATOM      4  C   UNL A   1      33.058  20.688  25.590  1.00  0.00     0.261 C 
BRANCH   4   5
ATOM      5  O   UNL A   1      32.176  21.730  26.045  1.00  0.00    -0.463 OA
BRANCH   5   6
ATOM      6  C   UNL A   1      32.705  22.656  26.876  1.00  0.00     0.315 C 
ATOM      7  O   UNL A   1      33.466  22.412  27.805  1.00  0.00    -0.252 OA
BRANCH   6   8
ATOM      8  C   UNL A   1      32.261  24.062  26.548  1.00  0.00     0.162 C 
ATOM      9  N   UNL A   1      31.193  25.516  25.023  1.00  0.00    -0.330 N 
ATOM     10  C   UNL A   1      32.334  26.215  25.618  1.00  0.00     0.266 C 
ATOM     11  C   UNL A   1      31.226  24.106  25.435  1.00  0.00     0.278 C 
ATOM     12  H   UNL A   1      30.348  25.941  25.406  1.00  0.00     0.348 HD
ATOM     13  C   UNL A   1      33.283  25.128  26.134  1.00  0.00     0.061 C 
ATOM     14  C   UNL A   1      34.288  24.738  25.051  1.00  0.00     0.015 C 
BRANCH   9  15
ATOM     15  C   UNL A   1      30.931  25.763  23.602  1.00  0.00     0.299 C 
BRANCH  15  16
ATOM     16  C   UNL A   1      30.372  27.122  23.225  1.00  0.00     0.007 A 
ATOM     17  C   UNL A   1      26.986  28.891  23.174  1.00  0.00     0.045 C 
ATOM     18  C   UNL A   1      28.457  28.642  22.983  1.00  0.00    -0.036 A 
ATOM     19  C   UNL A   1      29.009  27.418  23.407  1.00  0.00     0.014 A 
ATOM     20  C   UNL A   1      29.296  29.574  22.359  1.00  0.00     0.020 A 
ATOM     21  C   UNL A   1      30.658  29.308  22.201  1.00  0.00     0.016 A 
ATOM     22  Br  UNL A   1      28.647  31.231  21.699  1.00  0.00    -0.051 Br
ATOM     23  C   UNL A   1      31.194  28.101  22.650  1.00  0.00     0.011 A 
ENDBRANCH  15  16
ENDBRANCH   9  15
ENDBRANCH   6   8
ENDBRANCH   5   6
ENDBRANCH   4   5
ENDBRANCH   3   4
ENDBRANCH   2   3
ENDBRANCH   1   2
BRANCH   1  24
ATOM     24  C   UNL A   1      37.598  19.623  24.999  1.00  0.00     0.261 C 
BRANCH  24  25
ATOM     25  O   UNL A   1      38.254  20.846  25.385  1.00  0.00    -0.460 OA
BRANCH  25  26
ATOM     26  C   UNL A   1      39.423  20.676  26.050  1.00  0.00     0.338 C 
ATOM     27  O   UNL A   1      40.112  19.665  26.056  1.00  0.00    -0.246 OA
BRANCH  26  28
ATOM     28  C   UNL A   1      39.883  21.960  26.624  1.00  0.00     0.060 A 
ATOM     29  C   UNL A   1      39.298  23.130  26.122  1.00  0.00     0.016 A 
ATOM     30  C   UNL A   1      40.898  22.039  27.580  1.00  0.00     0.016 A 
ATOM     31  C   UNL A   1      39.770  24.381  26.519  1.00  0.00     0.010 A 
ATOM     32  C   UNL A   1      41.374  23.298  27.972  1.00  0.00     0.010 A 
ATOM     33  C   UNL A   1      40.843  24.477  27.413  1.00  0.00    -0.014 A 
BRANCH  33  34
ATOM     34  C   UNL A   1      41.518  25.791  27.608  1.00  0.00     0.031 A 
ATOM     35  C   UNL A   1      40.812  26.858  28.406  1.00  0.00     0.074 A 
ATOM     36  C   UNL A   1      42.763  26.018  27.145  1.00  0.00     0.049 A 
ATOM     37  N   UNL A   1      41.196  28.076  28.696  1.00  0.00    -0.248 NA
ATOM     38  C   UNL A   1      39.490  26.503  28.942  1.00  0.00     0.031 C 
ATOM     39  C   UNL A   1      43.575  25.057  26.401  1.00  0.00     0.029 A 
ATOM     40  N   UNL A   1      43.564  27.131  27.240  1.00  0.00    -0.354 N 
ATOM     41  C   UNL A   1      40.160  28.634  29.439  1.00  0.00     0.074 A 
ATOM     42  C   UNL A   1      39.111  27.638  29.509  1.00  0.00     0.031 C 
ATOM     43  C   UNL A   1      44.763  25.619  26.114  1.00  0.00     0.029 A 
ATOM     44  C   UNL A   1      44.783  26.993  26.614  1.00  0.00     0.049 A 
ATOM     45  H   UNL A   1      43.293  27.949  27.713  1.00  0.00     0.167 HD
ATOM     46  C   UNL A   1      40.091  29.855  30.025  1.00  0.00     0.034 A 
ATOM     47  C   UNL A   1      45.787  27.878  26.444  1.00  0.00     0.034 A 
ATOM     48  C   UNL A   1      41.141  30.842  29.952  1.00  0.00     0.049 A 
ATOM     49  C   UNL A   1      45.654  29.266  27.032  1.00  0.00     0.074 A 
ATOM     50  C   UNL A   1      41.178  32.104  30.519  1.00  0.00     0.029 A 
ATOM     51  N   UNL A   1      42.336  30.685  29.261  1.00  0.00    -0.354 N 
ATOM     52  N   UNL A   1      44.669  29.778  27.734  1.00  0.00    -0.248 NA
ATOM     53  C   UNL A   1      46.774  30.192  26.809  1.00  0.00     0.031 C 
ATOM     54  C   UNL A   1      42.355  32.738  30.106  1.00  0.00     0.029 A 
ATOM     55  C   UNL A   1      43.100  31.839  29.361  1.00  0.00     0.049 A 
ATOM     56  H   UNL A   1      42.603  29.872  28.774  1.00  0.00     0.167 HD
ATOM     57  C   UNL A   1      45.073  31.070  28.071  1.00  0.00     0.074 A 
ATOM     58  C   UNL A   1      46.392  31.253  27.504  1.00  0.00     0.031 C 
ATOM     59  C   UNL A   1      44.415  32.016  28.790  1.00  0.00     0.034 A 
BRANCH  46  60
ATOM     60  C   UNL A   1      38.814  30.206  30.753  1.00  0.00     0.023 A 
ATOM     61  C   UNL A   1      37.785  30.939  30.137  1.00  0.00     0.031 A 
ATOM     62  C   UNL A   1      38.636  29.828  32.096  1.00  0.00     0.131 A 
ATOM     63  C   UNL A   1      36.664  31.337  30.882  1.00  0.00     0.055 A 
ATOM     64  C   UNL A   1      37.479  30.151  32.807  1.00  0.00     0.041 A 
ATOM     65  F   UNL A   1      39.594  29.149  32.748  1.00  0.00    -0.206 F 
ATOM     66  C   UNL A   1      36.491  30.925  32.204  1.00  0.00     0.022 A 
BRANCH  63  67
ATOM     67  S   UNL A   1      35.516  32.534  30.147  1.00  0.00     0.124 S 
ATOM     68  O   UNL A   1      34.380  32.453  31.061  1.00  0.00    -0.237 OA
ATOM     69  O   UNL A   1      36.283  33.773  30.187  1.00  0.00    -0.237 OA
ATOM     70  O   UNL A   1      35.270  31.995  28.810  1.00  0.00    -0.744 OA
ENDBRANCH  63  67
ENDBRANCH  46  60
BRANCH  47  71
ATOM     71  C   UNL A   1      47.001  27.509  25.655  1.00  0.00     0.023 A 
ATOM     72  C   UNL A   1      47.135  27.876  24.306  1.00  0.00     0.031 A 
ATOM     73  C   UNL A   1      48.016  26.718  26.224  1.00  0.00     0.131 A 
ATOM     74  C   UNL A   1      48.227  27.408  23.557  1.00  0.00     0.055 A 
ATOM     75  C   UNL A   1      49.131  26.306  25.492  1.00  0.00     0.041 A 
ATOM     76  F   UNL A   1      47.940  26.333  27.508  1.00  0.00    -0.206 F 
ATOM     77  C   UNL A   1      49.234  26.639  24.145  1.00  0.00     0.022 A 
BRANCH  74  78
ATOM     78  S   UNL A   1      48.262  27.732  21.772  1.00  0.00     0.124 S 
ATOM     79  O   UNL A   1      49.388  28.653  21.661  1.00  0.00    -0.237 OA
ATOM     80  O   UNL A   1      48.469  26.395  21.226  1.00  0.00    -0.237 OA
ATOM     81  O   UNL A   1      46.950  28.315  21.506  1.00  0.00    -0.744 OA
ENDBRANCH  74  78
ENDBRANCH  47  71
BRANCH  59  82
ATOM     82  C   UNL A   1      45.141  33.316  29.061  1.00  0.00     0.023 A 
ATOM     83  C   UNL A   1      44.995  34.442  28.232  1.00  0.00     0.031 A 
ATOM     84  C   UNL A   1      45.999  33.423  30.172  1.00  0.00     0.131 A 
ATOM     85  C   UNL A   1      45.741  35.603  28.492  1.00  0.00     0.055 A 
ATOM     86  C   UNL A   1      46.684  34.604  30.463  1.00  0.00     0.041 A 
ATOM     87  F   UNL A   1      46.182  32.381  30.998  1.00  0.00    -0.206 F 
ATOM     88  C   UNL A   1      46.568  35.698  29.613  1.00  0.00     0.022 A 
BRANCH  85  89
ATOM     89  S   UNL A   1      45.697  36.957  27.283  1.00  0.00     0.124 S 
ATOM     90  O   UNL A   1      46.242  36.316  26.091  1.00  0.00    -0.237 OA
ATOM     91  O   UNL A   1      44.276  37.288  27.237  1.00  0.00    -0.237 OA
ATOM     92  O   UNL A   1      46.552  37.980  27.884  1.00  0.00    -0.744 OA
ENDBRANCH  85  89
ENDBRANCH  59  82
ENDBRANCH  33  34
ENDBRANCH  26  28
ENDBRANCH  25  26
ENDBRANCH  24  25
ENDBRANCH   1  24
TORSDOF 19
ENDMDL
MODEL 2
REMARK VINA RESULT:     -11.4      5.192      8.620
REMARK SMILES Cc1cc(C[N@@H+]2C[C@H](C)[C@H](C(=O)OCCOCCOC(=O)c3ccc(-c4c5nc(c(-c6cc(S(=O)(=O)[O-])ccc6F)c6ccc([nH]6)c(-c6cc(S(=O)(=O)[O-])ccc6F)c6nc(c(-c7cc(S(=O)(=O)[O-])ccc7F)c7ccc4[nH]7)C=C6)C=C5)cc3)C2)ccc1Br
REMARK SMILES IDX 17 1 16 2 15 3 14 4 13 5 11 6 12 7 10 8 6 9 7 10 85 11 8 13
REMARK SMILES IDX 9 14 5 15 4 16 1 17 2 18 3 19 88 20 87 21 89 22 86 23 18 24
REMARK SMILES IDX 19 25 20 26 21 27 22 28 23 29 84 30 24 31 83 32 25 33 26 34
REMARK SMILES IDX 27 35 77 36 28 37 82 38 76 39 78 40 29 41 81 42 75 43 74 44
REMARK SMILES IDX 30 46 62 47 42 48 61 49 43 50 46 51 60 52 79 53 44 54 45 55
REMARK SMILES IDX 59 57 80 58 47 59 31 60 32 61 40 62 33 63 39 64 41 65 38 66
REMARK SMILES IDX 34 67 35 68 36 69 37 70 63 71 64 72 72 73 65 74 71 75 73 76
REMARK SMILES IDX 70 77 66 78 67 79 68 80 69 81 48 82 49 83 57 84 50 85 56 86
REMARK SMILES IDX 58 87 55 88 51 89 52 90 53 91 54 92
REMARK H PARENT 6 12 78 45 46 56
REMARK Flexibility Score: inf
ROOT
ATOM      1  C   UNL A   1      31.062  31.550  26.220  1.00  0.00     0.202 C 
ENDROOT
BRANCH   1   2
ATOM      2  O   UNL A   1      31.824  30.431  26.668  1.00  0.00    -0.374 OA
BRANCH   2   3
ATOM      3  C   UNL A   1      32.121  29.422  25.699  1.00  0.00     0.202 C 
BRANCH   3   4
ATOM      4  C   UNL A   1      31.416  29.567  24.349  1.00  0.00     0.261 C 
BRANCH   4   5
ATOM      5  O   UNL A   1      30.286  28.678  24.279  1.00  0.00    -0.463 OA
BRANCH   5   6
ATOM      6  C   UNL A   1      30.106  28.011  23.117  1.00  0.00     0.315 C 
ATOM      7  O   UNL A   1      29.994  28.538  22.016  1.00  0.00    -0.252 OA
BRANCH   6   8
ATOM      8  C   UNL A   1      30.053  26.513  23.301  1.00  0.00     0.162 C 
ATOM      9  N   UNL A   1      30.318  24.667  24.751  1.00  0.00    -0.330 N 
ATOM     10  C   UNL A   1      30.820  24.299  23.425  1.00  0.00     0.266 C 
ATOM     11  C   UNL A   1      30.006  26.103  24.764  1.00  0.00     0.278 C 
ATOM     12  H   UNL A   1      29.451  24.150  24.897  1.00  0.00     0.348 HD
ATOM     13  C   UNL A   1      31.145  25.614  22.708  1.00  0.00     0.061 C 
ATOM     14  C   UNL A   1      32.595  26.022  22.970  1.00  0.00     0.015 C 
BRANCH   9  15
ATOM     15  C   UNL A   1      31.065  24.162  25.907  1.00  0.00     0.299 C 
BRANCH  15  16
ATOM     16  C   UNL A   1      32.369  23.438  25.629  1.00  0.00     0.007 A 
ATOM     17  C   UNL A   1      33.519  19.938  24.617  1.00  0.00     0.045 C 
ATOM     18  C   UNL A   1      33.575  21.382  25.033  1.00  0.00    -0.036 A 
ATOM     19  C   UNL A   1      32.374  22.095  25.211  1.00  0.00     0.014 A 
ATOM     20  C   UNL A   1      34.786  22.038  25.289  1.00  0.00     0.020 A 
ATOM     21  C   UNL A   1      34.799  23.381  25.673  1.00  0.00     0.016 A 
ATOM     22  Br  UNL A   1      36.460  21.158  25.135  1.00  0.00    -0.051 Br
ATOM     23  C   UNL A   1      33.600  24.079  25.820  1.00  0.00     0.011 A 
ENDBRANCH  15  16
ENDBRANCH   9  15
ENDBRANCH   6   8
ENDBRANCH   5   6
ENDBRANCH   4   5
ENDBRANCH   3   4
ENDBRANCH   2   3
ENDBRANCH   1   2
BRANCH   1  24
ATOM     24  C   UNL A   1      31.588  32.949  26.595  1.00  0.00     0.261 C 
BRANCH  24  25
ATOM     25  O   UNL A   1      32.207  33.002  27.893  1.00  0.00    -0.460 OA
BRANCH  25  26
ATOM     26  C   UNL A   1      33.229  33.886  27.997  1.00  0.00     0.338 C 
ATOM     27  O   UNL A   1      33.130  35.105  28.035  1.00  0.00    -0.246 OA
BRANCH  26  28
ATOM     28  C   UNL A   1      34.500  33.179  28.272  1.00  0.00     0.060 A 
ATOM     29  C   UNL A   1      34.414  31.827  28.628  1.00  0.00     0.016 A 
ATOM     30  C   UNL A   1      35.740  33.819  28.245  1.00  0.00     0.016 A 
ATOM     31  C   UNL A   1      35.554  31.129  29.026  1.00  0.00     0.010 A 
ATOM     32  C   UNL A   1      36.883  33.115  28.651  1.00  0.00     0.010 A 
ATOM     33  C   UNL A   1      36.793  31.779  29.084  1.00  0.00    -0.014 A 
BRANCH  33  34
ATOM     34  C   UNL A   1      37.935  31.116  29.774  1.00  0.00     0.031 A 
ATOM     35  C   UNL A   1      38.215  31.466  31.214  1.00  0.00     0.074 A 
ATOM     36  C   UNL A   1      38.674  30.170  29.161  1.00  0.00     0.049 A 
ATOM     37  N   UNL A   1      39.156  31.027  32.012  1.00  0.00    -0.248 NA
ATOM     38  C   UNL A   1      37.314  32.449  31.833  1.00  0.00     0.031 C 
ATOM     39  C   UNL A   1      38.479  29.704  27.790  1.00  0.00     0.029 A 
ATOM     40  N   UNL A   1      39.735  29.427  29.620  1.00  0.00    -0.354 N 
ATOM     41  C   UNL A   1      38.966  31.689  33.222  1.00  0.00     0.074 A 
ATOM     42  C   UNL A   1      37.852  32.595  33.033  1.00  0.00     0.031 C 
ATOM     43  C   UNL A   1      39.386  28.748  27.520  1.00  0.00     0.029 A 
ATOM     44  C   UNL A   1      40.254  28.562  28.682  1.00  0.00     0.049 A 
ATOM     45  H   UNL A   1      40.090  29.504  30.533  1.00  0.00     0.167 HD
ATOM     46  C   UNL A   1      39.643  31.546  34.389  1.00  0.00     0.034 A 
ATOM     47  C   UNL A   1      41.318  27.734  28.745  1.00  0.00     0.034 A 
ATOM     48  C   UNL A   1      40.751  30.640  34.568  1.00  0.00     0.049 A 
ATOM     49  C   UNL A   1      42.114  27.654  30.030  1.00  0.00     0.074 A 
ATOM     50  C   UNL A   1      41.498  30.408  35.712  1.00  0.00     0.029 A 
ATOM     51  N   UNL A   1      41.282  29.822  33.579  1.00  0.00    -0.354 N 
ATOM     52  N   UNL A   1      41.920  28.283  31.167  1.00  0.00    -0.248 NA
ATOM     53  C   UNL A   1      43.268  26.743  30.040  1.00  0.00     0.031 C 
ATOM     54  C   UNL A   1      42.526  29.515  35.393  1.00  0.00     0.029 A 
ATOM     55  C   UNL A   1      42.365  29.112  34.077  1.00  0.00     0.049 A 
ATOM     56  H   UNL A   1      40.938  29.755  32.659  1.00  0.00     0.167 HD
ATOM     57  C   UNL A   1      42.903  27.810  32.036  1.00  0.00     0.074 A 
ATOM     58  C   UNL A   1      43.678  26.838  31.296  1.00  0.00     0.031 C 
ATOM     59  C   UNL A   1      43.137  28.145  33.332  1.00  0.00     0.034 A 
BRANCH  46  60
ATOM     60  C   UNL A   1      39.230  32.428  35.544  1.00  0.00     0.023 A 
ATOM     61  C   UNL A   1      39.658  33.764  35.649  1.00  0.00     0.031 A 
ATOM     62  C   UNL A   1      38.423  31.916  36.575  1.00  0.00     0.131 A 
ATOM     63  C   UNL A   1      39.341  34.513  36.792  1.00  0.00     0.055 A 
ATOM     64  C   UNL A   1      38.038  32.695  37.668  1.00  0.00     0.041 A 
ATOM     65  F   UNL A   1      38.004  30.640  36.546  1.00  0.00    -0.206 F 
ATOM     66  C   UNL A   1      38.512  33.998  37.789  1.00  0.00     0.022 A 
BRANCH  63  67
ATOM     67  S   UNL A   1      40.162  36.114  37.032  1.00  0.00     0.124 S 
ATOM     68  O   UNL A   1      41.516  35.700  37.391  1.00  0.00    -0.237 OA
ATOM     69  O   UNL A   1      40.010  36.745  35.727  1.00  0.00    -0.237 OA
ATOM     70  O   UNL A   1      39.399  36.730  38.116  1.00  0.00    -0.744 OA
ENDBRANCH  63  67
ENDBRANCH  46  60
BRANCH  47  71
ATOM     71  C   UNL A   1      41.731  26.934  27.554  1.00  0.00     0.023 A 
ATOM     72  C   UNL A   1      41.530  25.545  27.501  1.00  0.00     0.031 A 
ATOM     73  C   UNL A   1      42.403  27.541  26.476  1.00  0.00     0.131 A 
ATOM     74  C   UNL A   1      42.042  24.802  26.425  1.00  0.00     0.055 A 
ATOM     75  C   UNL A   1      42.856  26.806  25.379  1.00  0.00     0.041 A 
ATOM     76  F   UNL A   1      42.628  28.864  26.474  1.00  0.00    -0.206 F 
ATOM     77  C   UNL A   1      42.689  25.426  25.356  1.00  0.00     0.022 A 
BRANCH  74  78
ATOM     78  S   UNL A   1      41.941  22.991  26.489  1.00  0.00     0.124 S 
ATOM     79  O   UNL A   1      42.942  22.604  25.502  1.00  0.00    -0.237 OA
ATOM     80  O   UNL A   1      42.273  22.720  27.884  1.00  0.00    -0.237 OA
ATOM     81  O   UNL A   1      40.556  22.715  26.116  1.00  0.00    -0.744 OA
ENDBRANCH  74  78
ENDBRANCH  47  71
BRANCH  59  82
ATOM     82  C   UNL A   1      44.240  27.404  34.055  1.00  0.00     0.023 A 
ATOM     83  C   UNL A   1      44.048  26.125  34.606  1.00  0.00     0.031 A 
ATOM     84  C   UNL A   1      45.510  27.997  34.196  1.00  0.00     0.131 A 
ATOM     85  C   UNL A   1      45.086  25.508  35.323  1.00  0.00     0.055 A 
ATOM     86  C   UNL A   1      46.558  27.348  34.850  1.00  0.00     0.041 A 
ATOM     87  F   UNL A   1      45.754  29.217  33.694  1.00  0.00    -0.206 F 
ATOM     88  C   UNL A   1      46.345  26.102  35.430  1.00  0.00     0.022 A 
BRANCH  85  89
ATOM     89  S   UNL A   1      44.737  23.961  36.206  1.00  0.00     0.124 S 
ATOM     90  O   UNL A   1      45.946  23.186  35.949  1.00  0.00    -0.237 OA
ATOM     91  O   UNL A   1      44.553  24.420  37.580  1.00  0.00    -0.237 OA
ATOM     92  O   UNL A   1      43.528  23.460  35.554  1.00  0.00    -0.744 OA
ENDBRANCH  85  89
ENDBRANCH  59  82
ENDBRANCH  33  34
ENDBRANCH  26  28
ENDBRANCH  25  26
ENDBRANCH  24  25
ENDBRANCH   1  24
TORSDOF 19
ENDMDL
MODEL 3
REMARK VINA RESULT:     -11.2      1.552      7.725
REMARK SMILES Cc1cc(C[N@@H+]2C[C@H](C)[C@H](C(=O)OCCOCCOC(=O)c3ccc(-c4c5nc(c(-c6cc(S(=O)(=O)[O-])ccc6F)c6ccc([nH]6)c(-c6cc(S(=O)(=O)[O-])ccc6F)c6nc(c(-c7cc(S(=O)(=O)[O-])ccc7F)c7ccc4[nH]7)C=C6)C=C5)cc3)C2)ccc1Br
REMARK SMILES IDX 17 1 16 2 15 3 14 4 13 5 11 6 12 7 10 8 6 9 7 10 85 11 8 13
REMARK SMILES IDX 9 14 5 15 4 16 1 17 2 18 3 19 88 20 87 21 89 22 86 23 18 24
REMARK SMILES IDX 19 25 20 26 21 27 22 28 23 29 84 30 24 31 83 32 25 33 26 34
REMARK SMILES IDX 27 35 77 36 28 37 82 38 76 39 78 40 29 41 81 42 75 43 74 44
REMARK SMILES IDX 30 46 62 47 42 48 61 49 43 50 46 51 60 52 79 53 44 54 45 55
REMARK SMILES IDX 59 57 80 58 47 59 31 60 32 61 40 62 33 63 39 64 41 65 38 66
REMARK SMILES IDX 34 67 35 68 36 69 37 70 63 71 64 72 72 73 65 74 71 75 73 76
REMARK SMILES IDX 70 77 66 78 67 79 68 80 69 81 48 82 49 83 57 84 50 85 56 86
REMARK SMILES IDX 58 87 55 88 51 89 52 90 53 91 54 92
REMARK H PARENT 6 12 78 45 46 56
REMARK Flexibility Score: inf
ROOT
ATOM      1  C   UNL A   1      36.673  20.336  24.991  1.00  0.00     0.202 C 
ENDROOT
BRANCH   1   2
ATOM      2  O   UNL A   1      36.183  21.555  25.544  1.00  0.00    -0.374 OA
BRANCH   2   3
ATOM      3  C   UNL A   1      35.117  21.453  26.492  1.00  0.00     0.202 C 
BRANCH   3   4
ATOM      4  C   UNL A   1      33.709  21.351  25.904  1.00  0.00     0.261 C 
BRANCH   4   5
ATOM      5  O   UNL A   1      33.731  21.666  24.500  1.00  0.00    -0.463 OA
BRANCH   5   6
ATOM      6  C   UNL A   1      32.616  21.374  23.793  1.00  0.00     0.315 C 
ATOM      7  O   UNL A   1      32.091  20.268  23.738  1.00  0.00    -0.252 OA
BRANCH   6   8
ATOM      8  C   UNL A   1      32.059  22.567  23.054  1.00  0.00     0.162 C 
ATOM      9  N   UNL A   1      32.455  24.696  22.110  1.00  0.00    -0.330 N 
ATOM     10  C   UNL A   1      31.127  24.696  22.728  1.00  0.00     0.266 C 
ATOM     11  C   UNL A   1      33.145  23.447  22.457  1.00  0.00     0.278 C 
ATOM     12  H   UNL A   1      32.314  24.714  21.099  1.00  0.00     0.348 HD
ATOM     13  C   UNL A   1      31.134  23.564  23.762  1.00  0.00     0.061 C 
ATOM     14  C   UNL A   1      31.595  24.087  25.123  1.00  0.00     0.015 C 
BRANCH   9  15
ATOM     15  C   UNL A   1      33.246  25.924  22.238  1.00  0.00     0.299 C 
BRANCH  15  16
ATOM     16  C   UNL A   1      32.909  26.849  23.391  1.00  0.00     0.007 A 
ATOM     17  C   UNL A   1      30.481  29.705  24.134  1.00  0.00     0.045 C 
ATOM     18  C   UNL A   1      31.593  28.708  24.314  1.00  0.00    -0.036 A 
ATOM     19  C   UNL A   1      31.862  27.783  23.287  1.00  0.00     0.014 A 
ATOM     20  C   UNL A   1      32.402  28.691  25.458  1.00  0.00     0.020 A 
ATOM     21  C   UNL A   1      33.424  27.750  25.591  1.00  0.00     0.016 A 
ATOM     22  Br  UNL A   1      32.164  29.928  26.878  1.00  0.00    -0.051 Br
ATOM     23  C   UNL A   1      33.661  26.823  24.575  1.00  0.00     0.011 A 
ENDBRANCH  15  16
ENDBRANCH   9  15
ENDBRANCH   6   8
ENDBRANCH   5   6
ENDBRANCH   4   5
ENDBRANCH   3   4
ENDBRANCH   2   3
ENDBRANCH   1   2
BRANCH   1  24
ATOM     24  C   UNL A   1      38.192  20.093  25.067  1.00  0.00     0.261 C 
BRANCH  24  25
ATOM     25  O   UNL A   1      38.947  21.276  25.384  1.00  0.00    -0.460 OA
BRANCH  25  26
ATOM     26  C   UNL A   1      39.858  21.118  26.376  1.00  0.00     0.338 C 
ATOM     27  O   UNL A   1      40.496  20.103  26.616  1.00  0.00    -0.246 OA
BRANCH  26  28
ATOM     28  C   UNL A   1      40.146  22.415  27.027  1.00  0.00     0.060 A 
ATOM     29  C   UNL A   1      39.362  23.511  26.643  1.00  0.00     0.016 A 
ATOM     30  C   UNL A   1      41.186  22.586  27.943  1.00  0.00     0.016 A 
ATOM     31  C   UNL A   1      39.656  24.789  27.115  1.00  0.00     0.010 A 
ATOM     32  C   UNL A   1      41.483  23.874  28.411  1.00  0.00     0.010 A 
ATOM     33  C   UNL A   1      40.748  24.990  27.968  1.00  0.00    -0.014 A 
BRANCH  33  34
ATOM     34  C   UNL A   1      41.222  26.377  28.235  1.00  0.00     0.031 A 
ATOM     35  C   UNL A   1      42.614  26.763  27.803  1.00  0.00     0.074 A 
ATOM     36  C   UNL A   1      40.416  27.303  28.790  1.00  0.00     0.049 A 
ATOM     37  N   UNL A   1      43.246  27.903  27.938  1.00  0.00    -0.248 NA
ATOM     38  C   UNL A   1      43.403  25.717  27.134  1.00  0.00     0.031 C 
ATOM     39  C   UNL A   1      39.034  27.075  29.209  1.00  0.00     0.029 A 
ATOM     40  N   UNL A   1      40.643  28.625  29.090  1.00  0.00    -0.354 N 
ATOM     41  C   UNL A   1      44.506  27.707  27.381  1.00  0.00     0.074 A 
ATOM     42  C   UNL A   1      44.565  26.325  26.954  1.00  0.00     0.031 C 
ATOM     43  C   UNL A   1      38.534  28.221  29.706  1.00  0.00     0.029 A 
ATOM     44  C   UNL A   1      39.569  29.253  29.680  1.00  0.00     0.049 A 
ATOM     45  H   UNL A   1      41.493  29.080  28.899  1.00  0.00     0.167 HD
ATOM     46  C   UNL A   1      45.517  28.598  27.221  1.00  0.00     0.034 A 
ATOM     47  C   UNL A   1      39.444  30.507  30.164  1.00  0.00     0.034 A 
ATOM     48  C   UNL A   1      45.449  29.974  27.648  1.00  0.00     0.049 A 
ATOM     49  C   UNL A   1      40.614  31.460  30.055  1.00  0.00     0.074 A 
ATOM     50  C   UNL A   1      46.410  30.963  27.524  1.00  0.00     0.029 A 
ATOM     51  N   UNL A   1      44.365  30.558  28.292  1.00  0.00    -0.354 N 
ATOM     52  N   UNL A   1      41.799  31.261  29.522  1.00  0.00    -0.248 NA
ATOM     53  C   UNL A   1      40.425  32.810  30.606  1.00  0.00     0.031 C 
ATOM     54  C   UNL A   1      45.941  32.116  28.161  1.00  0.00     0.029 A 
ATOM     55  C   UNL A   1      44.648  31.880  28.600  1.00  0.00     0.049 A 
ATOM     56  H   UNL A   1      43.518  30.099  28.498  1.00  0.00     0.167 HD
ATOM     57  C   UNL A   1      42.476  32.475  29.639  1.00  0.00     0.074 A 
ATOM     58  C   UNL A   1      41.566  33.399  30.280  1.00  0.00     0.031 C 
ATOM     59  C   UNL A   1      43.736  32.797  29.243  1.00  0.00     0.034 A 
BRANCH  46  60
ATOM     60  C   UNL A   1      46.799  28.091  26.602  1.00  0.00     0.023 A 
ATOM     61  C   UNL A   1      47.042  28.178  25.220  1.00  0.00     0.031 A 
ATOM     62  C   UNL A   1      47.781  27.482  27.404  1.00  0.00     0.131 A 
ATOM     63  C   UNL A   1      48.197  27.598  24.674  1.00  0.00     0.055 A 
ATOM     64  C   UNL A   1      48.969  26.985  26.865  1.00  0.00     0.041 A 
ATOM     65  F   UNL A   1      47.596  27.346  28.727  1.00  0.00    -0.206 F 
ATOM     66  C   UNL A   1      49.175  27.027  25.489  1.00  0.00     0.022 A 
BRANCH  63  67
ATOM     67  S   UNL A   1      48.324  27.458  22.869  1.00  0.00     0.124 S 
ATOM     68  O   UNL A   1      48.290  26.010  22.683  1.00  0.00    -0.237 OA
ATOM     69  O   UNL A   1      47.150  28.191  22.413  1.00  0.00    -0.237 OA
ATOM     70  O   UNL A   1      49.609  28.087  22.568  1.00  0.00    -0.744 OA
ENDBRANCH  63  67
ENDBRANCH  46  60
BRANCH  47  71
ATOM     71  C   UNL A   1      38.181  30.941  30.832  1.00  0.00     0.023 A 
ATOM     72  C   UNL A   1      37.164  31.598  30.118  1.00  0.00     0.031 A 
ATOM     73  C   UNL A   1      38.003  30.771  32.217  1.00  0.00     0.131 A 
ATOM     74  C   UNL A   1      36.045  32.105  30.797  1.00  0.00     0.055 A 
ATOM     75  C   UNL A   1      36.859  31.223  32.878  1.00  0.00     0.041 A 
ATOM     76  F   UNL A   1      38.943  30.155  32.953  1.00  0.00    -0.206 F 
ATOM     77  C   UNL A   1      35.879  31.909  32.169  1.00  0.00     0.022 A 
BRANCH  74  78
ATOM     78  S   UNL A   1      34.854  33.121  29.877  1.00  0.00     0.124 S 
ATOM     79  O   UNL A   1      34.229  32.129  29.009  1.00  0.00    -0.237 OA
ATOM     80  O   UNL A   1      34.021  33.654  30.950  1.00  0.00    -0.237 OA
ATOM     81  O   UNL A   1      35.697  34.102  29.199  1.00  0.00    -0.744 OA
ENDBRANCH  74  78
ENDBRANCH  47  71
BRANCH  59  82
ATOM     82  C   UNL A   1      44.181  34.230  29.435  1.00  0.00     0.023 A 
ATOM     83  C   UNL A   1      43.777  35.262  28.570  1.00  0.00     0.031 A 
ATOM     84  C   UNL A   1      45.033  34.565  30.505  1.00  0.00     0.131 A 
ATOM     85  C   UNL A   1      44.271  36.564  28.754  1.00  0.00     0.055 A 
ATOM     86  C   UNL A   1      45.464  35.874  30.723  1.00  0.00     0.041 A 
ATOM     87  F   UNL A   1      45.455  33.623  31.363  1.00  0.00    -0.206 F 
ATOM     88  C   UNL A   1      45.095  36.880  29.837  1.00  0.00     0.022 A 
BRANCH  85  89
ATOM     89  S   UNL A   1      43.906  37.821  27.497  1.00  0.00     0.124 S 
ATOM     90  O   UNL A   1      45.236  38.127  26.980  1.00  0.00    -0.237 OA
ATOM     91  O   UNL A   1      43.017  37.106  26.587  1.00  0.00    -0.237 OA
ATOM     92  O   UNL A   1      43.275  38.896  28.261  1.00  0.00    -0.744 OA
ENDBRANCH  85  89
ENDBRANCH  59  82
ENDBRANCH  33  34
ENDBRANCH  26  28
ENDBRANCH  25  26
ENDBRANCH  24  25
ENDBRANCH   1  24
TORSDOF 19
ENDMDL
