MODEL 1
REMARK VINA RESULT:     -11.1      0.000      0.000
REMARK SMILES CC(C)[C@@H](NC(=O)/C(=C\c1ccccc1F)NC(=O)c1ccccc1)C(=O)OCCOCCOC(=O)c1ccc(-c2c3nc(c(-c4cc(S(=O)(=O)[O-])ccc4F)c4ccc([nH]4)c(-c4cc(S(=O)(=O)[O-])ccc4F)c4nc(c(-c5cc(S(=O)(=O)[O-])ccc5F)c5ccc2[nH]5)C=C4)C=C3)cc1
REMARK SMILES IDX 30 1 29 2 28 3 26 4 27 5 4 6 2 7 1 8 3 9 5 10 6 11 7 13 8 14
REMARK SMILES IDX 9 15 17 16 18 17 19 19 20 20 21 21 25 22 22 23 24 24 23 25
REMARK SMILES IDX 10 26 11 27 15 28 12 29 14 30 16 31 13 32 31 33 32 34 33 35
REMARK SMILES IDX 34 36 35 37 36 38 37 39 38 40 99 41 39 42 98 43 40 44 41 45
REMARK SMILES IDX 42 46 92 47 43 48 97 49 91 50 93 51 44 52 96 53 90 54 89 55
REMARK SMILES IDX 45 57 77 58 57 59 76 60 58 61 61 62 75 63 94 64 59 65 60 66
REMARK SMILES IDX 74 68 95 69 62 70 46 71 47 72 55 73 48 74 54 75 56 76 53 77
REMARK SMILES IDX 49 78 50 79 51 80 52 81 78 82 79 83 87 84 80 85 86 86 88 87
REMARK SMILES IDX 85 88 81 89 82 90 83 91 84 92 63 93 64 94 72 95 65 96 71 97
REMARK SMILES IDX 73 98 70 99 66 100 67 101 68 102 69 103
REMARK H PARENT 5 12 17 18 93 56 61 67
REMARK Flexibility Score: inf
ROOT
ATOM      1  C   UNL A   1      37.090  22.492  24.886  1.00  0.00     0.202 C 
ENDROOT
BRANCH   1   2
ATOM      2  C   UNL A   1      36.790  23.641  25.868  1.00  0.00     0.261 C 
BRANCH   2   3
ATOM      3  O   UNL A   1      35.845  24.679  25.481  1.00  0.00    -0.462 OA
BRANCH   3   4
ATOM      4  C   UNL A   1      34.795  24.281  24.732  1.00  0.00     0.328 C 
ATOM      5  O   UNL A   1      34.798  24.227  23.512  1.00  0.00    -0.250 OA
BRANCH   4   6
ATOM      6  C   UNL A   1      33.495  23.992  25.475  1.00  0.00     0.195 C 
BRANCH   6   7
ATOM      7  C   UNL A   1      33.468  22.619  26.185  1.00  0.00     0.017 C 
ATOM      8  C   UNL A   1      32.532  22.657  27.408  1.00  0.00     0.010 C 
ATOM      9  C   UNL A   1      32.958  21.521  25.239  1.00  0.00     0.010 C 
ENDBRANCH   6   7
BRANCH   6  10
ATOM     10  N   UNL A   1      33.044  25.103  26.319  1.00  0.00    -0.337 N 
ATOM     11  C   UNL A   1      32.299  26.185  25.919  1.00  0.00     0.268 C 
ATOM     12  H   UNL A   1      33.302  25.071  27.269  1.00  0.00     0.164 HD
ATOM     13  O   UNL A   1      31.436  26.634  26.669  1.00  0.00    -0.268 OA
BRANCH  11  14
ATOM     14  C   UNL A   1      32.666  26.895  24.649  1.00  0.00     0.107 C 
ATOM     15  C   UNL A   1      33.234  28.122  24.664  1.00  0.00     0.043 C 
BRANCH  14  16
ATOM     16  N   UNL A   1      32.346  26.325  23.426  1.00  0.00    -0.317 N 
ATOM     17  C   UNL A   1      31.467  26.678  22.421  1.00  0.00     0.255 C 
ATOM     18  H   UNL A   1      32.847  25.500  23.235  1.00  0.00     0.170 HD
ATOM     19  O   UNL A   1      31.510  26.090  21.343  1.00  0.00    -0.269 OA
BRANCH  17  20
ATOM     20  C   UNL A   1      30.416  27.682  22.625  1.00  0.00     0.040 A 
ATOM     21  C   UNL A   1      30.661  28.996  22.218  1.00  0.00     0.014 A 
ATOM     22  C   UNL A   1      29.215  27.340  23.254  1.00  0.00     0.014 A 
ATOM     23  C   UNL A   1      29.664  29.959  22.371  1.00  0.00     0.001 A 
ATOM     24  C   UNL A   1      28.213  28.304  23.381  1.00  0.00     0.001 A 
ATOM     25  C   UNL A   1      28.435  29.607  22.932  1.00  0.00     0.000 A 
ENDBRANCH  17  20
ENDBRANCH  14  16
BRANCH  15  26
ATOM     26  C   UNL A   1      33.463  28.972  25.846  1.00  0.00     0.012 A 
ATOM     27  C   UNL A   1      34.595  28.722  26.638  1.00  0.00     0.011 A 
ATOM     28  C   UNL A   1      32.663  30.064  26.175  1.00  0.00     0.130 A 
ATOM     29  C   UNL A   1      35.011  29.635  27.609  1.00  0.00     0.001 A 
ATOM     30  C   UNL A   1      33.051  30.963  27.167  1.00  0.00     0.040 A 
ATOM     31  F   UNL A   1      31.505  30.277  25.536  1.00  0.00    -0.206 F 
ATOM     32  C   UNL A   1      34.246  30.770  27.859  1.00  0.00     0.003 A 
ENDBRANCH  15  26
ENDBRANCH  11  14
ENDBRANCH   6  10
ENDBRANCH   4   6
ENDBRANCH   3   4
ENDBRANCH   2   3
ENDBRANCH   1   2
BRANCH   1  33
ATOM     33  O   UNL A   1      36.943  21.188  25.438  1.00  0.00    -0.374 OA
BRANCH  33  34
ATOM     34  C   UNL A   1      37.730  20.146  24.844  1.00  0.00     0.202 C 
BRANCH  34  35
ATOM     35  C   UNL A   1      39.042  19.774  25.578  1.00  0.00     0.261 C 
BRANCH  35  36
ATOM     36  O   UNL A   1      39.969  20.868  25.664  1.00  0.00    -0.460 OA
BRANCH  36  37
ATOM     37  C   UNL A   1      40.895  20.733  26.646  1.00  0.00     0.338 C 
ATOM     38  O   UNL A   1      41.574  19.744  26.869  1.00  0.00    -0.246 OA
BRANCH  37  39
ATOM     39  C   UNL A   1      41.183  22.085  27.167  1.00  0.00     0.060 A 
ATOM     40  C   UNL A   1      40.584  23.164  26.504  1.00  0.00     0.016 A 
ATOM     41  C   UNL A   1      41.914  22.285  28.344  1.00  0.00     0.016 A 
ATOM     42  C   UNL A   1      40.755  24.455  26.990  1.00  0.00     0.010 A 
ATOM     43  C   UNL A   1      42.107  23.585  28.818  1.00  0.00     0.010 A 
ATOM     44  C   UNL A   1      41.562  24.673  28.116  1.00  0.00    -0.014 A 
BRANCH  44  45
ATOM     45  C   UNL A   1      42.060  26.047  28.345  1.00  0.00     0.031 A 
ATOM     46  C   UNL A   1      43.387  26.397  27.727  1.00  0.00     0.074 A 
ATOM     47  C   UNL A   1      41.316  26.974  28.972  1.00  0.00     0.049 A 
ATOM     48  N   UNL A   1      43.998  27.548  27.666  1.00  0.00    -0.248 NA
ATOM     49  C   UNL A   1      44.111  25.294  27.068  1.00  0.00     0.031 C 
ATOM     50  C   UNL A   1      39.990  26.749  29.546  1.00  0.00     0.029 A 
ATOM     51  N   UNL A   1      41.560  28.304  29.198  1.00  0.00    -0.354 N 
ATOM     52  C   UNL A   1      45.156  27.316  26.933  1.00  0.00     0.074 A 
ATOM     53  C   UNL A   1      45.190  25.907  26.614  1.00  0.00     0.031 C 
ATOM     54  C   UNL A   1      39.527  27.912  30.040  1.00  0.00     0.029 A 
ATOM     55  C   UNL A   1      40.530  28.956  29.834  1.00  0.00     0.049 A 
ATOM     56  H   UNL A   1      42.396  28.751  28.931  1.00  0.00     0.167 HD
ATOM     57  C   UNL A   1      46.100  28.203  26.544  1.00  0.00     0.034 A 
ATOM     58  C   UNL A   1      40.417  30.249  30.199  1.00  0.00     0.034 A 
ATOM     59  C   UNL A   1      46.072  29.593  26.904  1.00  0.00     0.049 A 
ATOM     60  C   UNL A   1      41.545  31.196  29.871  1.00  0.00     0.074 A 
ATOM     61  C   UNL A   1      46.994  30.580  26.610  1.00  0.00     0.029 A 
ATOM     62  N   UNL A   1      45.068  30.189  27.656  1.00  0.00    -0.354 N 
ATOM     63  N   UNL A   1      42.653  30.958  29.206  1.00  0.00    -0.248 NA
ATOM     64  C   UNL A   1      41.415  32.581  30.347  1.00  0.00     0.031 C 
ATOM     65  C   UNL A   1      46.576  31.760  27.233  1.00  0.00     0.029 A 
ATOM     66  C   UNL A   1      45.363  31.524  27.863  1.00  0.00     0.049 A 
ATOM     67  H   UNL A   1      44.265  29.729  27.991  1.00  0.00     0.167 HD
ATOM     68  C   UNL A   1      43.343  32.165  29.169  1.00  0.00     0.074 A 
ATOM     69  C   UNL A   1      42.528  33.132  29.878  1.00  0.00     0.031 C 
ATOM     70  C   UNL A   1      44.538  32.454  28.594  1.00  0.00     0.034 A 
BRANCH  57  71
ATOM     71  C   UNL A   1      47.250  27.669  25.735  1.00  0.00     0.023 A 
ATOM     72  C   UNL A   1      47.370  27.944  24.361  1.00  0.00     0.031 A 
ATOM     73  C   UNL A   1      48.211  26.838  26.334  1.00  0.00     0.131 A 
ATOM     74  C   UNL A   1      48.401  27.352  23.621  1.00  0.00     0.055 A 
ATOM     75  C   UNL A   1      49.272  26.302  25.603  1.00  0.00     0.041 A 
ATOM     76  F   UNL A   1      48.122  26.519  27.635  1.00  0.00    -0.206 F 
ATOM     77  C   UNL A   1      49.367  26.550  24.236  1.00  0.00     0.022 A 
BRANCH  74  78
ATOM     78  S   UNL A   1      48.413  27.560  21.819  1.00  0.00     0.124 S 
ATOM     79  O   UNL A   1      48.620  26.188  21.366  1.00  0.00    -0.237 OA
ATOM     80  O   UNL A   1      47.095  28.128  21.555  1.00  0.00    -0.237 OA
ATOM     81  O   UNL A   1      49.538  28.464  21.586  1.00  0.00    -0.744 OA
ENDBRANCH  74  78
ENDBRANCH  57  71
BRANCH  58  82
ATOM     82  C   UNL A   1      39.205  30.718  30.930  1.00  0.00     0.023 A 
ATOM     83  C   UNL A   1      39.228  30.946  32.315  1.00  0.00     0.031 A 
ATOM     84  C   UNL A   1      38.000  30.946  30.241  1.00  0.00     0.131 A 
ATOM     85  C   UNL A   1      38.063  31.381  32.970  1.00  0.00     0.055 A 
ATOM     86  C   UNL A   1      36.854  31.408  30.891  1.00  0.00     0.041 A 
ATOM     87  F   UNL A   1      37.927  30.741  28.917  1.00  0.00    -0.206 F 
ATOM     88  C   UNL A   1      36.881  31.625  32.266  1.00  0.00     0.022 A 
BRANCH  85  89
ATOM     89  S   UNL A   1      38.103  31.612  34.769  1.00  0.00     0.124 S 
ATOM     90  O   UNL A   1      38.168  30.234  35.244  1.00  0.00    -0.237 OA
ATOM     91  O   UNL A   1      39.312  32.410  34.949  1.00  0.00    -0.237 OA
ATOM     92  O   UNL A   1      36.852  32.311  35.052  1.00  0.00    -0.744 OA
ENDBRANCH  85  89
ENDBRANCH  58  82
BRANCH  70  93
ATOM     93  C   UNL A   1      45.034  33.869  28.697  1.00  0.00     0.023 A 
ATOM     94  C   UNL A   1      45.899  34.262  29.730  1.00  0.00     0.031 A 
ATOM     95  C   UNL A   1      44.705  34.807  27.703  1.00  0.00     0.131 A 
ATOM     96  C   UNL A   1      46.397  35.572  29.755  1.00  0.00     0.055 A 
ATOM     97  C   UNL A   1      45.234  36.096  27.712  1.00  0.00     0.041 A 
ATOM     98  F   UNL A   1      43.890  34.469  26.690  1.00  0.00    -0.206 F 
ATOM     99  C   UNL A   1      46.085  36.486  28.744  1.00  0.00     0.022 A 
BRANCH  96 100
ATOM    100  S   UNL A   1      47.463  36.075  31.133  1.00  0.00     0.124 S 
ATOM    101  O   UNL A   1      48.497  36.844  30.449  1.00  0.00    -0.237 OA
ATOM    102  O   UNL A   1      46.553  36.841  31.977  1.00  0.00    -0.237 OA
ATOM    103  O   UNL A   1      47.910  34.804  31.702  1.00  0.00    -0.744 OA
ENDBRANCH  96 100
ENDBRANCH  70  93
ENDBRANCH  44  45
ENDBRANCH  37  39
ENDBRANCH  36  37
ENDBRANCH  35  36
ENDBRANCH  34  35
ENDBRANCH  33  34
ENDBRANCH   1  33
TORSDOF 23
ENDMDL
MODEL 2
REMARK VINA RESULT:     -11.0      4.396     10.211
REMARK SMILES CC(C)[C@@H](NC(=O)/C(=C\c1ccccc1F)NC(=O)c1ccccc1)C(=O)OCCOCCOC(=O)c1ccc(-c2c3nc(c(-c4cc(S(=O)(=O)[O-])ccc4F)c4ccc([nH]4)c(-c4cc(S(=O)(=O)[O-])ccc4F)c4nc(c(-c5cc(S(=O)(=O)[O-])ccc5F)c5ccc2[nH]5)C=C4)C=C3)cc1
REMARK SMILES IDX 30 1 29 2 28 3 26 4 27 5 4 6 2 7 1 8 3 9 5 10 6 11 7 13 8 14
REMARK SMILES IDX 9 15 17 16 18 17 19 19 20 20 21 21 25 22 22 23 24 24 23 25
REMARK SMILES IDX 10 26 11 27 15 28 12 29 14 30 16 31 13 32 31 33 32 34 33 35
REMARK SMILES IDX 34 36 35 37 36 38 37 39 38 40 99 41 39 42 98 43 40 44 41 45
REMARK SMILES IDX 42 46 92 47 43 48 97 49 91 50 93 51 44 52 96 53 90 54 89 55
REMARK SMILES IDX 45 57 77 58 57 59 76 60 58 61 61 62 75 63 94 64 59 65 60 66
REMARK SMILES IDX 74 68 95 69 62 70 46 71 47 72 55 73 48 74 54 75 56 76 53 77
REMARK SMILES IDX 49 78 50 79 51 80 52 81 78 82 79 83 87 84 80 85 86 86 88 87
REMARK SMILES IDX 85 88 81 89 82 90 83 91 84 92 63 93 64 94 72 95 65 96 71 97
REMARK SMILES IDX 73 98 70 99 66 100 67 101 68 102 69 103
REMARK H PARENT 5 12 17 18 93 56 61 67
REMARK Flexibility Score: inf
ROOT
ATOM      1  C   UNL A   1      31.509  29.501  24.872  1.00  0.00     0.202 C 
ENDROOT
BRANCH   1   2
ATOM      2  C   UNL A   1      33.024  29.319  25.098  1.00  0.00     0.261 C 
BRANCH   2   3
ATOM      3  O   UNL A   1      33.720  28.242  24.410  1.00  0.00    -0.462 OA
BRANCH   3   4
ATOM      4  C   UNL A   1      33.441  26.989  24.826  1.00  0.00     0.328 C 
ATOM      5  O   UNL A   1      33.522  26.611  25.983  1.00  0.00    -0.250 OA
BRANCH   4   6
ATOM      6  C   UNL A   1      33.113  25.966  23.742  1.00  0.00     0.195 C 
BRANCH   6   7
ATOM      7  C   UNL A   1      32.424  26.568  22.496  1.00  0.00     0.017 C 
ATOM      8  C   UNL A   1      32.666  25.683  21.259  1.00  0.00     0.010 C 
ATOM      9  C   UNL A   1      30.905  26.675  22.706  1.00  0.00     0.010 C 
ENDBRANCH   6   7
BRANCH   6  10
ATOM     10  N   UNL A   1      34.231  25.071  23.425  1.00  0.00    -0.337 N 
ATOM     11  C   UNL A   1      34.289  23.720  23.659  1.00  0.00     0.268 C 
ATOM     12  H   UNL A   1      35.020  25.481  23.003  1.00  0.00     0.164 HD
ATOM     13  O   UNL A   1      34.830  22.987  22.835  1.00  0.00    -0.268 OA
BRANCH  11  14
ATOM     14  C   UNL A   1      33.840  23.189  24.989  1.00  0.00     0.107 C 
ATOM     15  C   UNL A   1      34.728  22.848  25.951  1.00  0.00     0.043 C 
BRANCH  14  16
ATOM     16  N   UNL A   1      32.491  22.961  25.218  1.00  0.00    -0.317 N 
ATOM     17  C   UNL A   1      31.718  21.817  25.243  1.00  0.00     0.255 C 
ATOM     18  H   UNL A   1      31.980  23.782  25.398  1.00  0.00     0.170 HD
ATOM     19  O   UNL A   1      30.562  21.874  25.657  1.00  0.00    -0.269 OA
BRANCH  17  20
ATOM     20  C   UNL A   1      32.203  20.539  24.708  1.00  0.00     0.040 A 
ATOM     21  C   UNL A   1      32.702  19.589  25.602  1.00  0.00     0.014 A 
ATOM     22  C   UNL A   1      32.206  20.298  23.331  1.00  0.00     0.014 A 
ATOM     23  C   UNL A   1      33.137  18.354  25.119  1.00  0.00     0.001 A 
ATOM     24  C   UNL A   1      32.620  19.051  22.857  1.00  0.00     0.001 A 
ATOM     25  C   UNL A   1      33.075  18.079  23.752  1.00  0.00     0.000 A 
ENDBRANCH  17  20
ENDBRANCH  14  16
BRANCH  15  26
ATOM     26  C   UNL A   1      36.196  22.824  25.825  1.00  0.00     0.012 A 
ATOM     27  C   UNL A   1      36.916  23.971  26.196  1.00  0.00     0.011 A 
ATOM     28  C   UNL A   1      36.916  21.696  25.437  1.00  0.00     0.130 A 
ATOM     29  C   UNL A   1      38.303  23.933  26.348  1.00  0.00     0.001 A 
ATOM     30  C   UNL A   1      38.305  21.660  25.550  1.00  0.00     0.040 A 
ATOM     31  F   UNL A   1      36.285  20.619  24.953  1.00  0.00    -0.206 F 
ATOM     32  C   UNL A   1      38.997  22.766  26.044  1.00  0.00     0.003 A 
ENDBRANCH  15  26
ENDBRANCH  11  14
ENDBRANCH   6  10
ENDBRANCH   4   6
ENDBRANCH   3   4
ENDBRANCH   2   3
ENDBRANCH   1   2
BRANCH   1  33
ATOM     33  O   UNL A   1      31.030  30.821  25.109  1.00  0.00    -0.374 OA
BRANCH  33  34
ATOM     34  C   UNL A   1      30.975  31.249  26.477  1.00  0.00     0.202 C 
BRANCH  34  35
ATOM     35  C   UNL A   1      31.846  32.476  26.848  1.00  0.00     0.261 C 
BRANCH  35  36
ATOM     36  O   UNL A   1      33.188  32.122  27.219  1.00  0.00    -0.460 OA
BRANCH  36  37
ATOM     37  C   UNL A   1      33.808  33.045  27.998  1.00  0.00     0.338 C 
ATOM     38  O   UNL A   1      33.283  34.002  28.541  1.00  0.00    -0.246 OA
BRANCH  37  39
ATOM     39  C   UNL A   1      35.134  32.500  28.352  1.00  0.00     0.060 A 
ATOM     40  C   UNL A   1      35.232  31.111  28.509  1.00  0.00     0.016 A 
ATOM     41  C   UNL A   1      36.277  33.308  28.404  1.00  0.00     0.016 A 
ATOM     42  C   UNL A   1      36.467  30.530  28.768  1.00  0.00     0.010 A 
ATOM     43  C   UNL A   1      37.514  32.726  28.690  1.00  0.00     0.010 A 
ATOM     44  C   UNL A   1      37.601  31.342  28.913  1.00  0.00    -0.014 A 
BRANCH  44  45
ATOM     45  C   UNL A   1      38.778  30.758  29.593  1.00  0.00     0.031 A 
ATOM     46  C   UNL A   1      38.984  31.137  31.034  1.00  0.00     0.074 A 
ATOM     47  C   UNL A   1      39.559  29.843  28.994  1.00  0.00     0.049 A 
ATOM     48  N   UNL A   1      39.853  30.686  31.897  1.00  0.00    -0.248 NA
ATOM     49  C   UNL A   1      38.064  32.153  31.580  1.00  0.00     0.031 C 
ATOM     50  C   UNL A   1      39.400  29.361  27.622  1.00  0.00     0.029 A 
ATOM     51  N   UNL A   1      40.625  29.130  29.480  1.00  0.00    -0.354 N 
ATOM     52  C   UNL A   1      39.561  31.334  33.092  1.00  0.00     0.074 A 
ATOM     53  C   UNL A   1      38.471  32.246  32.833  1.00  0.00     0.031 C 
ATOM     54  C   UNL A   1      40.324  28.412  27.385  1.00  0.00     0.029 A 
ATOM     55  C   UNL A   1      41.149  28.233  28.578  1.00  0.00     0.049 A 
ATOM     56  H   UNL A   1      40.982  29.249  30.390  1.00  0.00     0.167 HD
ATOM     57  C   UNL A   1      40.139  31.169  34.303  1.00  0.00     0.034 A 
ATOM     58  C   UNL A   1      42.175  27.369  28.712  1.00  0.00     0.034 A 
ATOM     59  C   UNL A   1      41.249  30.287  34.535  1.00  0.00     0.049 A 
ATOM     60  C   UNL A   1      42.894  27.298  30.038  1.00  0.00     0.074 A 
ATOM     61  C   UNL A   1      41.950  30.070  35.706  1.00  0.00     0.029 A 
ATOM     62  N   UNL A   1      41.830  29.485  33.561  1.00  0.00    -0.354 N 
ATOM     63  N   UNL A   1      42.631  27.940  31.153  1.00  0.00    -0.248 NA
ATOM     64  C   UNL A   1      44.050  26.394  30.123  1.00  0.00     0.031 C 
ATOM     65  C   UNL A   1      42.991  29.179  35.426  1.00  0.00     0.029 A 
ATOM     66  C   UNL A   1      42.901  28.795  34.097  1.00  0.00     0.049 A 
ATOM     67  H   UNL A   1      41.524  29.418  32.628  1.00  0.00     0.167 HD
ATOM     68  C   UNL A   1      43.577  27.507  32.076  1.00  0.00     0.074 A 
ATOM     69  C   UNL A   1      44.418  26.547  31.389  1.00  0.00     0.031 C 
ATOM     70  C   UNL A   1      43.733  27.861  33.377  1.00  0.00     0.034 A 
BRANCH  57  71
ATOM     71  C   UNL A   1      39.603  32.001  35.437  1.00  0.00     0.023 A 
ATOM     72  C   UNL A   1      40.177  33.242  35.768  1.00  0.00     0.031 A 
ATOM     73  C   UNL A   1      38.540  31.527  36.222  1.00  0.00     0.131 A 
ATOM     74  C   UNL A   1      39.714  33.944  36.890  1.00  0.00     0.055 A 
ATOM     75  C   UNL A   1      38.042  32.262  37.299  1.00  0.00     0.041 A 
ATOM     76  F   UNL A   1      37.981  30.334  35.966  1.00  0.00    -0.206 F 
ATOM     77  C   UNL A   1      38.635  33.474  37.644  1.00  0.00     0.022 A 
BRANCH  74  78
ATOM     78  S   UNL A   1      40.602  35.437  37.412  1.00  0.00     0.124 S 
ATOM     79  O   UNL A   1      40.930  35.113  38.798  1.00  0.00    -0.237 OA
ATOM     80  O   UNL A   1      41.725  35.481  36.483  1.00  0.00    -0.237 OA
ATOM     81  O   UNL A   1      39.613  36.500  37.244  1.00  0.00    -0.744 OA
ENDBRANCH  74  78
ENDBRANCH  57  71
BRANCH  58  82
ATOM     82  C   UNL A   1      42.594  26.520  27.562  1.00  0.00     0.023 A 
ATOM     83  C   UNL A   1      42.462  25.122  27.597  1.00  0.00     0.031 A 
ATOM     84  C   UNL A   1      43.135  27.104  26.402  1.00  0.00     0.131 A 
ATOM     85  C   UNL A   1      42.876  24.354  26.495  1.00  0.00     0.055 A 
ATOM     86  C   UNL A   1      43.515  26.339  25.299  1.00  0.00     0.041 A 
ATOM     87  F   UNL A   1      43.283  28.436  26.320  1.00  0.00    -0.206 F 
ATOM     88  C   UNL A   1      43.390  24.954  25.342  1.00  0.00     0.022 A 
BRANCH  85  89
ATOM     89  S   UNL A   1      42.750  22.546  26.591  1.00  0.00     0.124 S 
ATOM     90  O   UNL A   1      42.248  22.213  25.262  1.00  0.00    -0.237 OA
ATOM     91  O   UNL A   1      44.128  22.157  26.873  1.00  0.00    -0.237 OA
ATOM     92  O   UNL A   1      41.809  22.327  27.686  1.00  0.00    -0.744 OA
ENDBRANCH  85  89
ENDBRANCH  58  82
BRANCH  70  93
ATOM     93  C   UNL A   1      44.845  27.206  34.147  1.00  0.00     0.023 A 
ATOM     94  C   UNL A   1      46.098  27.824  34.281  1.00  0.00     0.031 A 
ATOM     95  C   UNL A   1      44.617  25.994  34.822  1.00  0.00     0.131 A 
ATOM     96  C   UNL A   1      47.089  27.216  35.064  1.00  0.00     0.055 A 
ATOM     97  C   UNL A   1      45.594  25.414  35.630  1.00  0.00     0.041 A 
ATOM     98  F   UNL A   1      43.428  25.375  34.729  1.00  0.00    -0.206 F 
ATOM     99  C   UNL A   1      46.839  26.025  35.754  1.00  0.00     0.022 A 
BRANCH  96 100
ATOM    100  S   UNL A   1      48.719  28.001  35.172  1.00  0.00     0.124 S 
ATOM    101  O   UNL A   1      48.867  28.190  36.612  1.00  0.00    -0.237 OA
ATOM    102  O   UNL A   1      49.595  27.002  34.569  1.00  0.00    -0.237 OA
ATOM    103  O   UNL A   1      48.560  29.230  34.397  1.00  0.00    -0.744 OA
ENDBRANCH  96 100
ENDBRANCH  70  93
ENDBRANCH  44  45
ENDBRANCH  37  39
ENDBRANCH  36  37
ENDBRANCH  35  36
ENDBRANCH  34  35
ENDBRANCH  33  34
ENDBRANCH   1  33
TORSDOF 23
ENDMDL
MODEL 3
REMARK VINA RESULT:     -10.8      1.866      2.121
REMARK SMILES CC(C)[C@@H](NC(=O)/C(=C\c1ccccc1F)NC(=O)c1ccccc1)C(=O)OCCOCCOC(=O)c1ccc(-c2c3nc(c(-c4cc(S(=O)(=O)[O-])ccc4F)c4ccc([nH]4)c(-c4cc(S(=O)(=O)[O-])ccc4F)c4nc(c(-c5cc(S(=O)(=O)[O-])ccc5F)c5ccc2[nH]5)C=C4)C=C3)cc1
REMARK SMILES IDX 30 1 29 2 28 3 26 4 27 5 4 6 2 7 1 8 3 9 5 10 6 11 7 13 8 14
REMARK SMILES IDX 9 15 17 16 18 17 19 19 20 20 21 21 25 22 22 23 24 24 23 25
REMARK SMILES IDX 10 26 11 27 15 28 12 29 14 30 16 31 13 32 31 33 32 34 33 35
REMARK SMILES IDX 34 36 35 37 36 38 37 39 38 40 99 41 39 42 98 43 40 44 41 45
REMARK SMILES IDX 42 46 92 47 43 48 97 49 91 50 93 51 44 52 96 53 90 54 89 55
REMARK SMILES IDX 45 57 77 58 57 59 76 60 58 61 61 62 75 63 94 64 59 65 60 66
REMARK SMILES IDX 74 68 95 69 62 70 46 71 47 72 55 73 48 74 54 75 56 76 53 77
REMARK SMILES IDX 49 78 50 79 51 80 52 81 78 82 79 83 87 84 80 85 86 86 88 87
REMARK SMILES IDX 85 88 81 89 82 90 83 91 84 92 63 93 64 94 72 95 65 96 71 97
REMARK SMILES IDX 73 98 70 99 66 100 67 101 68 102 69 103
REMARK H PARENT 5 12 17 18 93 56 61 67
REMARK Flexibility Score: inf
ROOT
ATOM      1  C   UNL A   1      36.973  22.221  25.040  1.00  0.00     0.202 C 
ENDROOT
BRANCH   1   2
ATOM      2  C   UNL A   1      36.181  23.203  25.925  1.00  0.00     0.261 C 
BRANCH   2   3
ATOM      3  O   UNL A   1      35.640  24.417  25.332  1.00  0.00    -0.462 OA
BRANCH   3   4
ATOM      4  C   UNL A   1      34.618  24.255  24.466  1.00  0.00     0.328 C 
ATOM      5  O   UNL A   1      34.722  24.335  23.252  1.00  0.00    -0.250 OA
BRANCH   4   6
ATOM      6  C   UNL A   1      33.230  24.070  25.072  1.00  0.00     0.195 C 
BRANCH   6   7
ATOM      7  C   UNL A   1      32.975  22.655  25.642  1.00  0.00     0.017 C 
ATOM      8  C   UNL A   1      31.616  22.595  26.362  1.00  0.00     0.010 C 
ATOM      9  C   UNL A   1      32.958  21.605  24.520  1.00  0.00     0.010 C 
ENDBRANCH   6   7
BRANCH   6  10
ATOM     10  N   UNL A   1      32.840  25.152  25.980  1.00  0.00    -0.337 N 
ATOM     11  C   UNL A   1      32.142  26.287  25.649  1.00  0.00     0.268 C 
ATOM     12  H   UNL A   1      33.106  25.056  26.924  1.00  0.00     0.164 HD
ATOM     13  O   UNL A   1      31.308  26.734  26.433  1.00  0.00    -0.268 OA
BRANCH  11  14
ATOM     14  C   UNL A   1      32.529  27.049  24.415  1.00  0.00     0.107 C 
ATOM     15  C   UNL A   1      33.144  28.251  24.489  1.00  0.00     0.043 C 
BRANCH  14  16
ATOM     16  N   UNL A   1      32.180  26.556  23.166  1.00  0.00    -0.317 N 
ATOM     17  C   UNL A   1      31.274  26.966  22.209  1.00  0.00     0.255 C 
ATOM     18  H   UNL A   1      32.681  25.749  22.910  1.00  0.00     0.170 HD
ATOM     19  O   UNL A   1      31.292  26.449  21.094  1.00  0.00    -0.269 OA
BRANCH  17  20
ATOM     20  C   UNL A   1      30.223  27.947  22.504  1.00  0.00     0.040 A 
ATOM     21  C   UNL A   1      30.452  29.287  22.180  1.00  0.00     0.014 A 
ATOM     22  C   UNL A   1      29.039  27.556  23.135  1.00  0.00     0.014 A 
ATOM     23  C   UNL A   1      29.454  30.232  22.420  1.00  0.00     0.001 A 
ATOM     24  C   UNL A   1      28.035  28.502  23.350  1.00  0.00     0.001 A 
ATOM     25  C   UNL A   1      28.240  29.835  22.984  1.00  0.00     0.000 A 
ENDBRANCH  17  20
ENDBRANCH  14  16
BRANCH  15  26
ATOM     26  C   UNL A   1      33.411  29.029  25.713  1.00  0.00     0.012 A 
ATOM     27  C   UNL A   1      34.584  28.753  26.435  1.00  0.00     0.011 A 
ATOM     28  C   UNL A   1      32.606  30.080  26.148  1.00  0.00     0.130 A 
ATOM     29  C   UNL A   1      35.027  29.612  27.442  1.00  0.00     0.001 A 
ATOM     30  C   UNL A   1      33.023  30.922  27.177  1.00  0.00     0.040 A 
ATOM     31  F   UNL A   1      31.416  30.307  25.577  1.00  0.00    -0.206 F 
ATOM     32  C   UNL A   1      34.253  30.711  27.800  1.00  0.00     0.003 A 
ENDBRANCH  15  26
ENDBRANCH  11  14
ENDBRANCH   6  10
ENDBRANCH   4   6
ENDBRANCH   3   4
ENDBRANCH   2   3
ENDBRANCH   1   2
BRANCH   1  33
ATOM     33  O   UNL A   1      37.107  20.911  25.584  1.00  0.00    -0.374 OA
BRANCH  33  34
ATOM     34  C   UNL A   1      37.981  20.013  24.886  1.00  0.00     0.202 C 
BRANCH  34  35
ATOM     35  C   UNL A   1      39.239  19.542  25.657  1.00  0.00     0.261 C 
BRANCH  35  36
ATOM     36  O   UNL A   1      40.400  20.345  25.385  1.00  0.00    -0.460 OA
BRANCH  36  37
ATOM     37  C   UNL A   1      41.352  20.285  26.350  1.00  0.00     0.338 C 
ATOM     38  O   UNL A   1      42.102  19.348  26.567  1.00  0.00    -0.246 OA
BRANCH  37  39
ATOM     39  C   UNL A   1      41.556  21.659  26.852  1.00  0.00     0.060 A 
ATOM     40  C   UNL A   1      41.388  22.705  25.934  1.00  0.00     0.016 A 
ATOM     41  C   UNL A   1      41.779  21.927  28.207  1.00  0.00     0.016 A 
ATOM     42  C   UNL A   1      41.492  24.023  26.360  1.00  0.00     0.010 A 
ATOM     43  C   UNL A   1      41.909  23.251  28.631  1.00  0.00     0.010 A 
ATOM     44  C   UNL A   1      41.807  24.297  27.699  1.00  0.00    -0.014 A 
BRANCH  44  45
ATOM     45  C   UNL A   1      42.320  25.648  28.018  1.00  0.00     0.031 A 
ATOM     46  C   UNL A   1      43.706  25.977  27.533  1.00  0.00     0.074 A 
ATOM     47  C   UNL A   1      41.548  26.577  28.607  1.00  0.00     0.049 A 
ATOM     48  N   UNL A   1      44.351  27.111  27.566  1.00  0.00    -0.248 NA
ATOM     49  C   UNL A   1      44.456  24.874  26.904  1.00  0.00     0.031 C 
ATOM     50  C   UNL A   1      40.170  26.374  29.053  1.00  0.00     0.029 A 
ATOM     51  N   UNL A   1      41.807  27.892  28.900  1.00  0.00    -0.354 N 
ATOM     52  C   UNL A   1      45.563  26.866  26.931  1.00  0.00     0.074 A 
ATOM     53  C   UNL A   1      45.588  25.468  26.569  1.00  0.00     0.031 C 
ATOM     54  C   UNL A   1      39.696  27.535  29.543  1.00  0.00     0.029 A 
ATOM     55  C   UNL A   1      40.742  28.554  29.463  1.00  0.00     0.049 A 
ATOM     56  H   UNL A   1      42.675  28.321  28.723  1.00  0.00     0.167 HD
ATOM     57  C   UNL A   1      46.562  27.737  26.658  1.00  0.00     0.034 A 
ATOM     58  C   UNL A   1      40.631  29.838  29.860  1.00  0.00     0.034 A 
ATOM     59  C   UNL A   1      46.540  29.115  27.061  1.00  0.00     0.049 A 
ATOM     60  C   UNL A   1      41.810  30.760  29.667  1.00  0.00     0.074 A 
ATOM     61  C   UNL A   1      47.511  30.082  26.884  1.00  0.00     0.029 A 
ATOM     62  N   UNL A   1      45.489  29.717  27.740  1.00  0.00    -0.354 N 
ATOM     63  N   UNL A   1      42.966  30.510  29.095  1.00  0.00    -0.248 NA
ATOM     64  C   UNL A   1      41.675  32.132  30.175  1.00  0.00     0.031 C 
ATOM     65  C   UNL A   1      47.071  31.254  27.507  1.00  0.00     0.029 A 
ATOM     66  C   UNL A   1      45.801  31.035  28.018  1.00  0.00     0.049 A 
ATOM     67  H   UNL A   1      44.647  29.271  27.987  1.00  0.00     0.167 HD
ATOM     68  C   UNL A   1      43.690  31.696  29.161  1.00  0.00     0.074 A 
ATOM     69  C   UNL A   1      42.841  32.664  29.826  1.00  0.00     0.031 C 
ATOM     70  C   UNL A   1      44.939  31.967  28.704  1.00  0.00     0.034 A 
BRANCH  57  71
ATOM     71  C   UNL A   1      47.766  27.193  25.938  1.00  0.00     0.023 A 
ATOM     72  C   UNL A   1      48.833  26.602  26.638  1.00  0.00     0.031 A 
ATOM     73  C   UNL A   1      47.868  27.309  24.542  1.00  0.00     0.131 A 
ATOM     74  C   UNL A   1      49.980  26.195  25.943  1.00  0.00     0.055 A 
ATOM     75  C   UNL A   1      48.987  26.843  23.849  1.00  0.00     0.041 A 
ATOM     76  F   UNL A   1      46.891  27.895  23.832  1.00  0.00    -0.206 F 
ATOM     77  C   UNL A   1      50.055  26.290  24.550  1.00  0.00     0.022 A 
BRANCH  74  78
ATOM     78  S   UNL A   1      51.418  25.625  26.890  1.00  0.00     0.124 S 
ATOM     79  O   UNL A   1      52.052  24.713  25.942  1.00  0.00    -0.237 OA
ATOM     80  O   UNL A   1      52.134  26.867  27.159  1.00  0.00    -0.237 OA
ATOM     81  O   UNL A   1      50.824  24.983  28.061  1.00  0.00    -0.744 OA
ENDBRANCH  74  78
ENDBRANCH  57  71
BRANCH  58  82
ATOM     82  C   UNL A   1      39.372  30.320  30.495  1.00  0.00     0.023 A 
ATOM     83  C   UNL A   1      39.312  30.621  31.865  1.00  0.00     0.031 A 
ATOM     84  C   UNL A   1      38.204  30.488  29.728  1.00  0.00     0.131 A 
ATOM     85  C   UNL A   1      38.104  31.066  32.430  1.00  0.00     0.055 A 
ATOM     86  C   UNL A   1      37.016  30.960  30.288  1.00  0.00     0.041 A 
ATOM     87  F   UNL A   1      38.211  30.212  28.415  1.00  0.00    -0.206 F 
ATOM     88  C   UNL A   1      36.960  31.249  31.648  1.00  0.00     0.022 A 
BRANCH  85  89
ATOM     89  S   UNL A   1      38.038  31.391  34.213  1.00  0.00     0.124 S 
ATOM     90  O   UNL A   1      36.730  32.023  34.352  1.00  0.00    -0.237 OA
ATOM     91  O   UNL A   1      38.165  30.050  34.775  1.00  0.00    -0.237 OA
ATOM     92  O   UNL A   1      39.183  32.269  34.443  1.00  0.00    -0.744 OA
ENDBRANCH  85  89
ENDBRANCH  58  82
BRANCH  70  93
ATOM     93  C   UNL A   1      45.462  33.362  28.899  1.00  0.00     0.023 A 
ATOM     94  C   UNL A   1      45.021  34.423  28.093  1.00  0.00     0.031 A 
ATOM     95  C   UNL A   1      46.346  33.643  29.956  1.00  0.00     0.131 A 
ATOM     96  C   UNL A   1      45.479  35.723  28.349  1.00  0.00     0.055 A 
ATOM     97  C   UNL A   1      46.767  34.943  30.229  1.00  0.00     0.041 A 
ATOM     98  F   UNL A   1      46.784  32.658  30.758  1.00  0.00    -0.206 F 
ATOM     99  C   UNL A   1      46.334  35.993  29.422  1.00  0.00     0.022 A 
BRANCH  96 100
ATOM    100  S   UNL A   1      44.944  37.067  27.256  1.00  0.00     0.124 S 
ATOM    101  O   UNL A   1      46.153  37.324  26.480  1.00  0.00    -0.237 OA
ATOM    102  O   UNL A   1      43.835  36.462  26.526  1.00  0.00    -0.237 OA
ATOM    103  O   UNL A   1      44.564  38.132  28.183  1.00  0.00    -0.744 OA
ENDBRANCH  96 100
ENDBRANCH  70  93
ENDBRANCH  44  45
ENDBRANCH  37  39
ENDBRANCH  36  37
ENDBRANCH  35  36
ENDBRANCH  34  35
ENDBRANCH  33  34
ENDBRANCH   1  33
TORSDOF 23
ENDMDL
