MODEL 1
REMARK VINA RESULT:     -11.2      0.000      0.000
REMARK SMILES C[C@]1(C(=O)OCCOCCOC(=O)c2ccc(-c3c4nc(c(-c5cc(S(=O)(=O)[O-])ccc5F)c5ccc([nH]5)c(-c5cc(S(=O)(=O)[O-])ccc5F)c5nc(c(-c6cc(S(=O)(=O)[O-])ccc6F)c6ccc3[nH]6)C=C5)C=C4)cc2)COC[C@@H]1NC(=O)[C@H]1C=C[C@@H]([NH3+])C1
REMARK SMILES IDX 8 1 7 2 6 3 5 4 3 5 4 6 2 7 1 8 77 9 80 10 78 11 79 12 81 13
REMARK SMILES IDX 82 14 83 16 84 17 85 18 89 19 86 20 87 21 88 22 9 26 10 27
REMARK SMILES IDX 11 28 12 29 13 30 14 31 15 32 76 33 16 34 75 35 17 36 18 37
REMARK SMILES IDX 19 38 69 39 20 40 74 41 68 42 70 43 21 44 73 45 67 46 66 47
REMARK SMILES IDX 22 49 54 50 34 51 53 52 35 53 38 54 52 55 71 56 36 57 37 58
REMARK SMILES IDX 51 60 72 61 39 62 23 63 24 64 32 65 25 66 31 67 33 68 30 69
REMARK SMILES IDX 26 70 27 71 28 72 29 73 55 74 56 75 64 76 57 77 63 78 65 79
REMARK SMILES IDX 62 80 58 81 59 82 60 83 61 84 40 85 41 86 49 87 42 88 48 89
REMARK SMILES IDX 50 90 47 91 43 92 44 93 45 94 46 95
REMARK H PARENT 81 15 88 23 88 24 88 25 70 48 38 59
REMARK Flexibility Score: inf
ROOT
ATOM      1  O   UNL A   1      35.252  20.238  24.958  1.00  0.00    -0.374 OA
ENDROOT
BRANCH   1   2
ATOM      2  C   UNL A   1      33.949  19.676  24.787  1.00  0.00     0.202 C 
BRANCH   2   3
ATOM      3  C   UNL A   1      32.787  20.508  25.337  1.00  0.00     0.261 C 
BRANCH   3   4
ATOM      4  O   UNL A   1      32.456  21.560  24.409  1.00  0.00    -0.463 OA
BRANCH   4   5
ATOM      5  C   UNL A   1      32.844  22.811  24.755  1.00  0.00     0.316 C 
ATOM      6  O   UNL A   1      32.619  23.329  25.843  1.00  0.00    -0.251 OA
BRANCH   5   7
ATOM      7  C   UNL A   1      33.649  23.507  23.660  1.00  0.00     0.111 C 
ATOM      8  C   UNL A   1      35.177  23.547  23.869  1.00  0.00     0.028 C 
ATOM      9  C   UNL A   1      33.334  22.780  22.355  1.00  0.00     0.181 C 
ATOM     10  C   UNL A   1      33.009  24.896  23.390  1.00  0.00     0.127 C 
ATOM     11  O   UNL A   1      33.459  23.761  21.323  1.00  0.00    -0.378 OA
ATOM     12  C   UNL A   1      32.991  25.001  21.860  1.00  0.00     0.186 C 
BRANCH  10  13
ATOM     13  N   UNL A   1      33.656  26.060  24.006  1.00  0.00    -0.349 N 
ATOM     14  C   UNL A   1      33.158  27.321  24.204  1.00  0.00     0.227 C 
ATOM     15  H   UNL A   1      34.577  25.914  24.321  1.00  0.00     0.163 HD
ATOM     16  O   UNL A   1      33.941  28.172  24.631  1.00  0.00    -0.274 OA
BRANCH  14  17
ATOM     17  C   UNL A   1      31.673  27.609  23.959  1.00  0.00     0.107 C 
ATOM     18  C   UNL A   1      31.239  28.814  24.749  1.00  0.00    -0.012 C 
ATOM     19  C   UNL A   1      31.384  28.063  22.517  1.00  0.00     0.087 C 
ATOM     20  C   UNL A   1      30.496  29.652  24.016  1.00  0.00     0.033 C 
ATOM     21  C   UNL A   1      30.284  29.127  22.637  1.00  0.00     0.205 C 
BRANCH  21  22
ATOM     22  N   UNL A   1      30.398  30.149  21.615  1.00  0.00    -0.352 N 
ATOM     23  H   UNL A   1      29.491  30.285  21.169  1.00  0.00     0.345 HD
ATOM     24  H   UNL A   1      31.081  29.856  20.916  1.00  0.00     0.345 HD
ATOM     25  H   UNL A   1      30.702  31.024  22.042  1.00  0.00     0.345 HD
ENDBRANCH  21  22
ENDBRANCH  14  17
ENDBRANCH  10  13
ENDBRANCH   5   7
ENDBRANCH   4   5
ENDBRANCH   3   4
ENDBRANCH   2   3
ENDBRANCH   1   2
BRANCH   1  26
ATOM     26  C   UNL A   1      36.360  19.341  24.958  1.00  0.00     0.202 C 
BRANCH  26  27
ATOM     27  C   UNL A   1      37.752  19.926  24.694  1.00  0.00     0.261 C 
BRANCH  27  28
ATOM     28  O   UNL A   1      38.114  20.935  25.650  1.00  0.00    -0.460 OA
BRANCH  28  29
ATOM     29  C   UNL A   1      39.361  20.790  26.162  1.00  0.00     0.338 C 
ATOM     30  O   UNL A   1      40.103  19.825  26.019  1.00  0.00    -0.246 OA
BRANCH  29  31
ATOM     31  C   UNL A   1      39.815  22.053  26.769  1.00  0.00     0.060 A 
ATOM     32  C   UNL A   1      39.185  23.228  26.341  1.00  0.00     0.016 A 
ATOM     33  C   UNL A   1      40.865  22.106  27.690  1.00  0.00     0.016 A 
ATOM     34  C   UNL A   1      39.635  24.466  26.790  1.00  0.00     0.010 A 
ATOM     35  C   UNL A   1      41.319  23.353  28.137  1.00  0.00     0.010 A 
ATOM     36  C   UNL A   1      40.730  24.539  27.661  1.00  0.00    -0.014 A 
BRANCH  36  37
ATOM     37  C   UNL A   1      41.333  25.864  27.948  1.00  0.00     0.031 A 
ATOM     38  C   UNL A   1      42.736  26.144  27.479  1.00  0.00     0.074 A 
ATOM     39  C   UNL A   1      40.619  26.823  28.565  1.00  0.00     0.049 A 
ATOM     40  N   UNL A   1      43.456  27.228  27.614  1.00  0.00    -0.248 NA
ATOM     41  C   UNL A   1      43.415  25.053  26.762  1.00  0.00     0.031 C 
ATOM     42  C   UNL A   1      39.236  26.680  29.021  1.00  0.00     0.029 A 
ATOM     43  N   UNL A   1      40.955  28.106  28.910  1.00  0.00    -0.354 N 
ATOM     44  C   UNL A   1      44.673  26.953  27.000  1.00  0.00     0.074 A 
ATOM     45  C   UNL A   1      44.606  25.584  26.531  1.00  0.00     0.031 C 
ATOM     46  C   UNL A   1      38.843  27.833  29.587  1.00  0.00     0.029 A 
ATOM     47  C   UNL A   1      39.955  28.782  29.570  1.00  0.00     0.049 A 
ATOM     48  H   UNL A   1      41.830  28.508  28.704  1.00  0.00     0.167 HD
ATOM     49  C   UNL A   1      45.743  27.770  26.832  1.00  0.00     0.034 A 
ATOM     50  C   UNL A   1      39.947  30.015  30.116  1.00  0.00     0.034 A 
ATOM     51  C   UNL A   1      45.797  29.128  27.317  1.00  0.00     0.049 A 
ATOM     52  C   UNL A   1      41.183  30.874  29.997  1.00  0.00     0.074 A 
ATOM     53  C   UNL A   1      46.823  30.049  27.190  1.00  0.00     0.029 A 
ATOM     54  N   UNL A   1      44.787  29.759  28.033  1.00  0.00    -0.354 N 
ATOM     55  N   UNL A   1      42.323  30.607  29.402  1.00  0.00    -0.248 NA
ATOM     56  C   UNL A   1      41.125  32.205  30.613  1.00  0.00     0.031 C 
ATOM     57  C   UNL A   1      46.467  31.204  27.893  1.00  0.00     0.029 A 
ATOM     58  C   UNL A   1      45.183  31.040  28.389  1.00  0.00     0.049 A 
ATOM     59  H   UNL A   1      43.919  29.355  28.258  1.00  0.00     0.167 HD
ATOM     60  C   UNL A   1      43.106  31.749  29.550  1.00  0.00     0.074 A 
ATOM     61  C   UNL A   1      42.300  32.712  30.271  1.00  0.00     0.031 C 
ATOM     62  C   UNL A   1      44.375  31.984  29.126  1.00  0.00     0.034 A 
BRANCH  49  63
ATOM     63  C   UNL A   1      46.957  27.193  26.143  1.00  0.00     0.023 A 
ATOM     64  C   UNL A   1      47.942  26.480  26.848  1.00  0.00     0.031 A 
ATOM     65  C   UNL A   1      47.143  27.381  24.762  1.00  0.00     0.131 A 
ATOM     66  C   UNL A   1      49.098  26.041  26.184  1.00  0.00     0.055 A 
ATOM     67  C   UNL A   1      48.257  26.872  24.092  1.00  0.00     0.041 A 
ATOM     68  F   UNL A   1      46.248  28.074  24.041  1.00  0.00    -0.206 F 
ATOM     69  C   UNL A   1      49.250  26.209  24.806  1.00  0.00     0.022 A 
BRANCH  66  70
ATOM     70  S   UNL A   1      50.465  25.369  27.171  1.00  0.00     0.124 S 
ATOM     71  O   UNL A   1      51.447  25.054  26.137  1.00  0.00    -0.237 OA
ATOM     72  O   UNL A   1      50.796  26.483  28.050  1.00  0.00    -0.237 OA
ATOM     73  O   UNL A   1      49.872  24.207  27.831  1.00  0.00    -0.744 OA
ENDBRANCH  66  70
ENDBRANCH  49  63
BRANCH  50  74
ATOM     74  C   UNL A   1      38.753  30.502  30.864  1.00  0.00     0.023 A 
ATOM     75  C   UNL A   1      37.691  31.144  30.207  1.00  0.00     0.031 A 
ATOM     76  C   UNL A   1      38.685  30.386  32.265  1.00  0.00     0.131 A 
ATOM     77  C   UNL A   1      36.633  31.688  30.952  1.00  0.00     0.055 A 
ATOM     78  C   UNL A   1      37.602  30.878  32.996  1.00  0.00     0.041 A 
ATOM     79  F   UNL A   1      39.673  29.783  32.945  1.00  0.00    -0.206 F 
ATOM     80  C   UNL A   1      36.575  31.547  32.340  1.00  0.00     0.022 A 
BRANCH  77  81
ATOM     81  S   UNL A   1      35.373  32.665  30.086  1.00  0.00     0.124 S 
ATOM     82  O   UNL A   1      34.900  31.717  29.084  1.00  0.00    -0.237 OA
ATOM     83  O   UNL A   1      34.442  32.979  31.164  1.00  0.00    -0.237 OA
ATOM     84  O   UNL A   1      36.126  33.803  29.564  1.00  0.00    -0.744 OA
ENDBRANCH  77  81
ENDBRANCH  50  74
BRANCH  62  85
ATOM     85  C   UNL A   1      44.948  33.355  29.402  1.00  0.00     0.023 A 
ATOM     86  C   UNL A   1      44.893  34.387  28.448  1.00  0.00     0.031 A 
ATOM     87  C   UNL A   1      45.577  33.626  30.631  1.00  0.00     0.131 A 
ATOM     88  C   UNL A   1      45.512  35.619  28.713  1.00  0.00     0.055 A 
ATOM     89  C   UNL A   1      46.132  34.874  30.915  1.00  0.00     0.041 A 
ATOM     90  F   UNL A   1      45.660  32.678  31.579  1.00  0.00    -0.206 F 
ATOM     91  C   UNL A   1      46.115  35.875  29.946  1.00  0.00     0.022 A 
BRANCH  88  92
ATOM     92  S   UNL A   1      45.613  36.847  27.382  1.00  0.00     0.124 S 
ATOM     93  O   UNL A   1      44.290  37.459  27.433  1.00  0.00    -0.237 OA
ATOM     94  O   UNL A   1      46.723  37.688  27.819  1.00  0.00    -0.237 OA
ATOM     95  O   UNL A   1      45.879  36.042  26.192  1.00  0.00    -0.744 OA
ENDBRANCH  88  92
ENDBRANCH  62  85
ENDBRANCH  36  37
ENDBRANCH  29  31
ENDBRANCH  28  29
ENDBRANCH  27  28
ENDBRANCH  26  27
ENDBRANCH   1  26
TORSDOF 20
ENDMDL
MODEL 2
REMARK VINA RESULT:     -11.0      2.205      2.530
REMARK SMILES C[C@]1(C(=O)OCCOCCOC(=O)c2ccc(-c3c4nc(c(-c5cc(S(=O)(=O)[O-])ccc5F)c5ccc([nH]5)c(-c5cc(S(=O)(=O)[O-])ccc5F)c5nc(c(-c6cc(S(=O)(=O)[O-])ccc6F)c6ccc3[nH]6)C=C5)C=C4)cc2)COC[C@@H]1NC(=O)[C@H]1C=C[C@@H]([NH3+])C1
REMARK SMILES IDX 8 1 7 2 6 3 5 4 3 5 4 6 2 7 1 8 77 9 80 10 78 11 79 12 81 13
REMARK SMILES IDX 82 14 83 16 84 17 85 18 89 19 86 20 87 21 88 22 9 26 10 27
REMARK SMILES IDX 11 28 12 29 13 30 14 31 15 32 76 33 16 34 75 35 17 36 18 37
REMARK SMILES IDX 19 38 69 39 20 40 74 41 68 42 70 43 21 44 73 45 67 46 66 47
REMARK SMILES IDX 22 49 54 50 34 51 53 52 35 53 38 54 52 55 71 56 36 57 37 58
REMARK SMILES IDX 51 60 72 61 39 62 23 63 24 64 32 65 25 66 31 67 33 68 30 69
REMARK SMILES IDX 26 70 27 71 28 72 29 73 55 74 56 75 64 76 57 77 63 78 65 79
REMARK SMILES IDX 62 80 58 81 59 82 60 83 61 84 40 85 41 86 49 87 42 88 48 89
REMARK SMILES IDX 50 90 47 91 43 92 44 93 45 94 46 95
REMARK H PARENT 81 15 88 23 88 24 88 25 70 48 38 59
REMARK Flexibility Score: inf
ROOT
ATOM      1  O   UNL A   1      35.099  20.763  25.320  1.00  0.00    -0.374 OA
ENDROOT
BRANCH   1   2
ATOM      2  C   UNL A   1      33.961  20.039  24.846  1.00  0.00     0.202 C 
BRANCH   2   3
ATOM      3  C   UNL A   1      32.599  20.672  25.140  1.00  0.00     0.261 C 
BRANCH   3   4
ATOM      4  O   UNL A   1      32.259  21.609  24.100  1.00  0.00    -0.463 OA
BRANCH   4   5
ATOM      5  C   UNL A   1      31.898  22.851  24.504  1.00  0.00     0.316 C 
ATOM      6  O   UNL A   1      30.819  23.125  25.019  1.00  0.00    -0.251 OA
BRANCH   5   7
ATOM      7  C   UNL A   1      33.003  23.886  24.303  1.00  0.00     0.111 C 
ATOM      8  C   UNL A   1      33.932  24.122  25.512  1.00  0.00     0.028 C 
ATOM      9  C   UNL A   1      33.832  23.416  23.110  1.00  0.00     0.181 C 
ATOM     10  C   UNL A   1      32.364  25.180  23.732  1.00  0.00     0.127 C 
ATOM     11  O   UNL A   1      34.341  24.604  22.498  1.00  0.00    -0.378 OA
ATOM     12  C   UNL A   1      33.330  25.608  22.620  1.00  0.00     0.186 C 
BRANCH  10  13
ATOM     13  N   UNL A   1      32.107  26.272  24.677  1.00  0.00    -0.349 N 
ATOM     14  C   UNL A   1      31.467  27.466  24.468  1.00  0.00     0.227 C 
ATOM     15  H   UNL A   1      32.442  26.126  25.592  1.00  0.00     0.163 HD
ATOM     16  O   UNL A   1      31.487  28.282  25.391  1.00  0.00    -0.274 OA
BRANCH  14  17
ATOM     17  C   UNL A   1      30.715  27.714  23.156  1.00  0.00     0.107 C 
ATOM     18  C   UNL A   1      29.252  27.934  23.429  1.00  0.00    -0.012 C 
ATOM     19  C   UNL A   1      31.108  29.043  22.486  1.00  0.00     0.087 C 
ATOM     20  C   UNL A   1      28.765  28.975  22.743  1.00  0.00     0.033 C 
ATOM     21  C   UNL A   1      29.810  29.593  21.878  1.00  0.00     0.205 C 
BRANCH  21  22
ATOM     22  N   UNL A   1      29.773  31.042  21.887  1.00  0.00    -0.352 N 
ATOM     23  H   UNL A   1      29.463  31.380  20.976  1.00  0.00     0.345 HD
ATOM     24  H   UNL A   1      30.706  31.405  22.086  1.00  0.00     0.345 HD
ATOM     25  H   UNL A   1      29.124  31.360  22.607  1.00  0.00     0.345 HD
ENDBRANCH  21  22
ENDBRANCH  14  17
ENDBRANCH  10  13
ENDBRANCH   5   7
ENDBRANCH   4   5
ENDBRANCH   3   4
ENDBRANCH   2   3
ENDBRANCH   1   2
BRANCH   1  26
ATOM     26  C   UNL A   1      36.388  20.276  24.953  1.00  0.00     0.202 C 
BRANCH  26  27
ATOM     27  C   UNL A   1      37.496  21.306  24.703  1.00  0.00     0.261 C 
BRANCH  27  28
ATOM     28  O   UNL A   1      37.868  22.012  25.898  1.00  0.00    -0.460 OA
BRANCH  28  29
ATOM     29  C   UNL A   1      39.160  21.832  26.266  1.00  0.00     0.338 C 
ATOM     30  O   UNL A   1      39.860  20.854  26.027  1.00  0.00    -0.246 OA
BRANCH  29  31
ATOM     31  C   UNL A   1      39.707  23.075  26.839  1.00  0.00     0.060 A 
ATOM     32  C   UNL A   1      39.206  24.281  26.336  1.00  0.00     0.016 A 
ATOM     33  C   UNL A   1      40.720  23.073  27.801  1.00  0.00     0.016 A 
ATOM     34  C   UNL A   1      39.753  25.492  26.751  1.00  0.00     0.010 A 
ATOM     35  C   UNL A   1      41.272  24.292  28.214  1.00  0.00     0.010 A 
ATOM     36  C   UNL A   1      40.816  25.504  27.664  1.00  0.00    -0.014 A 
BRANCH  36  37
ATOM     37  C   UNL A   1      41.528  26.780  27.921  1.00  0.00     0.031 A 
ATOM     38  C   UNL A   1      42.904  26.976  27.344  1.00  0.00     0.074 A 
ATOM     39  C   UNL A   1      40.933  27.771  28.608  1.00  0.00     0.049 A 
ATOM     40  N   UNL A   1      43.706  28.006  27.436  1.00  0.00    -0.248 NA
ATOM     41  C   UNL A   1      43.449  25.857  26.558  1.00  0.00     0.031 C 
ATOM     42  C   UNL A   1      39.584  27.712  29.172  1.00  0.00     0.029 A 
ATOM     43  N   UNL A   1      41.382  29.022  28.944  1.00  0.00    -0.354 N 
ATOM     44  C   UNL A   1      44.848  27.663  26.721  1.00  0.00     0.074 A 
ATOM     45  C   UNL A   1      44.650  26.312  26.239  1.00  0.00     0.031 C 
ATOM     46  C   UNL A   1      39.317  28.877  29.786  1.00  0.00     0.029 A 
ATOM     47  C   UNL A   1      40.486  29.750  29.693  1.00  0.00     0.049 A 
ATOM     48  H   UNL A   1      42.263  29.369  28.673  1.00  0.00     0.167 HD
ATOM     49  C   UNL A   1      45.954  28.410  26.479  1.00  0.00     0.034 A 
ATOM     50  C   UNL A   1      40.606  30.969  30.256  1.00  0.00     0.034 A 
ATOM     51  C   UNL A   1      46.139  29.752  26.978  1.00  0.00     0.049 A 
ATOM     52  C   UNL A   1      41.883  31.746  30.050  1.00  0.00     0.074 A 
ATOM     53  C   UNL A   1      47.212  30.604  26.782  1.00  0.00     0.029 A 
ATOM     54  N   UNL A   1      45.235  30.433  27.784  1.00  0.00    -0.354 N 
ATOM     55  N   UNL A   1      42.952  31.415  29.360  1.00  0.00    -0.248 NA
ATOM     56  C   UNL A   1      41.966  33.065  30.689  1.00  0.00     0.031 C 
ATOM     57  C   UNL A   1      46.992  31.766  27.529  1.00  0.00     0.029 A 
ATOM     58  C   UNL A   1      45.745  31.677  28.125  1.00  0.00     0.049 A 
ATOM     59  H   UNL A   1      44.362  30.084  28.072  1.00  0.00     0.167 HD
ATOM     60  C   UNL A   1      43.820  32.500  29.461  1.00  0.00     0.074 A 
ATOM     61  C   UNL A   1      43.142  33.499  30.260  1.00  0.00     0.031 C 
ATOM     62  C   UNL A   1      45.064  32.659  28.939  1.00  0.00     0.034 A 
BRANCH  49  63
ATOM     63  C   UNL A   1      47.067  27.768  25.685  1.00  0.00     0.023 A 
ATOM     64  C   UNL A   1      47.296  28.087  24.336  1.00  0.00     0.031 A 
ATOM     65  C   UNL A   1      47.895  26.801  26.282  1.00  0.00     0.131 A 
ATOM     66  C   UNL A   1      48.282  27.399  23.611  1.00  0.00     0.055 A 
ATOM     67  C   UNL A   1      48.927  26.177  25.577  1.00  0.00     0.041 A 
ATOM     68  F   UNL A   1      47.708  26.437  27.561  1.00  0.00    -0.206 F 
ATOM     69  C   UNL A   1      49.116  26.465  24.230  1.00  0.00     0.022 A 
BRANCH  66  70
ATOM     70  S   UNL A   1      48.368  27.641  21.815  1.00  0.00     0.124 S 
ATOM     71  O   UNL A   1      48.634  26.283  21.348  1.00  0.00    -0.237 OA
ATOM     72  O   UNL A   1      47.049  28.178  21.506  1.00  0.00    -0.237 OA
ATOM     73  O   UNL A   1      49.478  28.578  21.648  1.00  0.00    -0.744 OA
ENDBRANCH  66  70
ENDBRANCH  49  63
BRANCH  50  74
ATOM     74  C   UNL A   1      39.511  31.519  31.106  1.00  0.00     0.023 A 
ATOM     75  C   UNL A   1      39.529  31.378  32.503  1.00  0.00     0.031 A 
ATOM     76  C   UNL A   1      38.394  32.145  30.522  1.00  0.00     0.131 A 
ATOM     77  C   UNL A   1      38.432  31.810  33.264  1.00  0.00     0.055 A 
ATOM     78  C   UNL A   1      37.331  32.625  31.290  1.00  0.00     0.041 A 
ATOM     79  F   UNL A   1      38.323  32.306  29.191  1.00  0.00    -0.206 F 
ATOM     80  C   UNL A   1      37.340  32.445  32.668  1.00  0.00     0.022 A 
BRANCH  77  81
ATOM     81  S   UNL A   1      38.411  31.449  35.042  1.00  0.00     0.124 S 
ATOM     82  O   UNL A   1      37.188  32.120  35.466  1.00  0.00    -0.237 OA
ATOM     83  O   UNL A   1      38.381  29.990  35.052  1.00  0.00    -0.237 OA
ATOM     84  O   UNL A   1      39.653  32.048  35.525  1.00  0.00    -0.744 OA
ENDBRANCH  77  81
ENDBRANCH  50  74
BRANCH  62  85
ATOM     85  C   UNL A   1      45.749  33.982  29.189  1.00  0.00     0.023 A 
ATOM     86  C   UNL A   1      45.515  35.103  28.372  1.00  0.00     0.031 A 
ATOM     87  C   UNL A   1      46.666  34.117  30.247  1.00  0.00     0.131 A 
ATOM     88  C   UNL A   1      46.235  36.288  28.587  1.00  0.00     0.055 A 
ATOM     89  C   UNL A   1      47.330  35.319  30.497  1.00  0.00     0.041 A 
ATOM     90  F   UNL A   1      46.931  33.080  31.058  1.00  0.00    -0.206 F 
ATOM     91  C   UNL A   1      47.128  36.410  29.654  1.00  0.00     0.022 A 
BRANCH  88  92
ATOM     92  S   UNL A   1      46.070  37.638  27.386  1.00  0.00     0.124 S 
ATOM     93  O   UNL A   1      47.088  38.577  27.843  1.00  0.00    -0.237 OA
ATOM     94  O   UNL A   1      46.347  36.963  26.121  1.00  0.00    -0.237 OA
ATOM     95  O   UNL A   1      44.690  38.085  27.559  1.00  0.00    -0.744 OA
ENDBRANCH  88  92
ENDBRANCH  62  85
ENDBRANCH  36  37
ENDBRANCH  29  31
ENDBRANCH  28  29
ENDBRANCH  27  28
ENDBRANCH  26  27
ENDBRANCH   1  26
TORSDOF 20
ENDMDL
MODEL 3
REMARK VINA RESULT:     -11.0      2.014      3.444
REMARK SMILES C[C@]1(C(=O)OCCOCCOC(=O)c2ccc(-c3c4nc(c(-c5cc(S(=O)(=O)[O-])ccc5F)c5ccc([nH]5)c(-c5cc(S(=O)(=O)[O-])ccc5F)c5nc(c(-c6cc(S(=O)(=O)[O-])ccc6F)c6ccc3[nH]6)C=C5)C=C4)cc2)COC[C@@H]1NC(=O)[C@H]1C=C[C@@H]([NH3+])C1
REMARK SMILES IDX 8 1 7 2 6 3 5 4 3 5 4 6 2 7 1 8 77 9 80 10 78 11 79 12 81 13
REMARK SMILES IDX 82 14 83 16 84 17 85 18 89 19 86 20 87 21 88 22 9 26 10 27
REMARK SMILES IDX 11 28 12 29 13 30 14 31 15 32 76 33 16 34 75 35 17 36 18 37
REMARK SMILES IDX 19 38 69 39 20 40 74 41 68 42 70 43 21 44 73 45 67 46 66 47
REMARK SMILES IDX 22 49 54 50 34 51 53 52 35 53 38 54 52 55 71 56 36 57 37 58
REMARK SMILES IDX 51 60 72 61 39 62 23 63 24 64 32 65 25 66 31 67 33 68 30 69
REMARK SMILES IDX 26 70 27 71 28 72 29 73 55 74 56 75 64 76 57 77 63 78 65 79
REMARK SMILES IDX 62 80 58 81 59 82 60 83 61 84 40 85 41 86 49 87 42 88 48 89
REMARK SMILES IDX 50 90 47 91 43 92 44 93 45 94 46 95
REMARK H PARENT 81 15 88 23 88 24 88 25 70 48 38 59
REMARK Flexibility Score: inf
ROOT
ATOM      1  O   UNL A   1      36.410  22.883  24.776  1.00  0.00    -0.374 OA
ENDROOT
BRANCH   1   2
ATOM      2  C   UNL A   1      35.761  23.965  25.449  1.00  0.00     0.202 C 
BRANCH   2   3
ATOM      3  C   UNL A   1      34.758  24.763  24.613  1.00  0.00     0.261 C 
BRANCH   3   4
ATOM      4  O   UNL A   1      33.611  25.103  25.416  1.00  0.00    -0.463 OA
BRANCH   4   5
ATOM      5  C   UNL A   1      33.375  26.425  25.599  1.00  0.00     0.316 C 
ATOM      6  O   UNL A   1      34.252  27.278  25.687  1.00  0.00    -0.251 OA
BRANCH   5   7
ATOM      7  C   UNL A   1      31.887  26.764  25.632  1.00  0.00     0.111 C 
ATOM      8  C   UNL A   1      31.380  27.445  26.920  1.00  0.00     0.028 C 
ATOM      9  C   UNL A   1      31.618  27.674  24.437  1.00  0.00     0.181 C 
ATOM     10  C   UNL A   1      31.087  25.496  25.228  1.00  0.00     0.127 C 
ATOM     11  O   UNL A   1      30.265  27.419  24.050  1.00  0.00    -0.378 OA
ATOM     12  C   UNL A   1      30.021  26.026  24.260  1.00  0.00     0.186 C 
BRANCH  10  13
ATOM     13  N   UNL A   1      30.491  24.709  26.312  1.00  0.00    -0.349 N 
ATOM     14  C   UNL A   1      30.870  23.486  26.804  1.00  0.00     0.227 C 
ATOM     15  H   UNL A   1      29.709  25.116  26.750  1.00  0.00     0.163 HD
ATOM     16  O   UNL A   1      30.131  22.964  27.640  1.00  0.00    -0.274 OA
BRANCH  14  17
ATOM     17  C   UNL A   1      32.194  22.856  26.358  1.00  0.00     0.107 C 
ATOM     18  C   UNL A   1      33.019  22.476  27.557  1.00  0.00    -0.012 C 
ATOM     19  C   UNL A   1      32.004  21.494  25.668  1.00  0.00     0.087 C 
ATOM     20  C   UNL A   1      33.547  21.252  27.434  1.00  0.00     0.033 C 
ATOM     21  C   UNL A   1      33.192  20.635  26.124  1.00  0.00     0.205 C 
BRANCH  21  22
ATOM     22  N   UNL A   1      32.843  19.232  26.231  1.00  0.00    -0.352 N 
ATOM     23  H   UNL A   1      33.659  18.702  26.539  1.00  0.00     0.345 HD
ATOM     24  H   UNL A   1      32.537  18.887  25.321  1.00  0.00     0.345 HD
ATOM     25  H   UNL A   1      32.090  19.120  26.909  1.00  0.00     0.345 HD
ENDBRANCH  21  22
ENDBRANCH  14  17
ENDBRANCH  10  13
ENDBRANCH   5   7
ENDBRANCH   4   5
ENDBRANCH   3   4
ENDBRANCH   2   3
ENDBRANCH   1   2
BRANCH   1  26
ATOM     26  C   UNL A   1      36.333  21.593  25.379  1.00  0.00     0.202 C 
BRANCH  26  27
ATOM     27  C   UNL A   1      37.474  20.607  25.105  1.00  0.00     0.261 C 
BRANCH  27  28
ATOM     28  O   UNL A   1      38.754  21.254  25.038  1.00  0.00    -0.460 OA
BRANCH  28  29
ATOM     29  C   UNL A   1      39.544  21.030  26.116  1.00  0.00     0.338 C 
ATOM     30  O   UNL A   1      40.022  19.955  26.462  1.00  0.00    -0.246 OA
BRANCH  29  31
ATOM     31  C   UNL A   1      39.939  22.306  26.736  1.00  0.00     0.060 A 
ATOM     32  C   UNL A   1      39.347  23.470  26.230  1.00  0.00     0.016 A 
ATOM     33  C   UNL A   1      40.900  22.382  27.748  1.00  0.00     0.016 A 
ATOM     34  C   UNL A   1      39.752  24.718  26.694  1.00  0.00     0.010 A 
ATOM     35  C   UNL A   1      41.309  23.638  28.210  1.00  0.00     0.010 A 
ATOM     36  C   UNL A   1      40.763  24.813  27.659  1.00  0.00    -0.014 A 
BRANCH  36  37
ATOM     37  C   UNL A   1      41.335  26.145  27.974  1.00  0.00     0.031 A 
ATOM     38  C   UNL A   1      42.717  26.481  27.481  1.00  0.00     0.074 A 
ATOM     39  C   UNL A   1      40.609  27.063  28.637  1.00  0.00     0.049 A 
ATOM     40  N   UNL A   1      43.409  27.581  27.634  1.00  0.00    -0.248 NA
ATOM     41  C   UNL A   1      43.409  25.434  26.714  1.00  0.00     0.031 C 
ATOM     42  C   UNL A   1      39.242  26.865  29.121  1.00  0.00     0.029 A 
ATOM     43  N   UNL A   1      40.916  28.345  29.015  1.00  0.00    -0.354 N 
ATOM     44  C   UNL A   1      44.618  27.361  26.982  1.00  0.00     0.074 A 
ATOM     45  C   UNL A   1      44.578  26.006  26.472  1.00  0.00     0.031 C 
ATOM     46  C   UNL A   1      38.830  27.988  29.733  1.00  0.00     0.029 A 
ATOM     47  C   UNL A   1      39.913  28.970  29.720  1.00  0.00     0.049 A 
ATOM     48  H   UNL A   1      41.774  28.778  28.801  1.00  0.00     0.167 HD
ATOM     49  C   UNL A   1      45.659  28.215  26.816  1.00  0.00     0.034 A 
ATOM     50  C   UNL A   1      39.883  30.184  30.305  1.00  0.00     0.034 A 
ATOM     51  C   UNL A   1      45.686  29.558  27.341  1.00  0.00     0.049 A 
ATOM     52  C   UNL A   1      41.090  31.082  30.183  1.00  0.00     0.074 A 
ATOM     53  C   UNL A   1      46.681  30.512  27.219  1.00  0.00     0.029 A 
ATOM     54  N   UNL A   1      44.676  30.136  28.101  1.00  0.00    -0.354 N 
ATOM     55  N   UNL A   1      42.223  30.868  29.554  1.00  0.00    -0.248 NA
ATOM     56  C   UNL A   1      41.009  32.391  30.843  1.00  0.00     0.031 C 
ATOM     57  C   UNL A   1      46.309  31.634  27.967  1.00  0.00     0.029 A 
ATOM     58  C   UNL A   1      45.044  31.416  28.488  1.00  0.00     0.049 A 
ATOM     59  H   UNL A   1      43.825  29.700  28.333  1.00  0.00     0.167 HD
ATOM     60  C   UNL A   1      42.976  32.028  29.719  1.00  0.00     0.074 A 
ATOM     61  C   UNL A   1      42.161  32.943  30.490  1.00  0.00     0.031 C 
ATOM     62  C   UNL A   1      44.226  32.314  29.273  1.00  0.00     0.034 A 
BRANCH  49  63
ATOM     63  C   UNL A   1      46.872  27.695  26.080  1.00  0.00     0.023 A 
ATOM     64  C   UNL A   1      47.093  27.977  24.720  1.00  0.00     0.031 A 
ATOM     65  C   UNL A   1      47.809  26.885  26.744  1.00  0.00     0.131 A 
ATOM     66  C   UNL A   1      48.184  27.398  24.054  1.00  0.00     0.055 A 
ATOM     67  C   UNL A   1      48.936  26.376  26.095  1.00  0.00     0.041 A 
ATOM     68  F   UNL A   1      47.638  26.561  28.036  1.00  0.00    -0.206 F 
ATOM     69  C   UNL A   1      49.122  26.621  24.738  1.00  0.00     0.022 A 
BRANCH  66  70
ATOM     70  S   UNL A   1      48.286  27.561  22.250  1.00  0.00     0.124 S 
ATOM     71  O   UNL A   1      49.425  28.463  22.100  1.00  0.00    -0.237 OA
ATOM     72  O   UNL A   1      48.500  26.185  21.821  1.00  0.00    -0.237 OA
ATOM     73  O   UNL A   1      46.993  28.135  21.884  1.00  0.00    -0.744 OA
ENDBRANCH  66  70
ENDBRANCH  49  63
BRANCH  50  74
ATOM     74  C   UNL A   1      38.694  30.612  31.096  1.00  0.00     0.023 A 
ATOM     75  C   UNL A   1      37.609  31.265  30.488  1.00  0.00     0.031 A 
ATOM     76  C   UNL A   1      38.653  30.428  32.490  1.00  0.00     0.131 A 
ATOM     77  C   UNL A   1      36.555  31.752  31.277  1.00  0.00     0.055 A 
ATOM     78  C   UNL A   1      37.575  30.864  33.263  1.00  0.00     0.041 A 
ATOM     79  F   UNL A   1      39.664  29.811  33.124  1.00  0.00    -0.206 F 
ATOM     80  C   UNL A   1      36.524  31.544  32.657  1.00  0.00     0.022 A 
BRANCH  77  81
ATOM     81  S   UNL A   1      35.263  32.746  30.481  1.00  0.00     0.124 S 
ATOM     82  O   UNL A   1      34.198  32.700  31.477  1.00  0.00    -0.237 OA
ATOM     83  O   UNL A   1      35.931  34.032  30.314  1.00  0.00    -0.237 OA
ATOM     84  O   UNL A   1      34.992  32.022  29.242  1.00  0.00    -0.744 OA
ENDBRANCH  77  81
ENDBRANCH  50  74
BRANCH  62  85
ATOM     85  C   UNL A   1      44.766  33.691  29.580  1.00  0.00     0.023 A 
ATOM     86  C   UNL A   1      44.477  34.799  28.763  1.00  0.00     0.031 A 
ATOM     87  C   UNL A   1      45.600  33.894  30.694  1.00  0.00     0.131 A 
ATOM     88  C   UNL A   1      45.067  36.043  29.035  1.00  0.00     0.055 A 
ATOM     89  C   UNL A   1      46.131  35.148  30.998  1.00  0.00     0.041 A 
ATOM     90  F   UNL A   1      45.913  32.873  31.508  1.00  0.00    -0.206 F 
ATOM     91  C   UNL A   1      45.877  36.229  30.157  1.00  0.00     0.022 A 
BRANCH  88  92
ATOM     92  S   UNL A   1      44.848  37.391  27.841  1.00  0.00     0.124 S 
ATOM     93  O   UNL A   1      44.778  38.559  28.711  1.00  0.00    -0.237 OA
ATOM     94  O   UNL A   1      46.050  37.278  27.021  1.00  0.00    -0.237 OA
ATOM     95  O   UNL A   1      43.601  37.048  27.161  1.00  0.00    -0.744 OA
ENDBRANCH  88  92
ENDBRANCH  62  85
ENDBRANCH  36  37
ENDBRANCH  29  31
ENDBRANCH  28  29
ENDBRANCH  27  28
ENDBRANCH  26  27
ENDBRANCH   1  26
TORSDOF 20
ENDMDL
