MODEL 1
REMARK VINA RESULT:     -13.0      0.000      0.000
REMARK SMILES O=C(NC1(C(=O)OCCOCCOC(=O)c2ccc(-c3c4nc(c(-c5cc(S(=O)(=O)[O-])ccc5F)c5ccc([nH]5)c(-c5cc(S(=O)(=O)[O-])ccc5F)c5nc(c(-c6cc(S(=O)(=O)[O-])ccc6F)c6ccc3[nH]6)C=C5)C=C4)cc2)Cc2ccccc2C1)OCC1c2ccccc2-c2ccccc21
REMARK SMILES IDX 9 1 8 2 7 3 5 4 6 5 4 6 79 7 86 8 80 9 85 10 81 11 84 12
REMARK SMILES IDX 82 13 83 14 3 15 1 16 2 17 87 19 88 20 89 21 90 22 101 23
REMARK SMILES IDX 91 24 95 25 96 26 100 27 92 28 94 29 97 30 99 31 93 32 98 33
REMARK SMILES IDX 10 34 11 35 12 36 13 37 14 38 15 39 16 40 17 41 78 42 18 43
REMARK SMILES IDX 77 44 19 45 20 46 21 47 71 48 22 49 76 50 70 51 72 52 23 53
REMARK SMILES IDX 75 54 69 55 68 56 24 58 56 59 36 60 55 61 37 62 40 63 54 64
REMARK SMILES IDX 73 65 38 66 39 67 53 69 74 70 41 71 25 72 26 73 34 74 27 75
REMARK SMILES IDX 33 76 35 77 32 78 28 79 29 80 30 81 31 82 57 83 58 84 66 85
REMARK SMILES IDX 59 86 65 87 67 88 64 89 60 90 61 91 62 92 63 93 42 94 43 95
REMARK SMILES IDX 51 96 44 97 50 98 52 99 49 100 45 101 46 102 47 103 48 104
REMARK H PARENT 3 18 72 57 40 68
REMARK Flexibility Score: inf
ROOT
ATOM      1  C   UNL A   1      32.060  28.699  27.298  1.00  0.00     0.202 C 
ENDROOT
BRANCH   1   2
ATOM      2  C   UNL A   1      32.562  27.546  26.419  1.00  0.00     0.261 C 
BRANCH   2   3
ATOM      3  O   UNL A   1      31.852  27.394  25.172  1.00  0.00    -0.461 OA
BRANCH   3   4
ATOM      4  C   UNL A   1      32.508  27.888  24.087  1.00  0.00     0.332 C 
ATOM      5  O   UNL A   1      33.630  28.387  24.169  1.00  0.00    -0.249 OA
BRANCH   4   6
ATOM      6  C   UNL A   1      31.756  27.723  22.723  1.00  0.00     0.149 C 
ATOM      7  C   UNL A   1      31.256  29.082  22.178  1.00  0.00     0.076 C 
ATOM      8  C   UNL A   1      30.459  26.861  22.819  1.00  0.00     0.076 C 
ATOM      9  C   UNL A   1      29.844  29.149  22.612  1.00  0.00    -0.042 A 
ATOM     10  C   UNL A   1      29.382  27.895  22.993  1.00  0.00    -0.042 A 
ATOM     11  C   UNL A   1      29.051  30.282  22.632  1.00  0.00     0.004 A 
ATOM     12  C   UNL A   1      28.079  27.753  23.432  1.00  0.00     0.004 A 
ATOM     13  C   UNL A   1      27.746  30.151  23.084  1.00  0.00     0.000 A 
ATOM     14  C   UNL A   1      27.264  28.894  23.485  1.00  0.00     0.000 A 
BRANCH   6  15
ATOM     15  N   UNL A   1      32.788  27.112  21.831  1.00  0.00    -0.305 N 
ATOM     16  O   UNL A   1      33.351  25.246  20.629  1.00  0.00    -0.225 OA
ATOM     17  C   UNL A   1      32.853  25.749  21.631  1.00  0.00     0.408 C 
ATOM     18  H   UNL A   1      33.437  27.696  21.375  1.00  0.00     0.168 HD
BRANCH  17  19
ATOM     19  O   UNL A   1      32.259  25.066  22.630  1.00  0.00    -0.449 OA
BRANCH  19  20
ATOM     20  C   UNL A   1      32.105  23.650  22.509  1.00  0.00     0.248 C 
BRANCH  20  21
ATOM     21  C   UNL A   1      32.514  22.947  23.821  1.00  0.00     0.088 C 
ATOM     22  C   UNL A   1      33.790  23.354  24.571  1.00  0.00    -0.029 A 
ATOM     23  C   UNL A   1      32.698  21.431  23.732  1.00  0.00    -0.029 A 
ATOM     24  C   UNL A   1      34.370  24.600  24.755  1.00  0.00     0.005 A 
ATOM     25  C   UNL A   1      34.412  22.197  25.107  1.00  0.00    -0.014 A 
ATOM     26  C   UNL A   1      33.722  21.023  24.617  1.00  0.00    -0.014 A 
ATOM     27  C   UNL A   1      32.041  20.505  22.939  1.00  0.00     0.005 A 
ATOM     28  C   UNL A   1      35.584  24.677  25.455  1.00  0.00     0.000 A 
ATOM     29  C   UNL A   1      35.587  22.279  25.842  1.00  0.00     0.009 A 
ATOM     30  C   UNL A   1      34.009  19.680  24.806  1.00  0.00     0.009 A 
ATOM     31  C   UNL A   1      32.368  19.153  23.091  1.00  0.00     0.000 A 
ATOM     32  C   UNL A   1      36.180  23.531  26.007  1.00  0.00     0.001 A 
ATOM     33  C   UNL A   1      33.315  18.742  24.041  1.00  0.00     0.001 A 
ENDBRANCH  20  21
ENDBRANCH  19  20
ENDBRANCH  17  19
ENDBRANCH   6  15
ENDBRANCH   4   6
ENDBRANCH   3   4
ENDBRANCH   2   3
ENDBRANCH   1   2
BRANCH   1  34
ATOM     34  O   UNL A   1      31.307  29.733  26.672  1.00  0.00    -0.374 OA
BRANCH  34  35
ATOM     35  C   UNL A   1      31.992  30.924  26.288  1.00  0.00     0.202 C 
BRANCH  35  36
ATOM     36  C   UNL A   1      31.624  32.232  27.003  1.00  0.00     0.261 C 
BRANCH  36  37
ATOM     37  O   UNL A   1      32.631  33.254  26.855  1.00  0.00    -0.460 OA
BRANCH  37  38
ATOM     38  C   UNL A   1      33.222  33.623  28.022  1.00  0.00     0.338 C 
ATOM     39  O   UNL A   1      32.738  34.329  28.889  1.00  0.00    -0.246 OA
BRANCH  38  40
ATOM     40  C   UNL A   1      34.493  32.900  28.223  1.00  0.00     0.060 A 
ATOM     41  C   UNL A   1      34.416  31.569  28.653  1.00  0.00     0.016 A 
ATOM     42  C   UNL A   1      35.727  33.547  28.144  1.00  0.00     0.016 A 
ATOM     43  C   UNL A   1      35.566  30.898  29.064  1.00  0.00     0.010 A 
ATOM     44  C   UNL A   1      36.881  32.873  28.566  1.00  0.00     0.010 A 
ATOM     45  C   UNL A   1      36.800  31.561  29.070  1.00  0.00    -0.014 A 
BRANCH  45  46
ATOM     46  C   UNL A   1      37.955  30.936  29.767  1.00  0.00     0.031 A 
ATOM     47  C   UNL A   1      38.218  31.294  31.208  1.00  0.00     0.074 A 
ATOM     48  C   UNL A   1      38.720  30.016  29.153  1.00  0.00     0.049 A 
ATOM     49  N   UNL A   1      39.162  30.875  32.011  1.00  0.00    -0.248 NA
ATOM     50  C   UNL A   1      37.287  32.254  31.822  1.00  0.00     0.031 C 
ATOM     51  C   UNL A   1      38.532  29.543  27.782  1.00  0.00     0.029 A 
ATOM     52  N   UNL A   1      39.808  29.312  29.606  1.00  0.00    -0.354 N 
ATOM     53  C   UNL A   1      38.943  31.519  33.225  1.00  0.00     0.074 A 
ATOM     54  C   UNL A   1      37.796  32.384  33.037  1.00  0.00     0.031 C 
ATOM     55  C   UNL A   1      39.476  28.628  27.504  1.00  0.00     0.029 A 
ATOM     56  C   UNL A   1      40.358  28.477  28.662  1.00  0.00     0.049 A 
ATOM     57  H   UNL A   1      40.162  29.397  30.520  1.00  0.00     0.167 HD
ATOM     58  C   UNL A   1      39.626  31.395  34.390  1.00  0.00     0.034 A 
ATOM     59  C   UNL A   1      41.458  27.699  28.716  1.00  0.00     0.034 A 
ATOM     60  C   UNL A   1      40.771  30.534  34.563  1.00  0.00     0.049 A 
ATOM     61  C   UNL A   1      42.261  27.647  29.995  1.00  0.00     0.074 A 
ATOM     62  C   UNL A   1      41.528  30.323  35.704  1.00  0.00     0.029 A 
ATOM     63  N   UNL A   1      41.339  29.752  33.565  1.00  0.00    -0.354 N 
ATOM     64  N   UNL A   1      42.040  28.260  31.136  1.00  0.00    -0.248 NA
ATOM     65  C   UNL A   1      43.457  26.795  29.993  1.00  0.00     0.031 C 
ATOM     66  C   UNL A   1      42.590  29.472  35.377  1.00  0.00     0.029 A 
ATOM     67  C   UNL A   1      42.454  29.090  34.053  1.00  0.00     0.049 A 
ATOM     68  H   UNL A   1      40.998  29.680  32.644  1.00  0.00     0.167 HD
ATOM     69  C   UNL A   1      43.054  27.839  31.995  1.00  0.00     0.074 A 
ATOM     70  C   UNL A   1      43.878  26.915  31.244  1.00  0.00     0.031 C 
ATOM     71  C   UNL A   1      43.278  28.181  33.290  1.00  0.00     0.034 A 
BRANCH  58  72
ATOM     72  C   UNL A   1      39.183  32.255  35.549  1.00  0.00     0.023 A 
ATOM     73  C   UNL A   1      39.619  33.583  35.699  1.00  0.00     0.031 A 
ATOM     74  C   UNL A   1      38.332  31.727  36.536  1.00  0.00     0.131 A 
ATOM     75  C   UNL A   1      39.258  34.314  36.841  1.00  0.00     0.055 A 
ATOM     76  C   UNL A   1      37.914  32.484  37.632  1.00  0.00     0.041 A 
ATOM     77  F   UNL A   1      37.901  30.458  36.458  1.00  0.00    -0.206 F 
ATOM     78  C   UNL A   1      38.389  33.782  37.797  1.00  0.00     0.022 A 
BRANCH  75  79
ATOM     79  S   UNL A   1      40.050  35.920  37.133  1.00  0.00     0.124 S 
ATOM     80  O   UNL A   1      39.712  36.643  35.909  1.00  0.00    -0.237 OA
ATOM     81  O   UNL A   1      39.392  36.380  38.349  1.00  0.00    -0.237 OA
ATOM     82  O   UNL A   1      41.466  35.584  37.278  1.00  0.00    -0.744 OA
ENDBRANCH  75  79
ENDBRANCH  58  72
BRANCH  59  83
ATOM     83  C   UNL A   1      41.903  26.934  27.515  1.00  0.00     0.023 A 
ATOM     84  C   UNL A   1      41.709  25.547  27.420  1.00  0.00     0.031 A 
ATOM     85  C   UNL A   1      42.584  27.578  26.467  1.00  0.00     0.131 A 
ATOM     86  C   UNL A   1      42.229  24.842  26.324  1.00  0.00     0.055 A 
ATOM     87  C   UNL A   1      43.056  26.881  25.354  1.00  0.00     0.041 A 
ATOM     88  F   UNL A   1      42.798  28.903  26.508  1.00  0.00    -0.206 F 
ATOM     89  C   UNL A   1      42.889  25.501  25.284  1.00  0.00     0.022 A 
BRANCH  86  90
ATOM     90  S   UNL A   1      42.103  23.033  26.314  1.00  0.00     0.124 S 
ATOM     91  O   UNL A   1      40.665  22.834  26.461  1.00  0.00    -0.237 OA
ATOM     92  O   UNL A   1      42.668  22.698  25.011  1.00  0.00    -0.237 OA
ATOM     93  O   UNL A   1      42.910  22.628  27.463  1.00  0.00    -0.744 OA
ENDBRANCH  86  90
ENDBRANCH  59  83
BRANCH  71  94
ATOM     94  C   UNL A   1      44.441  27.513  33.986  1.00  0.00     0.023 A 
ATOM     95  C   UNL A   1      44.287  26.314  34.703  1.00  0.00     0.031 A 
ATOM     96  C   UNL A   1      45.721  28.095  33.938  1.00  0.00     0.131 A 
ATOM     97  C   UNL A   1      45.382  25.763  35.387  1.00  0.00     0.055 A 
ATOM     98  C   UNL A   1      46.818  27.511  34.572  1.00  0.00     0.041 A 
ATOM     99  F   UNL A   1      45.926  29.242  33.269  1.00  0.00    -0.206 F 
ATOM    100  C   UNL A   1      46.650  26.345  35.312  1.00  0.00     0.022 A 
BRANCH  97 101
ATOM    101  S   UNL A   1      45.110  24.318  36.449  1.00  0.00     0.124 S 
ATOM    102  O   UNL A   1      44.401  24.904  37.582  1.00  0.00    -0.237 OA
ATOM    103  O   UNL A   1      44.321  23.442  35.589  1.00  0.00    -0.237 OA
ATOM    104  O   UNL A   1      46.462  23.845  36.740  1.00  0.00    -0.744 OA
ENDBRANCH  97 101
ENDBRANCH  71  94
ENDBRANCH  45  46
ENDBRANCH  38  40
ENDBRANCH  37  38
ENDBRANCH  36  37
ENDBRANCH  35  36
ENDBRANCH  34  35
ENDBRANCH   1  34
TORSDOF 21
ENDMDL
MODEL 2
REMARK VINA RESULT:     -12.8      1.809      7.559
REMARK SMILES O=C(NC1(C(=O)OCCOCCOC(=O)c2ccc(-c3c4nc(c(-c5cc(S(=O)(=O)[O-])ccc5F)c5ccc([nH]5)c(-c5cc(S(=O)(=O)[O-])ccc5F)c5nc(c(-c6cc(S(=O)(=O)[O-])ccc6F)c6ccc3[nH]6)C=C5)C=C4)cc2)Cc2ccccc2C1)OCC1c2ccccc2-c2ccccc21
REMARK SMILES IDX 9 1 8 2 7 3 5 4 6 5 4 6 79 7 86 8 80 9 85 10 81 11 84 12
REMARK SMILES IDX 82 13 83 14 3 15 1 16 2 17 87 19 88 20 89 21 90 22 101 23
REMARK SMILES IDX 91 24 95 25 96 26 100 27 92 28 94 29 97 30 99 31 93 32 98 33
REMARK SMILES IDX 10 34 11 35 12 36 13 37 14 38 15 39 16 40 17 41 78 42 18 43
REMARK SMILES IDX 77 44 19 45 20 46 21 47 71 48 22 49 76 50 70 51 72 52 23 53
REMARK SMILES IDX 75 54 69 55 68 56 24 58 56 59 36 60 55 61 37 62 40 63 54 64
REMARK SMILES IDX 73 65 38 66 39 67 53 69 74 70 41 71 25 72 26 73 34 74 27 75
REMARK SMILES IDX 33 76 35 77 32 78 28 79 29 80 30 81 31 82 57 83 58 84 66 85
REMARK SMILES IDX 59 86 65 87 67 88 64 89 60 90 61 91 62 92 63 93 42 94 43 95
REMARK SMILES IDX 51 96 44 97 50 98 52 99 49 100 45 101 46 102 47 103 48 104
REMARK H PARENT 3 18 72 57 40 68
REMARK Flexibility Score: inf
ROOT
ATOM      1  C   UNL A   1      32.763  27.210  26.414  1.00  0.00     0.202 C 
ENDROOT
BRANCH   1   2
ATOM      2  C   UNL A   1      33.635  26.464  25.396  1.00  0.00     0.261 C 
BRANCH   2   3
ATOM      3  O   UNL A   1      33.175  25.134  25.078  1.00  0.00    -0.461 OA
BRANCH   3   4
ATOM      4  C   UNL A   1      33.474  24.720  23.817  1.00  0.00     0.332 C 
ATOM      5  O   UNL A   1      34.632  24.526  23.447  1.00  0.00    -0.249 OA
BRANCH   4   6
ATOM      6  C   UNL A   1      32.238  24.454  22.894  1.00  0.00     0.149 C 
ATOM      7  C   UNL A   1      32.066  25.568  21.834  1.00  0.00     0.076 C 
ATOM      8  C   UNL A   1      30.875  24.449  23.651  1.00  0.00     0.076 C 
ATOM      9  C   UNL A   1      31.060  26.477  22.423  1.00  0.00    -0.042 A 
ATOM     10  C   UNL A   1      30.384  25.859  23.468  1.00  0.00    -0.042 A 
ATOM     11  C   UNL A   1      30.784  27.767  22.007  1.00  0.00     0.004 A 
ATOM     12  C   UNL A   1      29.400  26.550  24.147  1.00  0.00     0.004 A 
ATOM     13  C   UNL A   1      29.807  28.473  22.692  1.00  0.00     0.000 A 
ATOM     14  C   UNL A   1      29.121  27.870  23.759  1.00  0.00     0.000 A 
BRANCH   6  15
ATOM     15  N   UNL A   1      32.552  23.133  22.267  1.00  0.00    -0.305 N 
ATOM     16  O   UNL A   1      31.938  20.932  22.140  1.00  0.00    -0.225 OA
ATOM     17  C   UNL A   1      32.090  21.951  22.805  1.00  0.00     0.408 C 
ATOM     18  H   UNL A   1      33.102  23.107  21.451  1.00  0.00     0.168 HD
BRANCH  17  19
ATOM     19  O   UNL A   1      31.780  22.081  24.111  1.00  0.00    -0.449 OA
BRANCH  19  20
ATOM     20  C   UNL A   1      32.569  21.394  25.084  1.00  0.00     0.248 C 
BRANCH  20  21
ATOM     21  C   UNL A   1      33.634  20.515  24.394  1.00  0.00     0.088 C 
ATOM     22  C   UNL A   1      33.595  18.985  24.515  1.00  0.00    -0.029 A 
ATOM     23  C   UNL A   1      35.086  20.802  24.782  1.00  0.00    -0.029 A 
ATOM     24  C   UNL A   1      32.520  18.109  24.549  1.00  0.00     0.005 A 
ATOM     25  C   UNL A   1      34.918  18.486  24.626  1.00  0.00    -0.014 A 
ATOM     26  C   UNL A   1      35.832  19.602  24.757  1.00  0.00    -0.014 A 
ATOM     27  C   UNL A   1      35.686  21.999  25.137  1.00  0.00     0.005 A 
ATOM     28  C   UNL A   1      32.776  16.740  24.719  1.00  0.00     0.000 A 
ATOM     29  C   UNL A   1      35.174  17.127  24.743  1.00  0.00     0.009 A 
ATOM     30  C   UNL A   1      37.202  19.609  24.964  1.00  0.00     0.009 A 
ATOM     31  C   UNL A   1      37.060  21.997  25.398  1.00  0.00     0.000 A 
ATOM     32  C   UNL A   1      34.090  16.251  24.799  1.00  0.00     0.001 A 
ATOM     33  C   UNL A   1      37.817  20.821  25.276  1.00  0.00     0.001 A 
ENDBRANCH  20  21
ENDBRANCH  19  20
ENDBRANCH  17  19
ENDBRANCH   6  15
ENDBRANCH   4   6
ENDBRANCH   3   4
ENDBRANCH   2   3
ENDBRANCH   1   2
BRANCH   1  34
ATOM     34  O   UNL A   1      31.779  28.110  25.915  1.00  0.00    -0.374 OA
BRANCH  34  35
ATOM     35  C   UNL A   1      32.223  29.321  25.306  1.00  0.00     0.202 C 
BRANCH  35  36
ATOM     36  C   UNL A   1      31.793  30.650  25.944  1.00  0.00     0.261 C 
BRANCH  36  37
ATOM     37  O   UNL A   1      32.334  30.836  27.267  1.00  0.00    -0.460 OA
BRANCH  37  38
ATOM     38  C   UNL A   1      33.166  31.905  27.381  1.00  0.00     0.338 C 
ATOM     39  O   UNL A   1      32.848  33.081  27.326  1.00  0.00    -0.246 OA
BRANCH  38  40
ATOM     40  C   UNL A   1      34.522  31.482  27.780  1.00  0.00     0.060 A 
ATOM     41  C   UNL A   1      34.710  30.127  28.086  1.00  0.00     0.016 A 
ATOM     42  C   UNL A   1      35.545  32.405  27.999  1.00  0.00     0.016 A 
ATOM     43  C   UNL A   1      35.902  29.700  28.668  1.00  0.00     0.010 A 
ATOM     44  C   UNL A   1      36.740  31.973  28.593  1.00  0.00     0.010 A 
ATOM     45  C   UNL A   1      36.906  30.628  28.971  1.00  0.00    -0.014 A 
BRANCH  45  46
ATOM     46  C   UNL A   1      38.040  30.211  29.839  1.00  0.00     0.031 A 
ATOM     47  C   UNL A   1      39.045  29.226  29.300  1.00  0.00     0.074 A 
ATOM     48  C   UNL A   1      38.210  30.745  31.061  1.00  0.00     0.049 A 
ATOM     49  N   UNL A   1      40.107  28.722  29.875  1.00  0.00    -0.248 NA
ATOM     50  C   UNL A   1      38.820  28.748  27.927  1.00  0.00     0.031 C 
ATOM     51  C   UNL A   1      37.339  31.749  31.671  1.00  0.00     0.029 A 
ATOM     52  N   UNL A   1      39.178  30.519  32.008  1.00  0.00    -0.354 N 
ATOM     53  C   UNL A   1      40.678  27.866  28.937  1.00  0.00     0.074 A 
ATOM     54  C   UNL A   1      39.821  27.895  27.770  1.00  0.00     0.031 C 
ATOM     55  C   UNL A   1      37.811  32.050  32.892  1.00  0.00     0.029 A 
ATOM     56  C   UNL A   1      38.995  31.235  33.168  1.00  0.00     0.049 A 
ATOM     57  H   UNL A   1      39.932  29.903  31.871  1.00  0.00     0.167 HD
ATOM     58  C   UNL A   1      41.815  27.132  29.035  1.00  0.00     0.034 A 
ATOM     59  C   UNL A   1      39.687  31.219  34.325  1.00  0.00     0.034 A 
ATOM     60  C   UNL A   1      42.657  27.106  30.206  1.00  0.00     0.049 A 
ATOM     61  C   UNL A   1      40.897  30.322  34.446  1.00  0.00     0.074 A 
ATOM     62  C   UNL A   1      43.837  26.409  30.405  1.00  0.00     0.029 A 
ATOM     63  N   UNL A   1      42.403  27.795  31.386  1.00  0.00    -0.354 N 
ATOM     64  N   UNL A   1      41.427  29.521  33.551  1.00  0.00    -0.248 NA
ATOM     65  C   UNL A   1      41.604  30.334  35.734  1.00  0.00     0.031 C 
ATOM     66  C   UNL A   1      44.257  26.620  31.724  1.00  0.00     0.029 A 
ATOM     67  C   UNL A   1      43.382  27.510  32.326  1.00  0.00     0.049 A 
ATOM     68  H   UNL A   1      41.639  28.398  31.533  1.00  0.00     0.167 HD
ATOM     69  C   UNL A   1      42.547  28.959  34.159  1.00  0.00     0.074 A 
ATOM     70  C   UNL A   1      42.621  29.520  35.492  1.00  0.00     0.031 C 
ATOM     71  C   UNL A   1      43.438  28.065  33.658  1.00  0.00     0.034 A 
BRANCH  58  72
ATOM     72  C   UNL A   1      42.176  26.255  27.862  1.00  0.00     0.023 A 
ATOM     73  C   UNL A   1      41.749  24.918  27.771  1.00  0.00     0.031 A 
ATOM     74  C   UNL A   1      42.988  26.756  26.828  1.00  0.00     0.131 A 
ATOM     75  C   UNL A   1      42.188  24.112  26.710  1.00  0.00     0.055 A 
ATOM     76  C   UNL A   1      43.359  25.971  25.734  1.00  0.00     0.041 A 
ATOM     77  F   UNL A   1      43.445  28.018  26.870  1.00  0.00    -0.206 F 
ATOM     78  C   UNL A   1      42.971  24.637  25.678  1.00  0.00     0.022 A 
BRANCH  75  79
ATOM     79  S   UNL A   1      41.839  22.333  26.767  1.00  0.00     0.124 S 
ATOM     80  O   UNL A   1      42.057  21.945  25.375  1.00  0.00    -0.237 OA
ATOM     81  O   UNL A   1      42.823  21.849  27.727  1.00  0.00    -0.237 OA
ATOM     82  O   UNL A   1      40.448  22.269  27.213  1.00  0.00    -0.744 OA
ENDBRANCH  75  79
ENDBRANCH  58  72
BRANCH  59  83
ATOM     83  C   UNL A   1      39.237  32.041  35.486  1.00  0.00     0.023 A 
ATOM     84  C   UNL A   1      38.549  31.465  36.565  1.00  0.00     0.031 A 
ATOM     85  C   UNL A   1      39.443  33.432  35.502  1.00  0.00     0.131 A 
ATOM     86  C   UNL A   1      38.051  32.282  37.592  1.00  0.00     0.055 A 
ATOM     87  C   UNL A   1      38.990  34.234  36.551  1.00  0.00     0.041 A 
ATOM     88  F   UNL A   1      40.094  34.035  34.494  1.00  0.00    -0.206 F 
ATOM     89  C   UNL A   1      38.279  33.660  37.600  1.00  0.00     0.022 A 
BRANCH  86  90
ATOM     90  S   UNL A   1      37.027  31.526  38.885  1.00  0.00     0.124 S 
ATOM     91  O   UNL A   1      36.880  30.162  38.388  1.00  0.00    -0.237 OA
ATOM     92  O   UNL A   1      37.864  31.692  40.069  1.00  0.00    -0.237 OA
ATOM     93  O   UNL A   1      35.809  32.332  38.869  1.00  0.00    -0.744 OA
ENDBRANCH  86  90
ENDBRANCH  59  83
BRANCH  71  94
ATOM     94  C   UNL A   1      44.595  27.675  34.547  1.00  0.00     0.023 A 
ATOM     95  C   UNL A   1      44.538  26.552  35.390  1.00  0.00     0.031 A 
ATOM     96  C   UNL A   1      45.769  28.450  34.557  1.00  0.00     0.131 A 
ATOM     97  C   UNL A   1      45.613  26.265  36.246  1.00  0.00     0.055 A 
ATOM     98  C   UNL A   1      46.858  28.126  35.368  1.00  0.00     0.041 A 
ATOM     99  F   UNL A   1      45.878  29.536  33.774  1.00  0.00    -0.206 F 
ATOM    100  C   UNL A   1      46.779  27.035  36.228  1.00  0.00     0.022 A 
BRANCH  97 101
ATOM    101  S   UNL A   1      45.436  24.918  37.448  1.00  0.00     0.124 S 
ATOM    102  O   UNL A   1      46.390  25.307  38.482  1.00  0.00    -0.237 OA
ATOM    103  O   UNL A   1      44.027  25.009  37.814  1.00  0.00    -0.237 OA
ATOM    104  O   UNL A   1      45.800  23.725  36.685  1.00  0.00    -0.744 OA
ENDBRANCH  97 101
ENDBRANCH  71  94
ENDBRANCH  45  46
ENDBRANCH  38  40
ENDBRANCH  37  38
ENDBRANCH  36  37
ENDBRANCH  35  36
ENDBRANCH  34  35
ENDBRANCH   1  34
TORSDOF 21
ENDMDL
MODEL 3
REMARK VINA RESULT:     -12.6      2.226      7.396
REMARK SMILES O=C(NC1(C(=O)OCCOCCOC(=O)c2ccc(-c3c4nc(c(-c5cc(S(=O)(=O)[O-])ccc5F)c5ccc([nH]5)c(-c5cc(S(=O)(=O)[O-])ccc5F)c5nc(c(-c6cc(S(=O)(=O)[O-])ccc6F)c6ccc3[nH]6)C=C5)C=C4)cc2)Cc2ccccc2C1)OCC1c2ccccc2-c2ccccc21
REMARK SMILES IDX 9 1 8 2 7 3 5 4 6 5 4 6 79 7 86 8 80 9 85 10 81 11 84 12
REMARK SMILES IDX 82 13 83 14 3 15 1 16 2 17 87 19 88 20 89 21 90 22 101 23
REMARK SMILES IDX 91 24 95 25 96 26 100 27 92 28 94 29 97 30 99 31 93 32 98 33
REMARK SMILES IDX 10 34 11 35 12 36 13 37 14 38 15 39 16 40 17 41 78 42 18 43
REMARK SMILES IDX 77 44 19 45 20 46 21 47 71 48 22 49 76 50 70 51 72 52 23 53
REMARK SMILES IDX 75 54 69 55 68 56 24 58 56 59 36 60 55 61 37 62 40 63 54 64
REMARK SMILES IDX 73 65 38 66 39 67 53 69 74 70 41 71 25 72 26 73 34 74 27 75
REMARK SMILES IDX 33 76 35 77 32 78 28 79 29 80 30 81 31 82 57 83 58 84 66 85
REMARK SMILES IDX 59 86 65 87 67 88 64 89 60 90 61 91 62 92 63 93 42 94 43 95
REMARK SMILES IDX 51 96 44 97 50 98 52 99 49 100 45 101 46 102 47 103 48 104
REMARK H PARENT 3 18 72 57 40 68
REMARK Flexibility Score: inf
ROOT
ATOM      1  C   UNL A   1      32.061  28.535  27.306  1.00  0.00     0.202 C 
ENDROOT
BRANCH   1   2
ATOM      2  C   UNL A   1      32.230  27.317  26.389  1.00  0.00     0.261 C 
BRANCH   2   3
ATOM      3  O   UNL A   1      31.557  27.428  25.118  1.00  0.00    -0.461 OA
BRANCH   3   4
ATOM      4  C   UNL A   1      32.326  27.931  24.114  1.00  0.00     0.332 C 
ATOM      5  O   UNL A   1      33.494  28.276  24.292  1.00  0.00    -0.249 OA
BRANCH   4   6
ATOM      6  C   UNL A   1      31.635  27.983  22.710  1.00  0.00     0.149 C 
ATOM      7  C   UNL A   1      31.241  29.428  22.320  1.00  0.00     0.076 C 
ATOM      8  C   UNL A   1      30.289  27.200  22.640  1.00  0.00     0.076 C 
ATOM      9  C   UNL A   1      29.816  29.530  22.698  1.00  0.00    -0.042 A 
ATOM     10  C   UNL A   1      29.264  28.270  22.897  1.00  0.00    -0.042 A 
ATOM     11  C   UNL A   1      29.089  30.699  22.828  1.00  0.00     0.004 A 
ATOM     12  C   UNL A   1      27.935  28.157  23.258  1.00  0.00     0.004 A 
ATOM     13  C   UNL A   1      27.757  30.595  23.202  1.00  0.00     0.000 A 
ATOM     14  C   UNL A   1      27.185  29.331  23.420  1.00  0.00     0.000 A 
BRANCH   6  15
ATOM     15  N   UNL A   1      32.675  27.423  21.793  1.00  0.00    -0.305 N 
ATOM     16  O   UNL A   1      33.274  25.607  20.535  1.00  0.00    -0.225 OA
ATOM     17  C   UNL A   1      32.773  26.069  21.555  1.00  0.00     0.408 C 
ATOM     18  H   UNL A   1      33.304  28.036  21.348  1.00  0.00     0.168 HD
BRANCH  17  19
ATOM     19  O   UNL A   1      32.205  25.343  22.539  1.00  0.00    -0.449 OA
BRANCH  19  20
ATOM     20  C   UNL A   1      32.709  24.036  22.818  1.00  0.00     0.248 C 
BRANCH  20  21
ATOM     21  C   UNL A   1      33.629  24.063  24.058  1.00  0.00     0.088 C 
ATOM     22  C   UNL A   1      34.969  23.316  24.064  1.00  0.00    -0.029 A 
ATOM     23  C   UNL A   1      33.004  23.556  25.359  1.00  0.00    -0.029 A 
ATOM     24  C   UNL A   1      35.902  23.126  23.056  1.00  0.00     0.005 A 
ATOM     25  C   UNL A   1      35.185  22.746  25.345  1.00  0.00    -0.014 A 
ATOM     26  C   UNL A   1      33.992  22.923  26.146  1.00  0.00    -0.014 A 
ATOM     27  C   UNL A   1      31.693  23.632  25.800  1.00  0.00     0.005 A 
ATOM     28  C   UNL A   1      37.036  22.345  23.330  1.00  0.00     0.000 A 
ATOM     29  C   UNL A   1      36.331  22.016  25.631  1.00  0.00     0.009 A 
ATOM     30  C   UNL A   1      33.706  22.473  27.425  1.00  0.00     0.009 A 
ATOM     31  C   UNL A   1      31.392  23.129  27.069  1.00  0.00     0.000 A 
ATOM     32  C   UNL A   1      37.257  21.808  24.608  1.00  0.00     0.001 A 
ATOM     33  C   UNL A   1      32.396  22.590  27.889  1.00  0.00     0.001 A 
ENDBRANCH  20  21
ENDBRANCH  19  20
ENDBRANCH  17  19
ENDBRANCH   6  15
ENDBRANCH   4   6
ENDBRANCH   3   4
ENDBRANCH   2   3
ENDBRANCH   1   2
BRANCH   1  34
ATOM     34  O   UNL A   1      33.148  29.449  27.404  1.00  0.00    -0.374 OA
BRANCH  34  35
ATOM     35  C   UNL A   1      32.901  30.822  27.106  1.00  0.00     0.202 C 
BRANCH  35  36
ATOM     36  C   UNL A   1      33.833  31.875  27.726  1.00  0.00     0.261 C 
BRANCH  36  37
ATOM     37  O   UNL A   1      33.519  33.217  27.303  1.00  0.00    -0.460 OA
BRANCH  37  38
ATOM     38  C   UNL A   1      33.398  34.106  28.325  1.00  0.00     0.338 C 
ATOM     39  O   UNL A   1      32.484  34.895  28.496  1.00  0.00    -0.246 OA
BRANCH  38  40
ATOM     40  C   UNL A   1      34.436  33.881  29.349  1.00  0.00     0.060 A 
ATOM     41  C   UNL A   1      35.755  34.220  29.016  1.00  0.00     0.016 A 
ATOM     42  C   UNL A   1      34.157  33.217  30.544  1.00  0.00     0.016 A 
ATOM     43  C   UNL A   1      36.806  33.841  29.848  1.00  0.00     0.010 A 
ATOM     44  C   UNL A   1      35.218  32.830  31.375  1.00  0.00     0.010 A 
ATOM     45  C   UNL A   1      36.550  33.100  31.009  1.00  0.00    -0.014 A 
BRANCH  45  46
ATOM     46  C   UNL A   1      37.686  32.467  31.729  1.00  0.00     0.031 A 
ATOM     47  C   UNL A   1      38.427  31.333  31.069  1.00  0.00     0.074 A 
ATOM     48  C   UNL A   1      38.096  32.932  32.923  1.00  0.00     0.049 A 
ATOM     49  N   UNL A   1      39.443  30.634  31.507  1.00  0.00    -0.248 NA
ATOM     50  C   UNL A   1      37.957  30.937  29.732  1.00  0.00     0.031 C 
ATOM     51  C   UNL A   1      37.498  34.059  33.638  1.00  0.00     0.029 A 
ATOM     52  N   UNL A   1      39.114  32.515  33.743  1.00  0.00    -0.354 N 
ATOM     53  C   UNL A   1      39.735  29.715  30.504  1.00  0.00     0.074 A 
ATOM     54  C   UNL A   1      38.762  29.924  29.451  1.00  0.00     0.031 C 
ATOM     55  C   UNL A   1      38.160  34.241  34.793  1.00  0.00     0.029 A 
ATOM     56  C   UNL A   1      39.203  33.223  34.918  1.00  0.00     0.049 A 
ATOM     57  H   UNL A   1      39.724  31.778  33.512  1.00  0.00     0.167 HD
ATOM     58  C   UNL A   1      40.725  28.789  30.459  1.00  0.00     0.034 A 
ATOM     59  C   UNL A   1      40.015  33.056  35.982  1.00  0.00     0.034 A 
ATOM     60  C   UNL A   1      41.684  28.585  31.518  1.00  0.00     0.049 A 
ATOM     61  C   UNL A   1      41.051  31.956  35.951  1.00  0.00     0.074 A 
ATOM     62  C   UNL A   1      42.735  27.685  31.568  1.00  0.00     0.029 A 
ATOM     63  N   UNL A   1      41.701  29.278  32.722  1.00  0.00    -0.354 N 
ATOM     64  N   UNL A   1      41.317  31.096  34.995  1.00  0.00    -0.248 NA
ATOM     65  C   UNL A   1      41.898  31.810  37.142  1.00  0.00     0.031 C 
ATOM     66  C   UNL A   1      43.342  27.786  32.826  1.00  0.00     0.029 A 
ATOM     67  C   UNL A   1      42.719  28.801  33.533  1.00  0.00     0.049 A 
ATOM     68  H   UNL A   1      41.081  30.004  32.963  1.00  0.00     0.167 HD
ATOM     69  C   UNL A   1      42.383  30.329  35.460  1.00  0.00     0.074 A 
ATOM     70  C   UNL A   1      42.717  30.836  36.774  1.00  0.00     0.031 C 
ATOM     71  C   UNL A   1      43.033  29.304  34.850  1.00  0.00     0.034 A 
BRANCH  58  72
ATOM     72  C   UNL A   1      40.780  27.890  29.247  1.00  0.00     0.023 A 
ATOM     73  C   UNL A   1      41.703  28.099  28.207  1.00  0.00     0.031 A 
ATOM     74  C   UNL A   1      39.873  26.823  29.117  1.00  0.00     0.131 A 
ATOM     75  C   UNL A   1      41.655  27.297  27.056  1.00  0.00     0.055 A 
ATOM     76  C   UNL A   1      39.880  25.980  28.004  1.00  0.00     0.041 A 
ATOM     77  F   UNL A   1      38.954  26.589  30.067  1.00  0.00    -0.206 F 
ATOM     78  C   UNL A   1      40.765  26.224  26.958  1.00  0.00     0.022 A 
BRANCH  75  79
ATOM     79  S   UNL A   1      42.675  27.761  25.630  1.00  0.00     0.124 S 
ATOM     80  O   UNL A   1      43.950  28.079  26.270  1.00  0.00    -0.237 OA
ATOM     81  O   UNL A   1      42.652  26.550  24.820  1.00  0.00    -0.237 OA
ATOM     82  O   UNL A   1      41.970  28.907  25.061  1.00  0.00    -0.744 OA
ENDBRANCH  75  79
ENDBRANCH  58  72
BRANCH  59  83
ATOM     83  C   UNL A   1      39.864  33.916  37.192  1.00  0.00     0.023 A 
ATOM     84  C   UNL A   1      39.142  33.476  38.312  1.00  0.00     0.031 A 
ATOM     85  C   UNL A   1      40.394  35.218  37.217  1.00  0.00     0.131 A 
ATOM     86  C   UNL A   1      38.932  34.348  39.393  1.00  0.00     0.055 A 
ATOM     87  C   UNL A   1      40.226  36.063  38.315  1.00  0.00     0.041 A 
ATOM     88  F   UNL A   1      41.092  35.688  36.170  1.00  0.00    -0.206 F 
ATOM     89  C   UNL A   1      39.480  35.632  39.408  1.00  0.00     0.022 A 
BRANCH  86  90
ATOM     90  S   UNL A   1      37.858  33.805  40.751  1.00  0.00     0.124 S 
ATOM     91  O   UNL A   1      38.716  32.851  41.445  1.00  0.00    -0.237 OA
ATOM     92  O   UNL A   1      37.597  35.060  41.449  1.00  0.00    -0.237 OA
ATOM     93  O   UNL A   1      36.706  33.226  40.064  1.00  0.00    -0.744 OA
ENDBRANCH  86  90
ENDBRANCH  59  83
BRANCH  71  94
ATOM     94  C   UNL A   1      44.201  28.694  35.589  1.00  0.00     0.023 A 
ATOM     95  C   UNL A   1      44.047  27.574  36.424  1.00  0.00     0.031 A 
ATOM     96  C   UNL A   1      45.486  29.252  35.462  1.00  0.00     0.131 A 
ATOM     97  C   UNL A   1      45.148  27.079  37.141  1.00  0.00     0.055 A 
ATOM     98  C   UNL A   1      46.589  28.720  36.132  1.00  0.00     0.041 A 
ATOM     99  F   UNL A   1      45.691  30.324  34.679  1.00  0.00    -0.206 F 
ATOM    100  C   UNL A   1      46.421  27.635  36.987  1.00  0.00     0.022 A 
BRANCH  97 101
ATOM    101  S   UNL A   1      44.880  25.750  38.346  1.00  0.00     0.124 S 
ATOM    102  O   UNL A   1      46.246  25.416  38.738  1.00  0.00    -0.237 OA
ATOM    103  O   UNL A   1      44.068  26.410  39.363  1.00  0.00    -0.237 OA
ATOM    104  O   UNL A   1      44.187  24.720  37.573  1.00  0.00    -0.744 OA
ENDBRANCH  97 101
ENDBRANCH  71  94
ENDBRANCH  45  46
ENDBRANCH  38  40
ENDBRANCH  37  38
ENDBRANCH  36  37
ENDBRANCH  35  36
ENDBRANCH  34  35
ENDBRANCH   1  34
TORSDOF 21
ENDMDL
