MODEL 1
REMARK VINA RESULT:      -9.3      0.000      0.000
REMARK SMILES CC(C)Oc1ccc(-c2ccc(/C(=C\c3ccc(S(C)(=O)=O)cc3)C(=O)OCCOCCOC(=O)c3ccc(-c4c5nc(c(-c6cc(S(=O)(=O)[O-])ccc6F)c6ccc([nH]6)c(-c6cc(S(=O)(=O)[O-])ccc6F)c6nc(c(-c7cc(S(=O)(=O)[O-])ccc7F)c7ccc4[nH]7)C=C6)C=C5)cc3)cc2)cc1
REMARK SMILES IDX 29 1 28 2 27 3 25 4 26 5 13 6 14 7 12 8 9 9 10 10 100 11
REMARK SMILES IDX 11 12 99 13 8 14 5 15 6 16 102 17 7 18 101 19 4 20 2 21 1 22
REMARK SMILES IDX 3 23 15 24 16 25 24 26 17 27 23 28 18 29 19 30 20 31 21 32
REMARK SMILES IDX 22 33 30 34 31 35 32 36 33 37 34 38 35 39 36 40 37 41 98 42
REMARK SMILES IDX 38 43 97 44 39 45 40 46 41 47 91 48 42 49 96 50 90 51 92 52
REMARK SMILES IDX 43 53 95 54 89 55 88 56 44 58 76 59 56 60 75 61 57 62 60 63
REMARK SMILES IDX 74 64 93 65 58 66 59 67 73 69 94 70 61 71 45 72 46 73 54 74
REMARK SMILES IDX 47 75 53 76 55 77 52 78 48 79 49 80 50 81 51 82 77 83 78 84
REMARK SMILES IDX 86 85 79 86 85 87 87 88 84 89 80 90 81 91 82 92 83 93 62 94
REMARK SMILES IDX 63 95 71 96 64 97 70 98 72 99 69 100 65 101 66 102 67 103
REMARK SMILES IDX 68 104
REMARK H PARENT 92 57 60 68
REMARK Flexibility Score: inf
ROOT
ATOM      1  C   UNL A   1      33.394  35.440  30.846  1.00  0.00     0.202 C 
ENDROOT
BRANCH   1   2
ATOM      2  C   UNL A   1      34.052  34.200  30.232  1.00  0.00     0.261 C 
BRANCH   2   3
ATOM      3  O   UNL A   1      33.282  33.734  29.112  1.00  0.00    -0.460 OA
BRANCH   3   4
ATOM      4  C   UNL A   1      33.994  33.456  27.990  1.00  0.00     0.338 C 
ATOM      5  O   UNL A   1      34.653  34.258  27.343  1.00  0.00    -0.246 OA
BRANCH   4   6
ATOM      6  C   UNL A   1      34.009  31.977  27.720  1.00  0.00     0.067 C 
ATOM      7  C   UNL A   1      32.882  31.441  27.192  1.00  0.00     0.024 C 
BRANCH   6   8
ATOM      8  C   UNL A   1      35.254  31.230  28.066  1.00  0.00    -0.011 A 
ATOM      9  C   UNL A   1      37.703  29.821  28.557  1.00  0.00    -0.018 A 
ATOM     10  C   UNL A   1      37.338  30.951  29.304  1.00  0.00     0.009 A 
ATOM     11  C   UNL A   1      36.796  29.392  27.579  1.00  0.00     0.009 A 
ATOM     12  C   UNL A   1      36.123  31.616  29.090  1.00  0.00     0.009 A 
ATOM     13  C   UNL A   1      35.602  30.085  27.333  1.00  0.00     0.009 A 
BRANCH   9  14
ATOM     14  C   UNL A   1      38.960  29.087  28.825  1.00  0.00    -0.018 A 
ATOM     15  C   UNL A   1      41.325  27.587  29.270  1.00  0.00     0.119 A 
ATOM     16  C   UNL A   1      40.185  27.343  30.028  1.00  0.00     0.047 A 
ATOM     17  C   UNL A   1      41.293  28.566  28.285  1.00  0.00     0.047 A 
ATOM     18  C   UNL A   1      39.019  28.086  29.811  1.00  0.00     0.012 A 
ATOM     19  C   UNL A   1      40.129  29.321  28.080  1.00  0.00     0.012 A 
BRANCH  15  20
ATOM     20  O   UNL A   1      42.370  26.729  29.450  1.00  0.00    -0.491 OA
BRANCH  20  21
ATOM     21  C   UNL A   1      42.658  25.767  28.424  1.00  0.00     0.167 C 
ATOM     22  C   UNL A   1      44.120  25.333  28.402  1.00  0.00     0.052 C 
ATOM     23  C   UNL A   1      41.686  24.592  28.376  1.00  0.00     0.052 C 
ENDBRANCH  20  21
ENDBRANCH  15  20
ENDBRANCH   9  14
ENDBRANCH   6   8
BRANCH   7  24
ATOM     24  C   UNL A   1      32.720  30.061  26.709  1.00  0.00    -0.025 A 
ATOM     25  C   UNL A   1      32.247  29.116  27.631  1.00  0.00     0.009 A 
ATOM     26  C   UNL A   1      32.852  29.704  25.360  1.00  0.00     0.009 A 
ATOM     27  C   UNL A   1      31.790  27.873  27.197  1.00  0.00     0.021 A 
ATOM     28  C   UNL A   1      32.389  28.459  24.917  1.00  0.00     0.021 A 
ATOM     29  C   UNL A   1      31.831  27.566  25.835  1.00  0.00     0.067 A 
BRANCH  29  30
ATOM     30  S   UNL A   1      31.002  26.098  25.269  1.00  0.00     0.175 S 
ATOM     31  C   UNL A   1      32.226  24.827  25.414  1.00  0.00     0.163 C 
ATOM     32  O   UNL A   1      29.943  25.816  26.220  1.00  0.00    -0.224 OA
ATOM     33  O   UNL A   1      30.700  26.270  23.861  1.00  0.00    -0.224 OA
ENDBRANCH  29  30
ENDBRANCH   7  24
ENDBRANCH   4   6
ENDBRANCH   3   4
ENDBRANCH   2   3
ENDBRANCH   1   2
BRANCH   1  34
ATOM     34  O   UNL A   1      34.031  35.963  32.016  1.00  0.00    -0.374 OA
BRANCH  34  35
ATOM     35  C   UNL A   1      34.495  35.019  32.982  1.00  0.00     0.202 C 
BRANCH  35  36
ATOM     36  C   UNL A   1      36.011  34.869  33.144  1.00  0.00     0.261 C 
BRANCH  36  37
ATOM     37  O   UNL A   1      36.446  33.514  32.950  1.00  0.00    -0.460 OA
BRANCH  37  38
ATOM     38  C   UNL A   1      36.955  32.927  34.059  1.00  0.00     0.338 C 
ATOM     39  O   UNL A   1      36.485  32.971  35.190  1.00  0.00    -0.246 OA
BRANCH  38  40
ATOM     40  C   UNL A   1      38.080  32.046  33.699  1.00  0.00     0.060 A 
ATOM     41  C   UNL A   1      39.329  32.337  34.264  1.00  0.00     0.016 A 
ATOM     42  C   UNL A   1      37.942  31.000  32.782  1.00  0.00     0.016 A 
ATOM     43  C   UNL A   1      40.458  31.631  33.861  1.00  0.00     0.010 A 
ATOM     44  C   UNL A   1      39.079  30.295  32.375  1.00  0.00     0.010 A 
ATOM     45  C   UNL A   1      40.347  30.640  32.878  1.00  0.00    -0.014 A 
BRANCH  45  46
ATOM     46  C   UNL A   1      41.579  30.109  32.244  1.00  0.00     0.031 A 
ATOM     47  C   UNL A   1      42.188  30.878  31.101  1.00  0.00     0.074 A 
ATOM     48  C   UNL A   1      42.172  28.993  32.706  1.00  0.00     0.049 A 
ATOM     49  N   UNL A   1      43.240  30.601  30.377  1.00  0.00    -0.248 NA
ATOM     50  C   UNL A   1      41.508  32.128  30.726  1.00  0.00     0.031 C 
ATOM     51  C   UNL A   1      41.703  28.196  33.838  1.00  0.00     0.029 A 
ATOM     52  N   UNL A   1      43.299  28.341  32.276  1.00  0.00    -0.354 N 
ATOM     53  C   UNL A   1      43.349  31.639  29.456  1.00  0.00     0.074 A 
ATOM     54  C   UNL A   1      42.227  32.524  29.687  1.00  0.00     0.031 C 
ATOM     55  C   UNL A   1      42.536  27.156  34.011  1.00  0.00     0.029 A 
ATOM     56  C   UNL A   1      43.574  27.193  32.983  1.00  0.00     0.049 A 
ATOM     57  H   UNL A   1      43.858  28.663  31.534  1.00  0.00     0.167 HD
ATOM     58  C   UNL A   1      44.303  31.841  28.514  1.00  0.00     0.034 A 
ATOM     59  C   UNL A   1      44.541  26.271  32.803  1.00  0.00     0.034 A 
ATOM     60  C   UNL A   1      45.408  30.941  28.289  1.00  0.00     0.049 A 
ATOM     61  C   UNL A   1      45.548  26.473  31.695  1.00  0.00     0.074 A 
ATOM     62  C   UNL A   1      46.429  31.040  27.360  1.00  0.00     0.029 A 
ATOM     63  N   UNL A   1      45.633  29.767  28.999  1.00  0.00    -0.354 N 
ATOM     64  N   UNL A   1      45.638  27.454  30.826  1.00  0.00    -0.248 NA
ATOM     65  C   UNL A   1      46.592  25.450  31.556  1.00  0.00     0.031 C 
ATOM     66  C   UNL A   1      47.228  29.896  27.461  1.00  0.00     0.029 A 
ATOM     67  C   UNL A   1      46.759  29.122  28.511  1.00  0.00     0.049 A 
ATOM     68  H   UNL A   1      45.073  29.441  29.741  1.00  0.00     0.167 HD
ATOM     69  C   UNL A   1      46.773  27.185  30.065  1.00  0.00     0.074 A 
ATOM     70  C   UNL A   1      47.336  25.955  30.584  1.00  0.00     0.031 C 
ATOM     71  C   UNL A   1      47.309  27.894  29.036  1.00  0.00     0.034 A 
BRANCH  58  72
ATOM     72  C   UNL A   1      44.149  33.054  27.626  1.00  0.00     0.023 A 
ATOM     73  C   UNL A   1      44.318  34.360  28.120  1.00  0.00     0.031 A 
ATOM     74  C   UNL A   1      43.780  32.905  26.277  1.00  0.00     0.131 A 
ATOM     75  C   UNL A   1      44.040  35.463  27.297  1.00  0.00     0.055 A 
ATOM     76  C   UNL A   1      43.589  34.005  25.440  1.00  0.00     0.041 A 
ATOM     77  F   UNL A   1      43.578  31.685  25.754  1.00  0.00    -0.206 F 
ATOM     78  C   UNL A   1      43.702  35.294  25.953  1.00  0.00     0.022 A 
BRANCH  75  79
ATOM     79  S   UNL A   1      43.970  37.112  28.050  1.00  0.00     0.124 S 
ATOM     80  O   UNL A   1      45.137  37.083  28.929  1.00  0.00    -0.237 OA
ATOM     81  O   UNL A   1      44.064  37.992  26.891  1.00  0.00    -0.237 OA
ATOM     82  O   UNL A   1      42.681  37.120  28.739  1.00  0.00    -0.744 OA
ENDBRANCH  75  79
ENDBRANCH  58  72
BRANCH  59  83
ATOM     83  C   UNL A   1      44.597  25.058  33.668  1.00  0.00     0.023 A 
ATOM     84  C   UNL A   1      45.152  25.108  34.957  1.00  0.00     0.031 A 
ATOM     85  C   UNL A   1      44.142  23.814  33.194  1.00  0.00     0.131 A 
ATOM     86  C   UNL A   1      45.282  23.929  35.708  1.00  0.00     0.055 A 
ATOM     87  C   UNL A   1      44.226  22.655  33.966  1.00  0.00     0.041 A 
ATOM     88  F   UNL A   1      43.603  23.710  31.969  1.00  0.00    -0.206 F 
ATOM     89  C   UNL A   1      44.811  22.706  35.227  1.00  0.00     0.022 A 
BRANCH  86  90
ATOM     90  S   UNL A   1      46.156  24.003  37.296  1.00  0.00     0.124 S 
ATOM     91  O   UNL A   1      47.416  23.346  36.971  1.00  0.00    -0.237 OA
ATOM     92  O   UNL A   1      46.224  25.441  37.536  1.00  0.00    -0.237 OA
ATOM     93  O   UNL A   1      45.279  23.263  38.201  1.00  0.00    -0.744 OA
ENDBRANCH  86  90
ENDBRANCH  59  83
BRANCH  71  94
ATOM     94  C   UNL A   1      48.607  27.387  28.454  1.00  0.00     0.023 A 
ATOM     95  C   UNL A   1      49.858  27.780  28.961  1.00  0.00     0.031 A 
ATOM     96  C   UNL A   1      48.588  26.502  27.360  1.00  0.00     0.131 A 
ATOM     97  C   UNL A   1      51.035  27.342  28.335  1.00  0.00     0.055 A 
ATOM     98  C   UNL A   1      49.762  26.018  26.783  1.00  0.00     0.041 A 
ATOM     99  F   UNL A   1      47.422  26.091  26.834  1.00  0.00    -0.206 F 
ATOM    100  C   UNL A   1      50.995  26.451  27.260  1.00  0.00     0.022 A 
BRANCH  97 101
ATOM    101  S   UNL A   1      52.621  28.037  28.877  1.00  0.00     0.124 S 
ATOM    102  O   UNL A   1      52.891  29.027  27.839  1.00  0.00    -0.237 OA
ATOM    103  O   UNL A   1      52.293  28.569  30.196  1.00  0.00    -0.237 OA
ATOM    104  O   UNL A   1      53.518  26.882  28.882  1.00  0.00    -0.744 OA
ENDBRANCH  97 101
ENDBRANCH  71  94
ENDBRANCH  45  46
ENDBRANCH  38  40
ENDBRANCH  37  38
ENDBRANCH  36  37
ENDBRANCH  35  36
ENDBRANCH  34  35
ENDBRANCH   1  34
TORSDOF 23
ENDMDL
MODEL 2
REMARK VINA RESULT:      -9.1      2.501      8.344
REMARK SMILES CC(C)Oc1ccc(-c2ccc(/C(=C\c3ccc(S(C)(=O)=O)cc3)C(=O)OCCOCCOC(=O)c3ccc(-c4c5nc(c(-c6cc(S(=O)(=O)[O-])ccc6F)c6ccc([nH]6)c(-c6cc(S(=O)(=O)[O-])ccc6F)c6nc(c(-c7cc(S(=O)(=O)[O-])ccc7F)c7ccc4[nH]7)C=C6)C=C5)cc3)cc2)cc1
REMARK SMILES IDX 29 1 28 2 27 3 25 4 26 5 13 6 14 7 12 8 9 9 10 10 100 11
REMARK SMILES IDX 11 12 99 13 8 14 5 15 6 16 102 17 7 18 101 19 4 20 2 21 1 22
REMARK SMILES IDX 3 23 15 24 16 25 24 26 17 27 23 28 18 29 19 30 20 31 21 32
REMARK SMILES IDX 22 33 30 34 31 35 32 36 33 37 34 38 35 39 36 40 37 41 98 42
REMARK SMILES IDX 38 43 97 44 39 45 40 46 41 47 91 48 42 49 96 50 90 51 92 52
REMARK SMILES IDX 43 53 95 54 89 55 88 56 44 58 76 59 56 60 75 61 57 62 60 63
REMARK SMILES IDX 74 64 93 65 58 66 59 67 73 69 94 70 61 71 45 72 46 73 54 74
REMARK SMILES IDX 47 75 53 76 55 77 52 78 48 79 49 80 50 81 51 82 77 83 78 84
REMARK SMILES IDX 86 85 79 86 85 87 87 88 84 89 80 90 81 91 82 92 83 93 62 94
REMARK SMILES IDX 63 95 71 96 64 97 70 98 72 99 69 100 65 101 66 102 67 103
REMARK SMILES IDX 68 104
REMARK H PARENT 92 57 60 68
REMARK Flexibility Score: inf
ROOT
ATOM      1  C   UNL A   1      32.654  35.934  31.201  1.00  0.00     0.202 C 
ENDROOT
BRANCH   1   2
ATOM      2  C   UNL A   1      33.018  35.768  29.723  1.00  0.00     0.261 C 
BRANCH   2   3
ATOM      3  O   UNL A   1      33.269  34.384  29.427  1.00  0.00    -0.460 OA
BRANCH   3   4
ATOM      4  C   UNL A   1      34.280  34.149  28.551  1.00  0.00     0.338 C 
ATOM      5  O   UNL A   1      34.627  34.890  27.643  1.00  0.00    -0.246 OA
BRANCH   4   6
ATOM      6  C   UNL A   1      35.047  32.916  28.941  1.00  0.00     0.067 C 
ATOM      7  C   UNL A   1      36.084  33.086  29.797  1.00  0.00     0.024 C 
BRANCH   6   8
ATOM      8  C   UNL A   1      34.609  31.620  28.344  1.00  0.00    -0.011 A 
ATOM      9  C   UNL A   1      33.720  29.223  27.046  1.00  0.00    -0.018 A 
ATOM     10  C   UNL A   1      35.036  29.367  27.508  1.00  0.00     0.009 A 
ATOM     11  C   UNL A   1      32.848  30.295  27.278  1.00  0.00     0.009 A 
ATOM     12  C   UNL A   1      35.460  30.524  28.177  1.00  0.00     0.009 A 
ATOM     13  C   UNL A   1      33.285  31.470  27.906  1.00  0.00     0.009 A 
BRANCH   9  14
ATOM     14  C   UNL A   1      33.261  27.977  26.391  1.00  0.00    -0.018 A 
ATOM     15  C   UNL A   1      32.354  25.657  25.034  1.00  0.00     0.119 A 
ATOM     16  C   UNL A   1      31.445  26.517  25.641  1.00  0.00     0.047 A 
ATOM     17  C   UNL A   1      33.712  25.950  25.089  1.00  0.00     0.047 A 
ATOM     18  C   UNL A   1      31.893  27.660  26.313  1.00  0.00     0.012 A 
ATOM     19  C   UNL A   1      34.160  27.086  25.778  1.00  0.00     0.012 A 
BRANCH  15  20
ATOM     20  O   UNL A   1      31.828  24.646  24.286  1.00  0.00    -0.491 OA
BRANCH  20  21
ATOM     21  C   UNL A   1      32.461  23.359  24.322  1.00  0.00     0.167 C 
ATOM     22  C   UNL A   1      31.868  22.427  25.374  1.00  0.00     0.052 C 
ATOM     23  C   UNL A   1      32.612  22.695  22.956  1.00  0.00     0.052 C 
ENDBRANCH  20  21
ENDBRANCH  15  20
ENDBRANCH   9  14
ENDBRANCH   6   8
BRANCH   7  24
ATOM     24  C   UNL A   1      36.874  32.017  30.428  1.00  0.00    -0.025 A 
ATOM     25  C   UNL A   1      36.200  31.172  31.321  1.00  0.00     0.009 A 
ATOM     26  C   UNL A   1      38.190  31.717  30.051  1.00  0.00     0.009 A 
ATOM     27  C   UNL A   1      36.781  29.973  31.733  1.00  0.00     0.021 A 
ATOM     28  C   UNL A   1      38.776  30.513  30.457  1.00  0.00     0.021 A 
ATOM     29  C   UNL A   1      38.054  29.635  31.269  1.00  0.00     0.067 A 
BRANCH  29  30
ATOM     30  S   UNL A   1      38.665  27.994  31.584  1.00  0.00     0.175 S 
ATOM     31  C   UNL A   1      40.395  28.225  31.876  1.00  0.00     0.163 C 
ATOM     32  O   UNL A   1      38.053  27.544  32.820  1.00  0.00    -0.224 OA
ATOM     33  O   UNL A   1      38.516  27.221  30.365  1.00  0.00    -0.224 OA
ENDBRANCH  29  30
ENDBRANCH   7  24
ENDBRANCH   4   6
ENDBRANCH   3   4
ENDBRANCH   2   3
ENDBRANCH   1   2
BRANCH   1  34
ATOM     34  O   UNL A   1      33.327  36.994  31.888  1.00  0.00    -0.374 OA
BRANCH  34  35
ATOM     35  C   UNL A   1      34.249  36.623  32.914  1.00  0.00     0.202 C 
BRANCH  35  36
ATOM     36  C   UNL A   1      35.219  35.479  32.606  1.00  0.00     0.261 C 
BRANCH  36  37
ATOM     37  O   UNL A   1      36.122  35.224  33.695  1.00  0.00    -0.460 OA
BRANCH  37  38
ATOM     38  C   UNL A   1      36.166  33.930  34.091  1.00  0.00     0.338 C 
ATOM     39  O   UNL A   1      35.208  33.214  34.359  1.00  0.00    -0.246 OA
BRANCH  38  40
ATOM     40  C   UNL A   1      37.540  33.410  33.981  1.00  0.00     0.060 A 
ATOM     41  C   UNL A   1      38.494  34.239  33.376  1.00  0.00     0.016 A 
ATOM     42  C   UNL A   1      37.883  32.120  34.396  1.00  0.00     0.016 A 
ATOM     43  C   UNL A   1      39.774  33.758  33.117  1.00  0.00     0.010 A 
ATOM     44  C   UNL A   1      39.168  31.636  34.130  1.00  0.00     0.010 A 
ATOM     45  C   UNL A   1      40.102  32.437  33.448  1.00  0.00    -0.014 A 
BRANCH  45  46
ATOM     46  C   UNL A   1      41.349  31.844  32.905  1.00  0.00     0.031 A 
ATOM     47  C   UNL A   1      41.995  30.713  33.662  1.00  0.00     0.074 A 
ATOM     48  C   UNL A   1      41.869  32.266  31.739  1.00  0.00     0.049 A 
ATOM     49  N   UNL A   1      43.095  30.058  33.401  1.00  0.00    -0.248 NA
ATOM     50  C   UNL A   1      41.303  30.271  34.883  1.00  0.00     0.031 C 
ATOM     51  C   UNL A   1      41.301  33.315  30.894  1.00  0.00     0.029 A 
ATOM     52  N   UNL A   1      42.992  31.860  31.066  1.00  0.00    -0.354 N 
ATOM     53  C   UNL A   1      43.232  29.126  34.426  1.00  0.00     0.074 A 
ATOM     54  C   UNL A   1      42.125  29.337  35.336  1.00  0.00     0.031 C 
ATOM     55  C   UNL A   1      42.085  33.475  29.814  1.00  0.00     0.029 A 
ATOM     56  C   UNL A   1      43.226  32.566  29.908  1.00  0.00     0.049 A 
ATOM     57  H   UNL A   1      43.576  31.134  31.380  1.00  0.00     0.167 HD
ATOM     58  C   UNL A   1      44.185  28.175  34.588  1.00  0.00     0.034 A 
ATOM     59  C   UNL A   1      44.253  32.496  29.038  1.00  0.00     0.034 A 
ATOM     60  C   UNL A   1      45.288  27.986  33.678  1.00  0.00     0.049 A 
ATOM     61  C   UNL A   1      45.349  31.484  29.280  1.00  0.00     0.074 A 
ATOM     62  C   UNL A   1      46.316  27.061  33.744  1.00  0.00     0.029 A 
ATOM     63  N   UNL A   1      45.514  28.745  32.535  1.00  0.00    -0.354 N 
ATOM     64  N   UNL A   1      45.472  30.613  30.255  1.00  0.00    -0.248 NA
ATOM     65  C   UNL A   1      46.434  31.436  28.291  1.00  0.00     0.031 C 
ATOM     66  C   UNL A   1      47.196  27.305  32.683  1.00  0.00     0.029 A 
ATOM     67  C   UNL A   1      46.676  28.326  31.905  1.00  0.00     0.049 A 
ATOM     68  H   UNL A   1      44.932  29.475  32.219  1.00  0.00     0.167 HD
ATOM     69  C   UNL A   1      46.627  29.887  29.974  1.00  0.00     0.074 A 
ATOM     70  C   UNL A   1      47.157  30.419  28.734  1.00  0.00     0.031 C 
ATOM     71  C   UNL A   1      47.194  28.867  30.670  1.00  0.00     0.034 A 
BRANCH  58  72
ATOM     72  C   UNL A   1      44.096  27.312  35.825  1.00  0.00     0.023 A 
ATOM     73  C   UNL A   1      44.708  27.685  37.035  1.00  0.00     0.031 A 
ATOM     74  C   UNL A   1      43.430  26.074  35.781  1.00  0.00     0.131 A 
ATOM     75  C   UNL A   1      44.712  26.797  38.122  1.00  0.00     0.055 A 
ATOM     76  C   UNL A   1      43.364  25.233  36.893  1.00  0.00     0.041 A 
ATOM     77  F   UNL A   1      42.848  25.650  34.648  1.00  0.00    -0.206 F 
ATOM     78  C   UNL A   1      44.022  25.585  38.068  1.00  0.00     0.022 A 
BRANCH  75  79
ATOM     79  S   UNL A   1      45.766  27.178  39.549  1.00  0.00     0.124 S 
ATOM     80  O   UNL A   1      46.694  28.152  38.978  1.00  0.00    -0.237 OA
ATOM     81  O   UNL A   1      44.810  27.698  40.519  1.00  0.00    -0.237 OA
ATOM     82  O   UNL A   1      46.362  25.887  39.889  1.00  0.00    -0.744 OA
ENDBRANCH  75  79
ENDBRANCH  58  72
BRANCH  59  83
ATOM     83  C   UNL A   1      44.321  33.425  27.874  1.00  0.00     0.023 A 
ATOM     84  C   UNL A   1      44.683  34.772  28.039  1.00  0.00     0.031 A 
ATOM     85  C   UNL A   1      43.972  32.989  26.583  1.00  0.00     0.131 A 
ATOM     86  C   UNL A   1      44.641  35.646  26.941  1.00  0.00     0.055 A 
ATOM     87  C   UNL A   1      43.983  33.850  25.485  1.00  0.00     0.041 A 
ATOM     88  F   UNL A   1      43.619  31.711  26.370  1.00  0.00    -0.206 F 
ATOM     89  C   UNL A   1      44.306  35.192  25.663  1.00  0.00     0.022 A 
BRANCH  86  90
ATOM     90  S   UNL A   1      44.949  37.410  27.223  1.00  0.00     0.124 S 
ATOM     91  O   UNL A   1      45.224  37.438  28.655  1.00  0.00    -0.237 OA
ATOM     92  O   UNL A   1      46.088  37.663  26.347  1.00  0.00    -0.237 OA
ATOM     93  O   UNL A   1      43.698  38.044  26.814  1.00  0.00    -0.744 OA
ENDBRANCH  86  90
ENDBRANCH  59  83
BRANCH  71  94
ATOM     94  C   UNL A   1      48.416  28.217  30.064  1.00  0.00     0.023 A 
ATOM     95  C   UNL A   1      48.323  27.257  29.041  1.00  0.00     0.031 A 
ATOM     96  C   UNL A   1      49.698  28.559  30.533  1.00  0.00     0.131 A 
ATOM     97  C   UNL A   1      49.484  26.626  28.567  1.00  0.00     0.055 A 
ATOM     98  C   UNL A   1      50.853  27.976  30.012  1.00  0.00     0.041 A 
ATOM     99  F   UNL A   1      49.849  29.470  31.509  1.00  0.00    -0.206 F 
ATOM    100  C   UNL A   1      50.749  26.991  29.034  1.00  0.00     0.022 A 
BRANCH  97 101
ATOM    101  S   UNL A   1      49.311  25.244  27.404  1.00  0.00     0.124 S 
ATOM    102  O   UNL A   1      49.934  25.781  26.198  1.00  0.00    -0.237 OA
ATOM    103  O   UNL A   1      50.043  24.177  28.079  1.00  0.00    -0.237 OA
ATOM    104  O   UNL A   1      47.864  25.046  27.320  1.00  0.00    -0.744 OA
ENDBRANCH  97 101
ENDBRANCH  71  94
ENDBRANCH  45  46
ENDBRANCH  38  40
ENDBRANCH  37  38
ENDBRANCH  36  37
ENDBRANCH  35  36
ENDBRANCH  34  35
ENDBRANCH   1  34
TORSDOF 23
ENDMDL
MODEL 3
REMARK VINA RESULT:      -8.8      1.458      7.041
REMARK SMILES CC(C)Oc1ccc(-c2ccc(/C(=C\c3ccc(S(C)(=O)=O)cc3)C(=O)OCCOCCOC(=O)c3ccc(-c4c5nc(c(-c6cc(S(=O)(=O)[O-])ccc6F)c6ccc([nH]6)c(-c6cc(S(=O)(=O)[O-])ccc6F)c6nc(c(-c7cc(S(=O)(=O)[O-])ccc7F)c7ccc4[nH]7)C=C6)C=C5)cc3)cc2)cc1
REMARK SMILES IDX 29 1 28 2 27 3 25 4 26 5 13 6 14 7 12 8 9 9 10 10 100 11
REMARK SMILES IDX 11 12 99 13 8 14 5 15 6 16 102 17 7 18 101 19 4 20 2 21 1 22
REMARK SMILES IDX 3 23 15 24 16 25 24 26 17 27 23 28 18 29 19 30 20 31 21 32
REMARK SMILES IDX 22 33 30 34 31 35 32 36 33 37 34 38 35 39 36 40 37 41 98 42
REMARK SMILES IDX 38 43 97 44 39 45 40 46 41 47 91 48 42 49 96 50 90 51 92 52
REMARK SMILES IDX 43 53 95 54 89 55 88 56 44 58 76 59 56 60 75 61 57 62 60 63
REMARK SMILES IDX 74 64 93 65 58 66 59 67 73 69 94 70 61 71 45 72 46 73 54 74
REMARK SMILES IDX 47 75 53 76 55 77 52 78 48 79 49 80 50 81 51 82 77 83 78 84
REMARK SMILES IDX 86 85 79 86 85 87 87 88 84 89 80 90 81 91 82 92 83 93 62 94
REMARK SMILES IDX 63 95 71 96 64 97 70 98 72 99 69 100 65 101 66 102 67 103
REMARK SMILES IDX 68 104
REMARK H PARENT 92 57 60 68
REMARK Flexibility Score: inf
ROOT
ATOM      1  C   UNL A   1      32.939  35.269  30.941  1.00  0.00     0.202 C 
ENDROOT
BRANCH   1   2
ATOM      2  C   UNL A   1      33.741  35.021  29.660  1.00  0.00     0.261 C 
BRANCH   2   3
ATOM      3  O   UNL A   1      33.586  33.657  29.235  1.00  0.00    -0.460 OA
BRANCH   3   4
ATOM      4  C   UNL A   1      34.152  33.351  28.039  1.00  0.00     0.338 C 
ATOM      5  O   UNL A   1      34.684  34.144  27.275  1.00  0.00    -0.246 OA
BRANCH   4   6
ATOM      6  C   UNL A   1      34.193  31.862  27.833  1.00  0.00     0.067 C 
ATOM      7  C   UNL A   1      33.081  31.287  27.315  1.00  0.00     0.024 C 
BRANCH   6   8
ATOM      8  C   UNL A   1      35.444  31.150  28.227  1.00  0.00    -0.011 A 
ATOM      9  C   UNL A   1      37.938  29.884  28.860  1.00  0.00    -0.018 A 
ATOM     10  C   UNL A   1      37.183  30.555  29.833  1.00  0.00     0.009 A 
ATOM     11  C   UNL A   1      37.399  29.833  27.567  1.00  0.00     0.009 A 
ATOM     12  C   UNL A   1      35.945  31.140  29.532  1.00  0.00     0.009 A 
ATOM     13  C   UNL A   1      36.183  30.458  27.256  1.00  0.00     0.009 A 
BRANCH   9  14
ATOM     14  C   UNL A   1      39.216  29.218  29.195  1.00  0.00    -0.018 A 
ATOM     15  C   UNL A   1      41.715  28.054  29.865  1.00  0.00     0.119 A 
ATOM     16  C   UNL A   1      41.519  28.629  28.613  1.00  0.00     0.047 A 
ATOM     17  C   UNL A   1      40.677  28.063  30.789  1.00  0.00     0.047 A 
ATOM     18  C   UNL A   1      40.286  29.200  28.282  1.00  0.00     0.012 A 
ATOM     19  C   UNL A   1      39.436  28.621  30.449  1.00  0.00     0.012 A 
BRANCH  15  20
ATOM     20  O   UNL A   1      42.982  27.645  30.155  1.00  0.00    -0.491 OA
BRANCH  20  21
ATOM     21  C   UNL A   1      43.582  26.625  29.342  1.00  0.00     0.167 C 
ATOM     22  C   UNL A   1      42.640  25.465  29.041  1.00  0.00     0.052 C 
ATOM     23  C   UNL A   1      44.294  27.152  28.099  1.00  0.00     0.052 C 
ENDBRANCH  20  21
ENDBRANCH  15  20
ENDBRANCH   9  14
ENDBRANCH   6   8
BRANCH   7  24
ATOM     24  C   UNL A   1      32.946  29.884  26.890  1.00  0.00    -0.025 A 
ATOM     25  C   UNL A   1      32.065  29.079  27.626  1.00  0.00     0.009 A 
ATOM     26  C   UNL A   1      33.516  29.386  25.710  1.00  0.00     0.009 A 
ATOM     27  C   UNL A   1      31.656  27.843  27.129  1.00  0.00     0.021 A 
ATOM     28  C   UNL A   1      33.104  28.148  25.203  1.00  0.00     0.021 A 
ATOM     29  C   UNL A   1      32.152  27.400  25.901  1.00  0.00     0.067 A 
BRANCH  29  30
ATOM     30  S   UNL A   1      31.420  25.960  25.157  1.00  0.00     0.175 S 
ATOM     31  C   UNL A   1      32.539  24.650  25.560  1.00  0.00     0.163 C 
ATOM     32  O   UNL A   1      30.169  25.716  25.849  1.00  0.00    -0.224 OA
ATOM     33  O   UNL A   1      31.442  26.141  23.718  1.00  0.00    -0.224 OA
ENDBRANCH  29  30
ENDBRANCH   7  24
ENDBRANCH   4   6
ENDBRANCH   3   4
ENDBRANCH   2   3
ENDBRANCH   1   2
BRANCH   1  34
ATOM     34  O   UNL A   1      33.483  34.693  32.132  1.00  0.00    -0.374 OA
BRANCH  34  35
ATOM     35  C   UNL A   1      34.685  35.268  32.646  1.00  0.00     0.202 C 
BRANCH  35  36
ATOM     36  C   UNL A   1      35.069  34.923  34.088  1.00  0.00     0.261 C 
BRANCH  36  37
ATOM     37  O   UNL A   1      35.568  33.581  34.210  1.00  0.00    -0.460 OA
BRANCH  37  38
ATOM     38  C   UNL A   1      36.623  33.453  35.047  1.00  0.00     0.338 C 
ATOM     39  O   UNL A   1      36.589  33.454  36.273  1.00  0.00    -0.246 OA
BRANCH  38  40
ATOM     40  C   UNL A   1      37.839  33.116  34.286  1.00  0.00     0.060 A 
ATOM     41  C   UNL A   1      37.727  32.127  33.300  1.00  0.00     0.016 A 
ATOM     42  C   UNL A   1      39.078  33.699  34.568  1.00  0.00     0.016 A 
ATOM     43  C   UNL A   1      38.862  31.665  32.642  1.00  0.00     0.010 A 
ATOM     44  C   UNL A   1      40.219  33.230  33.909  1.00  0.00     0.010 A 
ATOM     45  C   UNL A   1      40.121  32.179  32.978  1.00  0.00    -0.014 A 
BRANCH  45  46
ATOM     46  C   UNL A   1      41.339  31.482  32.498  1.00  0.00     0.031 A 
ATOM     47  C   UNL A   1      41.855  30.310  33.291  1.00  0.00     0.074 A 
ATOM     48  C   UNL A   1      41.945  31.849  31.355  1.00  0.00     0.049 A 
ATOM     49  N   UNL A   1      42.909  29.565  33.086  1.00  0.00    -0.248 NA
ATOM     50  C   UNL A   1      41.074  29.938  34.481  1.00  0.00     0.031 C 
ATOM     51  C   UNL A   1      41.504  32.933  30.478  1.00  0.00     0.029 A 
ATOM     52  N   UNL A   1      43.062  31.347  30.737  1.00  0.00    -0.354 N 
ATOM     53  C   UNL A   1      42.922  28.636  34.122  1.00  0.00     0.074 A 
ATOM     54  C   UNL A   1      41.795  28.945  34.977  1.00  0.00     0.031 C 
ATOM     55  C   UNL A   1      42.348  33.017  29.434  1.00  0.00     0.029 A 
ATOM     56  C   UNL A   1      43.405  32.020  29.588  1.00  0.00     0.049 A 
ATOM     57  H   UNL A   1      43.570  30.579  31.084  1.00  0.00     0.167 HD
ATOM     58  C   UNL A   1      43.786  27.612  34.334  1.00  0.00     0.034 A 
ATOM     59  C   UNL A   1      44.463  31.859  28.768  1.00  0.00     0.034 A 
ATOM     60  C   UNL A   1      44.911  27.326  33.478  1.00  0.00     0.049 A 
ATOM     61  C   UNL A   1      45.460  30.764  29.067  1.00  0.00     0.074 A 
ATOM     62  C   UNL A   1      45.856  26.321  33.598  1.00  0.00     0.029 A 
ATOM     63  N   UNL A   1      45.251  28.053  32.342  1.00  0.00    -0.354 N 
ATOM     64  N   UNL A   1      45.467  29.896  30.052  1.00  0.00    -0.248 NA
ATOM     65  C   UNL A   1      46.583  30.619  28.131  1.00  0.00     0.031 C 
ATOM     66  C   UNL A   1      46.802  26.483  32.579  1.00  0.00     0.029 A 
ATOM     67  C   UNL A   1      46.403  27.535  31.770  1.00  0.00     0.049 A 
ATOM     68  H   UNL A   1      44.746  28.824  31.995  1.00  0.00     0.167 HD
ATOM     69  C   UNL A   1      46.571  29.076  29.830  1.00  0.00     0.074 A 
ATOM     70  C   UNL A   1      47.199  29.551  28.614  1.00  0.00     0.031 C 
ATOM     71  C   UNL A   1      47.021  28.020  30.558  1.00  0.00     0.034 A 
BRANCH  58  72
ATOM     72  C   UNL A   1      43.569  26.771  35.571  1.00  0.00     0.023 A 
ATOM     73  C   UNL A   1      44.204  27.070  36.791  1.00  0.00     0.031 A 
ATOM     74  C   UNL A   1      42.755  25.626  35.518  1.00  0.00     0.131 A 
ATOM     75  C   UNL A   1      44.079  26.192  37.879  1.00  0.00     0.055 A 
ATOM     76  C   UNL A   1      42.567  24.804  36.630  1.00  0.00     0.041 A 
ATOM     77  F   UNL A   1      42.144  25.274  34.376  1.00  0.00    -0.206 F 
ATOM     78  C   UNL A   1      43.244  25.075  37.815  1.00  0.00     0.022 A 
BRANCH  75  79
ATOM     79  S   UNL A   1      45.149  26.443  39.323  1.00  0.00     0.124 S 
ATOM     80  O   UNL A   1      45.735  25.115  39.489  1.00  0.00    -0.237 OA
ATOM     81  O   UNL A   1      46.055  27.490  38.866  1.00  0.00    -0.237 OA
ATOM     82  O   UNL A   1      44.216  26.839  40.376  1.00  0.00    -0.744 OA
ENDBRANCH  75  79
ENDBRANCH  58  72
BRANCH  59  83
ATOM     83  C   UNL A   1      44.660  32.768  27.603  1.00  0.00     0.023 A 
ATOM     84  C   UNL A   1      45.371  33.972  27.732  1.00  0.00     0.031 A 
ATOM     85  C   UNL A   1      44.093  32.469  26.351  1.00  0.00     0.131 A 
ATOM     86  C   UNL A   1      45.455  34.855  26.643  1.00  0.00     0.055 A 
ATOM     87  C   UNL A   1      44.223  33.324  25.257  1.00  0.00     0.041 A 
ATOM     88  F   UNL A   1      43.403  31.330  26.172  1.00  0.00    -0.206 F 
ATOM     89  C   UNL A   1      44.897  34.533  25.404  1.00  0.00     0.022 A 
BRANCH  86  90
ATOM     90  S   UNL A   1      46.233  36.473  26.895  1.00  0.00     0.124 S 
ATOM     91  O   UNL A   1      47.155  36.537  25.768  1.00  0.00    -0.237 OA
ATOM     92  O   UNL A   1      45.085  37.372  26.838  1.00  0.00    -0.237 OA
ATOM     93  O   UNL A   1      46.859  36.348  28.210  1.00  0.00    -0.744 OA
ENDBRANCH  86  90
ENDBRANCH  59  83
BRANCH  71  94
ATOM     94  C   UNL A   1      48.213  27.268  30.015  1.00  0.00     0.023 A 
ATOM     95  C   UNL A   1      49.532  27.701  30.232  1.00  0.00     0.031 A 
ATOM     96  C   UNL A   1      48.018  26.102  29.252  1.00  0.00     0.131 A 
ATOM     97  C   UNL A   1      50.601  27.010  29.640  1.00  0.00     0.055 A 
ATOM     98  C   UNL A   1      49.089  25.382  28.721  1.00  0.00     0.041 A 
ATOM     99  F   UNL A   1      46.780  25.641  29.011  1.00  0.00    -0.206 F 
ATOM    100  C   UNL A   1      50.389  25.844  28.900  1.00  0.00     0.022 A 
BRANCH  97 101
ATOM    101  S   UNL A   1      52.269  27.715  29.762  1.00  0.00     0.124 S 
ATOM    102  O   UNL A   1      53.111  26.543  29.542  1.00  0.00    -0.237 OA
ATOM    103  O   UNL A   1      52.265  28.707  28.692  1.00  0.00    -0.237 OA
ATOM    104  O   UNL A   1      52.311  28.264  31.117  1.00  0.00    -0.744 OA
ENDBRANCH  97 101
ENDBRANCH  71  94
ENDBRANCH  45  46
ENDBRANCH  38  40
ENDBRANCH  37  38
ENDBRANCH  36  37
ENDBRANCH  35  36
ENDBRANCH  34  35
ENDBRANCH   1  34
TORSDOF 23
ENDMDL
