MODEL 1
REMARK VINA RESULT:      -9.2      0.000      0.000
REMARK SMILES [NH3+][C@@H](Cc1cn(-c2nc(Cl)nc(N3CCOCC3)n2)c2ccccc12)C(=O)OCCOCCOC(=O)c1ccc(-c2c3nc(c(-c4cc(S(=O)(=O)[O-])ccc4F)c4ccc([nH]4)c(-c4cc(S(=O)(=O)[O-])ccc4F)c4nc(c(-c5cc(S(=O)(=O)[O-])ccc5F)c5ccc2[nH]5)C=C4)C=C3)cc1
REMARK SMILES IDX 30 1 29 2 28 3 26 4 27 5 2 6 1 7 3 11 4 12 5 13 25 14 6 15
REMARK SMILES IDX 20 16 24 17 21 18 23 19 22 20 7 21 8 22 19 23 9 24 12 25
REMARK SMILES IDX 10 26 11 27 13 28 14 29 18 30 15 31 17 32 16 33 31 34 32 35
REMARK SMILES IDX 33 36 34 37 35 38 36 39 37 40 38 41 99 42 39 43 98 44 40 45
REMARK SMILES IDX 41 46 42 47 92 48 43 49 97 50 91 51 93 52 44 53 96 54 90 55
REMARK SMILES IDX 89 56 45 58 77 59 57 60 76 61 58 62 61 63 75 64 94 65 59 66
REMARK SMILES IDX 60 67 74 69 95 70 62 71 46 72 47 73 55 74 48 75 54 76 56 77
REMARK SMILES IDX 53 78 49 79 50 80 51 81 52 82 78 83 79 84 87 85 80 86 86 87
REMARK SMILES IDX 88 88 85 89 81 90 82 91 83 92 84 93 63 94 64 95 72 96 65 97
REMARK SMILES IDX 71 98 73 99 70 100 66 101 67 102 68 103 69 104
REMARK H PARENT 1 8 1 9 1 10 93 57 61 68
REMARK Flexibility Score: inf
ROOT
ATOM      1  C   UNL A   1      44.605  22.634  25.130  1.00  0.00     0.202 C 
ENDROOT
BRANCH   1   2
ATOM      2  C   UNL A   1      44.069  24.038  24.834  1.00  0.00     0.261 C 
BRANCH   2   3
ATOM      3  O   UNL A   1      45.102  25.018  24.769  1.00  0.00    -0.459 OA
BRANCH   3   4
ATOM      4  C   UNL A   1      44.716  26.256  25.181  1.00  0.00     0.365 C 
ATOM      5  O   UNL A   1      43.565  26.595  25.431  1.00  0.00    -0.245 OA
BRANCH   4   6
ATOM      6  C   UNL A   1      45.908  27.207  25.306  1.00  0.00     0.296 C 
BRANCH   6   7
ATOM      7  N   UNL A   1      46.298  27.858  24.020  1.00  0.00    -0.346 N 
ATOM      8  H   UNL A   1      47.216  27.520  23.734  1.00  0.00     0.345 HD
ATOM      9  H   UNL A   1      46.332  28.869  24.149  1.00  0.00     0.345 HD
ATOM     10  H   UNL A   1      45.611  27.629  23.302  1.00  0.00     0.345 HD
ENDBRANCH   6   7
BRANCH   6  11
ATOM     11  C   UNL A   1      45.609  28.213  26.410  1.00  0.00     0.115 C 
BRANCH  11  12
ATOM     12  C   UNL A   1      46.496  28.078  27.611  1.00  0.00    -0.015 A 
ATOM     13  C   UNL A   1      46.613  27.007  28.480  1.00  0.00     0.099 A 
ATOM     14  C   UNL A   1      47.402  29.074  28.074  1.00  0.00     0.004 A 
ATOM     15  N   UNL A   1      47.461  27.363  29.509  1.00  0.00    -0.285 N 
ATOM     16  C   UNL A   1      47.899  28.654  29.309  1.00  0.00     0.056 A 
ATOM     17  C   UNL A   1      47.801  30.319  27.561  1.00  0.00     0.010 A 
ATOM     18  C   UNL A   1      48.721  29.467  30.096  1.00  0.00     0.027 A 
ATOM     19  C   UNL A   1      48.597  31.136  28.353  1.00  0.00     0.001 A 
ATOM     20  C   UNL A   1      49.013  30.732  29.610  1.00  0.00     0.002 A 
BRANCH  15  21
ATOM     21  C   UNL A   1      47.758  26.557  30.636  1.00  0.00     0.240 A 
ATOM     22  N   UNL A   1      48.944  25.963  30.654  1.00  0.00    -0.181 NA
ATOM     23  N   UNL A   1      46.862  26.516  31.626  1.00  0.00    -0.176 NA
ATOM     24  C   UNL A   1      49.204  25.377  31.806  1.00  0.00     0.228 A 
ATOM     25  C   UNL A   1      47.215  25.805  32.693  1.00  0.00     0.231 A 
ATOM     26  Cl  UNL A   1      50.780  24.741  31.978  1.00  0.00    -0.041 Cl
ATOM     27  N   UNL A   1      48.418  25.285  32.870  1.00  0.00    -0.182 NA
BRANCH  25  28
ATOM     28  N   UNL A   1      46.283  25.641  33.667  1.00  0.00    -0.336 N 
ATOM     29  C   UNL A   1      45.510  26.775  34.154  1.00  0.00     0.148 C 
ATOM     30  C   UNL A   1      45.840  24.331  34.097  1.00  0.00     0.148 C 
ATOM     31  C   UNL A   1      45.451  26.700  35.686  1.00  0.00     0.181 C 
ATOM     32  C   UNL A   1      45.799  24.349  35.637  1.00  0.00     0.181 C 
ATOM     33  O   UNL A   1      44.965  25.415  36.134  1.00  0.00    -0.378 OA
ENDBRANCH  25  28
ENDBRANCH  15  21
ENDBRANCH  11  12
ENDBRANCH   6  11
ENDBRANCH   4   6
ENDBRANCH   3   4
ENDBRANCH   2   3
ENDBRANCH   1   2
BRANCH   1  34
ATOM     34  O   UNL A   1      43.885  21.478  24.723  1.00  0.00    -0.374 OA
BRANCH  34  35
ATOM     35  C   UNL A   1      43.430  20.583  25.738  1.00  0.00     0.202 C 
BRANCH  35  36
ATOM     36  C   UNL A   1      42.090  20.807  26.486  1.00  0.00     0.261 C 
BRANCH  36  37
ATOM     37  O   UNL A   1      41.954  22.111  27.096  1.00  0.00    -0.460 OA
BRANCH  37  38
ATOM     38  C   UNL A   1      40.802  22.786  26.831  1.00  0.00     0.338 C 
ATOM     39  O   UNL A   1      39.676  22.280  26.722  1.00  0.00    -0.246 OA
BRANCH  38  40
ATOM     40  C   UNL A   1      41.025  24.235  27.102  1.00  0.00     0.060 A 
ATOM     41  C   UNL A   1      42.060  24.706  27.912  1.00  0.00     0.016 A 
ATOM     42  C   UNL A   1      39.961  25.099  26.792  1.00  0.00     0.016 A 
ATOM     43  C   UNL A   1      41.884  25.932  28.593  1.00  0.00     0.010 A 
ATOM     44  C   UNL A   1      39.831  26.334  27.435  1.00  0.00     0.010 A 
ATOM     45  C   UNL A   1      40.685  26.692  28.477  1.00  0.00    -0.014 A 
BRANCH  45  46
ATOM     46  C   UNL A   1      40.518  28.037  29.137  1.00  0.00     0.031 A 
ATOM     47  C   UNL A   1      41.556  28.914  28.484  1.00  0.00     0.074 A 
ATOM     48  C   UNL A   1      39.593  28.490  30.068  1.00  0.00     0.049 A 
ATOM     49  N   UNL A   1      42.675  29.285  29.014  1.00  0.00    -0.248 NA
ATOM     50  C   UNL A   1      41.547  29.105  27.010  1.00  0.00     0.031 C 
ATOM     51  C   UNL A   1      38.455  27.786  30.704  1.00  0.00     0.029 A 
ATOM     52  N   UNL A   1      39.444  29.758  30.671  1.00  0.00    -0.354 N 
ATOM     53  C   UNL A   1      43.318  30.052  28.044  1.00  0.00     0.074 A 
ATOM     54  C   UNL A   1      42.719  29.706  26.792  1.00  0.00     0.031 C 
ATOM     55  C   UNL A   1      37.605  28.660  31.319  1.00  0.00     0.029 A 
ATOM     56  C   UNL A   1      38.163  29.999  31.287  1.00  0.00     0.049 A 
ATOM     57  H   UNL A   1      40.164  30.429  30.670  1.00  0.00     0.167 HD
ATOM     58  C   UNL A   1      44.043  31.144  28.411  1.00  0.00     0.034 A 
ATOM     59  C   UNL A   1      37.660  31.147  31.892  1.00  0.00     0.034 A 
ATOM     60  C   UNL A   1      44.271  31.110  29.830  1.00  0.00     0.049 A 
ATOM     61  C   UNL A   1      38.801  32.044  32.147  1.00  0.00     0.074 A 
ATOM     62  C   UNL A   1      45.086  30.437  30.705  1.00  0.00     0.029 A 
ATOM     63  N   UNL A   1      43.204  31.576  30.546  1.00  0.00    -0.354 N 
ATOM     64  N   UNL A   1      39.708  31.769  33.035  1.00  0.00    -0.248 NA
ATOM     65  C   UNL A   1      39.193  32.869  31.019  1.00  0.00     0.031 C 
ATOM     66  C   UNL A   1      44.378  30.400  31.939  1.00  0.00     0.029 A 
ATOM     67  C   UNL A   1      43.156  31.050  31.801  1.00  0.00     0.049 A 
ATOM     68  H   UNL A   1      42.545  32.219  30.195  1.00  0.00     0.167 HD
ATOM     69  C   UNL A   1      40.881  31.902  32.321  1.00  0.00     0.074 A 
ATOM     70  C   UNL A   1      40.498  32.604  31.085  1.00  0.00     0.031 C 
ATOM     71  C   UNL A   1      41.976  31.154  32.640  1.00  0.00     0.034 A 
BRANCH  58  72
ATOM     72  C   UNL A   1      44.080  32.448  27.638  1.00  0.00     0.023 A 
ATOM     73  C   UNL A   1      43.571  33.676  28.115  1.00  0.00     0.031 A 
ATOM     74  C   UNL A   1      44.860  32.520  26.463  1.00  0.00     0.131 A 
ATOM     75  C   UNL A   1      43.796  34.877  27.415  1.00  0.00     0.055 A 
ATOM     76  C   UNL A   1      45.144  33.725  25.812  1.00  0.00     0.041 A 
ATOM     77  F   UNL A   1      45.405  31.414  25.931  1.00  0.00    -0.206 F 
ATOM     78  C   UNL A   1      44.604  34.912  26.283  1.00  0.00     0.022 A 
BRANCH  75  79
ATOM     79  S   UNL A   1      43.013  36.433  27.936  1.00  0.00     0.124 S 
ATOM     80  O   UNL A   1      41.738  36.392  27.226  1.00  0.00    -0.237 OA
ATOM     81  O   UNL A   1      42.931  36.243  29.383  1.00  0.00    -0.237 OA
ATOM     82  O   UNL A   1      43.957  37.454  27.497  1.00  0.00    -0.744 OA
ENDBRANCH  75  79
ENDBRANCH  58  72
BRANCH  59  83
ATOM     83  C   UNL A   1      36.316  31.831  31.715  1.00  0.00     0.023 A 
ATOM     84  C   UNL A   1      35.782  31.812  30.427  1.00  0.00     0.031 A 
ATOM     85  C   UNL A   1      35.777  32.822  32.591  1.00  0.00     0.131 A 
ATOM     86  C   UNL A   1      34.858  32.782  30.002  1.00  0.00     0.055 A 
ATOM     87  C   UNL A   1      34.794  33.755  32.182  1.00  0.00     0.041 A 
ATOM     88  F   UNL A   1      36.249  32.969  33.841  1.00  0.00    -0.206 F 
ATOM     89  C   UNL A   1      34.351  33.755  30.864  1.00  0.00     0.022 A 
BRANCH  86  90
ATOM     90  S   UNL A   1      34.458  32.875  28.238  1.00  0.00     0.124 S 
ATOM     91  O   UNL A   1      34.004  31.517  27.954  1.00  0.00    -0.237 OA
ATOM     92  O   UNL A   1      33.424  33.905  28.227  1.00  0.00    -0.237 OA
ATOM     93  O   UNL A   1      35.730  33.245  27.625  1.00  0.00    -0.744 OA
ENDBRANCH  86  90
ENDBRANCH  59  83
BRANCH  71  94
ATOM     94  C   UNL A   1      41.954  30.335  33.921  1.00  0.00     0.023 A 
ATOM     95  C   UNL A   1      42.387  31.009  35.069  1.00  0.00     0.031 A 
ATOM     96  C   UNL A   1      41.742  28.945  34.041  1.00  0.00     0.131 A 
ATOM     97  C   UNL A   1      42.710  30.315  36.236  1.00  0.00     0.055 A 
ATOM     98  C   UNL A   1      41.948  28.264  35.256  1.00  0.00     0.041 A 
ATOM     99  F   UNL A   1      41.443  28.188  32.974  1.00  0.00    -0.206 F 
ATOM    100  C   UNL A   1      42.471  28.946  36.353  1.00  0.00     0.022 A 
BRANCH  97 101
ATOM    101  S   UNL A   1      43.640  31.167  37.534  1.00  0.00     0.124 S 
ATOM    102  O   UNL A   1      44.744  30.244  37.776  1.00  0.00    -0.237 OA
ATOM    103  O   UNL A   1      43.997  32.423  36.879  1.00  0.00    -0.237 OA
ATOM    104  O   UNL A   1      42.679  31.295  38.626  1.00  0.00    -0.744 OA
ENDBRANCH  97 101
ENDBRANCH  71  94
ENDBRANCH  45  46
ENDBRANCH  38  40
ENDBRANCH  37  38
ENDBRANCH  36  37
ENDBRANCH  35  36
ENDBRANCH  34  35
ENDBRANCH   1  34
TORSDOF 22
ENDMDL
MODEL 2
REMARK VINA RESULT:      -9.0      4.109     11.833
REMARK SMILES [NH3+][C@@H](Cc1cn(-c2nc(Cl)nc(N3CCOCC3)n2)c2ccccc12)C(=O)OCCOCCOC(=O)c1ccc(-c2c3nc(c(-c4cc(S(=O)(=O)[O-])ccc4F)c4ccc([nH]4)c(-c4cc(S(=O)(=O)[O-])ccc4F)c4nc(c(-c5cc(S(=O)(=O)[O-])ccc5F)c5ccc2[nH]5)C=C4)C=C3)cc1
REMARK SMILES IDX 30 1 29 2 28 3 26 4 27 5 2 6 1 7 3 11 4 12 5 13 25 14 6 15
REMARK SMILES IDX 20 16 24 17 21 18 23 19 22 20 7 21 8 22 19 23 9 24 12 25
REMARK SMILES IDX 10 26 11 27 13 28 14 29 18 30 15 31 17 32 16 33 31 34 32 35
REMARK SMILES IDX 33 36 34 37 35 38 36 39 37 40 38 41 99 42 39 43 98 44 40 45
REMARK SMILES IDX 41 46 42 47 92 48 43 49 97 50 91 51 93 52 44 53 96 54 90 55
REMARK SMILES IDX 89 56 45 58 77 59 57 60 76 61 58 62 61 63 75 64 94 65 59 66
REMARK SMILES IDX 60 67 74 69 95 70 62 71 46 72 47 73 55 74 48 75 54 76 56 77
REMARK SMILES IDX 53 78 49 79 50 80 51 81 52 82 78 83 79 84 87 85 80 86 86 87
REMARK SMILES IDX 88 88 85 89 81 90 82 91 83 92 84 93 63 94 64 95 72 96 65 97
REMARK SMILES IDX 71 98 73 99 70 100 66 101 67 102 68 103 69 104
REMARK H PARENT 1 8 1 9 1 10 93 57 61 68
REMARK Flexibility Score: inf
ROOT
ATOM      1  C   UNL A   1      42.145  33.904  35.046  1.00  0.00     0.202 C 
ENDROOT
BRANCH   1   2
ATOM      2  C   UNL A   1      42.790  33.714  33.670  1.00  0.00     0.261 C 
BRANCH   2   3
ATOM      3  O   UNL A   1      41.859  33.278  32.683  1.00  0.00    -0.459 OA
BRANCH   3   4
ATOM      4  C   UNL A   1      41.886  34.009  31.536  1.00  0.00     0.365 C 
ATOM      5  O   UNL A   1      42.312  35.154  31.432  1.00  0.00    -0.245 OA
BRANCH   4   6
ATOM      6  C   UNL A   1      41.315  33.225  30.352  1.00  0.00     0.296 C 
BRANCH   6   7
ATOM      7  N   UNL A   1      42.357  32.656  29.447  1.00  0.00    -0.346 N 
ATOM      8  H   UNL A   1      43.256  33.095  29.647  1.00  0.00     0.345 HD
ATOM      9  H   UNL A   1      42.099  32.837  28.477  1.00  0.00     0.345 HD
ATOM     10  H   UNL A   1      42.428  31.651  29.599  1.00  0.00     0.345 HD
ENDBRANCH   6   7
BRANCH   6  11
ATOM     11  C   UNL A   1      40.358  32.168  30.888  1.00  0.00     0.115 C 
BRANCH  11  12
ATOM     12  C   UNL A   1      39.006  32.188  30.239  1.00  0.00    -0.015 A 
ATOM     13  C   UNL A   1      38.029  33.165  30.314  1.00  0.00     0.099 A 
ATOM     14  C   UNL A   1      38.487  31.159  29.404  1.00  0.00     0.004 A 
ATOM     15  N   UNL A   1      36.902  32.713  29.658  1.00  0.00    -0.285 N 
ATOM     16  C   UNL A   1      37.146  31.454  29.153  1.00  0.00     0.056 A 
ATOM     17  C   UNL A   1      39.039  29.977  28.882  1.00  0.00     0.010 A 
ATOM     18  C   UNL A   1      36.306  30.573  28.465  1.00  0.00     0.027 A 
ATOM     19  C   UNL A   1      38.200  29.092  28.220  1.00  0.00     0.001 A 
ATOM     20  C   UNL A   1      36.853  29.368  28.052  1.00  0.00     0.002 A 
BRANCH  15  21
ATOM     21  C   UNL A   1      35.665  33.401  29.593  1.00  0.00     0.240 A 
ATOM     22  N   UNL A   1      34.944  33.241  28.492  1.00  0.00    -0.181 NA
ATOM     23  N   UNL A   1      35.282  34.094  30.670  1.00  0.00    -0.176 NA
ATOM     24  C   UNL A   1      33.742  33.775  28.587  1.00  0.00     0.228 A 
ATOM     25  C   UNL A   1      34.083  34.665  30.591  1.00  0.00     0.231 A 
ATOM     26  Cl  UNL A   1      32.685  33.460  27.283  1.00  0.00    -0.041 Cl
ATOM     27  N   UNL A   1      33.232  34.461  29.600  1.00  0.00    -0.182 NA
BRANCH  25  28
ATOM     28  N   UNL A   1      33.712  35.475  31.616  1.00  0.00    -0.336 N 
ATOM     29  C   UNL A   1      33.042  36.741  31.356  1.00  0.00     0.148 C 
ATOM     30  C   UNL A   1      33.735  35.032  32.994  1.00  0.00     0.148 C 
ATOM     31  C   UNL A   1      33.669  37.814  32.258  1.00  0.00     0.181 C 
ATOM     32  C   UNL A   1      34.364  36.167  33.824  1.00  0.00     0.181 C 
ATOM     33  O   UNL A   1      33.658  37.411  33.645  1.00  0.00    -0.378 OA
ENDBRANCH  25  28
ENDBRANCH  15  21
ENDBRANCH  11  12
ENDBRANCH   6  11
ENDBRANCH   4   6
ENDBRANCH   3   4
ENDBRANCH   2   3
ENDBRANCH   1   2
BRANCH   1  34
ATOM     34  O   UNL A   1      41.377  35.065  35.337  1.00  0.00    -0.374 OA
BRANCH  34  35
ATOM     35  C   UNL A   1      39.984  35.041  35.021  1.00  0.00     0.202 C 
BRANCH  35  36
ATOM     36  C   UNL A   1      39.118  33.773  35.243  1.00  0.00     0.261 C 
BRANCH  36  37
ATOM     37  O   UNL A   1      38.967  32.938  34.073  1.00  0.00    -0.460 OA
BRANCH  37  38
ATOM     38  C   UNL A   1      38.286  31.772  34.246  1.00  0.00     0.338 C 
ATOM     39  O   UNL A   1      37.053  31.644  34.219  1.00  0.00    -0.246 OA
BRANCH  38  40
ATOM     40  C   UNL A   1      39.231  30.634  34.059  1.00  0.00     0.060 A 
ATOM     41  C   UNL A   1      40.554  30.665  34.502  1.00  0.00     0.016 A 
ATOM     42  C   UNL A   1      38.853  29.655  33.125  1.00  0.00     0.016 A 
ATOM     43  C   UNL A   1      41.517  29.888  33.819  1.00  0.00     0.010 A 
ATOM     44  C   UNL A   1      39.812  28.855  32.497  1.00  0.00     0.010 A 
ATOM     45  C   UNL A   1      41.173  29.083  32.695  1.00  0.00    -0.014 A 
BRANCH  45  46
ATOM     46  C   UNL A   1      42.176  28.191  32.008  1.00  0.00     0.031 A 
ATOM     47  C   UNL A   1      42.792  27.380  33.121  1.00  0.00     0.074 A 
ATOM     48  C   UNL A   1      42.471  28.013  30.663  1.00  0.00     0.049 A 
ATOM     49  N   UNL A   1      43.966  27.565  33.630  1.00  0.00    -0.248 NA
ATOM     50  C   UNL A   1      41.932  26.541  33.994  1.00  0.00     0.031 C 
ATOM     51  C   UNL A   1      41.872  28.643  29.463  1.00  0.00     0.029 A 
ATOM     52  N   UNL A   1      43.408  27.165  30.034  1.00  0.00    -0.354 N 
ATOM     53  C   UNL A   1      44.094  26.613  34.640  1.00  0.00     0.074 A 
ATOM     54  C   UNL A   1      42.767  26.198  34.977  1.00  0.00     0.031 C 
ATOM     55  C   UNL A   1      42.217  27.976  28.322  1.00  0.00     0.029 A 
ATOM     56  C   UNL A   1      43.188  26.942  28.627  1.00  0.00     0.049 A 
ATOM     57  H   UNL A   1      44.159  26.756  30.522  1.00  0.00     0.167 HD
ATOM     58  C   UNL A   1      45.296  26.013  34.859  1.00  0.00     0.034 A 
ATOM     59  C   UNL A   1      43.862  26.117  27.732  1.00  0.00     0.034 A 
ATOM     60  C   UNL A   1      46.327  26.744  34.174  1.00  0.00     0.049 A 
ATOM     61  C   UNL A   1      45.135  25.729  28.368  1.00  0.00     0.074 A 
ATOM     62  C   UNL A   1      47.025  27.912  34.353  1.00  0.00     0.029 A 
ATOM     63  N   UNL A   1      46.407  26.424  32.847  1.00  0.00    -0.354 N 
ATOM     64  N   UNL A   1      46.094  26.582  28.567  1.00  0.00    -0.248 NA
ATOM     65  C   UNL A   1      45.046  24.596  29.271  1.00  0.00     0.031 C 
ATOM     66  C   UNL A   1      47.395  28.344  33.048  1.00  0.00     0.029 A 
ATOM     67  C   UNL A   1      46.926  27.437  32.102  1.00  0.00     0.049 A 
ATOM     68  H   UNL A   1      46.122  25.558  32.473  1.00  0.00     0.167 HD
ATOM     69  C   UNL A   1      46.376  26.414  29.907  1.00  0.00     0.074 A 
ATOM     70  C   UNL A   1      45.708  25.158  30.282  1.00  0.00     0.031 C 
ATOM     71  C   UNL A   1      46.839  27.457  30.654  1.00  0.00     0.034 A 
BRANCH  58  72
ATOM     72  C   UNL A   1      45.472  24.549  35.213  1.00  0.00     0.023 A 
ATOM     73  C   UNL A   1      45.836  24.072  36.491  1.00  0.00     0.031 A 
ATOM     74  C   UNL A   1      45.037  23.570  34.292  1.00  0.00     0.131 A 
ATOM     75  C   UNL A   1      45.811  22.696  36.789  1.00  0.00     0.055 A 
ATOM     76  C   UNL A   1      44.941  22.212  34.615  1.00  0.00     0.041 A 
ATOM     77  F   UNL A   1      44.653  23.914  33.053  1.00  0.00    -0.206 F 
ATOM     78  C   UNL A   1      45.338  21.768  35.867  1.00  0.00     0.022 A 
BRANCH  75  79
ATOM     79  S   UNL A   1      46.429  22.063  38.377  1.00  0.00     0.124 S 
ATOM     80  O   UNL A   1      45.953  20.683  38.368  1.00  0.00    -0.237 OA
ATOM     81  O   UNL A   1      47.872  22.230  38.211  1.00  0.00    -0.237 OA
ATOM     82  O   UNL A   1      45.812  22.946  39.360  1.00  0.00    -0.744 OA
ENDBRANCH  75  79
ENDBRANCH  58  72
BRANCH  59  83
ATOM     83  C   UNL A   1      43.315  25.135  26.711  1.00  0.00     0.023 A 
ATOM     84  C   UNL A   1      42.068  24.581  26.998  1.00  0.00     0.031 A 
ATOM     85  C   UNL A   1      44.100  24.424  25.753  1.00  0.00     0.131 A 
ATOM     86  C   UNL A   1      41.673  23.346  26.457  1.00  0.00     0.055 A 
ATOM     87  C   UNL A   1      43.671  23.213  25.156  1.00  0.00     0.041 A 
ATOM     88  F   UNL A   1      45.340  24.834  25.434  1.00  0.00    -0.206 F 
ATOM     89  C   UNL A   1      42.457  22.652  25.534  1.00  0.00     0.022 A 
BRANCH  86  90
ATOM     90  S   UNL A   1      40.186  22.552  27.121  1.00  0.00     0.124 S 
ATOM     91  O   UNL A   1      39.424  23.694  27.616  1.00  0.00    -0.237 OA
ATOM     92  O   UNL A   1      39.650  21.897  25.933  1.00  0.00    -0.237 OA
ATOM     93  O   UNL A   1      40.713  21.664  28.153  1.00  0.00    -0.744 OA
ENDBRANCH  86  90
ENDBRANCH  59  83
BRANCH  71  94
ATOM     94  C   UNL A   1      47.243  28.741  29.946  1.00  0.00     0.023 A 
ATOM     95  C   UNL A   1      46.255  29.314  29.137  1.00  0.00     0.031 A 
ATOM     96  C   UNL A   1      48.538  29.296  29.860  1.00  0.00     0.131 A 
ATOM     97  C   UNL A   1      46.569  30.301  28.202  1.00  0.00     0.055 A 
ATOM     98  C   UNL A   1      48.827  30.378  29.006  1.00  0.00     0.041 A 
ATOM     99  F   UNL A   1      49.579  28.747  30.502  1.00  0.00    -0.206 F 
ATOM    100  C   UNL A   1      47.845  30.862  28.142  1.00  0.00     0.022 A 
BRANCH  97 101
ATOM    101  S   UNL A   1      45.362  30.708  26.917  1.00  0.00     0.124 S 
ATOM    102  O   UNL A   1      44.622  29.457  26.785  1.00  0.00    -0.237 OA
ATOM    103  O   UNL A   1      44.629  31.815  27.527  1.00  0.00    -0.237 OA
ATOM    104  O   UNL A   1      46.183  31.074  25.767  1.00  0.00    -0.744 OA
ENDBRANCH  97 101
ENDBRANCH  71  94
ENDBRANCH  45  46
ENDBRANCH  38  40
ENDBRANCH  37  38
ENDBRANCH  36  37
ENDBRANCH  35  36
ENDBRANCH  34  35
ENDBRANCH   1  34
TORSDOF 22
ENDMDL
MODEL 3
REMARK VINA RESULT:      -9.0      4.325     10.849
REMARK SMILES [NH3+][C@@H](Cc1cn(-c2nc(Cl)nc(N3CCOCC3)n2)c2ccccc12)C(=O)OCCOCCOC(=O)c1ccc(-c2c3nc(c(-c4cc(S(=O)(=O)[O-])ccc4F)c4ccc([nH]4)c(-c4cc(S(=O)(=O)[O-])ccc4F)c4nc(c(-c5cc(S(=O)(=O)[O-])ccc5F)c5ccc2[nH]5)C=C4)C=C3)cc1
REMARK SMILES IDX 30 1 29 2 28 3 26 4 27 5 2 6 1 7 3 11 4 12 5 13 25 14 6 15
REMARK SMILES IDX 20 16 24 17 21 18 23 19 22 20 7 21 8 22 19 23 9 24 12 25
REMARK SMILES IDX 10 26 11 27 13 28 14 29 18 30 15 31 17 32 16 33 31 34 32 35
REMARK SMILES IDX 33 36 34 37 35 38 36 39 37 40 38 41 99 42 39 43 98 44 40 45
REMARK SMILES IDX 41 46 42 47 92 48 43 49 97 50 91 51 93 52 44 53 96 54 90 55
REMARK SMILES IDX 89 56 45 58 77 59 57 60 76 61 58 62 61 63 75 64 94 65 59 66
REMARK SMILES IDX 60 67 74 69 95 70 62 71 46 72 47 73 55 74 48 75 54 76 56 77
REMARK SMILES IDX 53 78 49 79 50 80 51 81 52 82 78 83 79 84 87 85 80 86 86 87
REMARK SMILES IDX 88 88 85 89 81 90 82 91 83 92 84 93 63 94 64 95 72 96 65 97
REMARK SMILES IDX 71 98 73 99 70 100 66 101 67 102 68 103 69 104
REMARK H PARENT 1 8 1 9 1 10 93 57 61 68
REMARK Flexibility Score: inf
ROOT
ATOM      1  C   UNL A   1      32.087  27.477  26.381  1.00  0.00     0.202 C 
ENDROOT
BRANCH   1   2
ATOM      2  C   UNL A   1      31.028  26.385  26.201  1.00  0.00     0.261 C 
BRANCH   2   3
ATOM      3  O   UNL A   1      31.596  25.086  26.066  1.00  0.00    -0.459 OA
BRANCH   3   4
ATOM      4  C   UNL A   1      31.856  24.726  24.780  1.00  0.00     0.365 C 
ATOM      5  O   UNL A   1      31.126  24.945  23.819  1.00  0.00    -0.245 OA
BRANCH   4   6
ATOM      6  C   UNL A   1      33.198  24.002  24.655  1.00  0.00     0.296 C 
BRANCH   6   7
ATOM      7  N   UNL A   1      34.123  24.615  23.657  1.00  0.00    -0.346 N 
ATOM      8  H   UNL A   1      34.794  25.213  24.139  1.00  0.00     0.345 HD
ATOM      9  H   UNL A   1      33.585  25.174  22.994  1.00  0.00     0.345 HD
ATOM     10  H   UNL A   1      34.621  23.880  23.157  1.00  0.00     0.345 HD
ENDBRANCH   6   7
BRANCH   6  11
ATOM     11  C   UNL A   1      33.817  23.887  26.042  1.00  0.00     0.115 C 
BRANCH  11  12
ATOM     12  C   UNL A   1      35.200  23.310  26.044  1.00  0.00    -0.015 A 
ATOM     13  C   UNL A   1      36.391  23.926  26.388  1.00  0.00     0.099 A 
ATOM     14  C   UNL A   1      35.528  21.974  25.675  1.00  0.00     0.004 A 
ATOM     15  N   UNL A   1      37.430  23.055  26.129  1.00  0.00    -0.285 N 
ATOM     16  C   UNL A   1      36.920  21.878  25.626  1.00  0.00     0.056 A 
ATOM     17  C   UNL A   1      34.750  20.856  25.334  1.00  0.00     0.010 A 
ATOM     18  C   UNL A   1      37.570  20.727  25.170  1.00  0.00     0.027 A 
ATOM     19  C   UNL A   1      35.395  19.722  24.859  1.00  0.00     0.001 A 
ATOM     20  C   UNL A   1      36.774  19.676  24.743  1.00  0.00     0.002 A 
BRANCH  15  21
ATOM     21  C   UNL A   1      38.805  23.361  26.274  1.00  0.00     0.240 A 
ATOM     22  N   UNL A   1      39.129  24.643  26.375  1.00  0.00    -0.181 NA
ATOM     23  N   UNL A   1      39.663  22.341  26.376  1.00  0.00    -0.176 NA
ATOM     24  C   UNL A   1      40.400  24.827  26.676  1.00  0.00     0.228 A 
ATOM     25  C   UNL A   1      40.933  22.675  26.583  1.00  0.00     0.231 A 
ATOM     26  Cl  UNL A   1      40.860  26.440  27.000  1.00  0.00    -0.041 Cl
ATOM     27  N   UNL A   1      41.342  23.908  26.830  1.00  0.00    -0.182 NA
BRANCH  25  28
ATOM     28  N   UNL A   1      41.850  21.673  26.573  1.00  0.00    -0.336 N 
ATOM     29  C   UNL A   1      43.260  21.958  26.354  1.00  0.00     0.148 C 
ATOM     30  C   UNL A   1      41.526  20.330  27.009  1.00  0.00     0.148 C 
ATOM     31  C   UNL A   1      43.817  20.920  25.368  1.00  0.00     0.181 C 
ATOM     32  C   UNL A   1      42.130  19.360  25.975  1.00  0.00     0.181 C 
ATOM     33  O   UNL A   1      43.546  19.572  25.811  1.00  0.00    -0.378 OA
ENDBRANCH  25  28
ENDBRANCH  15  21
ENDBRANCH  11  12
ENDBRANCH   6  11
ENDBRANCH   4   6
ENDBRANCH   3   4
ENDBRANCH   2   3
ENDBRANCH   1   2
BRANCH   1  34
ATOM     34  O   UNL A   1      31.967  28.726  25.711  1.00  0.00    -0.374 OA
BRANCH  34  35
ATOM     35  C   UNL A   1      33.028  29.669  25.863  1.00  0.00     0.202 C 
BRANCH  35  36
ATOM     36  C   UNL A   1      33.630  30.006  27.253  1.00  0.00     0.261 C 
BRANCH  36  37
ATOM     37  O   UNL A   1      34.768  30.895  27.214  1.00  0.00    -0.460 OA
BRANCH  37  38
ATOM     38  C   UNL A   1      35.391  31.133  28.400  1.00  0.00     0.338 C 
ATOM     39  O   UNL A   1      34.841  31.178  29.510  1.00  0.00    -0.246 OA
BRANCH  38  40
ATOM     40  C   UNL A   1      36.856  30.920  28.222  1.00  0.00     0.060 A 
ATOM     41  C   UNL A   1      37.387  29.822  27.542  1.00  0.00     0.016 A 
ATOM     42  C   UNL A   1      37.703  31.680  29.046  1.00  0.00     0.016 A 
ATOM     43  C   UNL A   1      38.675  29.363  27.897  1.00  0.00     0.010 A 
ATOM     44  C   UNL A   1      38.996  31.239  29.345  1.00  0.00     0.010 A 
ATOM     45  C   UNL A   1      39.439  29.985  28.926  1.00  0.00    -0.014 A 
BRANCH  45  46
ATOM     46  C   UNL A   1      40.844  29.552  29.259  1.00  0.00     0.031 A 
ATOM     47  C   UNL A   1      40.775  29.109  30.699  1.00  0.00     0.074 A 
ATOM     48  C   UNL A   1      41.982  29.454  28.470  1.00  0.00     0.049 A 
ATOM     49  N   UNL A   1      41.211  29.776  31.717  1.00  0.00    -0.248 NA
ATOM     50  C   UNL A   1      39.838  28.028  31.100  1.00  0.00     0.031 C 
ATOM     51  C   UNL A   1      42.172  29.737  27.028  1.00  0.00     0.029 A 
ATOM     52  N   UNL A   1      43.291  29.037  28.796  1.00  0.00    -0.354 N 
ATOM     53  C   UNL A   1      40.908  29.000  32.835  1.00  0.00     0.074 A 
ATOM     54  C   UNL A   1      39.876  28.095  32.433  1.00  0.00     0.031 C 
ATOM     55  C   UNL A   1      43.350  29.222  26.567  1.00  0.00     0.029 A 
ATOM     56  C   UNL A   1      44.123  28.686  27.672  1.00  0.00     0.049 A 
ATOM     57  H   UNL A   1      43.612  28.989  29.725  1.00  0.00     0.167 HD
ATOM     58  C   UNL A   1      41.776  28.951  33.883  1.00  0.00     0.034 A 
ATOM     59  C   UNL A   1      45.414  28.171  27.637  1.00  0.00     0.034 A 
ATOM     60  C   UNL A   1      42.740  30.010  33.754  1.00  0.00     0.049 A 
ATOM     61  C   UNL A   1      45.998  28.362  28.977  1.00  0.00     0.074 A 
ATOM     62  C   UNL A   1      42.780  31.367  33.954  1.00  0.00     0.029 A 
ATOM     63  N   UNL A   1      43.756  29.696  32.896  1.00  0.00    -0.354 N 
ATOM     64  N   UNL A   1      46.298  29.539  29.437  1.00  0.00    -0.248 NA
ATOM     65  C   UNL A   1      45.665  27.329  29.940  1.00  0.00     0.031 C 
ATOM     66  C   UNL A   1      43.772  31.859  33.060  1.00  0.00     0.029 A 
ATOM     67  C   UNL A   1      44.321  30.802  32.338  1.00  0.00     0.049 A 
ATOM     68  H   UNL A   1      44.047  28.775  32.702  1.00  0.00     0.167 HD
ATOM     69  C   UNL A   1      45.665  29.555  30.662  1.00  0.00     0.074 A 
ATOM     70  C   UNL A   1      45.306  28.152  30.925  1.00  0.00     0.031 C 
ATOM     71  C   UNL A   1      45.204  30.726  31.190  1.00  0.00     0.034 A 
BRANCH  58  72
ATOM     72  C   UNL A   1      42.081  27.701  34.685  1.00  0.00     0.023 A 
ATOM     73  C   UNL A   1      42.898  26.641  34.235  1.00  0.00     0.031 A 
ATOM     74  C   UNL A   1      41.723  27.665  36.051  1.00  0.00     0.131 A 
ATOM     75  C   UNL A   1      43.275  25.596  35.100  1.00  0.00     0.055 A 
ATOM     76  C   UNL A   1      42.162  26.665  36.925  1.00  0.00     0.041 A 
ATOM     77  F   UNL A   1      40.961  28.631  36.587  1.00  0.00    -0.206 F 
ATOM     78  C   UNL A   1      42.936  25.618  36.449  1.00  0.00     0.022 A 
BRANCH  75  79
ATOM     79  S   UNL A   1      44.192  24.150  34.489  1.00  0.00     0.124 S 
ATOM     80  O   UNL A   1      45.229  24.765  33.665  1.00  0.00    -0.237 OA
ATOM     81  O   UNL A   1      44.658  23.555  35.741  1.00  0.00    -0.237 OA
ATOM     82  O   UNL A   1      43.181  23.380  33.775  1.00  0.00    -0.744 OA
ENDBRANCH  75  79
ENDBRANCH  58  72
BRANCH  59  83
ATOM     83  C   UNL A   1      45.979  27.012  26.836  1.00  0.00     0.023 A 
ATOM     84  C   UNL A   1      46.948  27.335  25.886  1.00  0.00     0.031 A 
ATOM     85  C   UNL A   1      45.340  25.747  26.658  1.00  0.00     0.131 A 
ATOM     86  C   UNL A   1      47.186  26.513  24.772  1.00  0.00     0.055 A 
ATOM     87  C   UNL A   1      45.631  24.886  25.571  1.00  0.00     0.041 A 
ATOM     88  F   UNL A   1      44.355  25.349  27.481  1.00  0.00    -0.206 F 
ATOM     89  C   UNL A   1      46.542  25.287  24.601  1.00  0.00     0.022 A 
BRANCH  86  90
ATOM     90  S   UNL A   1      48.225  27.155  23.434  1.00  0.00     0.124 S 
ATOM     91  O   UNL A   1      49.381  27.668  24.163  1.00  0.00    -0.237 OA
ATOM     92  O   UNL A   1      48.456  25.952  22.641  1.00  0.00    -0.237 OA
ATOM     93  O   UNL A   1      47.381  28.173  22.814  1.00  0.00    -0.744 OA
ENDBRANCH  86  90
ENDBRANCH  59  83
BRANCH  71  94
ATOM     94  C   UNL A   1      45.587  32.033  30.514  1.00  0.00     0.023 A 
ATOM     95  C   UNL A   1      45.129  32.183  29.199  1.00  0.00     0.031 A 
ATOM     96  C   UNL A   1      46.500  33.001  30.985  1.00  0.00     0.131 A 
ATOM     97  C   UNL A   1      45.650  33.169  28.361  1.00  0.00     0.055 A 
ATOM     98  C   UNL A   1      46.930  34.071  30.177  1.00  0.00     0.041 A 
ATOM     99  F   UNL A   1      47.089  32.883  32.183  1.00  0.00    -0.206 F 
ATOM    100  C   UNL A   1      46.531  34.138  28.843  1.00  0.00     0.022 A 
BRANCH  97 101
ATOM    101  S   UNL A   1      45.335  33.064  26.582  1.00  0.00     0.124 S 
ATOM    102  O   UNL A   1      45.903  31.763  26.247  1.00  0.00    -0.237 OA
ATOM    103  O   UNL A   1      43.878  33.152  26.525  1.00  0.00    -0.237 OA
ATOM    104  O   UNL A   1      46.043  34.217  26.032  1.00  0.00    -0.744 OA
ENDBRANCH  97 101
ENDBRANCH  71  94
ENDBRANCH  45  46
ENDBRANCH  38  40
ENDBRANCH  37  38
ENDBRANCH  36  37
ENDBRANCH  35  36
ENDBRANCH  34  35
ENDBRANCH   1  34
TORSDOF 22
ENDMDL
