MODEL 1
REMARK VINA RESULT:     -11.3      0.000      0.000
REMARK SMILES O=C(OCCOCCOC(=O)c1ccc(S(=O)(=O)Cc2ncccn2)c(F)c1)c1ccc(-c2c3nc(c(-c4cc(S(=O)(=O)[O-])ccc4F)c4ccc([nH]4)c(-c4cc(S(=O)(=O)[O-])ccc4F)c4nc(c(-c5cc(S(=O)(=O)[O-])ccc5F)c5ccc2[nH]5)C=C4)C=C3)cc1
REMARK SMILES IDX 6 1 5 2 4 3 3 4 2 5 1 6 29 7 30 8 91 9 31 10 90 11 32 12
REMARK SMILES IDX 33 13 34 14 84 15 35 16 89 17 83 18 85 19 36 20 88 21 82 22
REMARK SMILES IDX 81 23 37 25 69 26 49 27 68 28 50 29 53 30 67 31 86 32 51 33
REMARK SMILES IDX 52 34 66 36 87 37 54 38 38 39 39 40 47 41 40 42 46 43 48 44
REMARK SMILES IDX 45 45 41 46 42 47 43 48 44 49 70 50 71 51 79 52 72 53 78 54
REMARK SMILES IDX 80 55 77 56 73 57 74 58 75 59 76 60 55 61 56 62 64 63 57 64
REMARK SMILES IDX 63 65 65 66 62 67 58 68 59 69 60 70 61 71 7 72 8 73 9 74
REMARK SMILES IDX 10 75 11 76 12 77 13 78 28 79 14 80 26 81 15 82 27 83 16 84
REMARK SMILES IDX 17 85 18 86 19 87 20 88 21 89 25 90 22 91 24 92 23 93
REMARK H PARENT 85 24 53 35
REMARK Flexibility Score: inf
ROOT
ATOM      1  O   UNL A   1      33.907  20.956  24.559  1.00  0.00    -0.374 OA
ENDROOT
BRANCH   1   2
ATOM      2  C   UNL A   1      35.171  21.619  24.641  1.00  0.00     0.202 C 
BRANCH   2   3
ATOM      3  C   UNL A   1      36.394  20.718  24.801  1.00  0.00     0.261 C 
BRANCH   3   4
ATOM      4  O   UNL A   1      37.170  21.135  25.936  1.00  0.00    -0.460 OA
BRANCH   4   5
ATOM      5  C   UNL A   1      38.518  21.225  26.016  1.00  0.00     0.338 C 
ATOM      6  O   UNL A   1      39.192  20.212  25.840  1.00  0.00    -0.246 OA
BRANCH   5   7
ATOM      7  C   UNL A   1      39.225  22.503  26.315  1.00  0.00     0.060 A 
ATOM      8  C   UNL A   1      38.835  23.750  25.822  1.00  0.00     0.016 A 
ATOM      9  C   UNL A   1      40.287  22.453  27.231  1.00  0.00     0.016 A 
ATOM     10  C   UNL A   1      39.527  24.905  26.152  1.00  0.00     0.010 A 
ATOM     11  C   UNL A   1      40.949  23.620  27.620  1.00  0.00     0.010 A 
ATOM     12  C   UNL A   1      40.576  24.850  27.068  1.00  0.00    -0.014 A 
BRANCH  12  13
ATOM     13  C   UNL A   1      41.286  26.101  27.390  1.00  0.00     0.031 A 
ATOM     14  C   UNL A   1      40.639  27.078  28.323  1.00  0.00     0.074 A 
ATOM     15  C   UNL A   1      42.544  26.276  26.943  1.00  0.00     0.049 A 
ATOM     16  N   UNL A   1      41.055  28.254  28.701  1.00  0.00    -0.248 NA
ATOM     17  C   UNL A   1      39.359  26.665  28.923  1.00  0.00     0.031 C 
ATOM     18  C   UNL A   1      43.289  25.307  26.133  1.00  0.00     0.029 A 
ATOM     19  N   UNL A   1      43.432  27.300  27.134  1.00  0.00    -0.354 N 
ATOM     20  C   UNL A   1      40.082  28.735  29.567  1.00  0.00     0.074 A 
ATOM     21  C   UNL A   1      39.051  27.724  29.657  1.00  0.00     0.031 C 
ATOM     22  C   UNL A   1      44.535  25.765  25.935  1.00  0.00     0.029 A 
ATOM     23  C   UNL A   1      44.651  27.091  26.530  1.00  0.00     0.049 A 
ATOM     24  H   UNL A   1      43.220  28.108  27.654  1.00  0.00     0.167 HD
ATOM     25  C   UNL A   1      40.057  29.922  30.216  1.00  0.00     0.034 A 
ATOM     26  C   UNL A   1      45.724  27.901  26.441  1.00  0.00     0.034 A 
ATOM     27  C   UNL A   1      41.099  30.906  30.088  1.00  0.00     0.049 A 
ATOM     28  C   UNL A   1      45.624  29.262  27.078  1.00  0.00     0.074 A 
ATOM     29  C   UNL A   1      41.154  32.185  30.607  1.00  0.00     0.029 A 
ATOM     30  N   UNL A   1      42.281  30.709  29.382  1.00  0.00    -0.354 N 
ATOM     31  N   UNL A   1      44.642  29.764  27.791  1.00  0.00    -0.248 NA
ATOM     32  C   UNL A   1      46.755  30.175  26.879  1.00  0.00     0.031 C 
ATOM     33  C   UNL A   1      42.347  32.777  30.176  1.00  0.00     0.029 A 
ATOM     34  C   UNL A   1      43.063  31.847  29.437  1.00  0.00     0.049 A 
ATOM     35  H   UNL A   1      42.526  29.880  28.910  1.00  0.00     0.167 HD
ATOM     36  C   UNL A   1      45.034  31.053  28.127  1.00  0.00     0.074 A 
ATOM     37  C   UNL A   1      46.353  31.245  27.552  1.00  0.00     0.031 C 
ATOM     38  C   UNL A   1      44.369  31.997  28.839  1.00  0.00     0.034 A 
BRANCH  25  39
ATOM     39  C   UNL A   1      38.831  30.233  31.030  1.00  0.00     0.023 A 
ATOM     40  C   UNL A   1      37.746  30.948  30.495  1.00  0.00     0.031 A 
ATOM     41  C   UNL A   1      38.774  29.855  32.384  1.00  0.00     0.131 A 
ATOM     42  C   UNL A   1      36.671  31.307  31.324  1.00  0.00     0.055 A 
ATOM     43  C   UNL A   1      37.675  30.162  33.186  1.00  0.00     0.041 A 
ATOM     44  F   UNL A   1      39.797  29.199  32.951  1.00  0.00    -0.206 F 
ATOM     45  C   UNL A   1      36.619  30.900  32.660  1.00  0.00     0.022 A 
BRANCH  42  46
ATOM     46  S   UNL A   1      35.380  32.395  30.662  1.00  0.00     0.124 S 
ATOM     47  O   UNL A   1      35.043  31.723  29.410  1.00  0.00    -0.237 OA
ATOM     48  O   UNL A   1      34.360  32.353  31.702  1.00  0.00    -0.237 OA
ATOM     49  O   UNL A   1      36.060  33.681  30.510  1.00  0.00    -0.744 OA
ENDBRANCH  42  46
ENDBRANCH  25  39
BRANCH  26  50
ATOM     50  C   UNL A   1      46.925  27.483  25.663  1.00  0.00     0.023 A 
ATOM     51  C   UNL A   1      47.066  27.803  24.304  1.00  0.00     0.031 A 
ATOM     52  C   UNL A   1      47.959  26.753  26.279  1.00  0.00     0.131 A 
ATOM     53  C   UNL A   1      48.209  27.381  23.602  1.00  0.00     0.055 A 
ATOM     54  C   UNL A   1      49.111  26.374  25.588  1.00  0.00     0.041 A 
ATOM     55  F   UNL A   1      47.874  26.420  27.576  1.00  0.00    -0.206 F 
ATOM     56  C   UNL A   1      49.238  26.683  24.239  1.00  0.00     0.022 A 
BRANCH  53  57
ATOM     57  S   UNL A   1      48.324  27.727  21.824  1.00  0.00     0.124 S 
ATOM     58  O   UNL A   1      47.017  28.315  21.551  1.00  0.00    -0.237 OA
ATOM     59  O   UNL A   1      49.463  28.637  21.763  1.00  0.00    -0.237 OA
ATOM     60  O   UNL A   1      48.552  26.410  21.234  1.00  0.00    -0.744 OA
ENDBRANCH  53  57
ENDBRANCH  26  50
BRANCH  38  61
ATOM     61  C   UNL A   1      45.069  33.309  29.046  1.00  0.00     0.023 A 
ATOM     62  C   UNL A   1      44.791  34.418  28.232  1.00  0.00     0.031 A 
ATOM     63  C   UNL A   1      45.980  33.461  30.106  1.00  0.00     0.131 A 
ATOM     64  C   UNL A   1      45.439  35.635  28.477  1.00  0.00     0.055 A 
ATOM     65  C   UNL A   1      46.591  34.685  30.370  1.00  0.00     0.041 A 
ATOM     66  F   UNL A   1      46.269  32.426  30.910  1.00  0.00    -0.206 F 
ATOM     67  C   UNL A   1      46.323  35.781  29.550  1.00  0.00     0.022 A 
BRANCH  64  68
ATOM     68  S   UNL A   1      45.127  37.029  27.361  1.00  0.00     0.124 S 
ATOM     69  O   UNL A   1      43.862  36.642  26.744  1.00  0.00    -0.237 OA
ATOM     70  O   UNL A   1      45.068  38.162  28.278  1.00  0.00    -0.237 OA
ATOM     71  O   UNL A   1      46.283  37.017  26.467  1.00  0.00    -0.744 OA
ENDBRANCH  64  68
ENDBRANCH  38  61
ENDBRANCH  12  13
ENDBRANCH   5   7
ENDBRANCH   4   5
ENDBRANCH   3   4
ENDBRANCH   2   3
ENDBRANCH   1   2
BRANCH   1  72
ATOM     72  C   UNL A   1      32.884  21.456  25.432  1.00  0.00     0.202 C 
BRANCH  72  73
ATOM     73  C   UNL A   1      33.522  22.155  26.639  1.00  0.00     0.261 C 
BRANCH  73  74
ATOM     74  O   UNL A   1      33.198  23.556  26.572  1.00  0.00    -0.460 OA
BRANCH  74  75
ATOM     75  C   UNL A   1      31.891  23.831  26.800  1.00  0.00     0.338 C 
ATOM     76  O   UNL A   1      31.136  23.315  27.604  1.00  0.00    -0.246 OA
BRANCH  75  77
ATOM     77  C   UNL A   1      31.594  25.087  26.101  1.00  0.00     0.063 A 
ATOM     78  C   UNL A   1      31.668  26.330  26.729  1.00  0.00     0.017 A 
ATOM     79  C   UNL A   1      31.145  24.982  24.786  1.00  0.00     0.056 A 
ATOM     80  C   UNL A   1      31.369  27.479  25.991  1.00  0.00     0.024 A 
ATOM     81  C   UNL A   1      30.709  26.112  24.116  1.00  0.00     0.142 A 
ATOM     82  C   UNL A   1      30.914  27.361  24.667  1.00  0.00     0.103 A 
ATOM     83  F   UNL A   1      30.058  25.952  22.958  1.00  0.00    -0.206 F 
BRANCH  82  84
ATOM     84  S   UNL A   1      30.691  28.828  23.713  1.00  0.00     0.188 S 
ATOM     85  O   UNL A   1      31.025  29.913  24.624  1.00  0.00    -0.223 OA
ATOM     86  O   UNL A   1      31.498  28.651  22.515  1.00  0.00    -0.223 OA
BRANCH  84  87
ATOM     87  C   UNL A   1      29.015  29.062  23.227  1.00  0.00     0.219 C 
BRANCH  87  88
ATOM     88  C   UNL A   1      28.822  30.349  22.490  1.00  0.00     0.143 A 
ATOM     89  N   UNL A   1      28.554  30.287  21.173  1.00  0.00    -0.240 NA
ATOM     90  N   UNL A   1      28.697  31.479  23.211  1.00  0.00    -0.240 NA
ATOM     91  C   UNL A   1      28.153  31.410  20.553  1.00  0.00     0.115 A 
ATOM     92  C   UNL A   1      28.298  32.584  22.544  1.00  0.00     0.115 A 
ATOM     93  C   UNL A   1      28.001  32.605  21.202  1.00  0.00     0.040 A 
ENDBRANCH  87  88
ENDBRANCH  84  87
ENDBRANCH  82  84
ENDBRANCH  75  77
ENDBRANCH  74  75
ENDBRANCH  73  74
ENDBRANCH  72  73
ENDBRANCH   1  72
TORSDOF 20
ENDMDL
MODEL 2
REMARK VINA RESULT:     -11.0      5.756      9.302
REMARK SMILES O=C(OCCOCCOC(=O)c1ccc(S(=O)(=O)Cc2ncccn2)c(F)c1)c1ccc(-c2c3nc(c(-c4cc(S(=O)(=O)[O-])ccc4F)c4ccc([nH]4)c(-c4cc(S(=O)(=O)[O-])ccc4F)c4nc(c(-c5cc(S(=O)(=O)[O-])ccc5F)c5ccc2[nH]5)C=C4)C=C3)cc1
REMARK SMILES IDX 6 1 5 2 4 3 3 4 2 5 1 6 29 7 30 8 91 9 31 10 90 11 32 12
REMARK SMILES IDX 33 13 34 14 84 15 35 16 89 17 83 18 85 19 36 20 88 21 82 22
REMARK SMILES IDX 81 23 37 25 69 26 49 27 68 28 50 29 53 30 67 31 86 32 51 33
REMARK SMILES IDX 52 34 66 36 87 37 54 38 38 39 39 40 47 41 40 42 46 43 48 44
REMARK SMILES IDX 45 45 41 46 42 47 43 48 44 49 70 50 71 51 79 52 72 53 78 54
REMARK SMILES IDX 80 55 77 56 73 57 74 58 75 59 76 60 55 61 56 62 64 63 57 64
REMARK SMILES IDX 63 65 65 66 62 67 58 68 59 69 60 70 61 71 7 72 8 73 9 74
REMARK SMILES IDX 10 75 11 76 12 77 13 78 28 79 14 80 26 81 15 82 27 83 16 84
REMARK SMILES IDX 17 85 18 86 19 87 20 88 21 89 25 90 22 91 24 92 23 93
REMARK H PARENT 85 24 53 35
REMARK Flexibility Score: inf
ROOT
ATOM      1  O   UNL A   1      34.013  31.348  27.296  1.00  0.00    -0.374 OA
ENDROOT
BRANCH   1   2
ATOM      2  C   UNL A   1      32.657  31.780  27.426  1.00  0.00     0.202 C 
BRANCH   2   3
ATOM      3  C   UNL A   1      32.369  33.225  27.022  1.00  0.00     0.261 C 
BRANCH   3   4
ATOM      4  O   UNL A   1      32.319  34.063  28.187  1.00  0.00    -0.460 OA
BRANCH   4   5
ATOM      5  C   UNL A   1      33.350  34.725  28.764  1.00  0.00     0.338 C 
ATOM      6  O   UNL A   1      33.330  35.954  28.781  1.00  0.00    -0.246 OA
BRANCH   5   7
ATOM      7  C   UNL A   1      34.514  34.025  29.378  1.00  0.00     0.060 A 
ATOM      8  C   UNL A   1      35.849  34.345  29.119  1.00  0.00     0.016 A 
ATOM      9  C   UNL A   1      34.240  33.054  30.354  1.00  0.00     0.016 A 
ATOM     10  C   UNL A   1      36.887  33.666  29.738  1.00  0.00     0.010 A 
ATOM     11  C   UNL A   1      35.280  32.410  31.030  1.00  0.00     0.010 A 
ATOM     12  C   UNL A   1      36.610  32.708  30.711  1.00  0.00    -0.014 A 
BRANCH  12  13
ATOM     13  C   UNL A   1      37.743  32.008  31.343  1.00  0.00     0.031 A 
ATOM     14  C   UNL A   1      38.073  32.314  32.771  1.00  0.00     0.074 A 
ATOM     15  C   UNL A   1      38.367  31.025  30.667  1.00  0.00     0.049 A 
ATOM     16  N   UNL A   1      39.051  31.861  33.505  1.00  0.00    -0.248 NA
ATOM     17  C   UNL A   1      37.170  33.245  33.470  1.00  0.00     0.031 C 
ATOM     18  C   UNL A   1      38.015  30.582  29.315  1.00  0.00     0.029 A 
ATOM     19  N   UNL A   1      39.394  30.196  31.031  1.00  0.00    -0.354 N 
ATOM     20  C   UNL A   1      38.896  32.464  34.747  1.00  0.00     0.074 A 
ATOM     21  C   UNL A   1      37.733  33.320  34.667  1.00  0.00     0.031 C 
ATOM     22  C   UNL A   1      38.784  29.533  28.981  1.00  0.00     0.029 A 
ATOM     23  C   UNL A   1      39.735  29.285  30.057  1.00  0.00     0.049 A 
ATOM     24  H   UNL A   1      39.845  30.246  31.904  1.00  0.00     0.167 HD
ATOM     25  C   UNL A   1      39.672  32.316  35.846  1.00  0.00     0.034 A 
ATOM     26  C   UNL A   1      40.731  28.378  30.032  1.00  0.00     0.034 A 
ATOM     27  C   UNL A   1      40.830  31.463  35.878  1.00  0.00     0.049 A 
ATOM     28  C   UNL A   1      41.647  28.314  31.225  1.00  0.00     0.074 A 
ATOM     29  C   UNL A   1      41.758  31.296  36.889  1.00  0.00     0.029 A 
ATOM     30  N   UNL A   1      41.216  30.624  34.838  1.00  0.00    -0.354 N 
ATOM     31  N   UNL A   1      41.573  28.984  32.352  1.00  0.00    -0.248 NA
ATOM     32  C   UNL A   1      42.792  27.400  31.138  1.00  0.00     0.031 C 
ATOM     33  C   UNL A   1      42.729  30.393  36.441  1.00  0.00     0.029 A 
ATOM     34  C   UNL A   1      42.376  29.952  35.174  1.00  0.00     0.049 A 
ATOM     35  H   UNL A   1      40.733  30.525  33.985  1.00  0.00     0.167 HD
ATOM     36  C   UNL A   1      42.662  28.575  33.111  1.00  0.00     0.074 A 
ATOM     37  C   UNL A   1      43.368  27.585  32.318  1.00  0.00     0.031 C 
ATOM     38  C   UNL A   1      43.051  28.980  34.346  1.00  0.00     0.034 A 
BRANCH  25  39
ATOM     39  C   UNL A   1      39.333  33.161  37.043  1.00  0.00     0.023 A 
ATOM     40  C   UNL A   1      39.940  34.408  37.268  1.00  0.00     0.031 A 
ATOM     41  C   UNL A   1      38.426  32.682  38.006  1.00  0.00     0.131 A 
ATOM     42  C   UNL A   1      39.670  35.111  38.453  1.00  0.00     0.055 A 
ATOM     43  C   UNL A   1      38.115  33.414  39.152  1.00  0.00     0.041 A 
ATOM     44  F   UNL A   1      37.842  31.483  37.854  1.00  0.00    -0.206 F 
ATOM     45  C   UNL A   1      38.746  34.632  39.386  1.00  0.00     0.022 A 
BRANCH  42  46
ATOM     46  S   UNL A   1      40.614  36.618  38.811  1.00  0.00     0.124 S 
ATOM     47  O   UNL A   1      41.236  36.278  40.088  1.00  0.00    -0.237 OA
ATOM     48  O   UNL A   1      41.514  36.712  37.669  1.00  0.00    -0.237 OA
ATOM     49  O   UNL A   1      39.587  37.657  38.881  1.00  0.00    -0.744 OA
ENDBRANCH  42  46
ENDBRANCH  25  39
BRANCH  26  50
ATOM     50  C   UNL A   1      40.956  27.535  28.822  1.00  0.00     0.023 A 
ATOM     51  C   UNL A   1      41.952  27.848  27.885  1.00  0.00     0.031 A 
ATOM     52  C   UNL A   1      40.168  26.391  28.590  1.00  0.00     0.131 A 
ATOM     53  C   UNL A   1      42.125  27.036  26.751  1.00  0.00     0.055 A 
ATOM     54  C   UNL A   1      40.373  25.563  27.485  1.00  0.00     0.041 A 
ATOM     55  F   UNL A   1      39.202  26.046  29.454  1.00  0.00    -0.206 F 
ATOM     56  C   UNL A   1      41.353  25.887  26.554  1.00  0.00     0.022 A 
BRANCH  53  57
ATOM     57  S   UNL A   1      43.357  27.514  25.507  1.00  0.00     0.124 S 
ATOM     58  O   UNL A   1      44.029  28.627  26.169  1.00  0.00    -0.237 OA
ATOM     59  O   UNL A   1      44.136  26.289  25.361  1.00  0.00    -0.237 OA
ATOM     60  O   UNL A   1      42.547  27.875  24.346  1.00  0.00    -0.744 OA
ENDBRANCH  53  57
ENDBRANCH  26  50
BRANCH  38  61
ATOM     61  C   UNL A   1      44.282  28.337  34.914  1.00  0.00     0.023 A 
ATOM     62  C   UNL A   1      44.209  27.131  35.630  1.00  0.00     0.031 A 
ATOM     63  C   UNL A   1      45.546  28.909  34.684  1.00  0.00     0.131 A 
ATOM     64  C   UNL A   1      45.383  26.543  36.115  1.00  0.00     0.055 A 
ATOM     65  C   UNL A   1      46.714  28.297  35.134  1.00  0.00     0.041 A 
ATOM     66  F   UNL A   1      45.659  30.058  34.000  1.00  0.00    -0.206 F 
ATOM     67  C   UNL A   1      46.636  27.108  35.857  1.00  0.00     0.022 A 
BRANCH  64  68
ATOM     68  S   UNL A   1      45.255  25.032  37.108  1.00  0.00     0.124 S 
ATOM     69  O   UNL A   1      45.150  24.003  36.078  1.00  0.00    -0.237 OA
ATOM     70  O   UNL A   1      46.499  25.046  37.869  1.00  0.00    -0.237 OA
ATOM     71  O   UNL A   1      44.045  25.244  37.899  1.00  0.00    -0.744 OA
ENDBRANCH  64  68
ENDBRANCH  38  61
ENDBRANCH  12  13
ENDBRANCH   5   7
ENDBRANCH   4   5
ENDBRANCH   3   4
ENDBRANCH   2   3
ENDBRANCH   1   2
BRANCH   1  72
ATOM     72  C   UNL A   1      34.242  29.945  27.497  1.00  0.00     0.202 C 
BRANCH  72  73
ATOM     73  C   UNL A   1      33.313  29.129  26.589  1.00  0.00     0.261 C 
BRANCH  73  74
ATOM     74  O   UNL A   1      33.458  27.738  26.930  1.00  0.00    -0.460 OA
BRANCH  74  75
ATOM     75  C   UNL A   1      32.318  27.017  26.805  1.00  0.00     0.338 C 
ATOM     76  O   UNL A   1      31.166  27.390  26.933  1.00  0.00    -0.246 OA
BRANCH  75  77
ATOM     77  C   UNL A   1      32.691  25.738  26.188  1.00  0.00     0.063 A 
ATOM     78  C   UNL A   1      33.806  25.602  25.361  1.00  0.00     0.017 A 
ATOM     79  C   UNL A   1      31.823  24.667  26.393  1.00  0.00     0.056 A 
ATOM     80  C   UNL A   1      34.091  24.348  24.813  1.00  0.00     0.024 A 
ATOM     81  C   UNL A   1      32.035  23.474  25.724  1.00  0.00     0.142 A 
ATOM     82  C   UNL A   1      33.209  23.275  25.024  1.00  0.00     0.103 A 
ATOM     83  F   UNL A   1      31.064  22.554  25.743  1.00  0.00    -0.206 F 
BRANCH  82  84
ATOM     84  S   UNL A   1      33.669  21.672  24.450  1.00  0.00     0.188 S 
ATOM     85  O   UNL A   1      32.689  21.356  23.420  1.00  0.00    -0.223 OA
ATOM     86  O   UNL A   1      35.071  21.772  24.071  1.00  0.00    -0.223 OA
BRANCH  84  87
ATOM     87  C   UNL A   1      33.515  20.443  25.700  1.00  0.00     0.219 C 
BRANCH  87  88
ATOM     88  C   UNL A   1      33.397  19.069  25.121  1.00  0.00     0.143 A 
ATOM     89  N   UNL A   1      34.457  18.573  24.458  1.00  0.00    -0.240 NA
ATOM     90  N   UNL A   1      32.340  18.318  25.483  1.00  0.00    -0.240 NA
ATOM     91  C   UNL A   1      34.450  17.267  24.137  1.00  0.00     0.115 A 
ATOM     92  C   UNL A   1      32.375  17.014  25.132  1.00  0.00     0.115 A 
ATOM     93  C   UNL A   1      33.420  16.427  24.460  1.00  0.00     0.040 A 
ENDBRANCH  87  88
ENDBRANCH  84  87
ENDBRANCH  82  84
ENDBRANCH  75  77
ENDBRANCH  74  75
ENDBRANCH  73  74
ENDBRANCH  72  73
ENDBRANCH   1  72
TORSDOF 20
ENDMDL
MODEL 3
REMARK VINA RESULT:     -10.7      2.058      2.439
REMARK SMILES O=C(OCCOCCOC(=O)c1ccc(S(=O)(=O)Cc2ncccn2)c(F)c1)c1ccc(-c2c3nc(c(-c4cc(S(=O)(=O)[O-])ccc4F)c4ccc([nH]4)c(-c4cc(S(=O)(=O)[O-])ccc4F)c4nc(c(-c5cc(S(=O)(=O)[O-])ccc5F)c5ccc2[nH]5)C=C4)C=C3)cc1
REMARK SMILES IDX 6 1 5 2 4 3 3 4 2 5 1 6 29 7 30 8 91 9 31 10 90 11 32 12
REMARK SMILES IDX 33 13 34 14 84 15 35 16 89 17 83 18 85 19 36 20 88 21 82 22
REMARK SMILES IDX 81 23 37 25 69 26 49 27 68 28 50 29 53 30 67 31 86 32 51 33
REMARK SMILES IDX 52 34 66 36 87 37 54 38 38 39 39 40 47 41 40 42 46 43 48 44
REMARK SMILES IDX 45 45 41 46 42 47 43 48 44 49 70 50 71 51 79 52 72 53 78 54
REMARK SMILES IDX 80 55 77 56 73 57 74 58 75 59 76 60 55 61 56 62 64 63 57 64
REMARK SMILES IDX 63 65 65 66 62 67 58 68 59 69 60 70 61 71 7 72 8 73 9 74
REMARK SMILES IDX 10 75 11 76 12 77 13 78 28 79 14 80 26 81 15 82 27 83 16 84
REMARK SMILES IDX 17 85 18 86 19 87 20 88 21 89 25 90 22 91 24 92 23 93
REMARK H PARENT 85 24 53 35
REMARK Flexibility Score: inf
ROOT
ATOM      1  O   UNL A   1      34.550  21.541  24.233  1.00  0.00    -0.374 OA
ENDROOT
BRANCH   1   2
ATOM      2  C   UNL A   1      35.171  20.562  25.069  1.00  0.00     0.202 C 
BRANCH   2   3
ATOM      3  C   UNL A   1      36.678  20.386  24.895  1.00  0.00     0.261 C 
BRANCH   3   4
ATOM      4  O   UNL A   1      37.382  21.392  25.641  1.00  0.00    -0.460 OA
BRANCH   4   5
ATOM      5  C   UNL A   1      38.680  21.370  26.022  1.00  0.00     0.338 C 
ATOM      6  O   UNL A   1      39.281  20.297  26.019  1.00  0.00    -0.246 OA
BRANCH   5   7
ATOM      7  C   UNL A   1      39.417  22.594  26.449  1.00  0.00     0.060 A 
ATOM      8  C   UNL A   1      40.575  22.581  27.229  1.00  0.00     0.016 A 
ATOM      9  C   UNL A   1      38.967  23.824  25.945  1.00  0.00     0.016 A 
ATOM     10  C   UNL A   1      41.222  23.757  27.578  1.00  0.00     0.010 A 
ATOM     11  C   UNL A   1      39.651  25.007  26.239  1.00  0.00     0.010 A 
ATOM     12  C   UNL A   1      40.776  24.975  27.070  1.00  0.00    -0.014 A 
BRANCH  12  13
ATOM     13  C   UNL A   1      41.492  26.201  27.467  1.00  0.00     0.031 A 
ATOM     14  C   UNL A   1      40.789  27.197  28.336  1.00  0.00     0.074 A 
ATOM     15  C   UNL A   1      42.794  26.333  27.149  1.00  0.00     0.049 A 
ATOM     16  N   UNL A   1      41.204  28.358  28.759  1.00  0.00    -0.248 NA
ATOM     17  C   UNL A   1      39.442  26.827  28.803  1.00  0.00     0.031 C 
ATOM     18  C   UNL A   1      43.583  25.341  26.412  1.00  0.00     0.029 A 
ATOM     19  N   UNL A   1      43.692  27.326  27.433  1.00  0.00    -0.354 N 
ATOM     20  C   UNL A   1      40.165  28.870  29.526  1.00  0.00     0.074 A 
ATOM     21  C   UNL A   1      39.097  27.895  29.507  1.00  0.00     0.031 C 
ATOM     22  C   UNL A   1      44.857  25.756  26.342  1.00  0.00     0.029 A 
ATOM     23  C   UNL A   1      44.958  27.077  26.952  1.00  0.00     0.049 A 
ATOM     24  H   UNL A   1      43.456  28.140  27.933  1.00  0.00     0.167 HD
ATOM     25  C   UNL A   1      40.116  30.057  30.174  1.00  0.00     0.034 A 
ATOM     26  C   UNL A   1      46.060  27.850  26.974  1.00  0.00     0.034 A 
ATOM     27  C   UNL A   1      41.198  31.005  30.155  1.00  0.00     0.049 A 
ATOM     28  C   UNL A   1      45.944  29.212  27.605  1.00  0.00     0.074 A 
ATOM     29  C   UNL A   1      41.244  32.281  30.684  1.00  0.00     0.029 A 
ATOM     30  N   UNL A   1      42.438  30.769  29.570  1.00  0.00    -0.354 N 
ATOM     31  N   UNL A   1      44.912  29.746  28.219  1.00  0.00    -0.248 NA
ATOM     32  C   UNL A   1      47.119  30.086  27.524  1.00  0.00     0.031 C 
ATOM     33  C   UNL A   1      42.493  32.833  30.377  1.00  0.00     0.029 A 
ATOM     34  C   UNL A   1      43.248  31.880  29.708  1.00  0.00     0.049 A 
ATOM     35  H   UNL A   1      42.700  29.932  29.121  1.00  0.00     0.167 HD
ATOM     36  C   UNL A   1      45.312  31.021  28.598  1.00  0.00     0.074 A 
ATOM     37  C   UNL A   1      46.688  31.169  28.159  1.00  0.00     0.031 C 
ATOM     38  C   UNL A   1      44.611  31.986  29.244  1.00  0.00     0.034 A 
BRANCH  25  39
ATOM     39  C   UNL A   1      38.827  30.408  30.864  1.00  0.00     0.023 A 
ATOM     40  C   UNL A   1      37.908  31.313  30.304  1.00  0.00     0.031 A 
ATOM     41  C   UNL A   1      38.539  29.870  32.131  1.00  0.00     0.131 A 
ATOM     42  C   UNL A   1      36.770  31.691  31.033  1.00  0.00     0.055 A 
ATOM     43  C   UNL A   1      37.375  30.203  32.824  1.00  0.00     0.041 A 
ATOM     44  F   UNL A   1      39.398  29.026  32.723  1.00  0.00    -0.206 F 
ATOM     45  C   UNL A   1      36.487  31.126  32.280  1.00  0.00     0.022 A 
BRANCH  42  46
ATOM     46  S   UNL A   1      35.705  33.005  30.377  1.00  0.00     0.124 S 
ATOM     47  O   UNL A   1      36.350  33.294  29.099  1.00  0.00    -0.237 OA
ATOM     48  O   UNL A   1      34.403  32.355  30.301  1.00  0.00    -0.237 OA
ATOM     49  O   UNL A   1      35.813  34.065  31.378  1.00  0.00    -0.744 OA
ENDBRANCH  42  46
ENDBRANCH  25  39
BRANCH  26  50
ATOM     50  C   UNL A   1      47.319  27.393  26.318  1.00  0.00     0.023 A 
ATOM     51  C   UNL A   1      48.275  26.636  27.012  1.00  0.00     0.031 A 
ATOM     52  C   UNL A   1      47.580  27.709  24.971  1.00  0.00     0.131 A 
ATOM     53  C   UNL A   1      49.454  26.234  26.361  1.00  0.00     0.055 A 
ATOM     54  C   UNL A   1      48.732  27.270  24.317  1.00  0.00     0.041 A 
ATOM     55  F   UNL A   1      46.699  28.431  24.260  1.00  0.00    -0.206 F 
ATOM     56  C   UNL A   1      49.681  26.532  25.015  1.00  0.00     0.022 A 
BRANCH  53  57
ATOM     57  S   UNL A   1      50.716  25.336  27.307  1.00  0.00     0.124 S 
ATOM     58  O   UNL A   1      51.168  26.359  28.244  1.00  0.00    -0.237 OA
ATOM     59  O   UNL A   1      49.946  24.237  27.879  1.00  0.00    -0.237 OA
ATOM     60  O   UNL A   1      51.691  24.946  26.291  1.00  0.00    -0.744 OA
ENDBRANCH  53  57
ENDBRANCH  26  50
BRANCH  38  61
ATOM     61  C   UNL A   1      45.331  33.273  29.526  1.00  0.00     0.023 A 
ATOM     62  C   UNL A   1      45.368  34.308  28.579  1.00  0.00     0.031 A 
ATOM     63  C   UNL A   1      45.935  33.482  30.778  1.00  0.00     0.131 A 
ATOM     64  C   UNL A   1      46.020  35.508  28.892  1.00  0.00     0.055 A 
ATOM     65  C   UNL A   1      46.547  34.693  31.098  1.00  0.00     0.041 A 
ATOM     66  F   UNL A   1      45.918  32.519  31.713  1.00  0.00    -0.206 F 
ATOM     67  C   UNL A   1      46.594  35.713  30.150  1.00  0.00     0.022 A 
BRANCH  64  68
ATOM     68  S   UNL A   1      46.127  36.797  27.622  1.00  0.00     0.124 S 
ATOM     69  O   UNL A   1      46.066  36.014  26.392  1.00  0.00    -0.237 OA
ATOM     70  O   UNL A   1      44.959  37.623  27.910  1.00  0.00    -0.237 OA
ATOM     71  O   UNL A   1      47.414  37.435  27.890  1.00  0.00    -0.744 OA
ENDBRANCH  64  68
ENDBRANCH  38  61
ENDBRANCH  12  13
ENDBRANCH   5   7
ENDBRANCH   4   5
ENDBRANCH   3   4
ENDBRANCH   2   3
ENDBRANCH   1   2
BRANCH   1  72
ATOM     72  C   UNL A   1      33.131  21.405  24.062  1.00  0.00     0.202 C 
BRANCH  72  73
ATOM     73  C   UNL A   1      32.497  20.881  25.357  1.00  0.00     0.261 C 
BRANCH  73  74
ATOM     74  O   UNL A   1      32.346  21.987  26.264  1.00  0.00    -0.460 OA
BRANCH  74  75
ATOM     75  C   UNL A   1      31.172  22.652  26.133  1.00  0.00     0.338 C 
ATOM     76  O   UNL A   1      30.040  22.209  26.181  1.00  0.00    -0.246 OA
BRANCH  75  77
ATOM     77  C   UNL A   1      31.486  24.084  26.213  1.00  0.00     0.063 A 
ATOM     78  C   UNL A   1      30.497  25.067  26.246  1.00  0.00     0.017 A 
ATOM     79  C   UNL A   1      32.834  24.434  26.165  1.00  0.00     0.056 A 
ATOM     80  C   UNL A   1      30.881  26.409  26.321  1.00  0.00     0.024 A 
ATOM     81  C   UNL A   1      33.195  25.768  26.089  1.00  0.00     0.142 A 
ATOM     82  C   UNL A   1      32.242  26.752  26.271  1.00  0.00     0.103 A 
ATOM     83  F   UNL A   1      34.466  26.066  25.797  1.00  0.00    -0.206 F 
BRANCH  82  84
ATOM     84  S   UNL A   1      32.704  28.435  26.521  1.00  0.00     0.188 S 
ATOM     85  O   UNL A   1      31.539  29.046  27.147  1.00  0.00    -0.223 OA
ATOM     86  O   UNL A   1      33.955  28.399  27.262  1.00  0.00    -0.223 OA
BRANCH  84  87
ATOM     87  C   UNL A   1      32.978  29.287  25.005  1.00  0.00     0.219 C 
BRANCH  87  88
ATOM     88  C   UNL A   1      31.882  29.038  24.018  1.00  0.00     0.143 A 
ATOM     89  N   UNL A   1      32.011  27.988  23.186  1.00  0.00    -0.240 NA
ATOM     90  N   UNL A   1      30.732  29.722  24.162  1.00  0.00    -0.240 NA
ATOM     91  C   UNL A   1      30.942  27.617  22.461  1.00  0.00     0.115 A 
ATOM     92  C   UNL A   1      29.687  29.318  23.407  1.00  0.00     0.115 A 
ATOM     93  C   UNL A   1      29.733  28.255  22.538  1.00  0.00     0.040 A 
ENDBRANCH  87  88
ENDBRANCH  84  87
ENDBRANCH  82  84
ENDBRANCH  75  77
ENDBRANCH  74  75
ENDBRANCH  73  74
ENDBRANCH  72  73
ENDBRANCH   1  72
TORSDOF 20
ENDMDL
