MODEL 1
REMARK VINA RESULT:     -11.1      0.000      0.000
REMARK SMILES O=C(OCCOCCOC(=O)[C@H]1CSCN1C(=O)c1cnc2ccccn2c1=O)c1ccc(-c2c3nc(c(-c4cc(S(=O)(=O)[O-])ccc4F)c4ccc([nH]4)c(-c4cc(S(=O)(=O)[O-])ccc4F)c4nc(c(-c5cc(S(=O)(=O)[O-])ccc5F)c5ccc2[nH]5)C=C4)C=C3)cc1
REMARK SMILES IDX 5 1 4 2 3 3 2 4 1 5 30 6 31 7 92 8 32 9 91 10 33 11 34 12
REMARK SMILES IDX 35 13 85 14 36 15 90 16 84 17 86 18 37 19 89 20 83 21 82 22
REMARK SMILES IDX 38 24 70 25 50 26 69 27 51 28 54 29 68 30 87 31 52 32 53 33
REMARK SMILES IDX 67 35 88 36 55 37 39 38 40 39 48 40 41 41 47 42 49 43 46 44
REMARK SMILES IDX 42 45 43 46 44 47 45 48 71 49 72 50 80 51 73 52 79 53 81 54
REMARK SMILES IDX 78 55 74 56 75 57 76 58 77 59 56 60 57 61 65 62 58 63 64 64
REMARK SMILES IDX 66 65 63 66 59 67 60 68 61 69 62 70 6 71 7 72 8 73 9 74
REMARK SMILES IDX 10 75 11 76 12 77 13 78 16 79 14 80 15 81 17 82 18 83 19 84
REMARK SMILES IDX 20 85 28 86 21 87 27 88 29 89 22 90 26 91 23 92 25 93 24 94
REMARK H PARENT 86 23 54 34
REMARK Flexibility Score: inf
ROOT
ATOM      1  C   UNL A   1      32.650  28.021  27.012  1.00  0.00     0.202 C 
ENDROOT
BRANCH   1   2
ATOM      2  C   UNL A   1      32.165  29.470  27.049  1.00  0.00     0.261 C 
BRANCH   2   3
ATOM      3  O   UNL A   1      33.215  30.350  26.616  1.00  0.00    -0.460 OA
BRANCH   3   4
ATOM      4  C   UNL A   1      33.892  31.254  27.364  1.00  0.00     0.338 C 
ATOM      5  O   UNL A   1      33.466  32.405  27.439  1.00  0.00    -0.246 OA
BRANCH   4   6
ATOM      6  C   UNL A   1      35.134  30.912  28.113  1.00  0.00     0.060 A 
ATOM      7  C   UNL A   1      35.331  29.710  28.788  1.00  0.00     0.016 A 
ATOM      8  C   UNL A   1      36.207  31.811  28.042  1.00  0.00     0.016 A 
ATOM      9  C   UNL A   1      36.524  29.390  29.392  1.00  0.00     0.010 A 
ATOM     10  C   UNL A   1      37.436  31.490  28.625  1.00  0.00     0.010 A 
ATOM     11  C   UNL A   1      37.590  30.267  29.288  1.00  0.00    -0.014 A 
BRANCH  11  12
ATOM     12  C   UNL A   1      38.816  29.876  29.984  1.00  0.00     0.031 A 
ATOM     13  C   UNL A   1      39.748  28.956  29.275  1.00  0.00     0.074 A 
ATOM     14  C   UNL A   1      39.128  30.489  31.139  1.00  0.00     0.049 A 
ATOM     15  N   UNL A   1      40.830  28.384  29.713  1.00  0.00    -0.248 NA
ATOM     16  C   UNL A   1      39.421  28.650  27.871  1.00  0.00     0.031 C 
ATOM     17  C   UNL A   1      38.334  31.551  31.772  1.00  0.00     0.029 A 
ATOM     18  N   UNL A   1      40.201  30.341  31.971  1.00  0.00    -0.354 N 
ATOM     19  C   UNL A   1      41.287  27.603  28.660  1.00  0.00     0.074 A 
ATOM     20  C   UNL A   1      40.376  27.791  27.554  1.00  0.00     0.031 C 
ATOM     21  C   UNL A   1      38.955  31.958  32.889  1.00  0.00     0.029 A 
ATOM     22  C   UNL A   1      40.122  31.116  33.106  1.00  0.00     0.049 A 
ATOM     23  H   UNL A   1      40.956  29.739  31.779  1.00  0.00     0.167 HD
ATOM     24  C   UNL A   1      42.362  26.783  28.657  1.00  0.00     0.034 A 
ATOM     25  C   UNL A   1      40.876  31.078  34.220  1.00  0.00     0.034 A 
ATOM     26  C   UNL A   1      43.218  26.645  29.807  1.00  0.00     0.049 A 
ATOM     27  C   UNL A   1      41.990  30.059  34.243  1.00  0.00     0.074 A 
ATOM     28  C   UNL A   1      44.300  25.807  29.990  1.00  0.00     0.029 A 
ATOM     29  N   UNL A   1      43.068  27.373  30.986  1.00  0.00    -0.354 N 
ATOM     30  N   UNL A   1      42.372  29.238  33.287  1.00  0.00    -0.248 NA
ATOM     31  C   UNL A   1      42.756  29.940  35.485  1.00  0.00     0.031 C 
ATOM     32  C   UNL A   1      44.753  25.975  31.303  1.00  0.00     0.029 A 
ATOM     33  C   UNL A   1      44.013  26.977  31.915  1.00  0.00     0.049 A 
ATOM     34  H   UNL A   1      42.387  28.069  31.137  1.00  0.00     0.167 HD
ATOM     35  C   UNL A   1      43.436  28.513  33.810  1.00  0.00     0.074 A 
ATOM     36  C   UNL A   1      43.648  29.016  35.156  1.00  0.00     0.031 C 
ATOM     37  C   UNL A   1      44.171  27.520  33.246  1.00  0.00     0.034 A 
BRANCH  24  38
ATOM     38  C   UNL A   1      42.551  25.906  27.447  1.00  0.00     0.023 A 
ATOM     39  C   UNL A   1      41.993  24.618  27.353  1.00  0.00     0.031 A 
ATOM     40  C   UNL A   1      43.398  26.335  26.409  1.00  0.00     0.131 A 
ATOM     41  C   UNL A   1      42.354  23.778  26.287  1.00  0.00     0.055 A 
ATOM     42  C   UNL A   1      43.686  25.523  25.310  1.00  0.00     0.041 A 
ATOM     43  F   UNL A   1      43.992  27.537  26.463  1.00  0.00    -0.206 F 
ATOM     44  C   UNL A   1      43.176  24.231  25.252  1.00  0.00     0.022 A 
BRANCH  41  45
ATOM     45  S   UNL A   1      41.864  22.032  26.351  1.00  0.00     0.124 S 
ATOM     46  O   UNL A   1      40.427  22.120  26.101  1.00  0.00    -0.237 OA
ATOM     47  O   UNL A   1      42.662  21.440  25.284  1.00  0.00    -0.237 OA
ATOM     48  O   UNL A   1      42.230  21.621  27.705  1.00  0.00    -0.744 OA
ENDBRANCH  41  45
ENDBRANCH  24  38
BRANCH  25  49
ATOM     49  C   UNL A   1      40.540  31.911  35.412  1.00  0.00     0.023 A 
ATOM     50  C   UNL A   1      39.490  31.564  36.277  1.00  0.00     0.031 A 
ATOM     51  C   UNL A   1      41.226  33.115  35.673  1.00  0.00     0.131 A 
ATOM     52  C   UNL A   1      39.126  32.429  37.323  1.00  0.00     0.055 A 
ATOM     53  C   UNL A   1      40.905  33.937  36.754  1.00  0.00     0.041 A 
ATOM     54  F   UNL A   1      42.231  33.515  34.877  1.00  0.00    -0.206 F 
ATOM     55  C   UNL A   1      39.837  33.605  37.578  1.00  0.00     0.022 A 
BRANCH  52  56
ATOM     56  S   UNL A   1      37.627  32.057  38.276  1.00  0.00     0.124 S 
ATOM     57  O   UNL A   1      36.686  33.033  37.741  1.00  0.00    -0.237 OA
ATOM     58  O   UNL A   1      37.382  30.664  37.920  1.00  0.00    -0.237 OA
ATOM     59  O   UNL A   1      38.040  32.283  39.660  1.00  0.00    -0.744 OA
ENDBRANCH  52  56
ENDBRANCH  25  49
BRANCH  37  60
ATOM     60  C   UNL A   1      45.288  26.960  34.082  1.00  0.00     0.023 A 
ATOM     61  C   UNL A   1      45.100  25.832  34.896  1.00  0.00     0.031 A 
ATOM     62  C   UNL A   1      46.561  27.554  34.040  1.00  0.00     0.131 A 
ATOM     63  C   UNL A   1      46.162  25.358  35.676  1.00  0.00     0.055 A 
ATOM     64  C   UNL A   1      47.630  27.037  34.767  1.00  0.00     0.041 A 
ATOM     65  F   UNL A   1      46.786  28.636  33.276  1.00  0.00    -0.206 F 
ATOM     66  C   UNL A   1      47.431  25.938  35.599  1.00  0.00     0.022 A 
BRANCH  63  67
ATOM     67  S   UNL A   1      45.840  24.018  36.852  1.00  0.00     0.124 S 
ATOM     68  O   UNL A   1      45.107  23.063  36.028  1.00  0.00    -0.237 OA
ATOM     69  O   UNL A   1      47.186  23.617  37.247  1.00  0.00    -0.237 OA
ATOM     70  O   UNL A   1      45.054  24.665  37.900  1.00  0.00    -0.744 OA
ENDBRANCH  63  67
ENDBRANCH  37  60
ENDBRANCH  11  12
ENDBRANCH   4   6
ENDBRANCH   3   4
ENDBRANCH   2   3
ENDBRANCH   1   2
BRANCH   1  71
ATOM     71  O   UNL A   1      31.877  27.150  26.194  1.00  0.00    -0.374 OA
BRANCH  71  72
ATOM     72  C   UNL A   1      31.975  25.751  26.470  1.00  0.00     0.202 C 
BRANCH  72  73
ATOM     73  C   UNL A   1      30.747  25.081  25.873  1.00  0.00     0.261 C 
BRANCH  73  74
ATOM     74  O   UNL A   1      30.278  25.940  24.827  1.00  0.00    -0.462 OA
BRANCH  74  75
ATOM     75  C   UNL A   1      30.345  25.468  23.546  1.00  0.00     0.329 C 
ATOM     76  O   UNL A   1      30.121  24.322  23.195  1.00  0.00    -0.250 OA
BRANCH  75  77
ATOM     77  C   UNL A   1      30.736  26.590  22.565  1.00  0.00     0.206 C 
ATOM     78  C   UNL A   1      29.910  27.845  22.843  1.00  0.00     0.108 C 
ATOM     79  N   UNL A   1      32.177  26.901  22.578  1.00  0.00    -0.314 N 
ATOM     80  S   UNL A   1      31.047  29.136  23.403  1.00  0.00    -0.138 SA
ATOM     81  C   UNL A   1      32.516  28.285  22.823  1.00  0.00     0.191 C 
BRANCH  79  82
ATOM     82  C   UNL A   1      33.031  25.898  22.165  1.00  0.00     0.262 C 
ATOM     83  O   UNL A   1      33.366  25.816  20.979  1.00  0.00    -0.269 OA
BRANCH  82  84
ATOM     84  C   UNL A   1      33.607  24.936  23.129  1.00  0.00     0.124 A 
ATOM     85  C   UNL A   1      34.401  25.468  24.067  1.00  0.00     0.133 A 
ATOM     86  C   UNL A   1      33.496  23.462  23.108  1.00  0.00     0.270 A 
ATOM     87  N   UNL A   1      34.975  24.789  25.102  1.00  0.00    -0.237 NA
ATOM     88  N   UNL A   1      33.959  22.817  24.254  1.00  0.00    -0.267 N 
ATOM     89  O   UNL A   1      33.033  22.873  22.131  1.00  0.00    -0.268 OA
ATOM     90  C   UNL A   1      34.708  23.523  25.188  1.00  0.00     0.139 A 
ATOM     91  C   UNL A   1      33.706  21.460  24.430  1.00  0.00     0.096 A 
ATOM     92  C   UNL A   1      35.210  22.776  26.369  1.00  0.00     0.048 A 
ATOM     93  C   UNL A   1      34.128  20.800  25.517  1.00  0.00     0.019 A 
ATOM     94  C   UNL A   1      34.899  21.485  26.521  1.00  0.00     0.005 A 
ENDBRANCH  82  84
ENDBRANCH  79  82
ENDBRANCH  75  77
ENDBRANCH  74  75
ENDBRANCH  73  74
ENDBRANCH  72  73
ENDBRANCH  71  72
ENDBRANCH   1  71
TORSDOF 19
ENDMDL
MODEL 2
REMARK VINA RESULT:     -11.0      1.317      3.036
REMARK SMILES O=C(OCCOCCOC(=O)[C@H]1CSCN1C(=O)c1cnc2ccccn2c1=O)c1ccc(-c2c3nc(c(-c4cc(S(=O)(=O)[O-])ccc4F)c4ccc([nH]4)c(-c4cc(S(=O)(=O)[O-])ccc4F)c4nc(c(-c5cc(S(=O)(=O)[O-])ccc5F)c5ccc2[nH]5)C=C4)C=C3)cc1
REMARK SMILES IDX 5 1 4 2 3 3 2 4 1 5 30 6 31 7 92 8 32 9 91 10 33 11 34 12
REMARK SMILES IDX 35 13 85 14 36 15 90 16 84 17 86 18 37 19 89 20 83 21 82 22
REMARK SMILES IDX 38 24 70 25 50 26 69 27 51 28 54 29 68 30 87 31 52 32 53 33
REMARK SMILES IDX 67 35 88 36 55 37 39 38 40 39 48 40 41 41 47 42 49 43 46 44
REMARK SMILES IDX 42 45 43 46 44 47 45 48 71 49 72 50 80 51 73 52 79 53 81 54
REMARK SMILES IDX 78 55 74 56 75 57 76 58 77 59 56 60 57 61 65 62 58 63 64 64
REMARK SMILES IDX 66 65 63 66 59 67 60 68 61 69 62 70 6 71 7 72 8 73 9 74
REMARK SMILES IDX 10 75 11 76 12 77 13 78 16 79 14 80 15 81 17 82 18 83 19 84
REMARK SMILES IDX 20 85 28 86 21 87 27 88 29 89 22 90 26 91 23 92 25 93 24 94
REMARK H PARENT 86 23 54 34
REMARK Flexibility Score: inf
ROOT
ATOM      1  C   UNL A   1      31.969  28.208  26.151  1.00  0.00     0.202 C 
ENDROOT
BRANCH   1   2
ATOM      2  C   UNL A   1      31.789  29.606  26.742  1.00  0.00     0.261 C 
BRANCH   2   3
ATOM      3  O   UNL A   1      32.881  30.452  26.343  1.00  0.00    -0.460 OA
BRANCH   3   4
ATOM      4  C   UNL A   1      33.573  31.321  27.116  1.00  0.00     0.338 C 
ATOM      5  O   UNL A   1      33.121  32.450  27.296  1.00  0.00    -0.246 OA
BRANCH   4   6
ATOM      6  C   UNL A   1      34.864  30.968  27.772  1.00  0.00     0.060 A 
ATOM      7  C   UNL A   1      35.911  31.867  27.965  1.00  0.00     0.016 A 
ATOM      8  C   UNL A   1      34.988  29.685  28.321  1.00  0.00     0.016 A 
ATOM      9  C   UNL A   1      37.052  31.531  28.655  1.00  0.00     0.010 A 
ATOM     10  C   UNL A   1      36.128  29.336  29.051  1.00  0.00     0.010 A 
ATOM     11  C   UNL A   1      37.152  30.274  29.225  1.00  0.00    -0.014 A 
BRANCH  11  12
ATOM     12  C   UNL A   1      38.408  29.978  29.915  1.00  0.00     0.031 A 
ATOM     13  C   UNL A   1      39.394  29.111  29.210  1.00  0.00     0.074 A 
ATOM     14  C   UNL A   1      38.690  30.631  31.056  1.00  0.00     0.049 A 
ATOM     15  N   UNL A   1      40.516  28.620  29.646  1.00  0.00    -0.248 NA
ATOM     16  C   UNL A   1      39.074  28.760  27.816  1.00  0.00     0.031 C 
ATOM     17  C   UNL A   1      37.832  31.648  31.679  1.00  0.00     0.029 A 
ATOM     18  N   UNL A   1      39.778  30.569  31.878  1.00  0.00    -0.354 N 
ATOM     19  C   UNL A   1      41.015  27.854  28.602  1.00  0.00     0.074 A 
ATOM     20  C   UNL A   1      40.082  27.962  27.502  1.00  0.00     0.031 C 
ATOM     21  C   UNL A   1      38.435  32.114  32.783  1.00  0.00     0.029 A 
ATOM     22  C   UNL A   1      39.658  31.357  33.001  1.00  0.00     0.049 A 
ATOM     23  H   UNL A   1      40.570  30.016  31.688  1.00  0.00     0.167 HD
ATOM     24  C   UNL A   1      42.142  27.108  28.600  1.00  0.00     0.034 A 
ATOM     25  C   UNL A   1      40.424  31.389  34.108  1.00  0.00     0.034 A 
ATOM     26  C   UNL A   1      43.016  27.048  29.744  1.00  0.00     0.049 A 
ATOM     27  C   UNL A   1      41.604  30.448  34.135  1.00  0.00     0.074 A 
ATOM     28  C   UNL A   1      44.154  26.288  29.928  1.00  0.00     0.029 A 
ATOM     29  N   UNL A   1      42.829  27.784  30.912  1.00  0.00    -0.354 N 
ATOM     30  N   UNL A   1      42.031  29.638  33.189  1.00  0.00    -0.248 NA
ATOM     31  C   UNL A   1      42.388  30.402  35.371  1.00  0.00     0.031 C 
ATOM     32  C   UNL A   1      44.608  26.508  31.234  1.00  0.00     0.029 A 
ATOM     33  C   UNL A   1      43.807  27.469  31.837  1.00  0.00     0.049 A 
ATOM     34  H   UNL A   1      42.104  28.435  31.058  1.00  0.00     0.167 HD
ATOM     35  C   UNL A   1      43.146  28.995  33.712  1.00  0.00     0.074 A 
ATOM     36  C   UNL A   1      43.337  29.534  35.047  1.00  0.00     0.031 C 
ATOM     37  C   UNL A   1      43.942  28.044  33.157  1.00  0.00     0.034 A 
BRANCH  24  38
ATOM     38  C   UNL A   1      42.378  26.226  27.404  1.00  0.00     0.023 A 
ATOM     39  C   UNL A   1      41.895  24.906  27.330  1.00  0.00     0.031 A 
ATOM     40  C   UNL A   1      43.196  26.686  26.356  1.00  0.00     0.131 A 
ATOM     41  C   UNL A   1      42.300  24.072  26.276  1.00  0.00     0.055 A 
ATOM     42  C   UNL A   1      43.528  25.876  25.268  1.00  0.00     0.041 A 
ATOM     43  F   UNL A   1      43.720  27.921  26.390  1.00  0.00    -0.206 F 
ATOM     44  C   UNL A   1      43.093  24.556  25.232  1.00  0.00     0.022 A 
BRANCH  41  45
ATOM     45  S   UNL A   1      41.911  22.302  26.368  1.00  0.00     0.124 S 
ATOM     46  O   UNL A   1      42.671  21.775  25.236  1.00  0.00    -0.237 OA
ATOM     47  O   UNL A   1      42.402  21.937  27.691  1.00  0.00    -0.237 OA
ATOM     48  O   UNL A   1      40.459  22.260  26.207  1.00  0.00    -0.744 OA
ENDBRANCH  41  45
ENDBRANCH  24  38
BRANCH  25  49
ATOM     49  C   UNL A   1      40.043  32.218  35.289  1.00  0.00     0.023 A 
ATOM     50  C   UNL A   1      39.185  31.726  36.285  1.00  0.00     0.031 A 
ATOM     51  C   UNL A   1      40.484  33.552  35.412  1.00  0.00     0.131 A 
ATOM     52  C   UNL A   1      38.756  32.570  37.324  1.00  0.00     0.055 A 
ATOM     53  C   UNL A   1      40.109  34.366  36.482  1.00  0.00     0.041 A 
ATOM     54  F   UNL A   1      41.295  34.091  34.486  1.00  0.00    -0.206 F 
ATOM     55  C   UNL A   1      39.225  33.881  37.438  1.00  0.00     0.022 A 
BRANCH  52  56
ATOM     56  S   UNL A   1      37.476  31.968  38.460  1.00  0.00     0.124 S 
ATOM     57  O   UNL A   1      37.331  30.581  38.035  1.00  0.00    -0.237 OA
ATOM     58  O   UNL A   1      38.103  32.181  39.760  1.00  0.00    -0.237 OA
ATOM     59  O   UNL A   1      36.333  32.832  38.171  1.00  0.00    -0.744 OA
ENDBRANCH  52  56
ENDBRANCH  25  49
BRANCH  37  60
ATOM     60  C   UNL A   1      45.101  27.575  33.990  1.00  0.00     0.023 A 
ATOM     61  C   UNL A   1      45.014  26.421  34.784  1.00  0.00     0.031 A 
ATOM     62  C   UNL A   1      46.314  28.284  33.965  1.00  0.00     0.131 A 
ATOM     63  C   UNL A   1      46.112  26.033  35.563  1.00  0.00     0.055 A 
ATOM     64  C   UNL A   1      47.424  27.855  34.690  1.00  0.00     0.041 A 
ATOM     65  F   UNL A   1      46.442  29.395  33.221  1.00  0.00    -0.206 F 
ATOM     66  C   UNL A   1      47.323  26.728  35.502  1.00  0.00     0.022 A 
BRANCH  63  67
ATOM     67  S   UNL A   1      45.910  24.649  36.714  1.00  0.00     0.124 S 
ATOM     68  O   UNL A   1      44.537  24.234  36.449  1.00  0.00    -0.237 OA
ATOM     69  O   UNL A   1      46.951  23.724  36.278  1.00  0.00    -0.237 OA
ATOM     70  O   UNL A   1      46.132  25.259  38.023  1.00  0.00    -0.744 OA
ENDBRANCH  63  67
ENDBRANCH  37  60
ENDBRANCH  11  12
ENDBRANCH   4   6
ENDBRANCH   3   4
ENDBRANCH   2   3
ENDBRANCH   1   2
BRANCH   1  71
ATOM     71  O   UNL A   1      31.418  27.153  26.931  1.00  0.00    -0.374 OA
BRANCH  71  72
ATOM     72  C   UNL A   1      31.723  25.819  26.516  1.00  0.00     0.202 C 
BRANCH  72  73
ATOM     73  C   UNL A   1      33.185  25.797  26.094  1.00  0.00     0.261 C 
BRANCH  73  74
ATOM     74  O   UNL A   1      33.573  24.420  26.030  1.00  0.00    -0.462 OA
BRANCH  74  75
ATOM     75  C   UNL A   1      34.734  24.123  25.373  1.00  0.00     0.329 C 
ATOM     76  O   UNL A   1      35.736  24.818  25.343  1.00  0.00    -0.250 OA
BRANCH  75  77
ATOM     77  C   UNL A   1      34.632  22.759  24.664  1.00  0.00     0.206 C 
ATOM     78  C   UNL A   1      34.717  21.625  25.685  1.00  0.00     0.108 C 
ATOM     79  N   UNL A   1      33.422  22.621  23.832  1.00  0.00    -0.314 N 
ATOM     80  S   UNL A   1      33.126  20.763  25.679  1.00  0.00    -0.138 SA
ATOM     81  C   UNL A   1      32.592  21.475  24.121  1.00  0.00     0.191 C 
BRANCH  79  82
ATOM     82  C   UNL A   1      33.313  23.475  22.752  1.00  0.00     0.262 C 
ATOM     83  O   UNL A   1      33.966  23.263  21.724  1.00  0.00    -0.269 OA
BRANCH  82  84
ATOM     84  C   UNL A   1      32.382  24.623  22.773  1.00  0.00     0.124 A 
ATOM     85  C   UNL A   1      31.139  24.347  23.187  1.00  0.00     0.133 A 
ATOM     86  C   UNL A   1      32.633  25.997  22.290  1.00  0.00     0.270 A 
ATOM     87  N   UNL A   1      30.138  25.258  23.363  1.00  0.00    -0.237 NA
ATOM     88  N   UNL A   1      31.653  26.931  22.624  1.00  0.00    -0.267 N 
ATOM     89  O   UNL A   1      33.640  26.267  21.635  1.00  0.00    -0.268 OA
ATOM     90  C   UNL A   1      30.431  26.498  23.124  1.00  0.00     0.139 A 
ATOM     91  C   UNL A   1      31.891  28.285  22.410  1.00  0.00     0.096 A 
ATOM     92  C   UNL A   1      29.408  27.533  23.425  1.00  0.00     0.048 A 
ATOM     93  C   UNL A   1      30.980  29.217  22.719  1.00  0.00     0.019 A 
ATOM     94  C   UNL A   1      29.701  28.826  23.250  1.00  0.00     0.005 A 
ENDBRANCH  82  84
ENDBRANCH  79  82
ENDBRANCH  75  77
ENDBRANCH  74  75
ENDBRANCH  73  74
ENDBRANCH  72  73
ENDBRANCH  71  72
ENDBRANCH   1  71
TORSDOF 19
ENDMDL
MODEL 3
REMARK VINA RESULT:     -10.9      4.928      9.633
REMARK SMILES O=C(OCCOCCOC(=O)[C@H]1CSCN1C(=O)c1cnc2ccccn2c1=O)c1ccc(-c2c3nc(c(-c4cc(S(=O)(=O)[O-])ccc4F)c4ccc([nH]4)c(-c4cc(S(=O)(=O)[O-])ccc4F)c4nc(c(-c5cc(S(=O)(=O)[O-])ccc5F)c5ccc2[nH]5)C=C4)C=C3)cc1
REMARK SMILES IDX 5 1 4 2 3 3 2 4 1 5 30 6 31 7 92 8 32 9 91 10 33 11 34 12
REMARK SMILES IDX 35 13 85 14 36 15 90 16 84 17 86 18 37 19 89 20 83 21 82 22
REMARK SMILES IDX 38 24 70 25 50 26 69 27 51 28 54 29 68 30 87 31 52 32 53 33
REMARK SMILES IDX 67 35 88 36 55 37 39 38 40 39 48 40 41 41 47 42 49 43 46 44
REMARK SMILES IDX 42 45 43 46 44 47 45 48 71 49 72 50 80 51 73 52 79 53 81 54
REMARK SMILES IDX 78 55 74 56 75 57 76 58 77 59 56 60 57 61 65 62 58 63 64 64
REMARK SMILES IDX 66 65 63 66 59 67 60 68 61 69 62 70 6 71 7 72 8 73 9 74
REMARK SMILES IDX 10 75 11 76 12 77 13 78 16 79 14 80 15 81 17 82 18 83 19 84
REMARK SMILES IDX 20 85 28 86 21 87 27 88 29 89 22 90 26 91 23 92 25 93 24 94
REMARK H PARENT 86 23 54 34
REMARK Flexibility Score: inf
ROOT
ATOM      1  C   UNL A   1      36.509  22.224  23.948  1.00  0.00     0.202 C 
ENDROOT
BRANCH   1   2
ATOM      2  C   UNL A   1      36.967  20.935  24.630  1.00  0.00     0.261 C 
BRANCH   2   3
ATOM      3  O   UNL A   1      37.579  21.239  25.894  1.00  0.00    -0.460 OA
BRANCH   3   4
ATOM      4  C   UNL A   1      38.903  21.329  26.166  1.00  0.00     0.338 C 
ATOM      5  O   UNL A   1      39.608  20.331  26.031  1.00  0.00    -0.246 OA
BRANCH   4   6
ATOM      6  C   UNL A   1      39.550  22.593  26.617  1.00  0.00     0.060 A 
ATOM      7  C   UNL A   1      40.709  22.642  27.389  1.00  0.00     0.016 A 
ATOM      8  C   UNL A   1      39.022  23.802  26.145  1.00  0.00     0.016 A 
ATOM      9  C   UNL A   1      41.331  23.826  27.710  1.00  0.00     0.010 A 
ATOM     10  C   UNL A   1      39.657  25.012  26.438  1.00  0.00     0.010 A 
ATOM     11  C   UNL A   1      40.823  25.012  27.212  1.00  0.00    -0.014 A 
BRANCH  11  12
ATOM     12  C   UNL A   1      41.518  26.233  27.623  1.00  0.00     0.031 A 
ATOM     13  C   UNL A   1      40.782  27.181  28.506  1.00  0.00     0.074 A 
ATOM     14  C   UNL A   1      42.826  26.361  27.339  1.00  0.00     0.049 A 
ATOM     15  N   UNL A   1      41.132  28.365  28.914  1.00  0.00    -0.248 NA
ATOM     16  C   UNL A   1      39.475  26.723  29.009  1.00  0.00     0.031 C 
ATOM     17  C   UNL A   1      43.640  25.354  26.646  1.00  0.00     0.029 A 
ATOM     18  N   UNL A   1      43.710  27.363  27.620  1.00  0.00    -0.354 N 
ATOM     19  C   UNL A   1      40.066  28.823  29.676  1.00  0.00     0.074 A 
ATOM     20  C   UNL A   1      39.065  27.780  29.693  1.00  0.00     0.031 C 
ATOM     21  C   UNL A   1      44.905  25.793  26.562  1.00  0.00     0.029 A 
ATOM     22  C   UNL A   1      44.963  27.147  27.093  1.00  0.00     0.049 A 
ATOM     23  H   UNL A   1      43.475  28.161  28.145  1.00  0.00     0.167 HD
ATOM     24  C   UNL A   1      39.947  30.030  30.274  1.00  0.00     0.034 A 
ATOM     25  C   UNL A   1      46.005  27.993  26.993  1.00  0.00     0.034 A 
ATOM     26  C   UNL A   1      40.991  31.020  30.203  1.00  0.00     0.049 A 
ATOM     27  C   UNL A   1      45.800  29.381  27.552  1.00  0.00     0.074 A 
ATOM     28  C   UNL A   1      40.998  32.311  30.691  1.00  0.00     0.029 A 
ATOM     29  N   UNL A   1      42.223  30.816  29.584  1.00  0.00    -0.354 N 
ATOM     30  N   UNL A   1      44.753  29.863  28.189  1.00  0.00    -0.248 NA
ATOM     31  C   UNL A   1      46.889  30.341  27.364  1.00  0.00     0.031 C 
ATOM     32  C   UNL A   1      42.200  32.910  30.301  1.00  0.00     0.029 A 
ATOM     33  C   UNL A   1      42.983  31.970  29.644  1.00  0.00     0.049 A 
ATOM     34  H   UNL A   1      42.511  29.973  29.165  1.00  0.00     0.167 HD
ATOM     35  C   UNL A   1      45.066  31.182  28.492  1.00  0.00     0.074 A 
ATOM     36  C   UNL A   1      46.409  31.407  27.988  1.00  0.00     0.031 C 
ATOM     37  C   UNL A   1      44.322  32.130  29.119  1.00  0.00     0.034 A 
BRANCH  24  38
ATOM     38  C   UNL A   1      38.618  30.355  30.901  1.00  0.00     0.023 A 
ATOM     39  C   UNL A   1      37.588  31.002  30.195  1.00  0.00     0.031 A 
ATOM     40  C   UNL A   1      38.419  30.103  32.270  1.00  0.00     0.131 A 
ATOM     41  C   UNL A   1      36.444  31.445  30.878  1.00  0.00     0.055 A 
ATOM     42  C   UNL A   1      37.243  30.473  32.926  1.00  0.00     0.041 A 
ATOM     43  F   UNL A   1      39.383  29.526  33.006  1.00  0.00    -0.206 F 
ATOM     44  C   UNL A   1      36.254  31.162  32.234  1.00  0.00     0.022 A 
BRANCH  41  45
ATOM     45  S   UNL A   1      35.279  32.535  30.013  1.00  0.00     0.124 S 
ATOM     46  O   UNL A   1      34.309  32.824  31.066  1.00  0.00    -0.237 OA
ATOM     47  O   UNL A   1      36.129  33.647  29.604  1.00  0.00    -0.237 OA
ATOM     48  O   UNL A   1      34.774  31.702  28.923  1.00  0.00    -0.744 OA
ENDBRANCH  41  45
ENDBRANCH  24  38
BRANCH  25  49
ATOM     49  C   UNL A   1      47.245  27.612  26.253  1.00  0.00     0.023 A 
ATOM     50  C   UNL A   1      47.401  27.900  24.889  1.00  0.00     0.031 A 
ATOM     51  C   UNL A   1      48.276  26.890  26.889  1.00  0.00     0.131 A 
ATOM     52  C   UNL A   1      48.530  27.428  24.196  1.00  0.00     0.055 A 
ATOM     53  C   UNL A   1      49.427  26.482  26.211  1.00  0.00     0.041 A 
ATOM     54  F   UNL A   1      48.183  26.569  28.189  1.00  0.00    -0.206 F 
ATOM     55  C   UNL A   1      49.551  26.735  24.851  1.00  0.00     0.022 A 
BRANCH  52  56
ATOM     56  S   UNL A   1      48.587  27.624  22.393  1.00  0.00     0.124 S 
ATOM     57  O   UNL A   1      48.677  26.239  21.946  1.00  0.00    -0.237 OA
ATOM     58  O   UNL A   1      47.326  28.306  22.124  1.00  0.00    -0.237 OA
ATOM     59  O   UNL A   1      49.788  28.429  22.177  1.00  0.00    -0.744 OA
ENDBRANCH  52  56
ENDBRANCH  25  49
BRANCH  37  60
ATOM     60  C   UNL A   1      44.976  33.467  29.320  1.00  0.00     0.023 A 
ATOM     61  C   UNL A   1      44.951  34.454  28.321  1.00  0.00     0.031 A 
ATOM     62  C   UNL A   1      45.612  33.761  30.538  1.00  0.00     0.131 A 
ATOM     63  C   UNL A   1      45.595  35.678  28.542  1.00  0.00     0.055 A 
ATOM     64  C   UNL A   1      46.192  35.005  30.776  1.00  0.00     0.041 A 
ATOM     65  F   UNL A   1      45.662  32.847  31.521  1.00  0.00    -0.206 F 
ATOM     66  C   UNL A   1      46.193  35.968  29.771  1.00  0.00     0.022 A 
BRANCH  63  67
ATOM     67  S   UNL A   1      45.703  36.858  27.172  1.00  0.00     0.124 S 
ATOM     68  O   UNL A   1      46.693  37.807  27.669  1.00  0.00    -0.237 OA
ATOM     69  O   UNL A   1      46.130  36.013  26.062  1.00  0.00    -0.237 OA
ATOM     70  O   UNL A   1      44.342  37.381  27.064  1.00  0.00    -0.744 OA
ENDBRANCH  63  67
ENDBRANCH  37  60
ENDBRANCH  11  12
ENDBRANCH   4   6
ENDBRANCH   3   4
ENDBRANCH   2   3
ENDBRANCH   1   2
BRANCH   1  71
ATOM     71  O   UNL A   1      35.307  22.782  24.465  1.00  0.00    -0.374 OA
BRANCH  71  72
ATOM     72  C   UNL A   1      35.338  24.169  24.809  1.00  0.00     0.202 C 
BRANCH  72  73
ATOM     73  C   UNL A   1      34.426  24.361  26.012  1.00  0.00     0.261 C 
BRANCH  73  74
ATOM     74  O   UNL A   1      33.790  25.633  25.847  1.00  0.00    -0.462 OA
BRANCH  74  75
ATOM     75  C   UNL A   1      32.428  25.645  25.727  1.00  0.00     0.329 C 
ATOM     76  O   UNL A   1      31.631  25.408  26.618  1.00  0.00    -0.250 OA
BRANCH  75  77
ATOM     77  C   UNL A   1      32.006  26.018  24.293  1.00  0.00     0.206 C 
ATOM     78  C   UNL A   1      32.847  27.186  23.781  1.00  0.00     0.108 C 
ATOM     79  N   UNL A   1      32.065  24.883  23.353  1.00  0.00    -0.314 N 
ATOM     80  S   UNL A   1      33.839  26.581  22.395  1.00  0.00    -0.138 SA
ATOM     81  C   UNL A   1      32.861  25.095  22.166  1.00  0.00     0.191 C 
BRANCH  79  82
ATOM     82  C   UNL A   1      31.209  23.828  23.601  1.00  0.00     0.262 C 
ATOM     83  O   UNL A   1      29.985  23.993  23.541  1.00  0.00    -0.269 OA
BRANCH  82  84
ATOM     84  C   UNL A   1      31.724  22.474  23.890  1.00  0.00     0.124 A 
ATOM     85  C   UNL A   1      31.976  22.218  25.180  1.00  0.00     0.133 A 
ATOM     86  C   UNL A   1      32.093  21.422  22.919  1.00  0.00     0.270 A 
ATOM     87  N   UNL A   1      32.379  21.017  25.690  1.00  0.00    -0.237 NA
ATOM     88  N   UNL A   1      32.351  20.169  23.473  1.00  0.00    -0.267 N 
ATOM     89  O   UNL A   1      32.168  21.667  21.715  1.00  0.00    -0.268 OA
ATOM     90  C   UNL A   1      32.509  20.041  24.847  1.00  0.00     0.139 A 
ATOM     91  C   UNL A   1      32.494  19.064  22.639  1.00  0.00     0.096 A 
ATOM     92  C   UNL A   1      32.823  18.690  25.379  1.00  0.00     0.048 A 
ATOM     93  C   UNL A   1      32.738  17.840  23.126  1.00  0.00     0.019 A 
ATOM     94  C   UNL A   1      32.901  17.649  24.543  1.00  0.00     0.005 A 
ENDBRANCH  82  84
ENDBRANCH  79  82
ENDBRANCH  75  77
ENDBRANCH  74  75
ENDBRANCH  73  74
ENDBRANCH  72  73
ENDBRANCH  71  72
ENDBRANCH   1  71
TORSDOF 19
ENDMDL
