MODEL 1
REMARK VINA RESULT:     -10.8      0.000      0.000
REMARK SMILES Cc1c(CC(=O)OCCOCCOC(=O)c2ccc(-c3c4nc(c(-c5cc(S(=O)(=O)[O-])ccc5F)c5ccc([nH]5)c(-c5cc(S(=O)(=O)[O-])ccc5F)c5nc(c(-c6cc(S(=O)(=O)[O-])ccc6F)c6ccc3[nH]6)C=C5)C=C4)cc2)cc(-c2ccc(S(C)(=O)=O)cc2)n1-c1cccc(F)c1
REMARK SMILES IDX 10 1 9 2 8 3 7 4 5 5 6 6 4 7 3 8 1 9 2 10 91 11 79 12 80 13
REMARK SMILES IDX 92 14 93 15 98 16 94 17 96 18 95 19 97 20 81 21 82 22 90 23
REMARK SMILES IDX 83 24 89 25 84 26 85 27 86 28 87 29 88 30 11 31 12 32 13 33
REMARK SMILES IDX 14 34 15 35 16 36 17 37 78 38 18 39 77 40 19 41 20 42 21 43
REMARK SMILES IDX 71 44 22 45 76 46 70 47 72 48 23 49 75 50 69 51 68 52 24 54
REMARK SMILES IDX 56 55 36 56 55 57 37 58 40 59 54 60 73 61 38 62 39 63 53 65
REMARK SMILES IDX 74 66 41 67 25 68 26 69 34 70 27 71 33 72 35 73 32 74 28 75
REMARK SMILES IDX 29 76 30 77 31 78 57 79 58 80 66 81 59 82 65 83 67 84 64 85
REMARK SMILES IDX 60 86 61 87 62 88 63 89 42 90 43 91 51 92 44 93 50 94 52 95
REMARK SMILES IDX 49 96 45 97 46 98 47 99 48 100
REMARK H PARENT 72 53 40 64
REMARK Flexibility Score: inf
ROOT
ATOM      1  O   UNL A   1      36.113  33.568  31.735  1.00  0.00    -0.374 OA
ENDROOT
BRANCH   1   2
ATOM      2  C   UNL A   1      35.510  33.095  30.535  1.00  0.00     0.202 C 
BRANCH   2   3
ATOM      3  C   UNL A   1      36.384  33.149  29.262  1.00  0.00     0.261 C 
BRANCH   3   4
ATOM      4  O   UNL A   1      36.083  32.132  28.284  1.00  0.00    -0.463 OA
BRANCH   4   5
ATOM      5  C   UNL A   1      34.784  32.051  27.887  1.00  0.00     0.310 C 
ATOM      6  O   UNL A   1      34.176  32.955  27.314  1.00  0.00    -0.252 OA
BRANCH   5   7
ATOM      7  C   UNL A   1      34.063  30.791  28.315  1.00  0.00     0.160 C 
BRANCH   7   8
ATOM      8  C   UNL A   1      33.565  29.853  27.255  1.00  0.00    -0.015 A 
ATOM      9  C   UNL A   1      31.543  31.182  26.319  1.00  0.00     0.065 C 
ATOM     10  C   UNL A   1      32.492  30.030  26.385  1.00  0.00     0.024 A 
ATOM     11  N   UNL A   1      32.331  28.862  25.644  1.00  0.00    -0.313 N 
ATOM     12  C   UNL A   1      34.000  28.513  27.085  1.00  0.00     0.033 A 
ATOM     13  C   UNL A   1      33.191  27.893  26.150  1.00  0.00     0.053 A 
BRANCH  11  14
ATOM     14  C   UNL A   1      31.432  28.677  24.562  1.00  0.00     0.049 A 
ATOM     15  C   UNL A   1      31.623  29.361  23.355  1.00  0.00     0.027 A 
ATOM     16  C   UNL A   1      30.306  27.872  24.752  1.00  0.00     0.065 A 
ATOM     17  C   UNL A   1      30.677  29.238  22.335  1.00  0.00     0.005 A 
ATOM     18  C   UNL A   1      29.358  27.792  23.740  1.00  0.00     0.125 A 
ATOM     19  C   UNL A   1      29.533  28.464  22.535  1.00  0.00     0.039 A 
ATOM     20  F   UNL A   1      28.250  27.067  23.935  1.00  0.00    -0.207 F 
ENDBRANCH  11  14
BRANCH  13  21
ATOM     21  C   UNL A   1      33.243  26.496  25.714  1.00  0.00    -0.001 A 
ATOM     22  C   UNL A   1      32.544  25.492  26.396  1.00  0.00     0.011 A 
ATOM     23  C   UNL A   1      33.997  26.162  24.581  1.00  0.00     0.011 A 
ATOM     24  C   UNL A   1      32.600  24.165  25.957  1.00  0.00     0.021 A 
ATOM     25  C   UNL A   1      34.067  24.839  24.142  1.00  0.00     0.021 A 
ATOM     26  C   UNL A   1      33.370  23.846  24.833  1.00  0.00     0.067 A 
BRANCH  26  27
ATOM     27  S   UNL A   1      33.403  22.167  24.249  1.00  0.00     0.175 S 
ATOM     28  C   UNL A   1      33.014  22.284  22.521  1.00  0.00     0.163 C 
ATOM     29  O   UNL A   1      34.736  21.681  24.412  1.00  0.00    -0.224 OA
ATOM     30  O   UNL A   1      32.271  21.476  24.888  1.00  0.00    -0.224 OA
ENDBRANCH  26  27
ENDBRANCH  13  21
ENDBRANCH   7   8
ENDBRANCH   5   7
ENDBRANCH   4   5
ENDBRANCH   3   4
ENDBRANCH   2   3
ENDBRANCH   1   2
BRANCH   1  31
ATOM     31  C   UNL A   1      37.385  34.180  31.540  1.00  0.00     0.202 C 
BRANCH  31  32
ATOM     32  C   UNL A   1      38.443  34.195  32.710  1.00  0.00     0.261 C 
BRANCH  32  33
ATOM     33  O   UNL A   1      38.150  33.954  34.148  1.00  0.00    -0.460 OA
BRANCH  33  34
ATOM     34  C   UNL A   1      38.626  32.777  34.757  1.00  0.00     0.338 C 
ATOM     35  O   UNL A   1      38.477  32.591  35.958  1.00  0.00    -0.246 OA
BRANCH  34  36
ATOM     36  C   UNL A   1      39.414  31.759  33.841  1.00  0.00     0.060 A 
ATOM     37  C   UNL A   1      40.812  31.463  33.689  1.00  0.00     0.016 A 
ATOM     38  C   UNL A   1      38.712  31.065  32.924  1.00  0.00     0.016 A 
ATOM     39  C   UNL A   1      41.483  30.427  32.668  1.00  0.00     0.010 A 
ATOM     40  C   UNL A   1      39.402  30.136  32.021  1.00  0.00     0.010 A 
ATOM     41  C   UNL A   1      40.791  29.677  31.688  1.00  0.00    -0.014 A 
BRANCH  41  42
ATOM     42  C   UNL A   1      41.159  28.036  30.858  1.00  0.00     0.031 A 
ATOM     43  C   UNL A   1      39.983  28.069  29.931  1.00  0.00     0.074 A 
ATOM     44  C   UNL A   1      42.169  26.980  30.322  1.00  0.00     0.049 A 
ATOM     45  N   UNL A   1      39.711  29.287  29.520  1.00  0.00    -0.248 NA
ATOM     46  C   UNL A   1      39.721  27.158  28.845  1.00  0.00     0.031 C 
ATOM     47  C   UNL A   1      43.643  26.864  30.534  1.00  0.00     0.029 A 
ATOM     48  N   UNL A   1      42.117  25.729  29.258  1.00  0.00    -0.354 N 
ATOM     49  C   UNL A   1      40.556  29.313  28.441  1.00  0.00     0.074 A 
ATOM     50  C   UNL A   1      40.007  28.038  27.863  1.00  0.00     0.031 C 
ATOM     51  C   UNL A   1      44.295  25.947  29.734  1.00  0.00     0.029 A 
ATOM     52  C   UNL A   1      43.458  25.130  28.769  1.00  0.00     0.049 A 
ATOM     53  H   UNL A   1      41.256  25.371  28.940  1.00  0.00     0.167 HD
ATOM     54  C   UNL A   1      41.862  29.890  28.327  1.00  0.00     0.034 A 
ATOM     55  C   UNL A   1      44.127  24.191  27.771  1.00  0.00     0.034 A 
ATOM     56  C   UNL A   1      42.308  29.853  26.955  1.00  0.00     0.049 A 
ATOM     57  C   UNL A   1      44.538  25.331  26.897  1.00  0.00     0.074 A 
ATOM     58  C   UNL A   1      41.908  29.016  25.938  1.00  0.00     0.029 A 
ATOM     59  N   UNL A   1      43.669  29.953  26.686  1.00  0.00    -0.354 N 
ATOM     60  N   UNL A   1      45.658  25.976  26.960  1.00  0.00    -0.248 NA
ATOM     61  C   UNL A   1      43.717  25.567  25.662  1.00  0.00     0.031 C 
ATOM     62  C   UNL A   1      42.769  28.032  26.426  1.00  0.00     0.029 A 
ATOM     63  C   UNL A   1      44.022  28.650  26.526  1.00  0.00     0.049 A 
ATOM     64  H   UNL A   1      44.231  30.758  26.627  1.00  0.00     0.167 HD
ATOM     65  C   UNL A   1      45.472  26.964  26.015  1.00  0.00     0.074 A 
ATOM     66  C   UNL A   1      44.476  26.483  25.055  1.00  0.00     0.031 C 
ATOM     67  C   UNL A   1      45.377  28.196  26.572  1.00  0.00     0.034 A 
BRANCH  54  68
ATOM     68  C   UNL A   1      42.984  30.659  29.382  1.00  0.00     0.023 A 
ATOM     69  C   UNL A   1      44.127  30.134  30.101  1.00  0.00     0.031 A 
ATOM     70  C   UNL A   1      42.732  32.004  29.726  1.00  0.00     0.131 A 
ATOM     71  C   UNL A   1      44.709  30.799  31.226  1.00  0.00     0.055 A 
ATOM     72  C   UNL A   1      43.474  32.739  30.671  1.00  0.00     0.041 A 
ATOM     73  F   UNL A   1      41.724  32.672  29.145  1.00  0.00    -0.206 F 
ATOM     74  C   UNL A   1      44.419  32.126  31.475  1.00  0.00     0.022 A 
BRANCH  71  75
ATOM     75  S   UNL A   1      45.647  29.894  32.543  1.00  0.00     0.124 S 
ATOM     76  O   UNL A   1      46.895  30.648  32.616  1.00  0.00    -0.237 OA
ATOM     77  O   UNL A   1      44.781  29.986  33.713  1.00  0.00    -0.237 OA
ATOM     78  O   UNL A   1      45.803  28.548  31.988  1.00  0.00    -0.744 OA
ENDBRANCH  71  75
ENDBRANCH  54  68
BRANCH  55  79
ATOM     79  C   UNL A   1      44.526  22.959  26.499  1.00  0.00     0.023 A 
ATOM     80  C   UNL A   1      43.937  21.721  26.085  1.00  0.00     0.031 A 
ATOM     81  C   UNL A   1      45.872  22.923  25.880  1.00  0.00     0.131 A 
ATOM     82  C   UNL A   1      44.562  20.861  25.013  1.00  0.00     0.055 A 
ATOM     83  C   UNL A   1      46.335  22.326  24.691  1.00  0.00     0.041 A 
ATOM     84  F   UNL A   1      46.961  23.176  26.621  1.00  0.00    -0.206 F 
ATOM     85  C   UNL A   1      45.659  21.249  24.239  1.00  0.00     0.022 A 
BRANCH  82  86
ATOM     86  S   UNL A   1      44.173  19.075  24.676  1.00  0.00     0.124 S 
ATOM     87  O   UNL A   1      45.096  18.379  25.568  1.00  0.00    -0.237 OA
ATOM     88  O   UNL A   1      42.758  18.975  24.995  1.00  0.00    -0.237 OA
ATOM     89  O   UNL A   1      44.495  18.928  23.252  1.00  0.00    -0.744 OA
ENDBRANCH  82  86
ENDBRANCH  55  79
BRANCH  67  90
ATOM     90  C   UNL A   1      46.493  28.451  27.543  1.00  0.00     0.023 A 
ATOM     91  C   UNL A   1      47.007  27.362  28.271  1.00  0.00     0.031 A 
ATOM     92  C   UNL A   1      46.917  29.720  27.938  1.00  0.00     0.131 A 
ATOM     93  C   UNL A   1      47.864  27.559  29.364  1.00  0.00     0.055 A 
ATOM     94  C   UNL A   1      47.756  29.930  29.041  1.00  0.00     0.041 A 
ATOM     95  F   UNL A   1      46.474  30.794  27.290  1.00  0.00    -0.206 F 
ATOM     96  C   UNL A   1      48.227  28.842  29.770  1.00  0.00     0.022 A 
BRANCH  93  97
ATOM     97  S   UNL A   1      48.531  26.096  30.191  1.00  0.00     0.124 S 
ATOM     98  O   UNL A   1      49.540  26.653  31.083  1.00  0.00    -0.237 OA
ATOM     99  O   UNL A   1      47.341  25.554  30.846  1.00  0.00    -0.237 OA
ATOM    100  O   UNL A   1      49.048  25.282  29.093  1.00  0.00    -0.744 OA
ENDBRANCH  93  97
ENDBRANCH  67  90
ENDBRANCH  41  42
ENDBRANCH  34  36
ENDBRANCH  33  34
ENDBRANCH  32  33
ENDBRANCH  31  32
ENDBRANCH   1  31
TORSDOF 21
ENDMDL
MODEL 2
REMARK VINA RESULT:     -10.0      5.741     12.166
REMARK SMILES Cc1c(CC(=O)OCCOCCOC(=O)c2ccc(-c3c4nc(c(-c5cc(S(=O)(=O)[O-])ccc5F)c5ccc([nH]5)c(-c5cc(S(=O)(=O)[O-])ccc5F)c5nc(c(-c6cc(S(=O)(=O)[O-])ccc6F)c6ccc3[nH]6)C=C5)C=C4)cc2)cc(-c2ccc(S(C)(=O)=O)cc2)n1-c1cccc(F)c1
REMARK SMILES IDX 10 1 9 2 8 3 7 4 5 5 6 6 4 7 3 8 1 9 2 10 91 11 79 12 80 13
REMARK SMILES IDX 92 14 93 15 98 16 94 17 96 18 95 19 97 20 81 21 82 22 90 23
REMARK SMILES IDX 83 24 89 25 84 26 85 27 86 28 87 29 88 30 11 31 12 32 13 33
REMARK SMILES IDX 14 34 15 35 16 36 17 37 78 38 18 39 77 40 19 41 20 42 21 43
REMARK SMILES IDX 71 44 22 45 76 46 70 47 72 48 23 49 75 50 69 51 68 52 24 54
REMARK SMILES IDX 56 55 36 56 55 57 37 58 40 59 54 60 73 61 38 62 39 63 53 65
REMARK SMILES IDX 74 66 41 67 25 68 26 69 34 70 27 71 33 72 35 73 32 74 28 75
REMARK SMILES IDX 29 76 30 77 31 78 57 79 58 80 66 81 59 82 65 83 67 84 64 85
REMARK SMILES IDX 60 86 61 87 62 88 63 89 42 90 43 91 51 92 44 93 50 94 52 95
REMARK SMILES IDX 49 96 45 97 46 98 47 99 48 100
REMARK H PARENT 72 53 40 64
REMARK Flexibility Score: inf
ROOT
ATOM      1  O   UNL A   1      45.474  34.945  36.691  1.00  0.00    -0.374 OA
ENDROOT
BRANCH   1   2
ATOM      2  C   UNL A   1      44.753  36.159  36.513  1.00  0.00     0.202 C 
BRANCH   2   3
ATOM      3  C   UNL A   1      45.596  37.423  36.232  1.00  0.00     0.261 C 
BRANCH   3   4
ATOM      4  O   UNL A   1      45.542  37.889  34.868  1.00  0.00    -0.463 OA
BRANCH   4   5
ATOM      5  C   UNL A   1      44.963  39.106  34.675  1.00  0.00     0.310 C 
ATOM      6  O   UNL A   1      45.350  40.149  35.201  1.00  0.00    -0.252 OA
BRANCH   5   7
ATOM      7  C   UNL A   1      43.695  39.085  33.849  1.00  0.00     0.160 C 
BRANCH   7   8
ATOM      8  C   UNL A   1      43.808  38.884  32.366  1.00  0.00    -0.015 A 
ATOM      9  C   UNL A   1      42.727  41.069  31.479  1.00  0.00     0.065 C 
ATOM     10  C   UNL A   1      43.408  39.746  31.348  1.00  0.00     0.024 A 
ATOM     11  N   UNL A   1      43.610  39.106  30.127  1.00  0.00    -0.313 N 
ATOM     12  C   UNL A   1      44.180  37.668  31.736  1.00  0.00     0.033 A 
ATOM     13  C   UNL A   1      43.985  37.790  30.372  1.00  0.00     0.053 A 
BRANCH  11  14
ATOM     14  C   UNL A   1      43.448  39.688  28.844  1.00  0.00     0.049 A 
ATOM     15  C   UNL A   1      44.544  40.247  28.174  1.00  0.00     0.027 A 
ATOM     16  C   UNL A   1      42.164  39.773  28.300  1.00  0.00     0.065 A 
ATOM     17  C   UNL A   1      44.349  40.897  26.953  1.00  0.00     0.005 A 
ATOM     18  C   UNL A   1      41.985  40.457  27.103  1.00  0.00     0.125 A 
ATOM     19  C   UNL A   1      43.062  41.016  26.425  1.00  0.00     0.039 A 
ATOM     20  F   UNL A   1      40.750  40.591  26.604  1.00  0.00    -0.207 F 
ENDBRANCH  11  14
BRANCH  13  21
ATOM     21  C   UNL A   1      44.182  36.761  29.349  1.00  0.00    -0.001 A 
ATOM     22  C   UNL A   1      43.108  36.010  28.854  1.00  0.00     0.011 A 
ATOM     23  C   UNL A   1      45.470  36.536  28.846  1.00  0.00     0.011 A 
ATOM     24  C   UNL A   1      43.318  35.038  27.870  1.00  0.00     0.021 A 
ATOM     25  C   UNL A   1      45.689  35.561  27.871  1.00  0.00     0.021 A 
ATOM     26  C   UNL A   1      44.612  34.815  27.389  1.00  0.00     0.067 A 
BRANCH  26  27
ATOM     27  S   UNL A   1      44.868  33.612  26.104  1.00  0.00     0.175 S 
ATOM     28  C   UNL A   1      43.669  34.018  24.861  1.00  0.00     0.163 C 
ATOM     29  O   UNL A   1      46.186  33.810  25.588  1.00  0.00    -0.224 OA
ATOM     30  O   UNL A   1      44.471  32.309  26.662  1.00  0.00    -0.224 OA
ENDBRANCH  26  27
ENDBRANCH  13  21
ENDBRANCH   7   8
ENDBRANCH   5   7
ENDBRANCH   4   5
ENDBRANCH   3   4
ENDBRANCH   2   3
ENDBRANCH   1   2
BRANCH   1  31
ATOM     31  C   UNL A   1      46.890  35.102  36.635  1.00  0.00     0.202 C 
BRANCH  31  32
ATOM     32  C   UNL A   1      47.703  34.516  35.416  1.00  0.00     0.261 C 
BRANCH  32  33
ATOM     33  O   UNL A   1      48.367  35.315  34.352  1.00  0.00    -0.460 OA
BRANCH  33  34
ATOM     34  C   UNL A   1      48.139  34.985  33.002  1.00  0.00     0.338 C 
ATOM     35  O   UNL A   1      49.030  35.101  32.172  1.00  0.00    -0.246 OA
BRANCH  34  36
ATOM     36  C   UNL A   1      46.677  34.532  32.608  1.00  0.00     0.060 A 
ATOM     37  C   UNL A   1      45.392  34.747  33.214  1.00  0.00     0.016 A 
ATOM     38  C   UNL A   1      46.539  33.693  31.562  1.00  0.00     0.016 A 
ATOM     39  C   UNL A   1      43.977  34.176  32.727  1.00  0.00     0.010 A 
ATOM     40  C   UNL A   1      45.207  33.211  31.180  1.00  0.00     0.010 A 
ATOM     41  C   UNL A   1      43.780  33.294  31.638  1.00  0.00    -0.014 A 
BRANCH  41  42
ATOM     42  C   UNL A   1      42.317  32.992  30.504  1.00  0.00     0.031 A 
ATOM     43  C   UNL A   1      42.919  31.819  29.792  1.00  0.00     0.074 A 
ATOM     44  C   UNL A   1      40.785  32.991  30.232  1.00  0.00     0.049 A 
ATOM     45  N   UNL A   1      43.652  31.079  30.591  1.00  0.00    -0.248 NA
ATOM     46  C   UNL A   1      42.250  30.948  28.858  1.00  0.00     0.031 C 
ATOM     47  C   UNL A   1      39.667  33.586  31.023  1.00  0.00     0.029 A 
ATOM     48  N   UNL A   1      39.778  32.273  29.151  1.00  0.00    -0.354 N 
ATOM     49  C   UNL A   1      42.653  30.272  31.068  1.00  0.00     0.074 A 
ATOM     50  C   UNL A   1      42.178  29.891  29.693  1.00  0.00     0.031 C 
ATOM     51  C   UNL A   1      38.394  33.215  30.640  1.00  0.00     0.029 A 
ATOM     52  C   UNL A   1      38.258  32.290  29.445  1.00  0.00     0.049 A 
ATOM     53  H   UNL A   1      40.131  31.842  28.338  1.00  0.00     0.167 HD
ATOM     54  C   UNL A   1      41.931  30.356  32.302  1.00  0.00     0.034 A 
ATOM     55  C   UNL A   1      36.893  31.741  29.046  1.00  0.00     0.034 A 
ATOM     56  C   UNL A   1      41.102  29.188  32.479  1.00  0.00     0.049 A 
ATOM     57  C   UNL A   1      36.904  30.756  30.169  1.00  0.00     0.074 A 
ATOM     58  C   UNL A   1      40.604  28.329  31.526  1.00  0.00     0.029 A 
ATOM     59  N   UNL A   1      40.026  29.253  33.356  1.00  0.00    -0.354 N 
ATOM     60  N   UNL A   1      36.422  30.944  31.355  1.00  0.00    -0.248 NA
ATOM     61  C   UNL A   1      37.239  29.334  29.819  1.00  0.00     0.031 C 
ATOM     62  C   UNL A   1      39.573  29.235  31.267  1.00  0.00     0.029 A 
ATOM     63  C   UNL A   1      38.988  29.498  32.513  1.00  0.00     0.049 A 
ATOM     64  H   UNL A   1      40.017  29.149  34.334  1.00  0.00     0.167 HD
ATOM     65  C   UNL A   1      36.783  29.778  31.998  1.00  0.00     0.074 A 
ATOM     66  C   UNL A   1      36.954  28.739  30.979  1.00  0.00     0.031 C 
ATOM     67  C   UNL A   1      37.719  29.987  32.955  1.00  0.00     0.034 A 
BRANCH  54  68
ATOM     68  C   UNL A   1      41.854  31.447  33.631  1.00  0.00     0.023 A 
ATOM     69  C   UNL A   1      40.945  32.538  33.915  1.00  0.00     0.031 A 
ATOM     70  C   UNL A   1      42.895  31.383  34.582  1.00  0.00     0.131 A 
ATOM     71  C   UNL A   1      41.250  33.582  34.844  1.00  0.00     0.055 A 
ATOM     72  C   UNL A   1      43.053  32.282  35.655  1.00  0.00     0.041 A 
ATOM     73  F   UNL A   1      43.826  30.421  34.501  1.00  0.00    -0.206 F 
ATOM     74  C   UNL A   1      42.276  33.423  35.755  1.00  0.00     0.022 A 
BRANCH  71  75
ATOM     75  S   UNL A   1      40.499  35.272  34.727  1.00  0.00     0.124 S 
ATOM     76  O   UNL A   1      39.923  35.454  36.056  1.00  0.00    -0.237 OA
ATOM     77  O   UNL A   1      41.630  36.133  34.403  1.00  0.00    -0.237 OA
ATOM     78  O   UNL A   1      39.501  35.130  33.666  1.00  0.00    -0.744 OA
ENDBRANCH  71  75
ENDBRANCH  54  68
BRANCH  55  79
ATOM     79  C   UNL A   1      35.480  30.936  28.240  1.00  0.00     0.023 A 
ATOM     80  C   UNL A   1      35.307  29.717  27.508  1.00  0.00     0.031 A 
ATOM     81  C   UNL A   1      34.255  31.705  27.920  1.00  0.00     0.131 A 
ATOM     82  C   UNL A   1      33.984  29.347  26.878  1.00  0.00     0.055 A 
ATOM     83  C   UNL A   1      32.944  31.287  27.616  1.00  0.00     0.041 A 
ATOM     84  F   UNL A   1      34.348  32.978  27.503  1.00  0.00    -0.206 F 
ATOM     85  C   UNL A   1      32.800  30.062  27.069  1.00  0.00     0.022 A 
BRANCH  82  86
ATOM     86  S   UNL A   1      33.718  28.054  25.571  1.00  0.00     0.124 S 
ATOM     87  O   UNL A   1      34.371  28.645  24.406  1.00  0.00    -0.237 OA
ATOM     88  O   UNL A   1      34.345  26.870  26.138  1.00  0.00    -0.237 OA
ATOM     89  O   UNL A   1      32.256  27.985  25.465  1.00  0.00    -0.744 OA
ENDBRANCH  82  86
ENDBRANCH  55  79
BRANCH  67  90
ATOM     90  C   UNL A   1      37.337  31.119  33.864  1.00  0.00     0.023 A 
ATOM     91  C   UNL A   1      36.431  32.083  33.386  1.00  0.00     0.031 A 
ATOM     92  C   UNL A   1      37.975  31.408  35.070  1.00  0.00     0.131 A 
ATOM     93  C   UNL A   1      36.223  33.288  34.072  1.00  0.00     0.055 A 
ATOM     94  C   UNL A   1      37.791  32.618  35.754  1.00  0.00     0.041 A 
ATOM     95  F   UNL A   1      38.840  30.537  35.583  1.00  0.00    -0.206 F 
ATOM     96  C   UNL A   1      36.916  33.574  35.248  1.00  0.00     0.022 A 
BRANCH  93  97
ATOM     97  S   UNL A   1      34.985  34.432  33.419  1.00  0.00     0.124 S 
ATOM     98  O   UNL A   1      34.860  35.424  34.480  1.00  0.00    -0.237 OA
ATOM     99  O   UNL A   1      35.628  34.901  32.192  1.00  0.00    -0.237 OA
ATOM    100  O   UNL A   1      33.809  33.590  33.210  1.00  0.00    -0.744 OA
ENDBRANCH  93  97
ENDBRANCH  67  90
ENDBRANCH  41  42
ENDBRANCH  34  36
ENDBRANCH  33  34
ENDBRANCH  32  33
ENDBRANCH  31  32
ENDBRANCH   1  31
TORSDOF 21
ENDMDL
MODEL 3
REMARK VINA RESULT:      -9.9      4.815     11.862
REMARK SMILES Cc1c(CC(=O)OCCOCCOC(=O)c2ccc(-c3c4nc(c(-c5cc(S(=O)(=O)[O-])ccc5F)c5ccc([nH]5)c(-c5cc(S(=O)(=O)[O-])ccc5F)c5nc(c(-c6cc(S(=O)(=O)[O-])ccc6F)c6ccc3[nH]6)C=C5)C=C4)cc2)cc(-c2ccc(S(C)(=O)=O)cc2)n1-c1cccc(F)c1
REMARK SMILES IDX 10 1 9 2 8 3 7 4 5 5 6 6 4 7 3 8 1 9 2 10 91 11 79 12 80 13
REMARK SMILES IDX 92 14 93 15 98 16 94 17 96 18 95 19 97 20 81 21 82 22 90 23
REMARK SMILES IDX 83 24 89 25 84 26 85 27 86 28 87 29 88 30 11 31 12 32 13 33
REMARK SMILES IDX 14 34 15 35 16 36 17 37 78 38 18 39 77 40 19 41 20 42 21 43
REMARK SMILES IDX 71 44 22 45 76 46 70 47 72 48 23 49 75 50 69 51 68 52 24 54
REMARK SMILES IDX 56 55 36 56 55 57 37 58 40 59 54 60 73 61 38 62 39 63 53 65
REMARK SMILES IDX 74 66 41 67 25 68 26 69 34 70 27 71 33 72 35 73 32 74 28 75
REMARK SMILES IDX 29 76 30 77 31 78 57 79 58 80 66 81 59 82 65 83 67 84 64 85
REMARK SMILES IDX 60 86 61 87 62 88 63 89 42 90 43 91 51 92 44 93 50 94 52 95
REMARK SMILES IDX 49 96 45 97 46 98 47 99 48 100
REMARK H PARENT 72 53 40 64
REMARK Flexibility Score: inf
ROOT
ATOM      1  O   UNL A   1      49.438  26.527  29.828  1.00  0.00    -0.374 OA
ENDROOT
BRANCH   1   2
ATOM      2  C   UNL A   1      50.293  27.178  28.896  1.00  0.00     0.202 C 
BRANCH   2   3
ATOM      3  C   UNL A   1      49.671  28.341  28.091  1.00  0.00     0.261 C 
BRANCH   3   4
ATOM      4  O   UNL A   1      50.207  28.505  26.761  1.00  0.00    -0.463 OA
BRANCH   4   5
ATOM      5  C   UNL A   1      49.659  27.719  25.795  1.00  0.00     0.310 C 
ATOM      6  O   UNL A   1      50.262  26.823  25.204  1.00  0.00    -0.252 OA
BRANCH   5   7
ATOM      7  C   UNL A   1      48.255  28.104  25.380  1.00  0.00     0.160 C 
BRANCH   7   8
ATOM      8  C   UNL A   1      47.163  27.082  25.508  1.00  0.00    -0.015 A 
ATOM      9  C   UNL A   1      45.662  28.175  27.320  1.00  0.00     0.065 C 
ATOM     10  C   UNL A   1      46.039  27.123  26.329  1.00  0.00     0.024 A 
ATOM     11  N   UNL A   1      45.355  25.916  26.196  1.00  0.00    -0.313 N 
ATOM     12  C   UNL A   1      47.192  25.784  24.936  1.00  0.00     0.033 A 
ATOM     13  C   UNL A   1      46.123  25.054  25.421  1.00  0.00     0.053 A 
BRANCH  11  14
ATOM     14  C   UNL A   1      44.094  25.605  26.766  1.00  0.00     0.049 A 
ATOM     15  C   UNL A   1      44.016  24.906  27.978  1.00  0.00     0.027 A 
ATOM     16  C   UNL A   1      42.936  25.927  26.056  1.00  0.00     0.065 A 
ATOM     17  C   UNL A   1      42.767  24.527  28.477  1.00  0.00     0.005 A 
ATOM     18  C   UNL A   1      41.706  25.508  26.549  1.00  0.00     0.125 A 
ATOM     19  C   UNL A   1      41.610  24.816  27.751  1.00  0.00     0.039 A 
ATOM     20  F   UNL A   1      40.596  25.766  25.847  1.00  0.00    -0.207 F 
ENDBRANCH  11  14
BRANCH  13  21
ATOM     21  C   UNL A   1      45.802  23.653  25.143  1.00  0.00    -0.001 A 
ATOM     22  C   UNL A   1      46.119  22.637  26.055  1.00  0.00     0.011 A 
ATOM     23  C   UNL A   1      45.150  23.325  23.946  1.00  0.00     0.011 A 
ATOM     24  C   UNL A   1      45.795  21.306  25.773  1.00  0.00     0.021 A 
ATOM     25  C   UNL A   1      44.833  21.998  23.653  1.00  0.00     0.021 A 
ATOM     26  C   UNL A   1      45.159  20.994  24.567  1.00  0.00     0.067 A 
BRANCH  26  27
ATOM     27  S   UNL A   1      44.706  19.307  24.232  1.00  0.00     0.175 S 
ATOM     28  C   UNL A   1      43.345  18.981  25.324  1.00  0.00     0.163 C 
ATOM     29  O   UNL A   1      44.263  19.243  22.875  1.00  0.00    -0.224 OA
ATOM     30  O   UNL A   1      45.825  18.470  24.694  1.00  0.00    -0.224 OA
ENDBRANCH  26  27
ENDBRANCH  13  21
ENDBRANCH   7   8
ENDBRANCH   5   7
ENDBRANCH   4   5
ENDBRANCH   3   4
ENDBRANCH   2   3
ENDBRANCH   1   2
BRANCH   1  31
ATOM     31  C   UNL A   1      50.117  25.637  30.711  1.00  0.00     0.202 C 
BRANCH  31  32
ATOM     32  C   UNL A   1      49.624  25.471  32.200  1.00  0.00     0.261 C 
BRANCH  32  33
ATOM     33  O   UNL A   1      48.252  25.759  32.697  1.00  0.00    -0.460 OA
BRANCH  33  34
ATOM     34  C   UNL A   1      47.856  27.097  32.883  1.00  0.00     0.338 C 
ATOM     35  O   UNL A   1      48.447  27.818  33.677  1.00  0.00    -0.246 OA
BRANCH  34  36
ATOM     36  C   UNL A   1      46.587  27.592  32.084  1.00  0.00     0.060 A 
ATOM     37  C   UNL A   1      45.404  26.921  31.617  1.00  0.00     0.016 A 
ATOM     38  C   UNL A   1      46.585  28.861  31.628  1.00  0.00     0.016 A 
ATOM     39  C   UNL A   1      44.204  27.545  30.760  1.00  0.00     0.010 A 
ATOM     40  C   UNL A   1      45.447  29.357  30.845  1.00  0.00     0.010 A 
ATOM     41  C   UNL A   1      44.156  28.867  30.259  1.00  0.00    -0.014 A 
BRANCH  41  42
ATOM     42  C   UNL A   1      42.728  30.004  29.825  1.00  0.00     0.031 A 
ATOM     43  C   UNL A   1      41.956  28.984  29.045  1.00  0.00     0.074 A 
ATOM     44  C   UNL A   1      41.766  31.174  30.181  1.00  0.00     0.049 A 
ATOM     45  N   UNL A   1      42.072  27.780  29.555  1.00  0.00    -0.248 NA
ATOM     46  C   UNL A   1      40.615  29.130  28.535  1.00  0.00     0.031 C 
ATOM     47  C   UNL A   1      41.832  32.172  31.290  1.00  0.00     0.029 A 
ATOM     48  N   UNL A   1      40.300  31.699  29.655  1.00  0.00    -0.354 N 
ATOM     49  C   UNL A   1      41.046  27.859  30.459  1.00  0.00     0.074 A 
ATOM     50  C   UNL A   1      40.045  28.292  29.425  1.00  0.00     0.031 C 
ATOM     51  C   UNL A   1      40.702  32.942  31.475  1.00  0.00     0.029 A 
ATOM     52  C   UNL A   1      39.541  32.734  30.521  1.00  0.00     0.049 A 
ATOM     53  H   UNL A   1      39.915  31.365  28.813  1.00  0.00     0.167 HD
ATOM     54  C   UNL A   1      41.095  28.132  31.865  1.00  0.00     0.034 A 
ATOM     55  C   UNL A   1      38.219  33.459  30.745  1.00  0.00     0.034 A 
ATOM     56  C   UNL A   1      39.796  27.928  32.461  1.00  0.00     0.049 A 
ATOM     57  C   UNL A   1      37.842  32.537  31.858  1.00  0.00     0.074 A 
ATOM     58  C   UNL A   1      38.557  27.964  31.864  1.00  0.00     0.029 A 
ATOM     59  N   UNL A   1      39.514  28.531  33.681  1.00  0.00    -0.354 N 
ATOM     60  N   UNL A   1      38.092  32.715  33.115  1.00  0.00    -0.248 NA
ATOM     61  C   UNL A   1      36.847  31.459  31.536  1.00  0.00     0.031 C 
ATOM     62  C   UNL A   1      38.569  29.357  31.951  1.00  0.00     0.029 A 
ATOM     63  C   UNL A   1      38.835  29.644  33.296  1.00  0.00     0.049 A 
ATOM     64  H   UNL A   1      39.745  28.230  34.589  1.00  0.00     0.167 HD
ATOM     65  C   UNL A   1      37.623  31.541  33.668  1.00  0.00     0.074 A 
ATOM     66  C   UNL A   1      36.608  30.994  32.765  1.00  0.00     0.031 C 
ATOM     67  C   UNL A   1      38.624  30.767  34.156  1.00  0.00     0.034 A 
BRANCH  54  68
ATOM     68  C   UNL A   1      42.303  28.569  33.010  1.00  0.00     0.023 A 
ATOM     69  C   UNL A   1      42.851  29.860  33.368  1.00  0.00     0.031 A 
ATOM     70  C   UNL A   1      42.987  27.520  33.661  1.00  0.00     0.131 A 
ATOM     71  C   UNL A   1      44.105  30.014  34.040  1.00  0.00     0.055 A 
ATOM     72  C   UNL A   1      44.085  27.699  34.527  1.00  0.00     0.041 A 
ATOM     73  F   UNL A   1      42.609  26.247  33.473  1.00  0.00    -0.206 F 
ATOM     74  C   UNL A   1      44.693  28.934  34.669  1.00  0.00     0.022 A 
BRANCH  71  75
ATOM     75  S   UNL A   1      45.133  31.549  33.894  1.00  0.00     0.124 S 
ATOM     76  O   UNL A   1      44.497  32.446  34.853  1.00  0.00    -0.237 OA
ATOM     77  O   UNL A   1      46.477  31.101  34.239  1.00  0.00    -0.237 OA
ATOM     78  O   UNL A   1      44.951  31.951  32.498  1.00  0.00    -0.744 OA
ENDBRANCH  71  75
ENDBRANCH  54  68
BRANCH  55  79
ATOM     79  C   UNL A   1      36.545  34.153  30.639  1.00  0.00     0.023 A 
ATOM     80  C   UNL A   1      35.705  34.883  31.540  1.00  0.00     0.031 A 
ATOM     81  C   UNL A   1      35.606  33.699  29.586  1.00  0.00     0.131 A 
ATOM     82  C   UNL A   1      34.291  35.269  31.176  1.00  0.00     0.055 A 
ATOM     83  C   UNL A   1      34.422  34.274  29.082  1.00  0.00     0.041 A 
ATOM     84  F   UNL A   1      35.585  32.411  29.211  1.00  0.00    -0.206 F 
ATOM     85  C   UNL A   1      33.733  35.087  29.908  1.00  0.00     0.022 A 
BRANCH  82  86
ATOM     86  S   UNL A   1      32.967  35.819  32.358  1.00  0.00     0.124 S 
ATOM     87  O   UNL A   1      33.735  36.505  33.394  1.00  0.00    -0.237 OA
ATOM     88  O   UNL A   1      32.104  36.648  31.532  1.00  0.00    -0.237 OA
ATOM     89  O   UNL A   1      32.368  34.554  32.799  1.00  0.00    -0.744 OA
ENDBRANCH  82  86
ENDBRANCH  55  79
BRANCH  67  90
ATOM     90  C   UNL A   1      39.553  31.554  35.033  1.00  0.00     0.023 A 
ATOM     91  C   UNL A   1      39.636  32.945  34.840  1.00  0.00     0.031 A 
ATOM     92  C   UNL A   1      40.502  30.985  35.883  1.00  0.00     0.131 A 
ATOM     93  C   UNL A   1      40.654  33.701  35.441  1.00  0.00     0.055 A 
ATOM     94  C   UNL A   1      41.535  31.727  36.471  1.00  0.00     0.041 A 
ATOM     95  F   UNL A   1      40.477  29.675  36.114  1.00  0.00    -0.206 F 
ATOM     96  C   UNL A   1      41.621  33.097  36.242  1.00  0.00     0.022 A 
BRANCH  93  97
ATOM     97  S   UNL A   1      40.635  35.492  35.194  1.00  0.00     0.124 S 
ATOM     98  O   UNL A   1      39.214  35.794  35.076  1.00  0.00    -0.237 OA
ATOM     99  O   UNL A   1      41.281  35.971  36.415  1.00  0.00    -0.237 OA
ATOM    100  O   UNL A   1      41.417  35.683  33.974  1.00  0.00    -0.744 OA
ENDBRANCH  93  97
ENDBRANCH  67  90
ENDBRANCH  41  42
ENDBRANCH  34  36
ENDBRANCH  33  34
ENDBRANCH  32  33
ENDBRANCH  31  32
ENDBRANCH   1  31
TORSDOF 21
ENDMDL
