MODEL 1
REMARK VINA RESULT:     -11.7      0.000      0.000
REMARK SMILES Cc1cc(Cl)cc2c1O[C@H](C(F)(F)F)C(C(=O)OCCOCCOC(=O)c1ccc(-c3c4nc(c(-c5cc(S(=O)(=O)[O-])ccc5F)c5ccc([nH]5)c(-c5cc(S(=O)(=O)[O-])ccc5F)c5nc(c(-c6cc(S(=O)(=O)[O-])ccc6F)c6ccc3[nH]6)C=C5)C=C4)cc1)=C2
REMARK SMILES IDX 22 1 21 2 20 3 19 4 18 5 16 6 17 7 15 8 1 9 2 10 3 11 8 12
REMARK SMILES IDX 4 13 7 14 9 15 5 16 6 17 90 18 10 19 11 20 12 21 13 22 14 23
REMARK SMILES IDX 23 24 24 25 25 26 26 27 27 28 28 29 89 30 29 31 88 32 30 33
REMARK SMILES IDX 31 34 32 35 82 36 33 37 87 38 81 39 83 40 34 41 86 42 80 43
REMARK SMILES IDX 79 44 35 46 67 47 47 48 66 49 48 50 51 51 65 52 84 53 49 54
REMARK SMILES IDX 50 55 64 57 85 58 52 59 36 60 37 61 45 62 38 63 44 64 46 65
REMARK SMILES IDX 43 66 39 67 40 68 41 69 42 70 68 71 69 72 77 73 70 74 76 75
REMARK SMILES IDX 78 76 75 77 71 78 72 79 73 80 74 81 53 82 54 83 62 84 55 85
REMARK SMILES IDX 61 86 63 87 60 88 56 89 57 90 58 91 59 92
REMARK H PARENT 83 45 51 56
REMARK Flexibility Score: inf
ROOT
ATOM      1  C   UNL A   1      31.096  29.778  24.610  1.00  0.00     0.202 C 
ENDROOT
BRANCH   1   2
ATOM      2  O   UNL A   1      31.443  28.393  24.576  1.00  0.00    -0.374 OA
BRANCH   2   3
ATOM      3  C   UNL A   1      30.581  27.505  23.867  1.00  0.00     0.202 C 
BRANCH   3   4
ATOM      4  C   UNL A   1      31.005  27.113  22.448  1.00  0.00     0.261 C 
BRANCH   4   5
ATOM      5  O   UNL A   1      31.354  25.723  22.358  1.00  0.00    -0.460 OA
BRANCH   5   6
ATOM      6  C   UNL A   1      32.598  25.486  21.882  1.00  0.00     0.338 C 
ATOM      7  O   UNL A   1      33.203  26.138  21.043  1.00  0.00    -0.246 OA
BRANCH   6   8
ATOM      8  C   UNL A   1      33.213  24.368  22.622  1.00  0.00     0.087 C 
ATOM      9  C   UNL A   1      35.537  21.433  26.098  1.00  0.00     0.048 C 
ATOM     10  C   UNL A   1      34.510  21.211  25.024  1.00  0.00    -0.007 A 
ATOM     11  C   UNL A   1      33.854  19.974  24.927  1.00  0.00     0.027 A 
ATOM     12  C   UNL A   1      34.148  22.249  24.148  1.00  0.00     0.131 A 
ATOM     13  C   UNL A   1      32.867  19.776  23.963  1.00  0.00     0.042 A 
ATOM     14  C   UNL A   1      33.125  22.054  23.214  1.00  0.00     0.019 A 
ATOM     15  O   UNL A   1      34.836  23.425  24.262  1.00  0.00    -0.475 OA
ATOM     16  Cl  UNL A   1      32.071  18.253  23.854  1.00  0.00    -0.084 Cl
ATOM     17  C   UNL A   1      32.500  20.808  23.107  1.00  0.00     0.032 A 
ATOM     18  C   UNL A   1      32.658  23.168  22.413  1.00  0.00     0.027 C 
ATOM     19  C   UNL A   1      34.361  24.610  23.561  1.00  0.00     0.316 C 
BRANCH  19  20
ATOM     20  C   UNL A   1      34.059  25.688  24.612  1.00  0.00     0.430 C 
ATOM     21  F   UNL A   1      32.792  25.574  25.078  1.00  0.00    -0.167 F 
ATOM     22  F   UNL A   1      34.880  25.596  25.681  1.00  0.00    -0.167 F 
ATOM     23  F   UNL A   1      34.192  26.934  24.102  1.00  0.00    -0.167 F 
ENDBRANCH  19  20
ENDBRANCH   6   8
ENDBRANCH   5   6
ENDBRANCH   4   5
ENDBRANCH   3   4
ENDBRANCH   2   3
ENDBRANCH   1   2
BRANCH   1  24
ATOM     24  C   UNL A   1      31.444  30.575  25.874  1.00  0.00     0.261 C 
BRANCH  24  25
ATOM     25  O   UNL A   1      32.853  30.567  26.162  1.00  0.00    -0.460 OA
BRANCH  25  26
ATOM     26  C   UNL A   1      33.262  31.527  27.027  1.00  0.00     0.338 C 
ATOM     27  O   UNL A   1      32.614  32.494  27.413  1.00  0.00    -0.246 OA
BRANCH  26  28
ATOM     28  C   UNL A   1      34.559  31.153  27.614  1.00  0.00     0.060 A 
ATOM     29  C   UNL A   1      34.743  29.820  28.004  1.00  0.00     0.016 A 
ATOM     30  C   UNL A   1      35.553  32.106  27.846  1.00  0.00     0.016 A 
ATOM     31  C   UNL A   1      35.913  29.441  28.656  1.00  0.00     0.010 A 
ATOM     32  C   UNL A   1      36.722  31.725  28.513  1.00  0.00     0.010 A 
ATOM     33  C   UNL A   1      36.896  30.398  28.943  1.00  0.00    -0.014 A 
BRANCH  33  34
ATOM     34  C   UNL A   1      38.037  30.027  29.816  1.00  0.00     0.031 A 
ATOM     35  C   UNL A   1      39.126  29.151  29.261  1.00  0.00     0.074 A 
ATOM     36  C   UNL A   1      38.131  30.520  31.065  1.00  0.00     0.049 A 
ATOM     37  N   UNL A   1      40.207  28.706  29.846  1.00  0.00    -0.248 NA
ATOM     38  C   UNL A   1      38.980  28.725  27.861  1.00  0.00     0.031 C 
ATOM     39  C   UNL A   1      37.168  31.428  31.687  1.00  0.00     0.029 A 
ATOM     40  N   UNL A   1      39.089  30.335  32.030  1.00  0.00    -0.354 N 
ATOM     41  C   UNL A   1      40.876  27.958  28.884  1.00  0.00     0.074 A 
ATOM     42  C   UNL A   1      40.057  27.974  27.691  1.00  0.00     0.031 C 
ATOM     43  C   UNL A   1      37.594  31.734  32.924  1.00  0.00     0.029 A 
ATOM     44  C   UNL A   1      38.837  31.015  33.198  1.00  0.00     0.049 A 
ATOM     45  H   UNL A   1      39.883  29.768  31.898  1.00  0.00     0.167 HD
ATOM     46  C   UNL A   1      42.074  27.332  28.981  1.00  0.00     0.034 A 
ATOM     47  C   UNL A   1      39.525  31.046  34.358  1.00  0.00     0.034 A 
ATOM     48  C   UNL A   1      42.880  27.319  30.174  1.00  0.00     0.049 A 
ATOM     49  C   UNL A   1      40.796  30.244  34.480  1.00  0.00     0.074 A 
ATOM     50  C   UNL A   1      44.104  26.706  30.377  1.00  0.00     0.029 A 
ATOM     51  N   UNL A   1      42.543  27.942  31.366  1.00  0.00    -0.354 N 
ATOM     52  N   UNL A   1      41.400  29.514  33.571  1.00  0.00    -0.248 NA
ATOM     53  C   UNL A   1      41.477  30.263  35.783  1.00  0.00     0.031 C 
ATOM     54  C   UNL A   1      44.478  26.907  31.708  1.00  0.00     0.029 A 
ATOM     55  C   UNL A   1      43.522  27.703  32.317  1.00  0.00     0.049 A 
ATOM     56  H   UNL A   1      41.730  28.476  31.515  1.00  0.00     0.167 HD
ATOM     57  C   UNL A   1      42.542  29.010  34.185  1.00  0.00     0.074 A 
ATOM     58  C   UNL A   1      42.547  29.517  35.542  1.00  0.00     0.031 C 
ATOM     59  C   UNL A   1      43.506  28.208  33.669  1.00  0.00     0.034 A 
BRANCH  46  60
ATOM     60  C   UNL A   1      42.574  26.588  27.772  1.00  0.00     0.023 A 
ATOM     61  C   UNL A   1      42.223  25.248  27.541  1.00  0.00     0.031 A 
ATOM     62  C   UNL A   1      43.388  27.235  26.826  1.00  0.00     0.131 A 
ATOM     63  C   UNL A   1      42.715  24.584  26.408  1.00  0.00     0.055 A 
ATOM     64  C   UNL A   1      43.824  26.587  25.670  1.00  0.00     0.041 A 
ATOM     65  F   UNL A   1      43.768  28.509  27.010  1.00  0.00    -0.206 F 
ATOM     66  C   UNL A   1      43.493  25.252  25.458  1.00  0.00     0.022 A 
BRANCH  63  67
ATOM     67  S   UNL A   1      42.385  22.811  26.227  1.00  0.00     0.124 S 
ATOM     68  O   UNL A   1      43.281  22.242  27.231  1.00  0.00    -0.237 OA
ATOM     69  O   UNL A   1      40.959  22.722  26.521  1.00  0.00    -0.237 OA
ATOM     70  O   UNL A   1      42.754  22.533  24.841  1.00  0.00    -0.744 OA
ENDBRANCH  63  67
ENDBRANCH  46  60
BRANCH  47  71
ATOM     71  C   UNL A   1      39.017  31.846  35.507  1.00  0.00     0.023 A 
ATOM     72  C   UNL A   1      38.341  31.230  36.573  1.00  0.00     0.031 A 
ATOM     73  C   UNL A   1      39.188  33.241  35.549  1.00  0.00     0.131 A 
ATOM     74  C   UNL A   1      37.842  32.013  37.626  1.00  0.00     0.055 A 
ATOM     75  C   UNL A   1      38.724  34.009  36.617  1.00  0.00     0.041 A 
ATOM     76  F   UNL A   1      39.828  33.876  34.554  1.00  0.00    -0.206 F 
ATOM     77  C   UNL A   1      38.040  33.395  37.662  1.00  0.00     0.022 A 
BRANCH  74  78
ATOM     78  S   UNL A   1      36.891  31.198  38.939  1.00  0.00     0.124 S 
ATOM     79  O   UNL A   1      36.701  29.864  38.382  1.00  0.00    -0.237 OA
ATOM     80  O   UNL A   1      37.798  31.297  40.077  1.00  0.00    -0.237 OA
ATOM     81  O   UNL A   1      35.682  32.013  39.037  1.00  0.00    -0.744 OA
ENDBRANCH  74  78
ENDBRANCH  47  71
BRANCH  59  82
ATOM     82  C   UNL A   1      44.667  27.842  34.555  1.00  0.00     0.023 A 
ATOM     83  C   UNL A   1      44.663  26.665  35.320  1.00  0.00     0.031 A 
ATOM     84  C   UNL A   1      45.824  28.643  34.567  1.00  0.00     0.131 A 
ATOM     85  C   UNL A   1      45.792  26.326  36.080  1.00  0.00     0.055 A 
ATOM     86  C   UNL A   1      46.958  28.279  35.292  1.00  0.00     0.041 A 
ATOM     87  F   UNL A   1      45.878  29.774  33.847  1.00  0.00    -0.206 F 
ATOM     88  C   UNL A   1      46.946  27.115  36.055  1.00  0.00     0.022 A 
BRANCH  85  89
ATOM     89  S   UNL A   1      45.735  24.837  37.114  1.00  0.00     0.124 S 
ATOM     90  O   UNL A   1      44.388  24.910  37.674  1.00  0.00    -0.237 OA
ATOM     91  O   UNL A   1      45.964  23.769  36.146  1.00  0.00    -0.237 OA
ATOM     92  O   UNL A   1      46.817  25.044  38.074  1.00  0.00    -0.744 OA
ENDBRANCH  85  89
ENDBRANCH  59  82
ENDBRANCH  33  34
ENDBRANCH  26  28
ENDBRANCH  25  26
ENDBRANCH  24  25
ENDBRANCH   1  24
TORSDOF 18
ENDMDL
MODEL 2
REMARK VINA RESULT:     -11.6      5.058     10.367
REMARK SMILES Cc1cc(Cl)cc2c1O[C@H](C(F)(F)F)C(C(=O)OCCOCCOC(=O)c1ccc(-c3c4nc(c(-c5cc(S(=O)(=O)[O-])ccc5F)c5ccc([nH]5)c(-c5cc(S(=O)(=O)[O-])ccc5F)c5nc(c(-c6cc(S(=O)(=O)[O-])ccc6F)c6ccc3[nH]6)C=C5)C=C4)cc1)=C2
REMARK SMILES IDX 22 1 21 2 20 3 19 4 18 5 16 6 17 7 15 8 1 9 2 10 3 11 8 12
REMARK SMILES IDX 4 13 7 14 9 15 5 16 6 17 90 18 10 19 11 20 12 21 13 22 14 23
REMARK SMILES IDX 23 24 24 25 25 26 26 27 27 28 28 29 89 30 29 31 88 32 30 33
REMARK SMILES IDX 31 34 32 35 82 36 33 37 87 38 81 39 83 40 34 41 86 42 80 43
REMARK SMILES IDX 79 44 35 46 67 47 47 48 66 49 48 50 51 51 65 52 84 53 49 54
REMARK SMILES IDX 50 55 64 57 85 58 52 59 36 60 37 61 45 62 38 63 44 64 46 65
REMARK SMILES IDX 43 66 39 67 40 68 41 69 42 70 68 71 69 72 77 73 70 74 76 75
REMARK SMILES IDX 78 76 75 77 71 78 72 79 73 80 74 81 53 82 54 83 62 84 55 85
REMARK SMILES IDX 61 86 63 87 60 88 56 89 57 90 58 91 59 92
REMARK H PARENT 83 45 51 56
REMARK Flexibility Score: inf
ROOT
ATOM      1  C   UNL A   1      35.613  20.303  24.717  1.00  0.00     0.202 C 
ENDROOT
BRANCH   1   2
ATOM      2  O   UNL A   1      35.037  21.524  25.181  1.00  0.00    -0.374 OA
BRANCH   2   3
ATOM      3  C   UNL A   1      34.424  22.382  24.221  1.00  0.00     0.202 C 
BRANCH   3   4
ATOM      4  C   UNL A   1      32.957  22.103  23.878  1.00  0.00     0.261 C 
BRANCH   4   5
ATOM      5  O   UNL A   1      32.180  23.310  23.826  1.00  0.00    -0.460 OA
BRANCH   5   6
ATOM      6  C   UNL A   1      31.565  23.634  24.986  1.00  0.00     0.338 C 
ATOM      7  O   UNL A   1      31.294  22.881  25.911  1.00  0.00    -0.246 OA
BRANCH   6   8
ATOM      8  C   UNL A   1      31.362  25.092  25.056  1.00  0.00     0.087 C 
ATOM      9  C   UNL A   1      31.961  30.143  25.538  1.00  0.00     0.048 C 
ATOM     10  C   UNL A   1      31.030  29.243  24.774  1.00  0.00    -0.007 A 
ATOM     11  C   UNL A   1      30.147  29.788  23.829  1.00  0.00     0.027 A 
ATOM     12  C   UNL A   1      31.074  27.849  24.946  1.00  0.00     0.131 A 
ATOM     13  C   UNL A   1      29.314  28.956  23.084  1.00  0.00     0.042 A 
ATOM     14  C   UNL A   1      30.266  27.020  24.162  1.00  0.00     0.019 A 
ATOM     15  O   UNL A   1      31.928  27.369  25.900  1.00  0.00    -0.475 OA
ATOM     16  Cl  UNL A   1      28.234  29.637  21.929  1.00  0.00    -0.084 Cl
ATOM     17  C   UNL A   1      29.369  27.576  23.245  1.00  0.00     0.032 A 
ATOM     18  C   UNL A   1      30.418  25.580  24.242  1.00  0.00     0.027 C 
ATOM     19  C   UNL A   1      32.202  25.940  25.970  1.00  0.00     0.316 C 
BRANCH  19  20
ATOM     20  C   UNL A   1      33.709  25.740  25.754  1.00  0.00     0.430 C 
ATOM     21  F   UNL A   1      34.000  25.593  24.440  1.00  0.00    -0.167 F 
ATOM     22  F   UNL A   1      34.428  26.794  26.199  1.00  0.00    -0.167 F 
ATOM     23  F   UNL A   1      34.163  24.637  26.395  1.00  0.00    -0.167 F 
ENDBRANCH  19  20
ENDBRANCH   6   8
ENDBRANCH   5   6
ENDBRANCH   4   5
ENDBRANCH   3   4
ENDBRANCH   2   3
ENDBRANCH   1   2
BRANCH   1  24
ATOM     24  C   UNL A   1      37.080  20.020  25.071  1.00  0.00     0.261 C 
BRANCH  24  25
ATOM     25  O   UNL A   1      37.810  21.216  25.398  1.00  0.00    -0.460 OA
BRANCH  25  26
ATOM     26  C   UNL A   1      39.002  21.005  26.005  1.00  0.00     0.338 C 
ATOM     27  O   UNL A   1      39.652  19.965  26.011  1.00  0.00    -0.246 OA
BRANCH  26  28
ATOM     28  C   UNL A   1      39.534  22.278  26.519  1.00  0.00     0.060 A 
ATOM     29  C   UNL A   1      39.041  23.466  25.966  1.00  0.00     0.016 A 
ATOM     30  C   UNL A   1      40.552  22.306  27.475  1.00  0.00     0.016 A 
ATOM     31  C   UNL A   1      39.586  24.689  26.347  1.00  0.00     0.010 A 
ATOM     32  C   UNL A   1      41.107  23.535  27.847  1.00  0.00     0.010 A 
ATOM     33  C   UNL A   1      40.644  24.730  27.265  1.00  0.00    -0.014 A 
BRANCH  33  34
ATOM     34  C   UNL A   1      41.351  26.012  27.504  1.00  0.00     0.031 A 
ATOM     35  C   UNL A   1      40.688  27.064  28.351  1.00  0.00     0.074 A 
ATOM     36  C   UNL A   1      42.593  26.209  27.024  1.00  0.00     0.049 A 
ATOM     37  N   UNL A   1      41.122  28.250  28.685  1.00  0.00    -0.248 NA
ATOM     38  C   UNL A   1      39.364  26.730  28.899  1.00  0.00     0.031 C 
ATOM     39  C   UNL A   1      43.358  25.237  26.245  1.00  0.00     0.029 A 
ATOM     40  N   UNL A   1      43.434  27.287  27.135  1.00  0.00    -0.354 N 
ATOM     41  C   UNL A   1      40.132  28.802  29.491  1.00  0.00     0.074 A 
ATOM     42  C   UNL A   1      39.056  27.836  29.560  1.00  0.00     0.031 C 
ATOM     43  C   UNL A   1      44.563  25.758  25.961  1.00  0.00     0.029 A 
ATOM     44  C   UNL A   1      44.643  27.113  26.503  1.00  0.00     0.049 A 
ATOM     45  H   UNL A   1      43.194  28.109  27.621  1.00  0.00     0.167 HD
ATOM     46  C   UNL A   1      40.130  29.996  30.130  1.00  0.00     0.034 A 
ATOM     47  C   UNL A   1      45.688  27.955  26.370  1.00  0.00     0.034 A 
ATOM     48  C   UNL A   1      41.205  30.952  30.052  1.00  0.00     0.049 A 
ATOM     49  C   UNL A   1      45.612  29.326  26.993  1.00  0.00     0.074 A 
ATOM     50  C   UNL A   1      41.295  32.194  30.656  1.00  0.00     0.029 A 
ATOM     51  N   UNL A   1      42.372  30.776  29.324  1.00  0.00    -0.354 N 
ATOM     52  N   UNL A   1      44.655  29.847  27.725  1.00  0.00    -0.248 NA
ATOM     53  C   UNL A   1      46.753  30.227  26.768  1.00  0.00     0.031 C 
ATOM     54  C   UNL A   1      42.487  32.794  30.245  1.00  0.00     0.029 A 
ATOM     55  C   UNL A   1      43.174  31.900  29.440  1.00  0.00     0.049 A 
ATOM     56  H   UNL A   1      42.597  29.972  28.803  1.00  0.00     0.167 HD
ATOM     57  C   UNL A   1      45.090  31.123  28.068  1.00  0.00     0.074 A 
ATOM     58  C   UNL A   1      46.395  31.297  27.465  1.00  0.00     0.031 C 
ATOM     59  C   UNL A   1      44.468  32.062  28.823  1.00  0.00     0.034 A 
BRANCH  46  60
ATOM     60  C   UNL A   1      38.919  30.347  30.950  1.00  0.00     0.023 A 
ATOM     61  C   UNL A   1      37.849  31.073  30.402  1.00  0.00     0.031 A 
ATOM     62  C   UNL A   1      38.820  29.928  32.289  1.00  0.00     0.131 A 
ATOM     63  C   UNL A   1      36.740  31.390  31.199  1.00  0.00     0.055 A 
ATOM     64  C   UNL A   1      37.688  30.194  33.059  1.00  0.00     0.041 A 
ATOM     65  F   UNL A   1      39.824  29.249  32.867  1.00  0.00    -0.206 F 
ATOM     66  C   UNL A   1      36.641  30.934  32.517  1.00  0.00     0.022 A 
BRANCH  63  67
ATOM     67  S   UNL A   1      35.457  32.471  30.514  1.00  0.00     0.124 S 
ATOM     68  O   UNL A   1      34.370  32.281  31.472  1.00  0.00    -0.237 OA
ATOM     69  O   UNL A   1      36.101  33.779  30.531  1.00  0.00    -0.237 OA
ATOM     70  O   UNL A   1      35.213  31.914  29.185  1.00  0.00    -0.744 OA
ENDBRANCH  63  67
ENDBRANCH  46  60
BRANCH  47  71
ATOM     71  C   UNL A   1      46.890  27.536  25.596  1.00  0.00     0.023 A 
ATOM     72  C   UNL A   1      47.032  27.879  24.242  1.00  0.00     0.031 A 
ATOM     73  C   UNL A   1      47.908  26.774  26.197  1.00  0.00     0.131 A 
ATOM     74  C   UNL A   1      48.158  27.441  23.527  1.00  0.00     0.055 A 
ATOM     75  C   UNL A   1      49.044  26.375  25.492  1.00  0.00     0.041 A 
ATOM     76  F   UNL A   1      47.819  26.422  27.489  1.00  0.00    -0.206 F 
ATOM     77  C   UNL A   1      49.171  26.703  24.146  1.00  0.00     0.022 A 
BRANCH  74  78
ATOM     78  S   UNL A   1      48.265  27.819  21.755  1.00  0.00     0.124 S 
ATOM     79  O   UNL A   1      49.328  28.817  21.731  1.00  0.00    -0.237 OA
ATOM     80  O   UNL A   1      48.592  26.517  21.186  1.00  0.00    -0.237 OA
ATOM     81  O   UNL A   1      46.930  28.320  21.435  1.00  0.00    -0.744 OA
ENDBRANCH  74  78
ENDBRANCH  47  71
BRANCH  59  82
ATOM     82  C   UNL A   1      45.193  33.358  29.072  1.00  0.00     0.023 A 
ATOM     83  C   UNL A   1      44.900  34.515  28.331  1.00  0.00     0.031 A 
ATOM     84  C   UNL A   1      46.128  33.454  30.119  1.00  0.00     0.131 A 
ATOM     85  C   UNL A   1      45.549  35.720  28.639  1.00  0.00     0.055 A 
ATOM     86  C   UNL A   1      46.738  34.664  30.446  1.00  0.00     0.041 A 
ATOM     87  F   UNL A   1      46.436  32.377  30.858  1.00  0.00    -0.206 F 
ATOM     88  C   UNL A   1      46.451  35.805  29.703  1.00  0.00     0.022 A 
BRANCH  85  89
ATOM     89  S   UNL A   1      45.205  37.182  27.622  1.00  0.00     0.124 S 
ATOM     90  O   UNL A   1      46.446  37.322  26.866  1.00  0.00    -0.237 OA
ATOM     91  O   UNL A   1      44.035  36.767  26.855  1.00  0.00    -0.237 OA
ATOM     92  O   UNL A   1      44.957  38.233  28.607  1.00  0.00    -0.744 OA
ENDBRANCH  85  89
ENDBRANCH  59  82
ENDBRANCH  33  34
ENDBRANCH  26  28
ENDBRANCH  25  26
ENDBRANCH  24  25
ENDBRANCH   1  24
TORSDOF 18
ENDMDL
MODEL 3
REMARK VINA RESULT:     -11.6      5.096      7.812
REMARK SMILES Cc1cc(Cl)cc2c1O[C@H](C(F)(F)F)C(C(=O)OCCOCCOC(=O)c1ccc(-c3c4nc(c(-c5cc(S(=O)(=O)[O-])ccc5F)c5ccc([nH]5)c(-c5cc(S(=O)(=O)[O-])ccc5F)c5nc(c(-c6cc(S(=O)(=O)[O-])ccc6F)c6ccc3[nH]6)C=C5)C=C4)cc1)=C2
REMARK SMILES IDX 22 1 21 2 20 3 19 4 18 5 16 6 17 7 15 8 1 9 2 10 3 11 8 12
REMARK SMILES IDX 4 13 7 14 9 15 5 16 6 17 90 18 10 19 11 20 12 21 13 22 14 23
REMARK SMILES IDX 23 24 24 25 25 26 26 27 27 28 28 29 89 30 29 31 88 32 30 33
REMARK SMILES IDX 31 34 32 35 82 36 33 37 87 38 81 39 83 40 34 41 86 42 80 43
REMARK SMILES IDX 79 44 35 46 67 47 47 48 66 49 48 50 51 51 65 52 84 53 49 54
REMARK SMILES IDX 50 55 64 57 85 58 52 59 36 60 37 61 45 62 38 63 44 64 46 65
REMARK SMILES IDX 43 66 39 67 40 68 41 69 42 70 68 71 69 72 77 73 70 74 76 75
REMARK SMILES IDX 78 76 75 77 71 78 72 79 73 80 74 81 53 82 54 83 62 84 55 85
REMARK SMILES IDX 61 86 63 87 60 88 56 89 57 90 58 91 59 92
REMARK H PARENT 83 45 51 56
REMARK Flexibility Score: inf
ROOT
ATOM      1  C   UNL A   1      36.042  21.381  25.517  1.00  0.00     0.202 C 
ENDROOT
BRANCH   1   2
ATOM      2  O   UNL A   1      34.962  21.408  24.583  1.00  0.00    -0.374 OA
BRANCH   2   3
ATOM      3  C   UNL A   1      33.943  20.419  24.711  1.00  0.00     0.202 C 
BRANCH   3   4
ATOM      4  C   UNL A   1      32.620  20.863  25.343  1.00  0.00     0.261 C 
BRANCH   4   5
ATOM      5  O   UNL A   1      32.732  22.148  25.973  1.00  0.00    -0.460 OA
BRANCH   5   6
ATOM      6  C   UNL A   1      31.737  23.013  25.669  1.00  0.00     0.338 C 
ATOM      7  O   UNL A   1      30.536  22.830  25.803  1.00  0.00    -0.246 OA
BRANCH   6   8
ATOM      8  C   UNL A   1      32.307  24.308  25.254  1.00  0.00     0.087 C 
ATOM      9  C   UNL A   1      34.010  28.333  22.608  1.00  0.00     0.048 C 
ATOM     10  C   UNL A   1      33.413  28.122  23.971  1.00  0.00    -0.007 A 
ATOM     11  C   UNL A   1      33.067  29.228  24.763  1.00  0.00     0.027 A 
ATOM     12  C   UNL A   1      33.135  26.829  24.444  1.00  0.00     0.131 A 
ATOM     13  C   UNL A   1      32.470  29.042  26.009  1.00  0.00     0.042 A 
ATOM     14  C   UNL A   1      32.495  26.653  25.675  1.00  0.00     0.019 A 
ATOM     15  O   UNL A   1      33.517  25.783  23.650  1.00  0.00    -0.475 OA
ATOM     16  Cl  UNL A   1      32.053  30.407  26.971  1.00  0.00    -0.084 Cl
ATOM     17  C   UNL A   1      32.183  27.762  26.468  1.00  0.00     0.032 A 
ATOM     18  C   UNL A   1      32.082  25.327  26.092  1.00  0.00     0.027 C 
ATOM     19  C   UNL A   1      33.054  24.436  23.956  1.00  0.00     0.316 C 
BRANCH  19  20
ATOM     20  C   UNL A   1      32.250  23.931  22.750  1.00  0.00     0.430 C 
ATOM     21  F   UNL A   1      30.935  24.228  22.880  1.00  0.00    -0.167 F 
ATOM     22  F   UNL A   1      32.666  24.492  21.593  1.00  0.00    -0.167 F 
ATOM     23  F   UNL A   1      32.349  22.588  22.610  1.00  0.00    -0.167 F 
ENDBRANCH  19  20
ENDBRANCH   6   8
ENDBRANCH   5   6
ENDBRANCH   4   5
ENDBRANCH   3   4
ENDBRANCH   2   3
ENDBRANCH   1   2
BRANCH   1  24
ATOM     24  C   UNL A   1      37.223  20.446  25.224  1.00  0.00     0.261 C 
BRANCH  24  25
ATOM     25  O   UNL A   1      38.463  21.156  25.063  1.00  0.00    -0.460 OA
BRANCH  25  26
ATOM     26  C   UNL A   1      39.378  20.931  26.036  1.00  0.00     0.338 C 
ATOM     27  O   UNL A   1      39.908  19.861  26.315  1.00  0.00    -0.246 OA
BRANCH  26  28
ATOM     28  C   UNL A   1      39.813  22.211  26.620  1.00  0.00     0.060 A 
ATOM     29  C   UNL A   1      39.215  23.385  26.146  1.00  0.00     0.016 A 
ATOM     30  C   UNL A   1      40.843  22.266  27.562  1.00  0.00     0.016 A 
ATOM     31  C   UNL A   1      39.666  24.624  26.592  1.00  0.00     0.010 A 
ATOM     32  C   UNL A   1      41.302  23.513  28.000  1.00  0.00     0.010 A 
ATOM     33  C   UNL A   1      40.733  24.697  27.497  1.00  0.00    -0.014 A 
BRANCH  33  34
ATOM     34  C   UNL A   1      41.338  26.017  27.804  1.00  0.00     0.031 A 
ATOM     35  C   UNL A   1      42.719  26.324  27.294  1.00  0.00     0.074 A 
ATOM     36  C   UNL A   1      40.637  26.950  28.475  1.00  0.00     0.049 A 
ATOM     37  N   UNL A   1      43.434  27.407  27.447  1.00  0.00    -0.248 NA
ATOM     38  C   UNL A   1      43.378  25.273  26.503  1.00  0.00     0.031 C 
ATOM     39  C   UNL A   1      39.268  26.788  28.962  1.00  0.00     0.029 A 
ATOM     40  N   UNL A   1      40.977  28.226  28.848  1.00  0.00    -0.354 N 
ATOM     41  C   UNL A   1      44.622  27.175  26.762  1.00  0.00     0.074 A 
ATOM     42  C   UNL A   1      44.548  25.831  26.231  1.00  0.00     0.031 C 
ATOM     43  C   UNL A   1      38.879  27.928  29.557  1.00  0.00     0.029 A 
ATOM     44  C   UNL A   1      39.981  28.888  29.529  1.00  0.00     0.049 A 
ATOM     45  H   UNL A   1      41.852  28.630  28.649  1.00  0.00     0.167 HD
ATOM     46  C   UNL A   1      45.670  28.013  26.577  1.00  0.00     0.034 A 
ATOM     47  C   UNL A   1      39.966  30.121  30.074  1.00  0.00     0.034 A 
ATOM     48  C   UNL A   1      45.735  29.349  27.114  1.00  0.00     0.049 A 
ATOM     49  C   UNL A   1      41.191  30.993  29.956  1.00  0.00     0.074 A 
ATOM     50  C   UNL A   1      46.756  30.274  26.990  1.00  0.00     0.029 A 
ATOM     51  N   UNL A   1      44.744  29.947  27.877  1.00  0.00    -0.354 N 
ATOM     52  N   UNL A   1      42.320  30.746  29.333  1.00  0.00    -0.248 NA
ATOM     53  C   UNL A   1      41.144  32.305  30.618  1.00  0.00     0.031 C 
ATOM     54  C   UNL A   1      46.410  31.408  27.729  1.00  0.00     0.029 A 
ATOM     55  C   UNL A   1      45.143  31.218  28.257  1.00  0.00     0.049 A 
ATOM     56  H   UNL A   1      43.884  29.530  28.114  1.00  0.00     0.167 HD
ATOM     57  C   UNL A   1      43.105  31.882  29.507  1.00  0.00     0.074 A 
ATOM     58  C   UNL A   1      42.325  32.815  30.293  1.00  0.00     0.031 C 
ATOM     59  C   UNL A   1      44.357  32.132  29.049  1.00  0.00     0.034 A 
BRANCH  46  60
ATOM     60  C   UNL A   1      46.841  27.504  25.783  1.00  0.00     0.023 A 
ATOM     61  C   UNL A   1      47.036  27.878  24.443  1.00  0.00     0.031 A 
ATOM     62  C   UNL A   1      47.790  26.655  26.380  1.00  0.00     0.131 A 
ATOM     63  C   UNL A   1      48.134  27.375  23.731  1.00  0.00     0.055 A 
ATOM     64  C   UNL A   1      48.913  26.208  25.685  1.00  0.00     0.041 A 
ATOM     65  F   UNL A   1      47.639  26.252  27.652  1.00  0.00    -0.206 F 
ATOM     66  C   UNL A   1      49.088  26.562  24.351  1.00  0.00     0.022 A 
BRANCH  63  67
ATOM     67  S   UNL A   1      48.263  27.739  21.961  1.00  0.00     0.124 S 
ATOM     68  O   UNL A   1      46.962  28.347  21.690  1.00  0.00    -0.237 OA
ATOM     69  O   UNL A   1      49.411  28.637  21.903  1.00  0.00    -0.237 OA
ATOM     70  O   UNL A   1      48.468  26.425  21.355  1.00  0.00    -0.744 OA
ENDBRANCH  63  67
ENDBRANCH  46  60
BRANCH  47  71
ATOM     71  C   UNL A   1      38.757  30.601  30.800  1.00  0.00     0.023 A 
ATOM     72  C   UNL A   1      37.718  31.256  30.120  1.00  0.00     0.031 A 
ATOM     73  C   UNL A   1      38.631  30.425  32.190  1.00  0.00     0.131 A 
ATOM     74  C   UNL A   1      36.607  31.729  30.835  1.00  0.00     0.055 A 
ATOM     75  C   UNL A   1      37.507  30.863  32.890  1.00  0.00     0.041 A 
ATOM     76  F   UNL A   1      39.598  29.805  32.885  1.00  0.00    -0.206 F 
ATOM     77  C   UNL A   1      36.488  31.526  32.212  1.00  0.00     0.022 A 
BRANCH  74  78
ATOM     78  S   UNL A   1      35.327  32.654  29.941  1.00  0.00     0.124 S 
ATOM     79  O   UNL A   1      36.077  33.813  29.468  1.00  0.00    -0.237 OA
ATOM     80  O   UNL A   1      34.915  31.695  28.922  1.00  0.00    -0.237 OA
ATOM     81  O   UNL A   1      34.329  32.933  30.971  1.00  0.00    -0.744 OA
ENDBRANCH  74  78
ENDBRANCH  47  71
BRANCH  59  82
ATOM     82  C   UNL A   1      44.962  33.476  29.355  1.00  0.00     0.023 A 
ATOM     83  C   UNL A   1      44.738  34.587  28.526  1.00  0.00     0.031 A 
ATOM     84  C   UNL A   1      45.702  33.663  30.537  1.00  0.00     0.131 A 
ATOM     85  C   UNL A   1      45.263  35.838  28.883  1.00  0.00     0.055 A 
ATOM     86  C   UNL A   1      46.186  34.918  30.906  1.00  0.00     0.041 A 
ATOM     87  F   UNL A   1      45.937  32.633  31.365  1.00  0.00    -0.206 F 
ATOM     88  C   UNL A   1      45.969  36.013  30.076  1.00  0.00     0.022 A 
BRANCH  85  89
ATOM     89  S   UNL A   1      45.020  37.240  27.759  1.00  0.00     0.124 S 
ATOM     90  O   UNL A   1      45.020  38.371  28.682  1.00  0.00    -0.237 OA
ATOM     91  O   UNL A   1      46.174  37.142  26.873  1.00  0.00    -0.237 OA
ATOM     92  O   UNL A   1      43.731  36.955  27.129  1.00  0.00    -0.744 OA
ENDBRANCH  85  89
ENDBRANCH  59  82
ENDBRANCH  33  34
ENDBRANCH  26  28
ENDBRANCH  25  26
ENDBRANCH  24  25
ENDBRANCH   1  24
TORSDOF 18
ENDMDL
