MODEL 1
REMARK VINA RESULT:     -10.4      0.000      0.000
REMARK SMILES C[N@H+]1CC[C@@H](Cc2nccnc2C(=O)OCCOCCOC(=O)c2ccc(-c3c4nc(c(-c5cc(S(=O)(=O)[O-])ccc5F)c5ccc([nH]5)c(-c5cc(S(=O)(=O)[O-])ccc5F)c5nc(c(-c6cc(S(=O)(=O)[O-])ccc6F)c6ccc3[nH]6)C=C5)C=C4)cc2)C1
REMARK SMILES IDX 19 1 18 2 17 3 16 4 15 5 13 6 14 7 12 8 7 9 8 10 9 11 11 12
REMARK SMILES IDX 10 13 6 14 5 15 1 16 2 17 3 18 87 19 4 21 20 22 21 23 22 24
REMARK SMILES IDX 23 25 24 26 25 27 86 28 26 29 85 30 27 31 28 32 29 33 79 34
REMARK SMILES IDX 30 35 84 36 78 37 80 38 31 39 83 40 77 41 76 42 32 44 64 45
REMARK SMILES IDX 44 46 63 47 45 48 48 49 62 50 81 51 46 52 47 53 61 55 82 56
REMARK SMILES IDX 49 57 33 58 34 59 42 60 35 61 41 62 43 63 40 64 36 65 37 66
REMARK SMILES IDX 38 67 39 68 65 69 66 70 74 71 67 72 73 73 75 74 72 75 68 76
REMARK SMILES IDX 69 77 70 78 71 79 50 80 51 81 59 82 52 83 58 84 60 85 57 86
REMARK SMILES IDX 53 87 54 88 55 89 56 90
REMARK H PARENT 2 20 80 43 48 54
REMARK Flexibility Score: inf
ROOT
ATOM      1  C   UNL A   1      37.230  19.875  24.801  1.00  0.00     0.202 C 
ENDROOT
BRANCH   1   2
ATOM      2  O   UNL A   1      36.646  21.073  25.312  1.00  0.00    -0.374 OA
BRANCH   2   3
ATOM      3  C   UNL A   1      36.914  22.274  24.585  1.00  0.00     0.202 C 
BRANCH   3   4
ATOM      4  C   UNL A   1      36.558  23.566  25.319  1.00  0.00     0.261 C 
BRANCH   4   5
ATOM      5  O   UNL A   1      35.277  24.040  24.864  1.00  0.00    -0.458 OA
BRANCH   5   6
ATOM      6  C   UNL A   1      34.202  23.662  25.591  1.00  0.00     0.358 C 
ATOM      7  O   UNL A   1      34.242  23.271  26.749  1.00  0.00    -0.244 OA
BRANCH   6   8
ATOM      8  C   UNL A   1      32.916  23.921  24.863  1.00  0.00     0.169 A 
ATOM      9  C   UNL A   1      32.326  23.123  23.874  1.00  0.00     0.074 A 
ATOM     10  N   UNL A   1      31.108  23.471  23.350  1.00  0.00    -0.257 NA
ATOM     11  C   UNL A   1      30.547  24.624  23.766  1.00  0.00     0.131 A 
ATOM     12  N   UNL A   1      32.332  25.098  25.264  1.00  0.00    -0.246 NA
ATOM     13  C   UNL A   1      31.158  25.430  24.694  1.00  0.00     0.132 A 
BRANCH   9  14
ATOM     14  C   UNL A   1      32.883  21.836  23.310  1.00  0.00     0.068 C 
BRANCH  14  15
ATOM     15  C   UNL A   1      32.309  20.574  23.990  1.00  0.00     0.056 C 
ATOM     16  C   UNL A   1      33.082  17.013  23.471  1.00  0.00     0.332 C 
ATOM     17  N   UNL A   1      32.630  18.249  24.091  1.00  0.00    -0.337 N 
ATOM     18  C   UNL A   1      33.595  18.810  25.034  1.00  0.00     0.262 C 
ATOM     19  C   UNL A   1      32.428  19.318  23.113  1.00  0.00     0.266 C 
ATOM     20  H   UNL A   1      31.765  17.974  24.556  1.00  0.00     0.347 HD
ATOM     21  C   UNL A   1      33.048  20.206  25.285  1.00  0.00     0.071 C 
ENDBRANCH  14  15
ENDBRANCH   9  14
ENDBRANCH   6   8
ENDBRANCH   5   6
ENDBRANCH   4   5
ENDBRANCH   3   4
ENDBRANCH   2   3
ENDBRANCH   1   2
BRANCH   1  22
ATOM     22  C   UNL A   1      38.706  19.644  25.150  1.00  0.00     0.261 C 
BRANCH  22  23
ATOM     23  O   UNL A   1      39.076  20.238  26.406  1.00  0.00    -0.460 OA
BRANCH  23  24
ATOM     24  C   UNL A   1      40.409  20.407  26.604  1.00  0.00     0.338 C 
ATOM     25  O   UNL A   1      41.298  19.606  26.366  1.00  0.00    -0.246 OA
BRANCH  24  26
ATOM     26  C   UNL A   1      40.651  21.809  27.000  1.00  0.00     0.060 A 
ATOM     27  C   UNL A   1      39.896  22.825  26.405  1.00  0.00     0.016 A 
ATOM     28  C   UNL A   1      41.625  22.119  27.944  1.00  0.00     0.016 A 
ATOM     29  C   UNL A   1      40.131  24.162  26.748  1.00  0.00     0.010 A 
ATOM     30  C   UNL A   1      41.818  23.448  28.327  1.00  0.00     0.010 A 
ATOM     31  C   UNL A   1      41.106  24.487  27.701  1.00  0.00    -0.014 A 
BRANCH  31  32
ATOM     32  C   UNL A   1      41.536  25.897  27.923  1.00  0.00     0.031 A 
ATOM     33  C   UNL A   1      42.884  26.323  27.390  1.00  0.00     0.074 A 
ATOM     34  C   UNL A   1      40.773  26.782  28.594  1.00  0.00     0.049 A 
ATOM     35  N   UNL A   1      43.546  27.434  27.582  1.00  0.00    -0.248 NA
ATOM     36  C   UNL A   1      43.595  25.339  26.557  1.00  0.00     0.031 C 
ATOM     37  C   UNL A   1      39.445  26.514  29.144  1.00  0.00     0.029 A 
ATOM     38  N   UNL A   1      41.016  28.091  28.936  1.00  0.00    -0.354 N 
ATOM     39  C   UNL A   1      44.764  27.264  26.928  1.00  0.00     0.074 A 
ATOM     40  C   UNL A   1      44.771  25.921  26.395  1.00  0.00     0.031 C 
ATOM     41  C   UNL A   1      38.987  27.627  29.743  1.00  0.00     0.029 A 
ATOM     42  C   UNL A   1      40.006  28.672  29.671  1.00  0.00     0.049 A 
ATOM     43  H   UNL A   1      41.837  28.570  28.680  1.00  0.00     0.167 HD
ATOM     44  C   UNL A   1      45.774  28.154  26.761  1.00  0.00     0.034 A 
ATOM     45  C   UNL A   1      39.924  29.894  30.238  1.00  0.00     0.034 A 
ATOM     46  C   UNL A   1      45.738  29.503  27.264  1.00  0.00     0.049 A 
ATOM     47  C   UNL A   1      41.082  30.857  30.084  1.00  0.00     0.074 A 
ATOM     48  C   UNL A   1      46.686  30.500  27.117  1.00  0.00     0.029 A 
ATOM     49  N   UNL A   1      44.701  30.047  28.010  1.00  0.00    -0.354 N 
ATOM     50  N   UNL A   1      42.224  30.684  29.458  1.00  0.00    -0.248 NA
ATOM     51  C   UNL A   1      40.936  32.180  30.707  1.00  0.00     0.031 C 
ATOM     52  C   UNL A   1      46.260  31.619  27.839  1.00  0.00     0.029 A 
ATOM     53  C   UNL A   1      45.000  31.355  28.354  1.00  0.00     0.049 A 
ATOM     54  H   UNL A   1      43.875  29.573  28.257  1.00  0.00     0.167 HD
ATOM     55  C   UNL A   1      42.909  31.894  29.575  1.00  0.00     0.074 A 
ATOM     56  C   UNL A   1      42.051  32.785  30.327  1.00  0.00     0.031 C 
ATOM     57  C   UNL A   1      44.132  32.238  29.096  1.00  0.00     0.034 A 
BRANCH  44  58
ATOM     58  C   UNL A   1      47.009  27.676  26.033  1.00  0.00     0.023 A 
ATOM     59  C   UNL A   1      47.248  27.998  24.686  1.00  0.00     0.031 A 
ATOM     60  C   UNL A   1      47.943  26.852  26.686  1.00  0.00     0.131 A 
ATOM     61  C   UNL A   1      48.339  27.428  24.012  1.00  0.00     0.055 A 
ATOM     62  C   UNL A   1      49.079  26.367  26.037  1.00  0.00     0.041 A 
ATOM     63  F   UNL A   1      47.758  26.488  27.965  1.00  0.00    -0.206 F 
ATOM     64  C   UNL A   1      49.274  26.639  24.686  1.00  0.00     0.022 A 
BRANCH  61  65
ATOM     65  S   UNL A   1      48.422  27.596  22.208  1.00  0.00     0.124 S 
ATOM     66  O   UNL A   1      48.624  26.209  21.794  1.00  0.00    -0.237 OA
ATOM     67  O   UNL A   1      47.124  28.176  21.884  1.00  0.00    -0.237 OA
ATOM     68  O   UNL A   1      49.571  28.474  21.998  1.00  0.00    -0.744 OA
ENDBRANCH  61  65
ENDBRANCH  44  58
BRANCH  45  69
ATOM     69  C   UNL A   1      38.721  30.288  31.033  1.00  0.00     0.023 A 
ATOM     70  C   UNL A   1      37.658  30.992  30.441  1.00  0.00     0.031 A 
ATOM     71  C   UNL A   1      38.643  30.022  32.411  1.00  0.00     0.131 A 
ATOM     72  C   UNL A   1      36.594  31.452  31.233  1.00  0.00     0.055 A 
ATOM     73  C   UNL A   1      37.553  30.429  33.184  1.00  0.00     0.041 A 
ATOM     74  F   UNL A   1      39.631  29.357  33.032  1.00  0.00    -0.206 F 
ATOM     75  C   UNL A   1      36.527  31.162  32.597  1.00  0.00     0.022 A 
BRANCH  72  76
ATOM     76  S   UNL A   1      35.346  32.529  30.474  1.00  0.00     0.124 S 
ATOM     77  O   UNL A   1      35.021  31.793  29.257  1.00  0.00    -0.237 OA
ATOM     78  O   UNL A   1      34.310  32.562  31.501  1.00  0.00    -0.237 OA
ATOM     79  O   UNL A   1      36.061  33.788  30.272  1.00  0.00    -0.744 OA
ENDBRANCH  72  76
ENDBRANCH  45  69
BRANCH  57  80
ATOM     80  C   UNL A   1      44.588  33.665  29.299  1.00  0.00     0.023 A 
ATOM     81  C   UNL A   1      44.277  34.689  28.388  1.00  0.00     0.031 A 
ATOM     82  C   UNL A   1      45.335  34.003  30.443  1.00  0.00     0.131 A 
ATOM     83  C   UNL A   1      44.752  35.990  28.613  1.00  0.00     0.055 A 
ATOM     84  C   UNL A   1      45.748  35.312  30.694  1.00  0.00     0.041 A 
ATOM     85  F   UNL A   1      45.665  33.066  31.346  1.00  0.00    -0.206 F 
ATOM     86  C   UNL A   1      45.466  36.313  29.770  1.00  0.00     0.022 A 
BRANCH  83  87
ATOM     87  S   UNL A   1      44.500  37.246  27.328  1.00  0.00     0.124 S 
ATOM     88  O   UNL A   1      45.733  37.139  26.554  1.00  0.00    -0.237 OA
ATOM     89  O   UNL A   1      43.289  36.777  26.666  1.00  0.00    -0.237 OA
ATOM     90  O   UNL A   1      44.350  38.487  28.085  1.00  0.00    -0.744 OA
ENDBRANCH  83  87
ENDBRANCH  57  80
ENDBRANCH  31  32
ENDBRANCH  24  26
ENDBRANCH  23  24
ENDBRANCH  22  23
ENDBRANCH   1  22
TORSDOF 19
ENDMDL
MODEL 2
REMARK VINA RESULT:     -10.4      5.158      7.748
REMARK SMILES C[N@H+]1CC[C@@H](Cc2nccnc2C(=O)OCCOCCOC(=O)c2ccc(-c3c4nc(c(-c5cc(S(=O)(=O)[O-])ccc5F)c5ccc([nH]5)c(-c5cc(S(=O)(=O)[O-])ccc5F)c5nc(c(-c6cc(S(=O)(=O)[O-])ccc6F)c6ccc3[nH]6)C=C5)C=C4)cc2)C1
REMARK SMILES IDX 19 1 18 2 17 3 16 4 15 5 13 6 14 7 12 8 7 9 8 10 9 11 11 12
REMARK SMILES IDX 10 13 6 14 5 15 1 16 2 17 3 18 87 19 4 21 20 22 21 23 22 24
REMARK SMILES IDX 23 25 24 26 25 27 86 28 26 29 85 30 27 31 28 32 29 33 79 34
REMARK SMILES IDX 30 35 84 36 78 37 80 38 31 39 83 40 77 41 76 42 32 44 64 45
REMARK SMILES IDX 44 46 63 47 45 48 48 49 62 50 81 51 46 52 47 53 61 55 82 56
REMARK SMILES IDX 49 57 33 58 34 59 42 60 35 61 41 62 43 63 40 64 36 65 37 66
REMARK SMILES IDX 38 67 39 68 65 69 66 70 74 71 67 72 73 73 75 74 72 75 68 76
REMARK SMILES IDX 69 77 70 78 71 79 50 80 51 81 59 82 52 83 58 84 60 85 57 86
REMARK SMILES IDX 53 87 54 88 55 89 56 90
REMARK H PARENT 2 20 80 43 48 54
REMARK Flexibility Score: inf
ROOT
ATOM      1  C   UNL A   1      32.588  28.465  25.221  1.00  0.00     0.202 C 
ENDROOT
BRANCH   1   2
ATOM      2  O   UNL A   1      33.842  28.202  24.590  1.00  0.00    -0.374 OA
BRANCH   2   3
ATOM      3  C   UNL A   1      34.038  28.775  23.296  1.00  0.00     0.202 C 
BRANCH   3   4
ATOM      4  C   UNL A   1      33.347  28.034  22.152  1.00  0.00     0.261 C 
BRANCH   4   5
ATOM      5  O   UNL A   1      33.920  26.721  22.014  1.00  0.00    -0.458 OA
BRANCH   5   6
ATOM      6  C   UNL A   1      33.096  25.748  21.564  1.00  0.00     0.358 C 
ATOM      7  O   UNL A   1      32.901  25.485  20.386  1.00  0.00    -0.244 OA
BRANCH   6   8
ATOM      8  C   UNL A   1      32.555  24.912  22.687  1.00  0.00     0.169 A 
ATOM      9  C   UNL A   1      33.260  23.990  23.474  1.00  0.00     0.074 A 
ATOM     10  N   UNL A   1      32.628  23.350  24.508  1.00  0.00    -0.257 NA
ATOM     11  C   UNL A   1      31.314  23.586  24.689  1.00  0.00     0.131 A 
ATOM     12  N   UNL A   1      31.213  25.128  22.881  1.00  0.00    -0.246 NA
ATOM     13  C   UNL A   1      30.616  24.447  23.878  1.00  0.00     0.132 A 
BRANCH   9  14
ATOM     14  C   UNL A   1      34.720  23.624  23.335  1.00  0.00     0.068 C 
BRANCH  14  15
ATOM     15  C   UNL A   1      35.305  22.963  24.601  1.00  0.00     0.056 C 
ATOM     16  C   UNL A   1      37.274  19.879  25.000  1.00  0.00     0.332 C 
ATOM     17  N   UNL A   1      36.703  21.192  25.256  1.00  0.00    -0.337 N 
ATOM     18  C   UNL A   1      37.607  22.290  24.921  1.00  0.00     0.262 C 
ATOM     19  C   UNL A   1      35.516  21.450  24.441  1.00  0.00     0.266 C 
ATOM     20  H   UNL A   1      36.496  21.166  26.254  1.00  0.00     0.347 HD
ATOM     21  C   UNL A   1      36.695  23.505  24.969  1.00  0.00     0.071 C 
ENDBRANCH  14  15
ENDBRANCH   9  14
ENDBRANCH   6   8
ENDBRANCH   5   6
ENDBRANCH   4   5
ENDBRANCH   3   4
ENDBRANCH   2   3
ENDBRANCH   1   2
BRANCH   1  22
ATOM     22  C   UNL A   1      32.241  29.944  25.437  1.00  0.00     0.261 C 
BRANCH  22  23
ATOM     23  O   UNL A   1      32.275  30.322  26.824  1.00  0.00    -0.460 OA
BRANCH  23  24
ATOM     24  C   UNL A   1      32.931  31.478  27.101  1.00  0.00     0.338 C 
ATOM     25  O   UNL A   1      32.494  32.614  27.013  1.00  0.00    -0.246 OA
BRANCH  24  26
ATOM     26  C   UNL A   1      34.234  31.144  27.708  1.00  0.00     0.060 A 
ATOM     27  C   UNL A   1      34.530  29.808  27.998  1.00  0.00     0.016 A 
ATOM     28  C   UNL A   1      35.156  32.145  28.001  1.00  0.00     0.016 A 
ATOM     29  C   UNL A   1      35.750  29.476  28.599  1.00  0.00     0.010 A 
ATOM     30  C   UNL A   1      36.395  31.807  28.548  1.00  0.00     0.010 A 
ATOM     31  C   UNL A   1      36.687  30.475  28.895  1.00  0.00    -0.014 A 
BRANCH  31  32
ATOM     32  C   UNL A   1      37.888  30.191  29.732  1.00  0.00     0.031 A 
ATOM     33  C   UNL A   1      38.937  29.255  29.177  1.00  0.00     0.074 A 
ATOM     34  C   UNL A   1      38.050  30.724  30.958  1.00  0.00     0.049 A 
ATOM     35  N   UNL A   1      39.984  28.733  29.761  1.00  0.00    -0.248 NA
ATOM     36  C   UNL A   1      38.751  28.822  27.783  1.00  0.00     0.031 C 
ATOM     37  C   UNL A   1      37.129  31.656  31.607  1.00  0.00     0.029 A 
ATOM     38  N   UNL A   1      39.049  30.545  31.885  1.00  0.00    -0.354 N 
ATOM     39  C   UNL A   1      40.556  27.883  28.818  1.00  0.00     0.074 A 
ATOM     40  C   UNL A   1      39.699  27.910  27.654  1.00  0.00     0.031 C 
ATOM     41  C   UNL A   1      37.614  31.976  32.820  1.00  0.00     0.029 A 
ATOM     42  C   UNL A   1      38.848  31.233  33.062  1.00  0.00     0.049 A 
ATOM     43  H   UNL A   1      39.837  29.978  31.723  1.00  0.00     0.167 HD
ATOM     44  C   UNL A   1      41.703  27.165  28.901  1.00  0.00     0.034 A 
ATOM     45  C   UNL A   1      39.564  31.242  34.207  1.00  0.00     0.034 A 
ATOM     46  C   UNL A   1      42.568  27.176  30.053  1.00  0.00     0.049 A 
ATOM     47  C   UNL A   1      40.815  30.395  34.299  1.00  0.00     0.074 A 
ATOM     48  C   UNL A   1      43.774  26.520  30.228  1.00  0.00     0.029 A 
ATOM     49  N   UNL A   1      42.322  27.878  31.226  1.00  0.00    -0.354 N 
ATOM     50  N   UNL A   1      41.346  29.600  33.397  1.00  0.00    -0.248 NA
ATOM     51  C   UNL A   1      41.566  30.453  35.561  1.00  0.00     0.031 C 
ATOM     52  C   UNL A   1      44.217  26.761  31.532  1.00  0.00     0.029 A 
ATOM     53  C   UNL A   1      43.339  27.647  32.138  1.00  0.00     0.049 A 
ATOM     54  H   UNL A   1      41.541  28.454  31.385  1.00  0.00     0.167 HD
ATOM     55  C   UNL A   1      42.516  29.102  33.970  1.00  0.00     0.074 A 
ATOM     56  C   UNL A   1      42.614  29.689  35.290  1.00  0.00     0.031 C 
ATOM     57  C   UNL A   1      43.431  28.245  33.448  1.00  0.00     0.034 A 
BRANCH  44  58
ATOM     58  C   UNL A   1      42.061  26.286  27.725  1.00  0.00     0.023 A 
ATOM     59  C   UNL A   1      41.652  24.943  27.649  1.00  0.00     0.031 A 
ATOM     60  C   UNL A   1      42.857  26.789  26.681  1.00  0.00     0.131 A 
ATOM     61  C   UNL A   1      42.114  24.128  26.604  1.00  0.00     0.055 A 
ATOM     62  C   UNL A   1      43.233  25.999  25.594  1.00  0.00     0.041 A 
ATOM     63  F   UNL A   1      43.301  28.056  26.708  1.00  0.00    -0.206 F 
ATOM     64  C   UNL A   1      42.877  24.654  25.560  1.00  0.00     0.022 A 
BRANCH  61  65
ATOM     65  S   UNL A   1      41.845  22.339  26.723  1.00  0.00     0.124 S 
ATOM     66  O   UNL A   1      42.212  21.897  25.379  1.00  0.00    -0.237 OA
ATOM     67  O   UNL A   1      42.757  21.952  27.793  1.00  0.00    -0.237 OA
ATOM     68  O   UNL A   1      40.423  22.227  27.042  1.00  0.00    -0.744 OA
ENDBRANCH  61  65
ENDBRANCH  44  58
BRANCH  45  69
ATOM     69  C   UNL A   1      39.117  32.053  35.379  1.00  0.00     0.023 A 
ATOM     70  C   UNL A   1      38.514  31.446  36.494  1.00  0.00     0.031 A 
ATOM     71  C   UNL A   1      39.227  33.454  35.376  1.00  0.00     0.131 A 
ATOM     72  C   UNL A   1      37.997  32.240  37.531  1.00  0.00     0.055 A 
ATOM     73  C   UNL A   1      38.766  34.236  36.438  1.00  0.00     0.041 A 
ATOM     74  F   UNL A   1      39.790  34.090  34.336  1.00  0.00    -0.206 F 
ATOM     75  C   UNL A   1      38.133  33.629  37.518  1.00  0.00     0.022 A 
BRANCH  72  76
ATOM     76  S   UNL A   1      37.048  31.435  38.852  1.00  0.00     0.124 S 
ATOM     77  O   UNL A   1      35.826  32.231  38.866  1.00  0.00    -0.237 OA
ATOM     78  O   UNL A   1      36.921  30.072  38.345  1.00  0.00    -0.237 OA
ATOM     79  O   UNL A   1      37.905  31.584  40.026  1.00  0.00    -0.744 OA
ENDBRANCH  72  76
ENDBRANCH  45  69
BRANCH  57  80
ATOM     80  C   UNL A   1      44.664  27.948  34.272  1.00  0.00     0.023 A 
ATOM     81  C   UNL A   1      44.747  26.834  35.124  1.00  0.00     0.031 A 
ATOM     82  C   UNL A   1      45.784  28.796  34.182  1.00  0.00     0.131 A 
ATOM     83  C   UNL A   1      45.906  26.624  35.887  1.00  0.00     0.055 A 
ATOM     84  C   UNL A   1      46.958  28.545  34.893  1.00  0.00     0.041 A 
ATOM     85  F   UNL A   1      45.761  29.878  33.387  1.00  0.00    -0.206 F 
ATOM     86  C   UNL A   1      47.019  27.459  35.761  1.00  0.00     0.022 A 
BRANCH  83  87
ATOM     87  S   UNL A   1      45.911  25.291  37.118  1.00  0.00     0.124 S 
ATOM     88  O   UNL A   1      44.871  25.730  38.043  1.00  0.00    -0.237 OA
ATOM     89  O   UNL A   1      45.594  24.119  36.311  1.00  0.00    -0.237 OA
ATOM     90  O   UNL A   1      47.271  25.325  37.654  1.00  0.00    -0.744 OA
ENDBRANCH  83  87
ENDBRANCH  57  80
ENDBRANCH  31  32
ENDBRANCH  24  26
ENDBRANCH  23  24
ENDBRANCH  22  23
ENDBRANCH   1  22
TORSDOF 19
ENDMDL
MODEL 3
REMARK VINA RESULT:     -10.4      1.998      8.232
REMARK SMILES C[N@H+]1CC[C@@H](Cc2nccnc2C(=O)OCCOCCOC(=O)c2ccc(-c3c4nc(c(-c5cc(S(=O)(=O)[O-])ccc5F)c5ccc([nH]5)c(-c5cc(S(=O)(=O)[O-])ccc5F)c5nc(c(-c6cc(S(=O)(=O)[O-])ccc6F)c6ccc3[nH]6)C=C5)C=C4)cc2)C1
REMARK SMILES IDX 19 1 18 2 17 3 16 4 15 5 13 6 14 7 12 8 7 9 8 10 9 11 11 12
REMARK SMILES IDX 10 13 6 14 5 15 1 16 2 17 3 18 87 19 4 21 20 22 21 23 22 24
REMARK SMILES IDX 23 25 24 26 25 27 86 28 26 29 85 30 27 31 28 32 29 33 79 34
REMARK SMILES IDX 30 35 84 36 78 37 80 38 31 39 83 40 77 41 76 42 32 44 64 45
REMARK SMILES IDX 44 46 63 47 45 48 48 49 62 50 81 51 46 52 47 53 61 55 82 56
REMARK SMILES IDX 49 57 33 58 34 59 42 60 35 61 41 62 43 63 40 64 36 65 37 66
REMARK SMILES IDX 38 67 39 68 65 69 66 70 74 71 67 72 73 73 75 74 72 75 68 76
REMARK SMILES IDX 69 77 70 78 71 79 50 80 51 81 59 82 52 83 58 84 60 85 57 86
REMARK SMILES IDX 53 87 54 88 55 89 56 90
REMARK H PARENT 2 20 80 43 48 54
REMARK Flexibility Score: inf
ROOT
ATOM      1  C   UNL A   1      35.176  21.451  25.057  1.00  0.00     0.202 C 
ENDROOT
BRANCH   1   2
ATOM      2  O   UNL A   1      35.106  22.355  26.161  1.00  0.00    -0.374 OA
BRANCH   2   3
ATOM      3  C   UNL A   1      34.583  21.830  27.383  1.00  0.00     0.202 C 
BRANCH   3   4
ATOM      4  C   UNL A   1      33.058  21.773  27.460  1.00  0.00     0.261 C 
BRANCH   4   5
ATOM      5  O   UNL A   1      32.536  23.103  27.638  1.00  0.00    -0.458 OA
BRANCH   5   6
ATOM      6  C   UNL A   1      31.515  23.462  26.828  1.00  0.00     0.358 C 
ATOM      7  O   UNL A   1      30.370  23.682  27.200  1.00  0.00    -0.244 OA
BRANCH   6   8
ATOM      8  C   UNL A   1      31.978  23.715  25.423  1.00  0.00     0.169 A 
ATOM      9  C   UNL A   1      32.945  24.638  25.002  1.00  0.00     0.074 A 
ATOM     10  N   UNL A   1      33.301  24.700  23.680  1.00  0.00    -0.257 NA
ATOM     11  C   UNL A   1      32.647  23.905  22.811  1.00  0.00     0.131 A 
ATOM     12  N   UNL A   1      31.316  22.922  24.519  1.00  0.00    -0.246 NA
ATOM     13  C   UNL A   1      31.661  23.043  23.223  1.00  0.00     0.132 A 
BRANCH   9  14
ATOM     14  C   UNL A   1      33.709  25.600  25.883  1.00  0.00     0.068 C 
BRANCH  14  15
ATOM     15  C   UNL A   1      33.217  27.059  25.763  1.00  0.00     0.056 C 
ATOM     16  C   UNL A   1      32.179  29.002  22.815  1.00  0.00     0.332 C 
ATOM     17  N   UNL A   1      32.324  28.561  24.194  1.00  0.00    -0.337 N 
ATOM     18  C   UNL A   1      31.182  27.790  24.679  1.00  0.00     0.262 C 
ATOM     19  C   UNL A   1      33.462  27.659  24.371  1.00  0.00     0.266 C 
ATOM     20  H   UNL A   1      32.433  29.436  24.708  1.00  0.00     0.347 HD
ATOM     21  C   UNL A   1      31.702  27.196  25.978  1.00  0.00     0.071 C 
ENDBRANCH  14  15
ENDBRANCH   9  14
ENDBRANCH   6   8
ENDBRANCH   5   6
ENDBRANCH   4   5
ENDBRANCH   3   4
ENDBRANCH   2   3
ENDBRANCH   1   2
BRANCH   1  22
ATOM     22  C   UNL A   1      36.363  20.480  25.057  1.00  0.00     0.261 C 
BRANCH  22  23
ATOM     23  O   UNL A   1      37.618  21.141  24.817  1.00  0.00    -0.460 OA
BRANCH  23  24
ATOM     24  C   UNL A   1      38.649  20.746  25.608  1.00  0.00     0.338 C 
ATOM     25  O   UNL A   1      39.098  19.618  25.727  1.00  0.00    -0.246 OA
BRANCH  24  26
ATOM     26  C   UNL A   1      39.280  21.947  26.191  1.00  0.00     0.060 A 
ATOM     27  C   UNL A   1      38.702  23.200  25.965  1.00  0.00     0.016 A 
ATOM     28  C   UNL A   1      40.443  21.838  26.948  1.00  0.00     0.016 A 
ATOM     29  C   UNL A   1      39.301  24.351  26.486  1.00  0.00     0.010 A 
ATOM     30  C   UNL A   1      41.008  22.981  27.515  1.00  0.00     0.010 A 
ATOM     31  C   UNL A   1      40.470  24.255  27.253  1.00  0.00    -0.014 A 
BRANCH  31  32
ATOM     32  C   UNL A   1      41.255  25.465  27.631  1.00  0.00     0.031 A 
ATOM     33  C   UNL A   1      40.561  26.542  28.431  1.00  0.00     0.074 A 
ATOM     34  C   UNL A   1      42.542  25.628  27.266  1.00  0.00     0.049 A 
ATOM     35  N   UNL A   1      40.971  27.743  28.748  1.00  0.00    -0.248 NA
ATOM     36  C   UNL A   1      39.201  26.230  28.901  1.00  0.00     0.031 C 
ATOM     37  C   UNL A   1      43.340  24.661  26.513  1.00  0.00     0.029 A 
ATOM     38  N   UNL A   1      43.403  26.679  27.475  1.00  0.00    -0.354 N 
ATOM     39  C   UNL A   1      39.906  28.338  29.419  1.00  0.00     0.074 A 
ATOM     40  C   UNL A   1      38.814  27.391  29.399  1.00  0.00     0.031 C 
ATOM     41  C   UNL A   1      44.576  25.160  26.334  1.00  0.00     0.029 A 
ATOM     42  C   UNL A   1      44.646  26.502  26.909  1.00  0.00     0.049 A 
ATOM     43  H   UNL A   1      43.154  27.485  27.983  1.00  0.00     0.167 HD
ATOM     44  C   UNL A   1      39.848  29.553  30.021  1.00  0.00     0.034 A 
ATOM     45  C   UNL A   1      45.707  27.334  26.843  1.00  0.00     0.034 A 
ATOM     46  C   UNL A   1      40.956  30.472  30.067  1.00  0.00     0.049 A 
ATOM     47  C   UNL A   1      45.608  28.705  27.477  1.00  0.00     0.074 A 
ATOM     48  C   UNL A   1      41.021  31.709  30.684  1.00  0.00     0.029 A 
ATOM     49  N   UNL A   1      42.193  30.258  29.473  1.00  0.00    -0.354 N 
ATOM     50  N   UNL A   1      44.596  29.253  28.112  1.00  0.00    -0.248 NA
ATOM     51  C   UNL A   1      46.796  29.566  27.391  1.00  0.00     0.031 C 
ATOM     52  C   UNL A   1      42.268  32.275  30.398  1.00  0.00     0.029 A 
ATOM     53  C   UNL A   1      43.017  31.351  29.686  1.00  0.00     0.049 A 
ATOM     54  H   UNL A   1      42.447  29.448  28.975  1.00  0.00     0.167 HD
ATOM     55  C   UNL A   1      45.046  30.502  28.539  1.00  0.00     0.074 A 
ATOM     56  C   UNL A   1      46.417  30.624  28.092  1.00  0.00     0.031 C 
ATOM     57  C   UNL A   1      44.387  31.457  29.244  1.00  0.00     0.034 A 
BRANCH  44  58
ATOM     58  C   UNL A   1      38.533  29.959  30.644  1.00  0.00     0.023 A 
ATOM     59  C   UNL A   1      37.542  30.637  29.913  1.00  0.00     0.031 A 
ATOM     60  C   UNL A   1      38.282  29.698  32.003  1.00  0.00     0.131 A 
ATOM     61  C   UNL A   1      36.392  31.109  30.563  1.00  0.00     0.055 A 
ATOM     62  C   UNL A   1      37.092  30.085  32.620  1.00  0.00     0.041 A 
ATOM     63  F   UNL A   1      39.199  29.077  32.761  1.00  0.00    -0.206 F 
ATOM     64  C   UNL A   1      36.145  30.812  31.904  1.00  0.00     0.022 A 
BRANCH  61  65
ATOM     65  S   UNL A   1      35.309  32.259  29.672  1.00  0.00     0.124 S 
ATOM     66  O   UNL A   1      34.358  32.635  30.716  1.00  0.00    -0.237 OA
ATOM     67  O   UNL A   1      36.236  33.302  29.247  1.00  0.00    -0.237 OA
ATOM     68  O   UNL A   1      34.752  31.442  28.596  1.00  0.00    -0.744 OA
ENDBRANCH  61  65
ENDBRANCH  44  58
BRANCH  45  69
ATOM     69  C   UNL A   1      46.955  26.925  26.130  1.00  0.00     0.023 A 
ATOM     70  C   UNL A   1      47.996  26.267  26.807  1.00  0.00     0.031 A 
ATOM     71  C   UNL A   1      47.153  27.242  24.774  1.00  0.00     0.131 A 
ATOM     72  C   UNL A   1      49.205  25.998  26.145  1.00  0.00     0.055 A 
ATOM     73  C   UNL A   1      48.334  26.918  24.102  1.00  0.00     0.041 A 
ATOM     74  F   UNL A   1      46.196  27.874  24.077  1.00  0.00    -0.206 F 
ATOM     75  C   UNL A   1      49.375  26.304  24.793  1.00  0.00     0.022 A 
BRANCH  72  76
ATOM     76  S   UNL A   1      50.594  25.334  27.105  1.00  0.00     0.124 S 
ATOM     77  O   UNL A   1      49.959  24.234  27.821  1.00  0.00    -0.237 OA
ATOM     78  O   UNL A   1      51.535  24.959  26.054  1.00  0.00    -0.237 OA
ATOM     79  O   UNL A   1      51.006  26.465  27.933  1.00  0.00    -0.744 OA
ENDBRANCH  72  76
ENDBRANCH  45  69
BRANCH  57  80
ATOM     80  C   UNL A   1      45.163  32.690  29.649  1.00  0.00     0.023 A 
ATOM     81  C   UNL A   1      45.185  33.855  28.864  1.00  0.00     0.031 A 
ATOM     82  C   UNL A   1      45.879  32.697  30.861  1.00  0.00     0.131 A 
ATOM     83  C   UNL A   1      45.946  34.960  29.275  1.00  0.00     0.055 A 
ATOM     84  C   UNL A   1      46.580  33.822  31.296  1.00  0.00     0.041 A 
ATOM     85  F   UNL A   1      45.897  31.611  31.650  1.00  0.00    -0.206 F 
ATOM     86  C   UNL A   1      46.625  34.959  30.496  1.00  0.00     0.022 A 
BRANCH  83  87
ATOM     87  S   UNL A   1      46.111  36.375  28.151  1.00  0.00     0.124 S 
ATOM     88  O   UNL A   1      45.501  37.450  28.926  1.00  0.00    -0.237 OA
ATOM     89  O   UNL A   1      47.555  36.461  27.968  1.00  0.00    -0.237 OA
ATOM     90  O   UNL A   1      45.361  35.962  26.967  1.00  0.00    -0.744 OA
ENDBRANCH  83  87
ENDBRANCH  57  80
ENDBRANCH  31  32
ENDBRANCH  24  26
ENDBRANCH  23  24
ENDBRANCH  22  23
ENDBRANCH   1  22
TORSDOF 19
ENDMDL
