MODEL 1
REMARK VINA RESULT:     -11.7      0.000      0.000
REMARK SMILES CC1(C)CCN(C(=O)N2CCC(C(=O)OCCOCCOC(=O)c3ccc(-c4c5nc(c(-c6cc(S(=O)(=O)[O-])ccc6F)c6ccc([nH]6)c(-c6cc(S(=O)(=O)[O-])ccc6F)c6nc(c(-c7cc(S(=O)(=O)[O-])ccc7F)c7ccc4[nH]7)C=C6)C=C5)cc3)CC2)C1
REMARK SMILES IDX 19 1 18 2 17 3 16 4 15 5 13 6 14 7 12 8 7 9 8 10 9 11 10 12
REMARK SMILES IDX 88 13 11 14 87 15 6 16 1 17 2 18 3 19 4 20 89 21 5 22 20 23
REMARK SMILES IDX 21 24 22 25 23 26 24 27 25 28 86 29 26 30 85 31 27 32 28 33
REMARK SMILES IDX 29 34 79 35 30 36 84 37 78 38 80 39 31 40 83 41 77 42 76 43
REMARK SMILES IDX 32 45 64 46 44 47 63 48 45 49 48 50 62 51 81 52 46 53 47 54
REMARK SMILES IDX 61 56 82 57 49 58 33 59 34 60 42 61 35 62 41 63 43 64 40 65
REMARK SMILES IDX 36 66 37 67 38 68 39 69 65 70 66 71 74 72 67 73 73 74 75 75
REMARK SMILES IDX 72 76 68 77 69 78 70 79 71 80 50 81 51 82 59 83 52 84 58 85
REMARK SMILES IDX 60 86 57 87 53 88 54 89 55 90 56 91
REMARK H PARENT 80 44 48 55
REMARK Flexibility Score: inf
ROOT
ATOM      1  C   UNL A   1      36.182  20.860  24.619  1.00  0.00     0.202 C 
ENDROOT
BRANCH   1   2
ATOM      2  O   UNL A   1      35.200  20.834  25.654  1.00  0.00    -0.374 OA
BRANCH   2   3
ATOM      3  C   UNL A   1      33.901  20.343  25.323  1.00  0.00     0.202 C 
BRANCH   3   4
ATOM      4  C   UNL A   1      32.716  21.237  25.691  1.00  0.00     0.261 C 
BRANCH   4   5
ATOM      5  O   UNL A   1      33.088  22.624  25.701  1.00  0.00    -0.463 OA
BRANCH   5   6
ATOM      6  C   UNL A   1      32.480  23.385  26.643  1.00  0.00     0.309 C 
ATOM      7  O   UNL A   1      32.242  23.037  27.795  1.00  0.00    -0.252 OA
BRANCH   6   8
ATOM      8  C   UNL A   1      32.104  24.757  26.137  1.00  0.00     0.103 C 
ATOM      9  C   UNL A   1      31.146  27.931  23.493  1.00  0.00     0.320 C 
ATOM     10  O   UNL A   1      31.981  28.298  22.669  1.00  0.00    -0.248 OA
ATOM     11  N   UNL A   1      31.411  26.943  24.424  1.00  0.00    -0.325 N 
ATOM     12  C   UNL A   1      32.690  26.977  25.120  1.00  0.00     0.122 C 
ATOM     13  C   UNL A   1      30.390  25.996  24.863  1.00  0.00     0.122 C 
ATOM     14  C   UNL A   1      33.219  25.602  25.515  1.00  0.00     0.037 C 
ATOM     15  C   UNL A   1      30.966  24.619  25.132  1.00  0.00     0.037 C 
BRANCH   9  16
ATOM     16  N   UNL A   1      29.914  28.542  23.607  1.00  0.00    -0.324 N 
ATOM     17  C   UNL A   1      29.022  30.573  21.439  1.00  0.00     0.013 C 
ATOM     18  C   UNL A   1      28.561  30.347  22.890  1.00  0.00    -0.016 C 
ATOM     19  C   UNL A   1      27.850  31.599  23.400  1.00  0.00     0.013 C 
ATOM     20  C   UNL A   1      27.697  29.079  23.012  1.00  0.00     0.030 C 
ATOM     21  C   UNL A   1      29.747  29.978  23.789  1.00  0.00     0.127 C 
ATOM     22  C   UNL A   1      28.725  27.950  23.020  1.00  0.00     0.122 C 
ENDBRANCH   9  16
ENDBRANCH   6   8
ENDBRANCH   5   6
ENDBRANCH   4   5
ENDBRANCH   3   4
ENDBRANCH   2   3
ENDBRANCH   1   2
BRANCH   1  23
ATOM     23  C   UNL A   1      37.629  20.537  25.011  1.00  0.00     0.261 C 
BRANCH  23  24
ATOM     24  O   UNL A   1      38.401  21.714  25.313  1.00  0.00    -0.460 OA
BRANCH  24  25
ATOM     25  C   UNL A   1      39.426  21.508  26.178  1.00  0.00     0.338 C 
ATOM     26  O   UNL A   1      40.092  20.486  26.290  1.00  0.00    -0.246 OA
BRANCH  25  27
ATOM     27  C   UNL A   1      39.788  22.762  26.864  1.00  0.00     0.060 A 
ATOM     28  C   UNL A   1      39.085  23.918  26.504  1.00  0.00     0.016 A 
ATOM     29  C   UNL A   1      40.848  22.831  27.771  1.00  0.00     0.016 A 
ATOM     30  C   UNL A   1      39.472  25.158  27.009  1.00  0.00     0.010 A 
ATOM     31  C   UNL A   1      41.241  24.080  28.270  1.00  0.00     0.010 A 
ATOM     32  C   UNL A   1      40.578  25.253  27.862  1.00  0.00    -0.014 A 
BRANCH  32  33
ATOM     33  C   UNL A   1      41.129  26.592  28.191  1.00  0.00     0.031 A 
ATOM     34  C   UNL A   1      42.559  26.899  27.834  1.00  0.00     0.074 A 
ATOM     35  C   UNL A   1      40.354  27.539  28.750  1.00  0.00     0.049 A 
ATOM     36  N   UNL A   1      43.256  27.985  28.045  1.00  0.00    -0.248 NA
ATOM     37  C   UNL A   1      43.302  25.831  27.146  1.00  0.00     0.031 C 
ATOM     38  C   UNL A   1      38.942  27.378  29.093  1.00  0.00     0.029 A 
ATOM     39  N   UNL A   1      40.647  28.825  29.130  1.00  0.00    -0.354 N 
ATOM     40  C   UNL A   1      44.518  27.736  27.515  1.00  0.00     0.074 A 
ATOM     41  C   UNL A   1      44.500  26.379  27.011  1.00  0.00     0.031 C 
ATOM     42  C   UNL A   1      38.495  28.518  29.647  1.00  0.00     0.029 A 
ATOM     43  C   UNL A   1      39.595  29.476  29.732  1.00  0.00     0.049 A 
ATOM     44  H   UNL A   1      41.527  29.242  28.987  1.00  0.00     0.167 HD
ATOM     45  C   UNL A   1      45.588  28.566  27.446  1.00  0.00     0.034 A 
ATOM     46  C   UNL A   1      39.536  30.695  30.308  1.00  0.00     0.034 A 
ATOM     47  C   UNL A   1      45.597  29.911  27.969  1.00  0.00     0.049 A 
ATOM     48  C   UNL A   1      40.769  31.568  30.303  1.00  0.00     0.074 A 
ATOM     49  C   UNL A   1      46.626  30.836  27.953  1.00  0.00     0.029 A 
ATOM     50  N   UNL A   1      44.527  30.521  28.613  1.00  0.00    -0.354 N 
ATOM     51  N   UNL A   1      41.956  31.321  29.799  1.00  0.00    -0.248 NA
ATOM     52  C   UNL A   1      40.648  32.888  30.937  1.00  0.00     0.031 C 
ATOM     53  C   UNL A   1      46.203  31.976  28.647  1.00  0.00     0.029 A 
ATOM     54  C   UNL A   1      44.882  31.796  29.027  1.00  0.00     0.049 A 
ATOM     55  H   UNL A   1      43.646  30.107  28.755  1.00  0.00     0.167 HD
ATOM     56  C   UNL A   1      42.713  32.467  30.030  1.00  0.00     0.074 A 
ATOM     57  C   UNL A   1      41.845  33.409  30.703  1.00  0.00     0.031 C 
ATOM     58  C   UNL A   1      44.009  32.722  29.708  1.00  0.00     0.034 A 
BRANCH  45  59
ATOM     59  C   UNL A   1      46.851  28.016  26.827  1.00  0.00     0.023 A 
ATOM     60  C   UNL A   1      47.105  28.118  25.448  1.00  0.00     0.031 A 
ATOM     61  C   UNL A   1      47.803  27.354  27.624  1.00  0.00     0.131 A 
ATOM     62  C   UNL A   1      48.244  27.509  24.899  1.00  0.00     0.055 A 
ATOM     63  C   UNL A   1      48.973  26.818  27.082  1.00  0.00     0.041 A 
ATOM     64  F   UNL A   1      47.604  27.207  28.944  1.00  0.00    -0.206 F 
ATOM     65  C   UNL A   1      49.192  26.882  25.710  1.00  0.00     0.022 A 
BRANCH  62  66
ATOM     66  S   UNL A   1      48.401  27.430  23.093  1.00  0.00     0.124 S 
ATOM     67  O   UNL A   1      47.228  28.186  22.661  1.00  0.00    -0.237 OA
ATOM     68  O   UNL A   1      49.693  28.065  22.860  1.00  0.00    -0.237 OA
ATOM     69  O   UNL A   1      48.350  25.998  22.807  1.00  0.00    -0.744 OA
ENDBRANCH  62  66
ENDBRANCH  45  59
BRANCH  46  70
ATOM     70  C   UNL A   1      38.289  31.149  30.987  1.00  0.00     0.023 A 
ATOM     71  C   UNL A   1      37.250  31.767  30.273  1.00  0.00     0.031 A 
ATOM     72  C   UNL A   1      38.145  31.020  32.381  1.00  0.00     0.131 A 
ATOM     73  C   UNL A   1      36.136  32.277  30.961  1.00  0.00     0.055 A 
ATOM     74  C   UNL A   1      37.010  31.480  33.052  1.00  0.00     0.041 A 
ATOM     75  F   UNL A   1      39.108  30.438  33.113  1.00  0.00    -0.206 F 
ATOM     76  C   UNL A   1      36.003  32.126  32.343  1.00  0.00     0.022 A 
BRANCH  73  77
ATOM     77  S   UNL A   1      34.900  33.225  30.030  1.00  0.00     0.124 S 
ATOM     78  O   UNL A   1      34.325  32.199  29.168  1.00  0.00    -0.237 OA
ATOM     79  O   UNL A   1      34.038  33.726  31.096  1.00  0.00    -0.237 OA
ATOM     80  O   UNL A   1      35.696  34.242  29.346  1.00  0.00    -0.744 OA
ENDBRANCH  73  77
ENDBRANCH  46  70
BRANCH  58  81
ATOM     81  C   UNL A   1      44.543  34.094  30.042  1.00  0.00     0.023 A 
ATOM     82  C   UNL A   1      44.445  35.170  29.141  1.00  0.00     0.031 A 
ATOM     83  C   UNL A   1      45.167  34.325  31.281  1.00  0.00     0.131 A 
ATOM     84  C   UNL A   1      45.011  36.411  29.471  1.00  0.00     0.055 A 
ATOM     85  C   UNL A   1      45.675  35.578  31.628  1.00  0.00     0.041 A 
ATOM     86  F   UNL A   1      45.290  33.334  32.180  1.00  0.00    -0.206 F 
ATOM     87  C   UNL A   1      45.610  36.627  30.714  1.00  0.00     0.022 A 
BRANCH  84  88
ATOM     88  S   UNL A   1      45.033  37.721  28.216  1.00  0.00     0.124 S 
ATOM     89  O   UNL A   1      46.163  37.322  27.382  1.00  0.00    -0.237 OA
ATOM     90  O   UNL A   1      43.714  37.593  27.607  1.00  0.00    -0.237 OA
ATOM     91  O   UNL A   1      45.239  38.940  28.996  1.00  0.00    -0.744 OA
ENDBRANCH  84  88
ENDBRANCH  58  81
ENDBRANCH  32  33
ENDBRANCH  25  27
ENDBRANCH  24  25
ENDBRANCH  23  24
ENDBRANCH   1  23
TORSDOF 18
ENDMDL
MODEL 2
REMARK VINA RESULT:     -11.5      5.265     12.300
REMARK SMILES CC1(C)CCN(C(=O)N2CCC(C(=O)OCCOCCOC(=O)c3ccc(-c4c5nc(c(-c6cc(S(=O)(=O)[O-])ccc6F)c6ccc([nH]6)c(-c6cc(S(=O)(=O)[O-])ccc6F)c6nc(c(-c7cc(S(=O)(=O)[O-])ccc7F)c7ccc4[nH]7)C=C6)C=C5)cc3)CC2)C1
REMARK SMILES IDX 19 1 18 2 17 3 16 4 15 5 13 6 14 7 12 8 7 9 8 10 9 11 10 12
REMARK SMILES IDX 88 13 11 14 87 15 6 16 1 17 2 18 3 19 4 20 89 21 5 22 20 23
REMARK SMILES IDX 21 24 22 25 23 26 24 27 25 28 86 29 26 30 85 31 27 32 28 33
REMARK SMILES IDX 29 34 79 35 30 36 84 37 78 38 80 39 31 40 83 41 77 42 76 43
REMARK SMILES IDX 32 45 64 46 44 47 63 48 45 49 48 50 62 51 81 52 46 53 47 54
REMARK SMILES IDX 61 56 82 57 49 58 33 59 34 60 42 61 35 62 41 63 43 64 40 65
REMARK SMILES IDX 36 66 37 67 38 68 39 69 65 70 66 71 74 72 67 73 73 74 75 75
REMARK SMILES IDX 72 76 68 77 69 78 70 79 71 80 50 81 51 82 59 83 52 84 58 85
REMARK SMILES IDX 60 86 57 87 53 88 54 89 55 90 56 91
REMARK H PARENT 80 44 48 55
REMARK Flexibility Score: inf
ROOT
ATOM      1  C   UNL A   1      33.169  34.936  28.998  1.00  0.00     0.202 C 
ENDROOT
BRANCH   1   2
ATOM      2  O   UNL A   1      33.265  34.622  30.386  1.00  0.00    -0.374 OA
BRANCH   2   3
ATOM      3  C   UNL A   1      33.481  35.700  31.296  1.00  0.00     0.202 C 
BRANCH   3   4
ATOM      4  C   UNL A   1      34.397  35.417  32.488  1.00  0.00     0.261 C 
BRANCH   4   5
ATOM      5  O   UNL A   1      35.509  34.589  32.112  1.00  0.00    -0.463 OA
BRANCH   5   6
ATOM      6  C   UNL A   1      36.561  34.601  32.966  1.00  0.00     0.309 C 
ATOM      7  O   UNL A   1      36.509  34.891  34.156  1.00  0.00    -0.252 OA
BRANCH   6   8
ATOM      8  C   UNL A   1      37.860  34.210  32.303  1.00  0.00     0.103 C 
ATOM      9  C   UNL A   1      41.777  34.465  30.696  1.00  0.00     0.320 C 
ATOM     10  O   UNL A   1      41.990  35.222  29.753  1.00  0.00    -0.248 OA
ATOM     11  N   UNL A   1      40.513  34.287  31.232  1.00  0.00    -0.325 N 
ATOM     12  C   UNL A   1      39.393  34.129  30.315  1.00  0.00     0.122 C 
ATOM     13  C   UNL A   1      40.299  34.064  32.658  1.00  0.00     0.122 C 
ATOM     14  C   UNL A   1      38.069  34.662  30.855  1.00  0.00     0.037 C 
ATOM     15  C   UNL A   1      39.021  34.714  33.152  1.00  0.00     0.037 C 
BRANCH   9  16
ATOM     16  N   UNL A   1      42.767  33.667  31.231  1.00  0.00    -0.324 N 
ATOM     17  C   UNL A   1      44.707  32.175  29.325  1.00  0.00     0.013 C 
ATOM     18  C   UNL A   1      44.321  31.935  30.795  1.00  0.00    -0.016 C 
ATOM     19  C   UNL A   1      44.669  30.500  31.185  1.00  0.00     0.013 C 
ATOM     20  C   UNL A   1      44.968  32.979  31.721  1.00  0.00     0.030 C 
ATOM     21  C   UNL A   1      42.833  32.226  31.024  1.00  0.00     0.127 C 
ATOM     22  C   UNL A   1      44.077  34.207  31.548  1.00  0.00     0.122 C 
ENDBRANCH   9  16
ENDBRANCH   6   8
ENDBRANCH   5   6
ENDBRANCH   4   5
ENDBRANCH   3   4
ENDBRANCH   2   3
ENDBRANCH   1   2
BRANCH   1  23
ATOM     23  C   UNL A   1      33.190  33.765  28.006  1.00  0.00     0.261 C 
BRANCH  23  24
ATOM     24  O   UNL A   1      34.443  33.057  28.005  1.00  0.00    -0.460 OA
BRANCH  24  25
ATOM     25  C   UNL A   1      34.337  31.726  27.766  1.00  0.00     0.338 C 
ATOM     26  O   UNL A   1      33.380  31.149  27.263  1.00  0.00    -0.246 OA
BRANCH  25  27
ATOM     27  C   UNL A   1      35.621  31.048  28.016  1.00  0.00     0.060 A 
ATOM     28  C   UNL A   1      35.577  29.688  28.350  1.00  0.00     0.016 A 
ATOM     29  C   UNL A   1      36.836  31.736  28.014  1.00  0.00     0.016 A 
ATOM     30  C   UNL A   1      36.739  29.023  28.735  1.00  0.00     0.010 A 
ATOM     31  C   UNL A   1      38.002  31.068  28.411  1.00  0.00     0.010 A 
ATOM     32  C   UNL A   1      37.952  29.719  28.809  1.00  0.00    -0.014 A 
BRANCH  32  33
ATOM     33  C   UNL A   1      39.122  29.071  29.454  1.00  0.00     0.031 A 
ATOM     34  C   UNL A   1      39.576  29.564  30.802  1.00  0.00     0.074 A 
ATOM     35  C   UNL A   1      39.739  28.026  28.874  1.00  0.00     0.049 A 
ATOM     36  N   UNL A   1      40.581  29.169  31.539  1.00  0.00    -0.248 NA
ATOM     37  C   UNL A   1      38.785  30.653  31.397  1.00  0.00     0.031 C 
ATOM     38  C   UNL A   1      39.360  27.427  27.596  1.00  0.00     0.029 A 
ATOM     39  N   UNL A   1      40.819  27.285  29.285  1.00  0.00    -0.354 N 
ATOM     40  C   UNL A   1      40.545  29.956  32.686  1.00  0.00     0.074 A 
ATOM     41  C   UNL A   1      39.442  30.880  32.524  1.00  0.00     0.031 C 
ATOM     42  C   UNL A   1      40.203  26.417  27.320  1.00  0.00     0.029 A 
ATOM     43  C   UNL A   1      41.204  26.321  28.381  1.00  0.00     0.049 A 
ATOM     44  H   UNL A   1      41.276  27.429  30.144  1.00  0.00     0.167 HD
ATOM     45  C   UNL A   1      41.350  29.906  33.775  1.00  0.00     0.034 A 
ATOM     46  C   UNL A   1      42.258  25.479  28.396  1.00  0.00     0.034 A 
ATOM     47  C   UNL A   1      42.457  28.990  33.914  1.00  0.00     0.049 A 
ATOM     48  C   UNL A   1      43.198  25.504  29.579  1.00  0.00     0.074 A 
ATOM     49  C   UNL A   1      43.337  28.855  34.975  1.00  0.00     0.029 A 
ATOM     50  N   UNL A   1      42.845  28.060  32.958  1.00  0.00    -0.354 N 
ATOM     51  N   UNL A   1      43.152  26.253  30.656  1.00  0.00    -0.248 NA
ATOM     52  C   UNL A   1      44.325  24.562  29.549  1.00  0.00     0.031 C 
ATOM     53  C   UNL A   1      44.295  27.895  34.630  1.00  0.00     0.029 A 
ATOM     54  C   UNL A   1      43.968  27.371  33.389  1.00  0.00     0.049 A 
ATOM     55  H   UNL A   1      42.389  27.912  32.099  1.00  0.00     0.167 HD
ATOM     56  C   UNL A   1      44.228  25.851  31.444  1.00  0.00     0.074 A 
ATOM     57  C   UNL A   1      44.893  24.784  30.726  1.00  0.00     0.031 C 
ATOM     58  C   UNL A   1      44.628  26.316  32.657  1.00  0.00     0.034 A 
BRANCH  45  59
ATOM     59  C   UNL A   1      41.088  30.907  34.876  1.00  0.00     0.023 A 
ATOM     60  C   UNL A   1      39.938  30.838  35.681  1.00  0.00     0.031 A 
ATOM     61  C   UNL A   1      41.989  31.962  35.105  1.00  0.00     0.131 A 
ATOM     62  C   UNL A   1      39.685  31.842  36.628  1.00  0.00     0.055 A 
ATOM     63  C   UNL A   1      41.770  32.915  36.101  1.00  0.00     0.041 A 
ATOM     64  F   UNL A   1      43.094  32.092  34.352  1.00  0.00    -0.206 F 
ATOM     65  C   UNL A   1      40.606  32.866  36.861  1.00  0.00     0.022 A 
BRANCH  62  66
ATOM     66  S   UNL A   1      38.071  31.869  37.457  1.00  0.00     0.124 S 
ATOM     67  O   UNL A   1      38.440  32.286  38.808  1.00  0.00    -0.237 OA
ATOM     68  O   UNL A   1      37.327  32.844  36.668  1.00  0.00    -0.237 OA
ATOM     69  O   UNL A   1      37.605  30.488  37.344  1.00  0.00    -0.744 OA
ENDBRANCH  62  66
ENDBRANCH  45  59
BRANCH  46  70
ATOM     70  C   UNL A   1      42.520  24.577  27.238  1.00  0.00     0.023 A 
ATOM     71  C   UNL A   1      42.046  23.256  27.218  1.00  0.00     0.031 A 
ATOM     72  C   UNL A   1      43.305  25.013  26.154  1.00  0.00     0.131 A 
ATOM     73  C   UNL A   1      42.402  22.402  26.160  1.00  0.00     0.055 A 
ATOM     74  C   UNL A   1      43.609  24.176  25.079  1.00  0.00     0.041 A 
ATOM     75  F   UNL A   1      43.785  26.266  26.124  1.00  0.00    -0.206 F 
ATOM     76  C   UNL A   1      43.168  22.857  25.085  1.00  0.00     0.022 A 
BRANCH  73  77
ATOM     77  S   UNL A   1      41.920  20.655  26.255  1.00  0.00     0.124 S 
ATOM     78  O   UNL A   1      40.501  20.719  25.926  1.00  0.00    -0.237 OA
ATOM     79  O   UNL A   1      42.787  20.049  25.250  1.00  0.00    -0.237 OA
ATOM     80  O   UNL A   1      42.226  20.293  27.637  1.00  0.00    -0.744 OA
ENDBRANCH  73  77
ENDBRANCH  46  70
BRANCH  58  81
ATOM     81  C   UNL A   1      45.813  25.634  33.298  1.00  0.00     0.023 A 
ATOM     82  C   UNL A   1      45.659  24.560  34.193  1.00  0.00     0.031 A 
ATOM     83  C   UNL A   1      47.118  26.074  33.013  1.00  0.00     0.131 A 
ATOM     84  C   UNL A   1      46.786  23.998  34.811  1.00  0.00     0.055 A 
ATOM     85  C   UNL A   1      48.240  25.472  33.586  1.00  0.00     0.041 A 
ATOM     86  F   UNL A   1      47.325  27.096  32.167  1.00  0.00    -0.206 F 
ATOM     87  C   UNL A   1      48.076  24.436  34.501  1.00  0.00     0.022 A 
BRANCH  84  88
ATOM     88  S   UNL A   1      46.542  22.743  36.099  1.00  0.00     0.124 S 
ATOM     89  O   UNL A   1      45.143  22.375  35.901  1.00  0.00    -0.237 OA
ATOM     90  O   UNL A   1      47.525  21.728  35.737  1.00  0.00    -0.237 OA
ATOM     91  O   UNL A   1      46.823  23.464  37.339  1.00  0.00    -0.744 OA
ENDBRANCH  84  88
ENDBRANCH  58  81
ENDBRANCH  32  33
ENDBRANCH  25  27
ENDBRANCH  24  25
ENDBRANCH  23  24
ENDBRANCH   1  23
TORSDOF 18
ENDMDL
MODEL 3
REMARK VINA RESULT:     -11.3      2.209      8.014
REMARK SMILES CC1(C)CCN(C(=O)N2CCC(C(=O)OCCOCCOC(=O)c3ccc(-c4c5nc(c(-c6cc(S(=O)(=O)[O-])ccc6F)c6ccc([nH]6)c(-c6cc(S(=O)(=O)[O-])ccc6F)c6nc(c(-c7cc(S(=O)(=O)[O-])ccc7F)c7ccc4[nH]7)C=C6)C=C5)cc3)CC2)C1
REMARK SMILES IDX 19 1 18 2 17 3 16 4 15 5 13 6 14 7 12 8 7 9 8 10 9 11 10 12
REMARK SMILES IDX 88 13 11 14 87 15 6 16 1 17 2 18 3 19 4 20 89 21 5 22 20 23
REMARK SMILES IDX 21 24 22 25 23 26 24 27 25 28 86 29 26 30 85 31 27 32 28 33
REMARK SMILES IDX 29 34 79 35 30 36 84 37 78 38 80 39 31 40 83 41 77 42 76 43
REMARK SMILES IDX 32 45 64 46 44 47 63 48 45 49 48 50 62 51 81 52 46 53 47 54
REMARK SMILES IDX 61 56 82 57 49 58 33 59 34 60 42 61 35 62 41 63 43 64 40 65
REMARK SMILES IDX 36 66 37 67 38 68 39 69 65 70 66 71 74 72 67 73 73 74 75 75
REMARK SMILES IDX 72 76 68 77 69 78 70 79 71 80 50 81 51 82 59 83 52 84 58 85
REMARK SMILES IDX 60 86 57 87 53 88 54 89 55 90 56 91
REMARK H PARENT 80 44 48 55
REMARK Flexibility Score: inf
ROOT
ATOM      1  C   UNL A   1      38.013  21.268  25.405  1.00  0.00     0.202 C 
ENDROOT
BRANCH   1   2
ATOM      2  O   UNL A   1      36.973  22.225  25.595  1.00  0.00    -0.374 OA
BRANCH   2   3
ATOM      3  C   UNL A   1      35.658  21.734  25.854  1.00  0.00     0.202 C 
BRANCH   3   4
ATOM      4  C   UNL A   1      34.720  22.660  26.630  1.00  0.00     0.261 C 
BRANCH   4   5
ATOM      5  O   UNL A   1      33.551  22.988  25.863  1.00  0.00    -0.463 OA
BRANCH   5   6
ATOM      6  C   UNL A   1      32.596  23.685  26.524  1.00  0.00     0.309 C 
ATOM      7  O   UNL A   1      32.100  23.370  27.600  1.00  0.00    -0.252 OA
BRANCH   6   8
ATOM      8  C   UNL A   1      32.173  24.937  25.794  1.00  0.00     0.103 C 
ATOM      9  C   UNL A   1      30.407  27.490  22.903  1.00  0.00     0.320 C 
ATOM     10  O   UNL A   1      30.775  27.416  21.734  1.00  0.00    -0.248 OA
ATOM     11  N   UNL A   1      30.979  26.730  23.908  1.00  0.00    -0.325 N 
ATOM     12  C   UNL A   1      32.431  26.612  23.940  1.00  0.00     0.122 C 
ATOM     13  C   UNL A   1      30.201  26.214  25.030  1.00  0.00     0.122 C 
ATOM     14  C   UNL A   1      32.933  25.290  24.513  1.00  0.00     0.037 C 
ATOM     15  C   UNL A   1      30.684  24.847  25.478  1.00  0.00     0.037 C 
BRANCH   9  16
ATOM     16  N   UNL A   1      29.457  28.401  23.315  1.00  0.00    -0.324 N 
ATOM     17  C   UNL A   1      28.548  30.631  21.359  1.00  0.00     0.013 C 
ATOM     18  C   UNL A   1      28.469  30.511  22.891  1.00  0.00    -0.016 C 
ATOM     19  C   UNL A   1      28.276  31.898  23.502  1.00  0.00     0.013 C 
ATOM     20  C   UNL A   1      27.378  29.514  23.318  1.00  0.00     0.030 C 
ATOM     21  C   UNL A   1      29.722  29.828  23.451  1.00  0.00     0.127 C 
ATOM     22  C   UNL A   1      28.041  28.153  23.111  1.00  0.00     0.122 C 
ENDBRANCH   9  16
ENDBRANCH   6   8
ENDBRANCH   5   6
ENDBRANCH   4   5
ENDBRANCH   3   4
ENDBRANCH   2   3
ENDBRANCH   1   2
BRANCH   1  23
ATOM     23  C   UNL A   1      39.352  21.532  26.105  1.00  0.00     0.261 C 
BRANCH  23  24
ATOM     24  O   UNL A   1      39.924  20.343  26.682  1.00  0.00    -0.460 OA
BRANCH  24  25
ATOM     25  C   UNL A   1      41.200  20.089  26.295  1.00  0.00     0.338 C 
ATOM     26  O   UNL A   1      41.603  19.080  25.729  1.00  0.00    -0.246 OA
BRANCH  25  27
ATOM     27  C   UNL A   1      42.044  21.285  26.466  1.00  0.00     0.060 A 
ATOM     28  C   UNL A   1      42.353  21.672  27.776  1.00  0.00     0.016 A 
ATOM     29  C   UNL A   1      42.453  22.066  25.383  1.00  0.00     0.016 A 
ATOM     30  C   UNL A   1      43.026  22.869  28.013  1.00  0.00     0.010 A 
ATOM     31  C   UNL A   1      43.121  23.273  25.623  1.00  0.00     0.010 A 
ATOM     32  C   UNL A   1      43.377  23.698  26.941  1.00  0.00    -0.014 A 
BRANCH  32  33
ATOM     33  C   UNL A   1      43.865  25.074  27.217  1.00  0.00     0.031 A 
ATOM     34  C   UNL A   1      42.895  26.097  27.745  1.00  0.00     0.074 A 
ATOM     35  C   UNL A   1      45.160  25.394  27.050  1.00  0.00     0.049 A 
ATOM     36  N   UNL A   1      43.089  27.358  28.033  1.00  0.00    -0.248 NA
ATOM     37  C   UNL A   1      41.519  25.631  27.978  1.00  0.00     0.031 C 
ATOM     38  C   UNL A   1      46.203  24.475  26.594  1.00  0.00     0.029 A 
ATOM     39  N   UNL A   1      45.821  26.581  27.243  1.00  0.00    -0.354 N 
ATOM     40  C   UNL A   1      41.863  27.838  28.483  1.00  0.00     0.074 A 
ATOM     41  C   UNL A   1      40.924  26.741  28.389  1.00  0.00     0.031 C 
ATOM     42  C   UNL A   1      47.370  25.139  26.530  1.00  0.00     0.029 A 
ATOM     43  C   UNL A   1      47.153  26.534  26.903  1.00  0.00     0.049 A 
ATOM     44  H   UNL A   1      45.382  27.391  27.592  1.00  0.00     0.167 HD
ATOM     45  C   UNL A   1      41.554  29.076  28.943  1.00  0.00     0.034 A 
ATOM     46  C   UNL A   1      48.081  27.513  26.871  1.00  0.00     0.034 A 
ATOM     47  C   UNL A   1      42.497  30.165  29.015  1.00  0.00     0.049 A 
ATOM     48  C   UNL A   1      47.691  28.908  27.298  1.00  0.00     0.074 A 
ATOM     49  C   UNL A   1      42.289  31.459  29.462  1.00  0.00     0.029 A 
ATOM     50  N   UNL A   1      43.826  30.093  28.618  1.00  0.00    -0.354 N 
ATOM     51  N   UNL A   1      46.529  29.348  27.723  1.00  0.00    -0.248 NA
ATOM     52  C   UNL A   1      48.742  29.934  27.252  1.00  0.00     0.031 C 
ATOM     53  C   UNL A   1      43.471  32.185  29.271  1.00  0.00     0.029 A 
ATOM     54  C   UNL A   1      44.441  31.326  28.779  1.00  0.00     0.049 A 
ATOM     55  H   UNL A   1      44.268  29.285  28.271  1.00  0.00     0.167 HD
ATOM     56  C   UNL A   1      46.719  30.696  28.020  1.00  0.00     0.074 A 
ATOM     57  C   UNL A   1      48.109  30.990  27.742  1.00  0.00     0.031 C 
ATOM     58  C   UNL A   1      45.827  31.608  28.488  1.00  0.00     0.034 A 
BRANCH  45  59
ATOM     59  C   UNL A   1      40.121  29.323  29.353  1.00  0.00     0.023 A 
ATOM     60  C   UNL A   1      39.732  29.355  30.702  1.00  0.00     0.031 A 
ATOM     61  C   UNL A   1      39.124  29.501  28.376  1.00  0.00     0.131 A 
ATOM     62  C   UNL A   1      38.376  29.492  31.038  1.00  0.00     0.055 A 
ATOM     63  C   UNL A   1      37.788  29.714  28.718  1.00  0.00     0.041 A 
ATOM     64  F   UNL A   1      39.432  29.458  27.070  1.00  0.00    -0.206 F 
ATOM     65  C   UNL A   1      37.405  29.697  30.056  1.00  0.00     0.022 A 
BRANCH  62  66
ATOM     66  S   UNL A   1      37.881  29.261  32.768  1.00  0.00     0.124 S 
ATOM     67  O   UNL A   1      36.619  29.997  32.814  1.00  0.00    -0.237 OA
ATOM     68  O   UNL A   1      37.779  27.810  32.877  1.00  0.00    -0.237 OA
ATOM     69  O   UNL A   1      38.975  29.869  33.522  1.00  0.00    -0.744 OA
ENDBRANCH  62  66
ENDBRANCH  45  59
BRANCH  46  70
ATOM     70  C   UNL A   1      49.457  27.231  26.368  1.00  0.00     0.023 A 
ATOM     71  C   UNL A   1      49.846  27.580  25.065  1.00  0.00     0.031 A 
ATOM     72  C   UNL A   1      50.388  26.550  27.174  1.00  0.00     0.131 A 
ATOM     73  C   UNL A   1      51.114  27.205  24.590  1.00  0.00     0.055 A 
ATOM     74  C   UNL A   1      51.667  26.228  26.715  1.00  0.00     0.041 A 
ATOM     75  F   UNL A   1      50.067  26.190  28.427  1.00  0.00    -0.206 F 
ATOM     76  C   UNL A   1      52.031  26.544  25.410  1.00  0.00     0.022 A 
BRANCH  73  77
ATOM     77  S   UNL A   1      51.516  27.516  22.849  1.00  0.00     0.124 S 
ATOM     78  O   UNL A   1      52.268  28.763  22.934  1.00  0.00    -0.237 OA
ATOM     79  O   UNL A   1      52.282  26.326  22.498  1.00  0.00    -0.237 OA
ATOM     80  O   UNL A   1      50.205  27.620  22.211  1.00  0.00    -0.744 OA
ENDBRANCH  73  77
ENDBRANCH  46  70
BRANCH  58  81
ATOM     81  C   UNL A   1      46.348  32.996  28.772  1.00  0.00     0.023 A 
ATOM     82  C   UNL A   1      46.255  34.034  27.827  1.00  0.00     0.031 A 
ATOM     83  C   UNL A   1      46.956  33.282  30.008  1.00  0.00     0.131 A 
ATOM     84  C   UNL A   1      46.809  35.291  28.112  1.00  0.00     0.055 A 
ATOM     85  C   UNL A   1      47.452  34.552  30.309  1.00  0.00     0.041 A 
ATOM     86  F   UNL A   1      47.073  32.330  30.948  1.00  0.00    -0.206 F 
ATOM     87  C   UNL A   1      47.392  35.562  29.353  1.00  0.00     0.022 A 
BRANCH  84  88
ATOM     88  S   UNL A   1      46.839  36.549  26.805  1.00  0.00     0.124 S 
ATOM     89  O   UNL A   1      47.159  35.751  25.625  1.00  0.00    -0.237 OA
ATOM     90  O   UNL A   1      45.485  37.090  26.860  1.00  0.00    -0.237 OA
ATOM     91  O   UNL A   1      47.890  37.467  27.236  1.00  0.00    -0.744 OA
ENDBRANCH  84  88
ENDBRANCH  58  81
ENDBRANCH  32  33
ENDBRANCH  25  27
ENDBRANCH  24  25
ENDBRANCH  23  24
ENDBRANCH   1  23
TORSDOF 18
ENDMDL
