MODEL 1
REMARK VINA RESULT:     -11.5      0.000      0.000
REMARK SMILES Cc1ccc(S(=O)(=O)N2CCN(C(=O)[C@H]3CCCC[C@@H]3C(=O)OCCOCCOC(=O)c3ccc(-c4c5nc(c(-c6cc(S(=O)(=O)[O-])ccc6F)c6ccc([nH]6)c(-c6cc(S(=O)(=O)[O-])ccc6F)c6nc(c(-c7cc(S(=O)(=O)[O-])ccc7F)c7ccc4[nH]7)C=C6)C=C5)cc3)CC2)cc1C
REMARK SMILES IDX 26 1 25 2 24 3 23 4 21 5 22 6 20 7 15 8 16 9 17 10 19 11
REMARK SMILES IDX 18 12 13 13 9 14 10 15 96 16 11 17 95 18 12 19 14 20 6 21
REMARK SMILES IDX 7 22 8 23 5 24 1 25 2 26 3 27 98 28 4 29 97 30 99 31 27 32
REMARK SMILES IDX 28 33 29 34 30 35 31 36 32 37 33 38 94 39 34 40 93 41 35 42
REMARK SMILES IDX 36 43 37 44 87 45 38 46 92 47 86 48 88 49 39 50 91 51 85 52
REMARK SMILES IDX 84 53 40 55 72 56 52 57 71 58 53 59 56 60 70 61 89 62 54 63
REMARK SMILES IDX 55 64 69 66 90 67 57 68 41 69 42 70 50 71 43 72 49 73 51 74
REMARK SMILES IDX 48 75 44 76 45 77 46 78 47 79 73 80 74 81 82 82 75 83 81 84
REMARK SMILES IDX 83 85 80 86 76 87 77 88 78 89 79 90 58 91 59 92 67 93 60 94
REMARK SMILES IDX 66 95 68 96 65 97 61 98 62 99 63 100 64 101
REMARK H PARENT 88 54 56 65
REMARK Flexibility Score: inf
ROOT
ATOM      1  O   UNL A   1      33.253  30.303  27.647  1.00  0.00    -0.374 OA
ENDROOT
BRANCH   1   2
ATOM      2  C   UNL A   1      34.026  29.184  27.227  1.00  0.00     0.202 C 
BRANCH   2   3
ATOM      3  C   UNL A   1      33.326  27.855  26.925  1.00  0.00     0.261 C 
BRANCH   3   4
ATOM      4  O   UNL A   1      31.904  27.973  26.866  1.00  0.00    -0.463 OA
BRANCH   4   5
ATOM      5  C   UNL A   1      31.439  28.219  25.614  1.00  0.00     0.309 C 
ATOM      6  O   UNL A   1      31.302  29.336  25.130  1.00  0.00    -0.252 OA
BRANCH   5   7
ATOM      7  C   UNL A   1      31.223  26.928  24.842  1.00  0.00     0.111 C 
ATOM      8  C   UNL A   1      32.296  26.853  23.735  1.00  0.00     0.093 C 
ATOM      9  C   UNL A   1      31.987  27.871  22.615  1.00  0.00     0.014 C 
ATOM     10  C   UNL A   1      30.563  27.778  22.090  1.00  0.00     0.001 C 
ATOM     11  C   UNL A   1      29.799  26.813  24.287  1.00  0.00     0.016 C 
ATOM     12  C   UNL A   1      29.526  27.843  23.201  1.00  0.00     0.001 C 
BRANCH   8  13
ATOM     13  C   UNL A   1      32.434  25.426  23.213  1.00  0.00     0.226 C 
ATOM     14  N   UNL A   1      35.632  23.075  24.671  1.00  0.00    -0.194 NA
ATOM     15  C   UNL A   1      35.229  23.066  23.252  1.00  0.00     0.124 C 
ATOM     16  C   UNL A   1      35.304  24.314  25.411  1.00  0.00     0.124 C 
ATOM     17  C   UNL A   1      33.741  23.378  23.116  1.00  0.00     0.136 C 
ATOM     18  C   UNL A   1      33.850  24.767  25.198  1.00  0.00     0.136 C 
ATOM     19  N   UNL A   1      33.386  24.620  23.808  1.00  0.00    -0.340 N 
ATOM     20  O   UNL A   1      31.734  25.003  22.292  1.00  0.00    -0.275 OA
BRANCH  14  21
ATOM     21  S   UNL A   1      36.169  21.682  25.431  1.00  0.00     0.243 S 
ATOM     22  O   UNL A   1      36.186  20.611  24.455  1.00  0.00    -0.207 OA
ATOM     23  O   UNL A   1      35.428  21.559  26.667  1.00  0.00    -0.207 OA
BRANCH  21  24
ATOM     24  C   UNL A   1      37.865  21.971  25.887  1.00  0.00     0.082 A 
ATOM     25  C   UNL A   1      41.979  22.675  26.990  1.00  0.00     0.044 C 
ATOM     26  C   UNL A   1      40.556  22.381  26.609  1.00  0.00    -0.048 A 
ATOM     27  C   UNL A   1      39.647  23.442  26.596  1.00  0.00     0.005 A 
ATOM     28  C   UNL A   1      40.109  21.095  26.245  1.00  0.00    -0.047 A 
ATOM     29  C   UNL A   1      38.325  23.234  26.222  1.00  0.00     0.022 A 
ATOM     30  C   UNL A   1      38.754  20.896  25.905  1.00  0.00     0.025 A 
ATOM     31  C   UNL A   1      41.024  19.904  26.187  1.00  0.00     0.044 C 
ENDBRANCH  21  24
ENDBRANCH  14  21
ENDBRANCH   8  13
ENDBRANCH   5   7
ENDBRANCH   4   5
ENDBRANCH   3   4
ENDBRANCH   2   3
ENDBRANCH   1   2
BRANCH   1  32
ATOM     32  C   UNL A   1      33.827  31.608  27.594  1.00  0.00     0.202 C 
BRANCH  32  33
ATOM     33  C   UNL A   1      32.921  32.845  27.536  1.00  0.00     0.261 C 
BRANCH  33  34
ATOM     34  O   UNL A   1      33.642  34.087  27.536  1.00  0.00    -0.460 OA
BRANCH  34  35
ATOM     35  C   UNL A   1      33.475  34.814  28.670  1.00  0.00     0.338 C 
ATOM     36  O   UNL A   1      32.533  35.541  28.939  1.00  0.00    -0.246 OA
BRANCH  35  37
ATOM     37  C   UNL A   1      34.492  34.442  29.669  1.00  0.00     0.060 A 
ATOM     38  C   UNL A   1      35.829  34.484  29.258  1.00  0.00     0.016 A 
ATOM     39  C   UNL A   1      34.150  33.978  30.940  1.00  0.00     0.016 A 
ATOM     40  C   UNL A   1      36.828  34.002  30.094  1.00  0.00     0.010 A 
ATOM     41  C   UNL A   1      35.158  33.486  31.778  1.00  0.00     0.010 A 
ATOM     42  C   UNL A   1      36.494  33.456  31.340  1.00  0.00    -0.014 A 
BRANCH  42  43
ATOM     43  C   UNL A   1      37.547  32.728  32.090  1.00  0.00     0.031 A 
ATOM     44  C   UNL A   1      38.307  31.626  31.401  1.00  0.00     0.074 A 
ATOM     45  C   UNL A   1      37.890  33.124  33.328  1.00  0.00     0.049 A 
ATOM     46  N   UNL A   1      39.323  30.924  31.833  1.00  0.00    -0.248 NA
ATOM     47  C   UNL A   1      37.863  31.271  30.045  1.00  0.00     0.031 C 
ATOM     48  C   UNL A   1      37.246  34.208  34.072  1.00  0.00     0.029 A 
ATOM     49  N   UNL A   1      38.873  32.676  34.171  1.00  0.00    -0.354 N 
ATOM     50  C   UNL A   1      39.642  30.046  30.802  1.00  0.00     0.074 A 
ATOM     51  C   UNL A   1      38.681  30.273  29.745  1.00  0.00     0.031 C 
ATOM     52  C   UNL A   1      37.865  34.351  35.254  1.00  0.00     0.029 A 
ATOM     53  C   UNL A   1      38.922  33.349  35.370  1.00  0.00     0.049 A 
ATOM     54  H   UNL A   1      39.488  31.942  33.940  1.00  0.00     0.167 HD
ATOM     55  C   UNL A   1      40.654  29.145  30.741  1.00  0.00     0.034 A 
ATOM     56  C   UNL A   1      39.722  33.169  36.439  1.00  0.00     0.034 A 
ATOM     57  C   UNL A   1      41.596  28.925  31.813  1.00  0.00     0.049 A 
ATOM     58  C   UNL A   1      40.797  32.112  36.373  1.00  0.00     0.074 A 
ATOM     59  C   UNL A   1      42.663  28.044  31.858  1.00  0.00     0.029 A 
ATOM     60  N   UNL A   1      41.578  29.583  33.038  1.00  0.00    -0.354 N 
ATOM     61  N   UNL A   1      41.099  31.297  35.387  1.00  0.00    -0.248 NA
ATOM     62  C   UNL A   1      41.653  31.967  37.556  1.00  0.00     0.031 C 
ATOM     63  C   UNL A   1      43.235  28.109  33.132  1.00  0.00     0.029 A 
ATOM     64  C   UNL A   1      42.593  29.102  33.854  1.00  0.00     0.049 A 
ATOM     65  H   UNL A   1      40.940  30.288  33.290  1.00  0.00     0.167 HD
ATOM     66  C   UNL A   1      42.204  30.569  35.821  1.00  0.00     0.074 A 
ATOM     67  C   UNL A   1      42.524  31.059  37.146  1.00  0.00     0.031 C 
ATOM     68  C   UNL A   1      42.895  29.588  35.182  1.00  0.00     0.034 A 
BRANCH  55  69
ATOM     69  C   UNL A   1      40.754  28.293  29.495  1.00  0.00     0.023 A 
ATOM     70  C   UNL A   1      41.713  28.542  28.497  1.00  0.00     0.031 A 
ATOM     71  C   UNL A   1      39.859  27.228  29.292  1.00  0.00     0.131 A 
ATOM     72  C   UNL A   1      41.709  27.783  27.315  1.00  0.00     0.055 A 
ATOM     73  C   UNL A   1      39.914  26.423  28.152  1.00  0.00     0.041 A 
ATOM     74  F   UNL A   1      38.903  26.957  30.195  1.00  0.00    -0.206 F 
ATOM     75  C   UNL A   1      40.834  26.707  27.149  1.00  0.00     0.022 A 
BRANCH  72  76
ATOM     76  S   UNL A   1      42.763  28.314  25.936  1.00  0.00     0.124 S 
ATOM     77  O   UNL A   1      44.029  27.662  26.265  1.00  0.00    -0.237 OA
ATOM     78  O   UNL A   1      42.054  27.786  24.776  1.00  0.00    -0.237 OA
ATOM     79  O   UNL A   1      42.771  29.771  26.054  1.00  0.00    -0.744 OA
ENDBRANCH  72  76
ENDBRANCH  55  69
BRANCH  56  80
ATOM     80  C   UNL A   1      39.528  33.987  37.671  1.00  0.00     0.023 A 
ATOM     81  C   UNL A   1      38.844  33.481  38.788  1.00  0.00     0.031 A 
ATOM     82  C   UNL A   1      39.983  35.318  37.728  1.00  0.00     0.131 A 
ATOM     83  C   UNL A   1      38.591  34.312  39.890  1.00  0.00     0.055 A 
ATOM     84  C   UNL A   1      39.783  36.122  38.850  1.00  0.00     0.041 A 
ATOM     85  F   UNL A   1      40.642  35.854  36.687  1.00  0.00    -0.206 F 
ATOM     86  C   UNL A   1      39.070  35.624  39.935  1.00  0.00     0.022 A 
BRANCH  83  87
ATOM     87  S   UNL A   1      37.542  33.685  41.230  1.00  0.00     0.124 S 
ATOM     88  O   UNL A   1      37.368  34.876  42.053  1.00  0.00    -0.237 OA
ATOM     89  O   UNL A   1      36.362  33.229  40.502  1.00  0.00    -0.237 OA
ATOM     90  O   UNL A   1      38.352  32.625  41.827  1.00  0.00    -0.744 OA
ENDBRANCH  83  87
ENDBRANCH  56  80
BRANCH  68  91
ATOM     91  C   UNL A   1      44.101  29.022  35.898  1.00  0.00     0.023 A 
ATOM     92  C   UNL A   1      44.020  27.867  36.696  1.00  0.00     0.031 A 
ATOM     93  C   UNL A   1      45.344  29.678  35.814  1.00  0.00     0.131 A 
ATOM     94  C   UNL A   1      45.132  27.455  37.446  1.00  0.00     0.055 A 
ATOM     95  C   UNL A   1      46.469  29.215  36.499  1.00  0.00     0.041 A 
ATOM     96  F   UNL A   1      45.485  30.786  35.071  1.00  0.00    -0.206 F 
ATOM     97  C   UNL A   1      46.362  28.109  37.338  1.00  0.00     0.022 A 
BRANCH  94  98
ATOM     98  S   UNL A   1      44.911  26.140  38.677  1.00  0.00     0.124 S 
ATOM     99  O   UNL A   1      44.245  26.853  39.763  1.00  0.00    -0.237 OA
ATOM    100  O   UNL A   1      44.092  25.172  37.954  1.00  0.00    -0.237 OA
ATOM    101  O   UNL A   1      46.276  25.707  38.965  1.00  0.00    -0.744 OA
ENDBRANCH  94  98
ENDBRANCH  68  91
ENDBRANCH  42  43
ENDBRANCH  35  37
ENDBRANCH  34  35
ENDBRANCH  33  34
ENDBRANCH  32  33
ENDBRANCH   1  32
TORSDOF 20
ENDMDL
MODEL 2
REMARK VINA RESULT:     -11.0      6.016     10.464
REMARK SMILES Cc1ccc(S(=O)(=O)N2CCN(C(=O)[C@H]3CCCC[C@@H]3C(=O)OCCOCCOC(=O)c3ccc(-c4c5nc(c(-c6cc(S(=O)(=O)[O-])ccc6F)c6ccc([nH]6)c(-c6cc(S(=O)(=O)[O-])ccc6F)c6nc(c(-c7cc(S(=O)(=O)[O-])ccc7F)c7ccc4[nH]7)C=C6)C=C5)cc3)CC2)cc1C
REMARK SMILES IDX 26 1 25 2 24 3 23 4 21 5 22 6 20 7 15 8 16 9 17 10 19 11
REMARK SMILES IDX 18 12 13 13 9 14 10 15 96 16 11 17 95 18 12 19 14 20 6 21
REMARK SMILES IDX 7 22 8 23 5 24 1 25 2 26 3 27 98 28 4 29 97 30 99 31 27 32
REMARK SMILES IDX 28 33 29 34 30 35 31 36 32 37 33 38 94 39 34 40 93 41 35 42
REMARK SMILES IDX 36 43 37 44 87 45 38 46 92 47 86 48 88 49 39 50 91 51 85 52
REMARK SMILES IDX 84 53 40 55 72 56 52 57 71 58 53 59 56 60 70 61 89 62 54 63
REMARK SMILES IDX 55 64 69 66 90 67 57 68 41 69 42 70 50 71 43 72 49 73 51 74
REMARK SMILES IDX 48 75 44 76 45 77 46 78 47 79 73 80 74 81 82 82 75 83 81 84
REMARK SMILES IDX 83 85 80 86 76 87 77 88 78 89 79 90 58 91 59 92 67 93 60 94
REMARK SMILES IDX 66 95 68 96 65 97 61 98 62 99 63 100 64 101
REMARK H PARENT 88 54 56 65
REMARK Flexibility Score: inf
ROOT
ATOM      1  O   UNL A   1      39.487  27.038  28.517  1.00  0.00    -0.374 OA
ENDROOT
BRANCH   1   2
ATOM      2  C   UNL A   1      39.397  27.465  29.872  1.00  0.00     0.202 C 
BRANCH   2   3
ATOM      3  C   UNL A   1      38.141  28.200  30.350  1.00  0.00     0.261 C 
BRANCH   3   4
ATOM      4  O   UNL A   1      38.261  29.621  30.272  1.00  0.00    -0.463 OA
BRANCH   4   5
ATOM      5  C   UNL A   1      37.771  30.138  29.116  1.00  0.00     0.309 C 
ATOM      6  O   UNL A   1      38.392  30.192  28.062  1.00  0.00    -0.252 OA
BRANCH   5   7
ATOM      7  C   UNL A   1      36.311  30.531  29.262  1.00  0.00     0.111 C 
ATOM      8  C   UNL A   1      35.917  31.362  28.023  1.00  0.00     0.093 C 
ATOM      9  C   UNL A   1      36.564  32.764  28.085  1.00  0.00     0.014 C 
ATOM     10  C   UNL A   1      36.320  33.483  29.403  1.00  0.00     0.001 C 
ATOM     11  C   UNL A   1      36.037  31.272  30.576  1.00  0.00     0.016 C 
ATOM     12  C   UNL A   1      36.705  32.639  30.609  1.00  0.00     0.001 C 
BRANCH   8  13
ATOM     13  C   UNL A   1      34.401  31.419  27.870  1.00  0.00     0.226 C 
ATOM     14  N   UNL A   1      32.504  28.331  25.692  1.00  0.00    -0.194 NA
ATOM     15  C   UNL A   1      32.109  29.747  25.559  1.00  0.00     0.124 C 
ATOM     16  C   UNL A   1      33.902  28.104  26.119  1.00  0.00     0.124 C 
ATOM     17  C   UNL A   1      32.390  30.503  26.855  1.00  0.00     0.136 C 
ATOM     18  C   UNL A   1      34.296  28.952  27.340  1.00  0.00     0.136 C 
ATOM     19  N   UNL A   1      33.779  30.330  27.291  1.00  0.00    -0.340 N 
ATOM     20  O   UNL A   1      33.749  32.397  28.238  1.00  0.00    -0.275 OA
BRANCH  14  21
ATOM     21  S   UNL A   1      31.367  27.103  25.623  1.00  0.00     0.243 S 
ATOM     22  O   UNL A   1      30.494  27.356  24.494  1.00  0.00    -0.207 OA
ATOM     23  O   UNL A   1      30.838  26.938  26.959  1.00  0.00    -0.207 OA
BRANCH  21  24
ATOM     24  C   UNL A   1      32.254  25.607  25.244  1.00  0.00     0.082 A 
ATOM     25  C   UNL A   1      34.410  21.980  24.329  1.00  0.00     0.044 C 
ATOM     26  C   UNL A   1      33.644  23.244  24.600  1.00  0.00    -0.048 A 
ATOM     27  C   UNL A   1      33.476  23.637  25.930  1.00  0.00     0.005 A 
ATOM     28  C   UNL A   1      33.114  24.055  23.576  1.00  0.00    -0.047 A 
ATOM     29  C   UNL A   1      32.804  24.814  26.238  1.00  0.00     0.022 A 
ATOM     30  C   UNL A   1      32.401  25.226  23.910  1.00  0.00     0.025 A 
ATOM     31  C   UNL A   1      33.285  23.736  22.118  1.00  0.00     0.044 C 
ENDBRANCH  21  24
ENDBRANCH  14  21
ENDBRANCH   8  13
ENDBRANCH   5   7
ENDBRANCH   4   5
ENDBRANCH   3   4
ENDBRANCH   2   3
ENDBRANCH   1   2
BRANCH   1  32
ATOM     32  C   UNL A   1      39.877  25.696  28.232  1.00  0.00     0.202 C 
BRANCH  32  33
ATOM     33  C   UNL A   1      40.172  25.270  26.787  1.00  0.00     0.261 C 
BRANCH  33  34
ATOM     34  O   UNL A   1      41.053  26.165  26.092  1.00  0.00    -0.460 OA
BRANCH  34  35
ATOM     35  C   UNL A   1      42.314  26.189  26.594  1.00  0.00     0.338 C 
ATOM     36  O   UNL A   1      43.120  25.273  26.588  1.00  0.00    -0.246 OA
BRANCH  35  37
ATOM     37  C   UNL A   1      42.689  27.564  26.966  1.00  0.00     0.060 A 
ATOM     38  C   UNL A   1      43.585  27.711  28.031  1.00  0.00     0.016 A 
ATOM     39  C   UNL A   1      42.116  28.681  26.355  1.00  0.00     0.016 A 
ATOM     40  C   UNL A   1      43.864  28.975  28.534  1.00  0.00     0.010 A 
ATOM     41  C   UNL A   1      42.393  29.953  26.870  1.00  0.00     0.010 A 
ATOM     42  C   UNL A   1      43.233  30.101  27.988  1.00  0.00    -0.014 A 
BRANCH  42  43
ATOM     43  C   UNL A   1      43.360  31.391  28.708  1.00  0.00     0.031 A 
ATOM     44  C   UNL A   1      42.504  31.640  29.921  1.00  0.00     0.074 A 
ATOM     45  C   UNL A   1      44.304  32.277  28.344  1.00  0.00     0.049 A 
ATOM     46  N   UNL A   1      42.514  32.653  30.749  1.00  0.00    -0.248 NA
ATOM     47  C   UNL A   1      41.506  30.609  30.243  1.00  0.00     0.031 C 
ATOM     48  C   UNL A   1      45.214  32.116  27.210  1.00  0.00     0.029 A 
ATOM     49  N   UNL A   1      44.668  33.476  28.900  1.00  0.00    -0.354 N 
ATOM     50  C   UNL A   1      41.529  32.381  31.692  1.00  0.00     0.074 A 
ATOM     51  C   UNL A   1      40.909  31.132  31.303  1.00  0.00     0.031 C 
ATOM     52  C   UNL A   1      46.044  33.170  27.164  1.00  0.00     0.029 A 
ATOM     53  C   UNL A   1      45.702  34.098  28.240  1.00  0.00     0.049 A 
ATOM     54  H   UNL A   1      44.231  33.857  29.695  1.00  0.00     0.167 HD
ATOM     55  C   UNL A   1      41.184  33.101  32.789  1.00  0.00     0.034 A 
ATOM     56  C   UNL A   1      46.298  35.284  28.475  1.00  0.00     0.034 A 
ATOM     57  C   UNL A   1      41.806  34.352  33.153  1.00  0.00     0.049 A 
ATOM     58  C   UNL A   1      45.850  36.101  29.662  1.00  0.00     0.074 A 
ATOM     59  C   UNL A   1      41.542  35.163  34.243  1.00  0.00     0.029 A 
ATOM     60  N   UNL A   1      42.812  34.983  32.428  1.00  0.00    -0.354 N 
ATOM     61  N   UNL A   1      44.925  35.826  30.555  1.00  0.00    -0.248 NA
ATOM     62  C   UNL A   1      46.541  37.376  29.884  1.00  0.00     0.031 C 
ATOM     63  C   UNL A   1      42.323  36.318  34.133  1.00  0.00     0.029 A 
ATOM     64  C   UNL A   1      43.151  36.188  33.030  1.00  0.00     0.049 A 
ATOM     65  H   UNL A   1      43.223  34.628  31.607  1.00  0.00     0.167 HD
ATOM     66  C   UNL A   1      44.952  36.881  31.465  1.00  0.00     0.074 A 
ATOM     67  C   UNL A   1      45.998  37.780  31.022  1.00  0.00     0.031 C 
ATOM     68  C   UNL A   1      44.187  37.086  32.569  1.00  0.00     0.034 A 
BRANCH  55  69
ATOM     69  C   UNL A   1      40.046  32.579  33.637  1.00  0.00     0.023 A 
ATOM     70  C   UNL A   1      38.756  33.137  33.579  1.00  0.00     0.031 A 
ATOM     71  C   UNL A   1      40.261  31.520  34.536  1.00  0.00     0.131 A 
ATOM     72  C   UNL A   1      37.754  32.680  34.452  1.00  0.00     0.055 A 
ATOM     73  C   UNL A   1      39.239  31.014  35.341  1.00  0.00     0.041 A 
ATOM     74  F   UNL A   1      41.477  30.963  34.658  1.00  0.00    -0.206 F 
ATOM     75  C   UNL A   1      37.979  31.604  35.312  1.00  0.00     0.022 A 
BRANCH  72  76
ATOM     76  S   UNL A   1      36.198  33.609  34.552  1.00  0.00     0.124 S 
ATOM     77  O   UNL A   1      35.980  33.665  35.995  1.00  0.00    -0.237 OA
ATOM     78  O   UNL A   1      36.542  34.871  33.907  1.00  0.00    -0.237 OA
ATOM     79  O   UNL A   1      35.251  32.770  33.818  1.00  0.00    -0.744 OA
ENDBRANCH  72  76
ENDBRANCH  55  69
BRANCH  56  80
ATOM     80  C   UNL A   1      47.364  35.786  27.560  1.00  0.00     0.023 A 
ATOM     81  C   UNL A   1      48.709  35.420  27.729  1.00  0.00     0.031 A 
ATOM     82  C   UNL A   1      47.055  36.691  26.527  1.00  0.00     0.131 A 
ATOM     83  C   UNL A   1      49.699  35.992  26.914  1.00  0.00     0.055 A 
ATOM     84  C   UNL A   1      48.034  37.209  25.679  1.00  0.00     0.041 A 
ATOM     85  F   UNL A   1      45.785  37.077  26.320  1.00  0.00    -0.206 F 
ATOM     86  C   UNL A   1      49.368  36.871  25.880  1.00  0.00     0.022 A 
BRANCH  83  87
ATOM     87  S   UNL A   1      51.440  35.644  27.285  1.00  0.00     0.124 S 
ATOM     88  O   UNL A   1      51.479  35.838  28.730  1.00  0.00    -0.237 OA
ATOM     89  O   UNL A   1      51.580  34.269  26.817  1.00  0.00    -0.237 OA
ATOM     90  O   UNL A   1      52.160  36.644  26.499  1.00  0.00    -0.744 OA
ENDBRANCH  83  87
ENDBRANCH  56  80
BRANCH  68  91
ATOM     91  C   UNL A   1      44.498  38.311  33.401  1.00  0.00     0.023 A 
ATOM     92  C   UNL A   1      43.690  39.461  33.364  1.00  0.00     0.031 A 
ATOM     93  C   UNL A   1      45.649  38.341  34.211  1.00  0.00     0.131 A 
ATOM     94  C   UNL A   1      44.089  40.619  34.049  1.00  0.00     0.055 A 
ATOM     95  C   UNL A   1      45.997  39.470  34.955  1.00  0.00     0.041 A 
ATOM     96  F   UNL A   1      46.462  37.275  34.286  1.00  0.00    -0.206 F 
ATOM     97  C   UNL A   1      45.226  40.625  34.860  1.00  0.00     0.022 A 
BRANCH  94  98
ATOM     98  S   UNL A   1      43.181  42.162  33.749  1.00  0.00     0.124 S 
ATOM     99  O   UNL A   1      42.010  41.686  33.021  1.00  0.00    -0.237 OA
ATOM    100  O   UNL A   1      42.936  42.646  35.105  1.00  0.00    -0.237 OA
ATOM    101  O   UNL A   1      44.118  42.962  32.963  1.00  0.00    -0.744 OA
ENDBRANCH  94  98
ENDBRANCH  68  91
ENDBRANCH  42  43
ENDBRANCH  35  37
ENDBRANCH  34  35
ENDBRANCH  33  34
ENDBRANCH  32  33
ENDBRANCH   1  32
TORSDOF 20
ENDMDL
MODEL 3
REMARK VINA RESULT:     -10.7      6.196     13.753
REMARK SMILES Cc1ccc(S(=O)(=O)N2CCN(C(=O)[C@H]3CCCC[C@@H]3C(=O)OCCOCCOC(=O)c3ccc(-c4c5nc(c(-c6cc(S(=O)(=O)[O-])ccc6F)c6ccc([nH]6)c(-c6cc(S(=O)(=O)[O-])ccc6F)c6nc(c(-c7cc(S(=O)(=O)[O-])ccc7F)c7ccc4[nH]7)C=C6)C=C5)cc3)CC2)cc1C
REMARK SMILES IDX 26 1 25 2 24 3 23 4 21 5 22 6 20 7 15 8 16 9 17 10 19 11
REMARK SMILES IDX 18 12 13 13 9 14 10 15 96 16 11 17 95 18 12 19 14 20 6 21
REMARK SMILES IDX 7 22 8 23 5 24 1 25 2 26 3 27 98 28 4 29 97 30 99 31 27 32
REMARK SMILES IDX 28 33 29 34 30 35 31 36 32 37 33 38 94 39 34 40 93 41 35 42
REMARK SMILES IDX 36 43 37 44 87 45 38 46 92 47 86 48 88 49 39 50 91 51 85 52
REMARK SMILES IDX 84 53 40 55 72 56 52 57 71 58 53 59 56 60 70 61 89 62 54 63
REMARK SMILES IDX 55 64 69 66 90 67 57 68 41 69 42 70 50 71 43 72 49 73 51 74
REMARK SMILES IDX 48 75 44 76 45 77 46 78 47 79 73 80 74 81 82 82 75 83 81 84
REMARK SMILES IDX 83 85 80 86 76 87 77 88 78 89 79 90 58 91 59 92 67 93 60 94
REMARK SMILES IDX 66 95 68 96 65 97 61 98 62 99 63 100 64 101
REMARK H PARENT 88 54 56 65
REMARK Flexibility Score: inf
ROOT
ATOM      1  O   UNL A   1      51.204  25.143  37.385  1.00  0.00    -0.374 OA
ENDROOT
BRANCH   1   2
ATOM      2  C   UNL A   1      51.277  23.795  37.840  1.00  0.00     0.202 C 
BRANCH   2   3
ATOM      3  C   UNL A   1      49.998  23.080  38.286  1.00  0.00     0.261 C 
BRANCH   3   4
ATOM      4  O   UNL A   1      49.148  22.722  37.194  1.00  0.00    -0.463 OA
BRANCH   4   5
ATOM      5  C   UNL A   1      48.977  21.381  37.067  1.00  0.00     0.309 C 
ATOM      6  O   UNL A   1      49.890  20.566  37.017  1.00  0.00    -0.252 OA
BRANCH   5   7
ATOM      7  C   UNL A   1      47.506  21.006  37.114  1.00  0.00     0.111 C 
ATOM      8  C   UNL A   1      47.321  19.708  36.299  1.00  0.00     0.093 C 
ATOM      9  C   UNL A   1      47.460  19.997  34.788  1.00  0.00     0.014 C 
ATOM     10  C   UNL A   1      46.585  21.146  34.310  1.00  0.00     0.001 C 
ATOM     11  C   UNL A   1      46.600  22.140  36.623  1.00  0.00     0.016 C 
ATOM     12  C   UNL A   1      46.777  22.408  35.136  1.00  0.00     0.001 C 
BRANCH   8  13
ATOM     13  C   UNL A   1      45.999  19.032  36.651  1.00  0.00     0.226 C 
ATOM     14  N   UNL A   1      45.565  17.417  40.535  1.00  0.00    -0.194 NA
ATOM     15  C   UNL A   1      45.071  16.721  39.331  1.00  0.00     0.124 C 
ATOM     16  C   UNL A   1      46.691  18.349  40.306  1.00  0.00     0.124 C 
ATOM     17  C   UNL A   1      44.705  17.728  38.243  1.00  0.00     0.136 C 
ATOM     18  C   UNL A   1      46.446  19.300  39.123  1.00  0.00     0.136 C 
ATOM     19  N   UNL A   1      45.813  18.647  37.964  1.00  0.00    -0.340 N 
ATOM     20  O   UNL A   1      45.130  18.827  35.802  1.00  0.00    -0.275 OA
BRANCH  14  21
ATOM     21  S   UNL A   1      44.726  17.349  41.982  1.00  0.00     0.243 S 
ATOM     22  O   UNL A   1      43.886  18.526  42.076  1.00  0.00    -0.207 OA
ATOM     23  O   UNL A   1      45.686  17.028  43.016  1.00  0.00    -0.207 OA
BRANCH  21  24
ATOM     24  C   UNL A   1      43.624  15.956  41.869  1.00  0.00     0.082 A 
ATOM     25  C   UNL A   1      40.945  12.581  41.594  1.00  0.00     0.044 C 
ATOM     26  C   UNL A   1      41.901  13.733  41.726  1.00  0.00    -0.048 A 
ATOM     27  C   UNL A   1      41.896  14.708  40.727  1.00  0.00     0.005 A 
ATOM     28  C   UNL A   1      42.778  13.879  42.820  1.00  0.00    -0.047 A 
ATOM     29  C   UNL A   1      42.737  15.811  40.814  1.00  0.00     0.022 A 
ATOM     30  C   UNL A   1      43.652  14.986  42.872  1.00  0.00     0.025 A 
ATOM     31  C   UNL A   1      42.821  12.904  43.963  1.00  0.00     0.044 C 
ENDBRANCH  21  24
ENDBRANCH  14  21
ENDBRANCH   8  13
ENDBRANCH   5   7
ENDBRANCH   4   5
ENDBRANCH   3   4
ENDBRANCH   2   3
ENDBRANCH   1   2
BRANCH   1  32
ATOM     32  C   UNL A   1      50.211  26.010  37.928  1.00  0.00     0.202 C 
BRANCH  32  33
ATOM     33  C   UNL A   1      49.140  26.621  37.015  1.00  0.00     0.261 C 
BRANCH  33  34
ATOM     34  O   UNL A   1      48.116  25.693  36.626  1.00  0.00    -0.460 OA
BRANCH  34  35
ATOM     35  C   UNL A   1      46.892  25.988  37.133  1.00  0.00     0.338 C 
ATOM     36  O   UNL A   1      46.600  26.115  38.311  1.00  0.00    -0.246 OA
BRANCH  35  37
ATOM     37  C   UNL A   1      45.969  26.368  36.049  1.00  0.00     0.060 A 
ATOM     38  C   UNL A   1      46.204  27.594  35.416  1.00  0.00     0.016 A 
ATOM     39  C   UNL A   1      44.854  25.595  35.718  1.00  0.00     0.016 A 
ATOM     40  C   UNL A   1      45.290  28.086  34.494  1.00  0.00     0.010 A 
ATOM     41  C   UNL A   1      43.930  26.098  34.794  1.00  0.00     0.010 A 
ATOM     42  C   UNL A   1      44.123  27.364  34.212  1.00  0.00    -0.014 A 
BRANCH  42  43
ATOM     43  C   UNL A   1      43.060  28.032  33.422  1.00  0.00     0.031 A 
ATOM     44  C   UNL A   1      42.910  27.695  31.963  1.00  0.00     0.074 A 
ATOM     45  C   UNL A   1      42.176  28.843  34.031  1.00  0.00     0.049 A 
ATOM     46  N   UNL A   1      42.000  28.089  31.110  1.00  0.00    -0.248 NA
ATOM     47  C   UNL A   1      43.921  26.794  31.390  1.00  0.00     0.031 C 
ATOM     48  C   UNL A   1      42.205  29.203  35.449  1.00  0.00     0.029 A 
ATOM     49  N   UNL A   1      41.073  29.493  33.541  1.00  0.00    -0.354 N 
ATOM     50  C   UNL A   1      42.324  27.482  29.902  1.00  0.00     0.074 A 
ATOM     51  C   UNL A   1      43.543  26.733  30.122  1.00  0.00     0.031 C 
ATOM     52  C   UNL A   1      41.157  29.997  35.717  1.00  0.00     0.029 A 
ATOM     53  C   UNL A   1      40.403  30.232  34.488  1.00  0.00     0.049 A 
ATOM     54  H   UNL A   1      40.788  29.436  32.601  1.00  0.00     0.167 HD
ATOM     55  C   UNL A   1      41.657  27.534  28.722  1.00  0.00     0.034 A 
ATOM     56  C   UNL A   1      39.312  31.014  34.372  1.00  0.00     0.034 A 
ATOM     57  C   UNL A   1      40.448  28.297  28.519  1.00  0.00     0.049 A 
ATOM     58  C   UNL A   1      38.626  31.110  33.030  1.00  0.00     0.074 A 
ATOM     59  C   UNL A   1      39.685  28.417  27.370  1.00  0.00     0.029 A 
ATOM     60  N   UNL A   1      39.829  29.083  29.485  1.00  0.00    -0.354 N 
ATOM     61  N   UNL A   1      38.935  30.520  31.898  1.00  0.00    -0.248 NA
ATOM     62  C   UNL A   1      37.433  31.961  32.960  1.00  0.00     0.031 C 
ATOM     63  C   UNL A   1      38.660  29.336  27.616  1.00  0.00     0.029 A 
ATOM     64  C   UNL A   1      38.716  29.715  28.947  1.00  0.00     0.049 A 
ATOM     65  H   UNL A   1      40.135  29.177  30.416  1.00  0.00     0.167 HD
ATOM     66  C   UNL A   1      37.950  30.903  30.990  1.00  0.00     0.074 A 
ATOM     67  C   UNL A   1      37.030  31.754  31.716  1.00  0.00     0.031 C 
ATOM     68  C   UNL A   1      37.813  30.576  29.678  1.00  0.00     0.034 A 
BRANCH  55  69
ATOM     69  C   UNL A   1      42.255  26.789  27.549  1.00  0.00     0.023 A 
ATOM     70  C   UNL A   1      41.979  25.431  27.309  1.00  0.00     0.031 A 
ATOM     71  C   UNL A   1      43.136  27.444  26.670  1.00  0.00     0.131 A 
ATOM     72  C   UNL A   1      42.630  24.758  26.261  1.00  0.00     0.055 A 
ATOM     73  C   UNL A   1      43.715  26.790  25.580  1.00  0.00     0.041 A 
ATOM     74  F   UNL A   1      43.461  28.733  26.862  1.00  0.00    -0.206 F 
ATOM     75  C   UNL A   1      43.474  25.435  25.379  1.00  0.00     0.022 A 
BRANCH  72  76
ATOM     76  S   UNL A   1      42.474  22.953  26.159  1.00  0.00     0.124 S 
ATOM     77  O   UNL A   1      42.978  22.689  24.813  1.00  0.00    -0.237 OA
ATOM     78  O   UNL A   1      43.318  22.500  27.258  1.00  0.00    -0.237 OA
ATOM     79  O   UNL A   1      41.041  22.723  26.336  1.00  0.00    -0.744 OA
ENDBRANCH  72  76
ENDBRANCH  55  69
BRANCH  56  80
ATOM     80  C   UNL A   1      38.810  31.787  35.545  1.00  0.00     0.023 A 
ATOM     81  C   UNL A   1      38.212  31.148  36.643  1.00  0.00     0.031 A 
ATOM     82  C   UNL A   1      38.874  33.193  35.557  1.00  0.00     0.131 A 
ATOM     83  C   UNL A   1      37.659  31.913  37.682  1.00  0.00     0.055 A 
ATOM     84  C   UNL A   1      38.378  33.947  36.621  1.00  0.00     0.041 A 
ATOM     85  F   UNL A   1      39.433  33.856  34.532  1.00  0.00    -0.206 F 
ATOM     86  C   UNL A   1      37.752  33.307  37.686  1.00  0.00     0.022 A 
BRANCH  83  87
ATOM     87  S   UNL A   1      36.728  31.065  38.987  1.00  0.00     0.124 S 
ATOM     88  O   UNL A   1      37.659  31.134  40.108  1.00  0.00    -0.237 OA
ATOM     89  O   UNL A   1      35.532  31.892  39.092  1.00  0.00    -0.237 OA
ATOM     90  O   UNL A   1      36.512  29.728  38.435  1.00  0.00    -0.744 OA
ENDBRANCH  83  87
ENDBRANCH  56  80
BRANCH  68  91
ATOM     91  C   UNL A   1      36.589  31.106  28.964  1.00  0.00     0.023 A 
ATOM     92  C   UNL A   1      35.552  30.258  28.534  1.00  0.00     0.031 A 
ATOM     93  C   UNL A   1      36.481  32.478  28.670  1.00  0.00     0.131 A 
ATOM     94  C   UNL A   1      34.501  30.774  27.761  1.00  0.00     0.055 A 
ATOM     95  C   UNL A   1      35.391  32.998  27.970  1.00  0.00     0.041 A 
ATOM     96  F   UNL A   1      37.439  33.337  29.050  1.00  0.00    -0.206 F 
ATOM     97  C   UNL A   1      34.403  32.141  27.492  1.00  0.00     0.022 A 
BRANCH  94  98
ATOM     98  S   UNL A   1      33.342  29.613  26.986  1.00  0.00     0.124 S 
ATOM     99  O   UNL A   1      34.111  29.139  25.839  1.00  0.00    -0.237 OA
ATOM    100  O   UNL A   1      33.119  28.639  28.051  1.00  0.00    -0.237 OA
ATOM    101  O   UNL A   1      32.189  30.448  26.657  1.00  0.00    -0.744 OA
ENDBRANCH  94  98
ENDBRANCH  68  91
ENDBRANCH  42  43
ENDBRANCH  35  37
ENDBRANCH  34  35
ENDBRANCH  33  34
ENDBRANCH  32  33
ENDBRANCH   1  32
TORSDOF 20
ENDMDL
