MODEL 1
REMARK VINA RESULT:     -12.7      0.000      0.000
REMARK SMILES O=C(OCCOCCOC(=O)c1ccc(-c2c3nc(c(-c4cc(S(=O)(=O)[O-])ccc4F)c4ccc([nH]4)c(-c4cc(S(=O)(=O)[O-])ccc4F)c4nc(c(-c5cc(S(=O)(=O)[O-])ccc5F)c5ccc2[nH]5)C=C4)C=C3)cc1)C1=Cc2cc(Cl)ccc2O[C@@H]1C(F)(F)F
REMARK SMILES IDX 7 1 6 2 5 3 4 4 3 5 2 6 1 7 75 8 76 9 85 10 77 11 84 12
REMARK SMILES IDX 78 13 83 14 79 15 82 16 80 17 81 18 86 19 87 20 88 21 89 22
REMARK SMILES IDX 8 23 9 24 10 25 11 26 12 27 13 28 74 29 14 30 73 31 15 32
REMARK SMILES IDX 16 33 17 34 67 35 18 36 72 37 66 38 68 39 19 40 71 41 65 42
REMARK SMILES IDX 64 43 20 45 52 46 32 47 51 48 33 49 36 50 50 51 69 52 34 53
REMARK SMILES IDX 35 54 49 56 70 57 37 58 21 59 22 60 30 61 23 62 29 63 31 64
REMARK SMILES IDX 28 65 24 66 25 67 26 68 27 69 53 70 54 71 62 72 55 73 61 74
REMARK SMILES IDX 63 75 60 76 56 77 57 78 58 79 59 80 38 81 39 82 47 83 40 84
REMARK SMILES IDX 46 85 48 86 45 87 41 88 42 89 43 90 44 91
REMARK H PARENT 68 44 36 55
REMARK Flexibility Score: inf
ROOT
ATOM      1  C   UNL A   1      35.232  20.799  24.630  1.00  0.00     0.202 C 
ENDROOT
BRANCH   1   2
ATOM      2  O   UNL A   1      34.188  19.850  24.915  1.00  0.00    -0.374 OA
BRANCH   2   3
ATOM      3  C   UNL A   1      32.589  20.029  25.038  1.00  0.00     0.202 C 
BRANCH   3   4
ATOM      4  C   UNL A   1      31.401  21.810  25.455  1.00  0.00     0.261 C 
BRANCH   4   5
ATOM      5  O   UNL A   1      31.717  22.883  26.525  1.00  0.00    -0.460 OA
BRANCH   5   6
ATOM      6  C   UNL A   1      30.984  23.991  26.386  1.00  0.00     0.338 C 
ATOM      7  O   UNL A   1      29.954  24.317  26.915  1.00  0.00    -0.246 OA
BRANCH   6   8
ATOM      8  C   UNL A   1      31.645  24.442  25.188  1.00  0.00     0.087 C 
ATOM      9  C   UNL A   1      30.674  25.074  24.251  1.00  0.00     0.027 C 
ATOM     10  C   UNL A   1      33.102  25.378  26.067  1.00  0.00     0.316 C 
ATOM     11  C   UNL A   1      30.583  26.866  23.959  1.00  0.00     0.019 A 
ATOM     12  O   UNL A   1      32.983  27.284  25.815  1.00  0.00    -0.475 OA
ATOM     13  C   UNL A   1      29.563  27.387  23.211  1.00  0.00     0.032 A 
ATOM     14  C   UNL A   1      31.661  27.964  24.759  1.00  0.00     0.128 A 
ATOM     15  C   UNL A   1      29.483  28.791  23.214  1.00  0.00     0.041 A 
ATOM     16  C   UNL A   1      31.436  29.305  24.794  1.00  0.00     0.048 A 
ATOM     17  Cl  UNL A   1      28.232  29.502  22.245  1.00  0.00    -0.084 Cl
ATOM     18  C   UNL A   1      30.339  29.689  23.979  1.00  0.00     0.024 A 
BRANCH  10  19
ATOM     19  C   UNL A   1      34.294  24.384  25.760  1.00  0.00     0.430 C 
ATOM     20  F   UNL A   1      34.160  23.656  24.636  1.00  0.00    -0.167 F 
ATOM     21  F   UNL A   1      35.410  25.145  25.555  1.00  0.00    -0.167 F 
ATOM     22  F   UNL A   1      34.625  23.556  26.773  1.00  0.00    -0.167 F 
ENDBRANCH  10  19
ENDBRANCH   6   8
ENDBRANCH   5   6
ENDBRANCH   4   5
ENDBRANCH   3   4
ENDBRANCH   2   3
ENDBRANCH   1   2
BRANCH   1  23
ATOM     23  C   UNL A   1      36.605  20.430  25.191  1.00  0.00     0.261 C 
BRANCH  23  24
ATOM     24  O   UNL A   1      37.385  21.581  25.488  1.00  0.00    -0.460 OA
BRANCH  24  25
ATOM     25  C   UNL A   1      38.649  21.285  25.868  1.00  0.00     0.338 C 
ATOM     26  O   UNL A   1      39.211  20.207  25.787  1.00  0.00    -0.246 OA
BRANCH  25  27
ATOM     27  C   UNL A   1      39.280  22.498  26.415  1.00  0.00     0.060 A 
ATOM     28  C   UNL A   1      38.646  23.718  26.159  1.00  0.00     0.016 A 
ATOM     29  C   UNL A   1      40.459  22.444  27.174  1.00  0.00     0.016 A 
ATOM     30  C   UNL A   1      39.192  24.891  26.656  1.00  0.00     0.010 A 
ATOM     31  C   UNL A   1      41.019  23.623  27.655  1.00  0.00     0.010 A 
ATOM     32  C   UNL A   1      40.400  24.845  27.364  1.00  0.00    -0.014 A 
BRANCH  32  33
ATOM     33  C   UNL A   1      41.141  26.105  27.526  1.00  0.00     0.031 A 
ATOM     34  C   UNL A   1      40.486  27.170  28.354  1.00  0.00     0.074 A 
ATOM     35  C   UNL A   1      42.378  26.246  27.026  1.00  0.00     0.049 A 
ATOM     36  N   UNL A   1      40.955  28.322  28.744  1.00  0.00    -0.248 NA
ATOM     37  C   UNL A   1      39.116  26.885  28.813  1.00  0.00     0.031 C 
ATOM     38  C   UNL A   1      43.098  25.233  26.257  1.00  0.00     0.029 A 
ATOM     39  N   UNL A   1      43.252  27.293  27.113  1.00  0.00    -0.354 N 
ATOM     40  C   UNL A   1      39.944  28.893  29.509  1.00  0.00     0.074 A 
ATOM     41  C   UNL A   1      38.821  27.982  29.485  1.00  0.00     0.031 C 
ATOM     42  C   UNL A   1      44.320  25.707  25.957  1.00  0.00     0.029 A 
ATOM     43  C   UNL A   1      44.451  27.064  26.485  1.00  0.00     0.049 A 
ATOM     44  H   UNL A   1      43.042  28.133  27.583  1.00  0.00     0.167 HD
ATOM     45  C   UNL A   1      39.961  30.069  30.177  1.00  0.00     0.034 A 
ATOM     46  C   UNL A   1      45.521  27.872  26.357  1.00  0.00     0.034 A 
ATOM     47  C   UNL A   1      41.079  30.975  30.133  1.00  0.00     0.049 A 
ATOM     48  C   UNL A   1      45.470  29.231  27.013  1.00  0.00     0.074 A 
ATOM     49  C   UNL A   1      41.217  32.208  30.740  1.00  0.00     0.029 A 
ATOM     50  N   UNL A   1      42.248  30.752  29.411  1.00  0.00    -0.354 N 
ATOM     51  N   UNL A   1      44.517  29.765  27.746  1.00  0.00    -0.248 NA
ATOM     52  C   UNL A   1      46.646  30.090  26.838  1.00  0.00     0.031 C 
ATOM     53  C   UNL A   1      42.421  32.771  30.307  1.00  0.00     0.029 A 
ATOM     54  C   UNL A   1      43.092  31.843  29.523  1.00  0.00     0.049 A 
ATOM     55  H   UNL A   1      42.446  29.937  28.896  1.00  0.00     0.167 HD
ATOM     56  C   UNL A   1      45.003  31.004  28.161  1.00  0.00     0.074 A 
ATOM     57  C   UNL A   1      46.333  31.129  27.598  1.00  0.00     0.031 C 
ATOM     58  C   UNL A   1      44.414  31.945  28.945  1.00  0.00     0.034 A 
BRANCH  45  59
ATOM     59  C   UNL A   1      38.701  30.456  30.913  1.00  0.00     0.023 A 
ATOM     60  C   UNL A   1      37.610  31.057  30.258  1.00  0.00     0.031 A 
ATOM     61  C   UNL A   1      38.627  30.304  32.308  1.00  0.00     0.131 A 
ATOM     62  C   UNL A   1      36.539  31.567  31.008  1.00  0.00     0.055 A 
ATOM     63  C   UNL A   1      37.514  30.726  33.038  1.00  0.00     0.041 A 
ATOM     64  F   UNL A   1      39.652  29.775  32.994  1.00  0.00    -0.206 F 
ATOM     65  C   UNL A   1      36.471  31.379  32.390  1.00  0.00     0.022 A 
BRANCH  62  66
ATOM     66  S   UNL A   1      35.339  32.649  30.181  1.00  0.00     0.124 S 
ATOM     67  O   UNL A   1      36.152  33.829  29.900  1.00  0.00    -0.237 OA
ATOM     68  O   UNL A   1      34.942  31.855  29.024  1.00  0.00    -0.237 OA
ATOM     69  O   UNL A   1      34.301  32.844  31.192  1.00  0.00    -0.744 OA
ENDBRANCH  62  66
ENDBRANCH  45  59
BRANCH  46  70
ATOM     70  C   UNL A   1      46.716  27.435  25.577  1.00  0.00     0.023 A 
ATOM     71  C   UNL A   1      46.932  27.882  24.264  1.00  0.00     0.031 A 
ATOM     72  C   UNL A   1      47.633  26.516  26.119  1.00  0.00     0.131 A 
ATOM     73  C   UNL A   1      48.006  27.371  23.519  1.00  0.00     0.055 A 
ATOM     74  C   UNL A   1      48.732  26.055  25.393  1.00  0.00     0.041 A 
ATOM     75  F   UNL A   1      47.473  26.052  27.368  1.00  0.00    -0.206 F 
ATOM     76  C   UNL A   1      48.916  26.472  24.079  1.00  0.00     0.022 A 
BRANCH  73  77
ATOM     77  S   UNL A   1      48.141  27.822  21.767  1.00  0.00     0.124 S 
ATOM     78  O   UNL A   1      46.859  28.474  21.529  1.00  0.00    -0.237 OA
ATOM     79  O   UNL A   1      49.314  28.690  21.768  1.00  0.00    -0.237 OA
ATOM     80  O   UNL A   1      48.321  26.535  21.098  1.00  0.00    -0.744 OA
ENDBRANCH  73  77
ENDBRANCH  46  70
BRANCH  58  81
ATOM     81  C   UNL A   1      45.240  33.161  29.298  1.00  0.00     0.023 A 
ATOM     82  C   UNL A   1      45.203  34.340  28.535  1.00  0.00     0.031 A 
ATOM     83  C   UNL A   1      46.093  33.125  30.417  1.00  0.00     0.131 A 
ATOM     84  C   UNL A   1      46.061  35.404  28.854  1.00  0.00     0.055 A 
ATOM     85  C   UNL A   1      46.880  34.219  30.779  1.00  0.00     0.041 A 
ATOM     86  F   UNL A   1      46.175  32.024  31.182  1.00  0.00    -0.206 F 
ATOM     87  C   UNL A   1      46.880  35.360  29.984  1.00  0.00     0.022 A 
BRANCH  84  88
ATOM     88  S   UNL A   1      46.194  36.789  27.691  1.00  0.00     0.124 S 
ATOM     89  O   UNL A   1      45.923  36.137  26.413  1.00  0.00    -0.237 OA
ATOM     90  O   UNL A   1      45.161  37.700  28.172  1.00  0.00    -0.237 OA
ATOM     91  O   UNL A   1      47.567  37.256  27.871  1.00  0.00    -0.744 OA
ENDBRANCH  84  88
ENDBRANCH  58  81
ENDBRANCH  32  33
ENDBRANCH  25  27
ENDBRANCH  24  25
ENDBRANCH  23  24
ENDBRANCH   1  23
TORSDOF 18
ENDMDL
MODEL 2
REMARK VINA RESULT:     -12.6      5.103      7.871
REMARK SMILES O=C(OCCOCCOC(=O)c1ccc(-c2c3nc(c(-c4cc(S(=O)(=O)[O-])ccc4F)c4ccc([nH]4)c(-c4cc(S(=O)(=O)[O-])ccc4F)c4nc(c(-c5cc(S(=O)(=O)[O-])ccc5F)c5ccc2[nH]5)C=C4)C=C3)cc1)C1=Cc2cc(Cl)ccc2O[C@@H]1C(F)(F)F
REMARK SMILES IDX 7 1 6 2 5 3 4 4 3 5 2 6 1 7 75 8 76 9 85 10 77 11 84 12
REMARK SMILES IDX 78 13 83 14 79 15 82 16 80 17 81 18 86 19 87 20 88 21 89 22
REMARK SMILES IDX 8 23 9 24 10 25 11 26 12 27 13 28 74 29 14 30 73 31 15 32
REMARK SMILES IDX 16 33 17 34 67 35 18 36 72 37 66 38 68 39 19 40 71 41 65 42
REMARK SMILES IDX 64 43 20 45 52 46 32 47 51 48 33 49 36 50 50 51 69 52 34 53
REMARK SMILES IDX 35 54 49 56 70 57 37 58 21 59 22 60 30 61 23 62 29 63 31 64
REMARK SMILES IDX 28 65 24 66 25 67 26 68 27 69 53 70 54 71 62 72 55 73 61 74
REMARK SMILES IDX 63 75 60 76 56 77 57 78 58 79 59 80 38 81 39 82 47 83 40 84
REMARK SMILES IDX 46 85 48 86 45 87 41 88 42 89 43 90 44 91
REMARK H PARENT 68 44 36 55
REMARK Flexibility Score: inf
ROOT
ATOM      1  C   UNL A   1      32.578  29.674  25.124  1.00  0.00     0.202 C 
ENDROOT
BRANCH   1   2
ATOM      2  O   UNL A   1      32.402  28.265  25.361  1.00  0.00    -0.374 OA
BRANCH   2   3
ATOM      3  C   UNL A   1      31.070  27.366  25.498  1.00  0.00     0.202 C 
BRANCH   3   4
ATOM      4  C   UNL A   1      30.839  25.267  26.046  1.00  0.00     0.261 C 
BRANCH   4   5
ATOM      5  O   UNL A   1      31.960  24.199  26.047  1.00  0.00    -0.460 OA
BRANCH   5   6
ATOM      6  C   UNL A   1      31.545  23.006  25.612  1.00  0.00     0.338 C 
ATOM      7  O   UNL A   1      30.669  22.288  26.019  1.00  0.00    -0.246 OA
BRANCH   6   8
ATOM      8  C   UNL A   1      32.693  22.759  24.777  1.00  0.00     0.087 C 
ATOM      9  C   UNL A   1      33.452  21.570  25.255  1.00  0.00     0.027 C 
ATOM     10  C   UNL A   1      31.766  22.868  23.074  1.00  0.00     0.316 C 
ATOM     11  C   UNL A   1      33.443  19.965  24.401  1.00  0.00     0.019 A 
ATOM     12  O   UNL A   1      31.697  21.160  22.187  1.00  0.00    -0.475 OA
ATOM     13  C   UNL A   1      34.031  18.876  24.984  1.00  0.00     0.032 A 
ATOM     14  C   UNL A   1      32.544  19.730  22.936  1.00  0.00     0.128 A 
ATOM     15  C   UNL A   1      33.794  17.654  24.329  1.00  0.00     0.041 A 
ATOM     16  C   UNL A   1      32.277  18.492  22.440  1.00  0.00     0.048 A 
ATOM     17  Cl  UNL A   1      34.556  16.249  25.005  1.00  0.00    -0.084 Cl
ATOM     18  C   UNL A   1      32.949  17.468  23.157  1.00  0.00     0.024 A 
BRANCH  10  19
ATOM     19  C   UNL A   1      32.304  24.263  22.556  1.00  0.00     0.430 C 
ATOM     20  F   UNL A   1      33.203  24.866  23.356  1.00  0.00    -0.167 F 
ATOM     21  F   UNL A   1      32.976  24.027  21.389  1.00  0.00    -0.167 F 
ATOM     22  F   UNL A   1      31.351  25.160  22.227  1.00  0.00    -0.167 F 
ENDBRANCH  10  19
ENDBRANCH   6   8
ENDBRANCH   5   6
ENDBRANCH   4   5
ENDBRANCH   3   4
ENDBRANCH   2   3
ENDBRANCH   1   2
BRANCH   1  23
ATOM     23  C   UNL A   1      31.934  30.586  26.169  1.00  0.00     0.261 C 
BRANCH  23  24
ATOM     24  O   UNL A   1      32.667  30.598  27.387  1.00  0.00    -0.460 OA
BRANCH  24  25
ATOM     25  C   UNL A   1      33.397  31.724  27.558  1.00  0.00     0.338 C 
ATOM     26  O   UNL A   1      33.018  32.876  27.434  1.00  0.00    -0.246 OA
BRANCH  25  27
ATOM     27  C   UNL A   1      34.771  31.351  27.936  1.00  0.00     0.060 A 
ATOM     28  C   UNL A   1      35.054  29.985  28.045  1.00  0.00     0.016 A 
ATOM     29  C   UNL A   1      35.766  32.313  28.164  1.00  0.00     0.016 A 
ATOM     30  C   UNL A   1      36.332  29.576  28.390  1.00  0.00     0.010 A 
ATOM     31  C   UNL A   1      37.044  31.905  28.531  1.00  0.00     0.010 A 
ATOM     32  C   UNL A   1      37.311  30.537  28.676  1.00  0.00    -0.014 A 
BRANCH  32  33
ATOM     33  C   UNL A   1      38.507  30.092  29.407  1.00  0.00     0.031 A 
ATOM     34  C   UNL A   1      38.665  30.597  30.810  1.00  0.00     0.074 A 
ATOM     35  C   UNL A   1      39.358  29.208  28.864  1.00  0.00     0.049 A 
ATOM     36  N   UNL A   1      39.556  30.285  31.709  1.00  0.00    -0.248 NA
ATOM     37  C   UNL A   1      37.668  31.584  31.261  1.00  0.00     0.031 C 
ATOM     38  C   UNL A   1      39.238  28.633  27.526  1.00  0.00     0.029 A 
ATOM     39  N   UNL A   1      40.479  28.626  29.387  1.00  0.00    -0.354 N 
ATOM     40  C   UNL A   1      39.218  31.023  32.837  1.00  0.00     0.074 A 
ATOM     41  C   UNL A   1      38.072  31.834  32.492  1.00  0.00     0.031 C 
ATOM     42  C   UNL A   1      40.244  27.761  27.339  1.00  0.00     0.029 A 
ATOM     43  C   UNL A   1      41.090  27.743  28.531  1.00  0.00     0.049 A 
ATOM     44  H   UNL A   1      40.816  28.821  30.291  1.00  0.00     0.167 HD
ATOM     45  C   UNL A   1      39.812  31.013  34.054  1.00  0.00     0.034 A 
ATOM     46  C   UNL A   1      42.210  27.015  28.705  1.00  0.00     0.034 A 
ATOM     47  C   UNL A   1      40.985  30.231  34.342  1.00  0.00     0.049 A 
ATOM     48  C   UNL A   1      42.923  27.111  30.033  1.00  0.00     0.074 A 
ATOM     49  C   UNL A   1      41.701  30.150  35.521  1.00  0.00     0.029 A 
ATOM     50  N   UNL A   1      41.635  29.412  33.423  1.00  0.00    -0.354 N 
ATOM     51  N   UNL A   1      42.596  27.802  31.104  1.00  0.00    -0.248 NA
ATOM     52  C   UNL A   1      44.148  26.318  30.181  1.00  0.00     0.031 C 
ATOM     53  C   UNL A   1      42.833  29.364  35.286  1.00  0.00     0.029 A 
ATOM     54  C   UNL A   1      42.766  28.857  33.996  1.00  0.00     0.049 A 
ATOM     55  H   UNL A   1      41.335  29.252  32.499  1.00  0.00     0.167 HD
ATOM     56  C   UNL A   1      43.549  27.484  32.070  1.00  0.00     0.074 A 
ATOM     57  C   UNL A   1      44.456  26.537  31.450  1.00  0.00     0.031 C 
ATOM     58  C   UNL A   1      43.659  27.920  33.353  1.00  0.00     0.034 A 
BRANCH  45  59
ATOM     59  C   UNL A   1      39.246  31.944  35.097  1.00  0.00     0.023 A 
ATOM     60  C   UNL A   1      39.647  33.290  35.193  1.00  0.00     0.031 A 
ATOM     61  C   UNL A   1      38.357  31.453  36.069  1.00  0.00     0.131 A 
ATOM     62  C   UNL A   1      39.237  34.065  36.289  1.00  0.00     0.055 A 
ATOM     63  C   UNL A   1      37.875  32.260  37.102  1.00  0.00     0.041 A 
ATOM     64  F   UNL A   1      37.970  30.169  36.055  1.00  0.00    -0.206 F 
ATOM     65  C   UNL A   1      38.331  33.568  37.227  1.00  0.00     0.022 A 
BRANCH  62  66
ATOM     66  S   UNL A   1      40.056  35.659  36.577  1.00  0.00     0.124 S 
ATOM     67  O   UNL A   1      41.466  35.283  36.503  1.00  0.00    -0.237 OA
ATOM     68  O   UNL A   1      39.554  36.476  35.479  1.00  0.00    -0.237 OA
ATOM     69  O   UNL A   1      39.592  36.047  37.909  1.00  0.00    -0.744 OA
ENDBRANCH  62  66
ENDBRANCH  45  59
BRANCH  46  70
ATOM     70  C   UNL A   1      42.732  26.148  27.610  1.00  0.00     0.023 A 
ATOM     71  C   UNL A   1      42.283  24.828  27.447  1.00  0.00     0.031 A 
ATOM     72  C   UNL A   1      43.737  26.612  26.740  1.00  0.00     0.131 A 
ATOM     73  C   UNL A   1      42.870  24.002  26.476  1.00  0.00     0.055 A 
ATOM     74  C   UNL A   1      44.277  25.804  25.738  1.00  0.00     0.041 A 
ATOM     75  F   UNL A   1      44.208  27.864  26.852  1.00  0.00    -0.206 F 
ATOM     76  C   UNL A   1      43.854  24.486  25.610  1.00  0.00     0.022 A 
BRANCH  73  77
ATOM     77  S   UNL A   1      42.401  22.251  26.425  1.00  0.00     0.124 S 
ATOM     78  O   UNL A   1      42.677  21.830  27.793  1.00  0.00    -0.237 OA
ATOM     79  O   UNL A   1      40.993  22.326  26.046  1.00  0.00    -0.237 OA
ATOM     80  O   UNL A   1      43.289  21.691  25.408  1.00  0.00    -0.744 OA
ENDBRANCH  73  77
ENDBRANCH  46  70
BRANCH  58  81
ATOM     81  C   UNL A   1      44.762  27.316  34.192  1.00  0.00     0.023 A 
ATOM     82  C   UNL A   1      44.612  26.086  34.856  1.00  0.00     0.031 A 
ATOM     83  C   UNL A   1      45.984  27.999  34.338  1.00  0.00     0.131 A 
ATOM     84  C   UNL A   1      45.633  25.619  35.697  1.00  0.00     0.055 A 
ATOM     85  C   UNL A   1      47.028  27.485  35.107  1.00  0.00     0.041 A 
ATOM     86  F   UNL A   1      46.185  29.181  33.732  1.00  0.00    -0.206 F 
ATOM     87  C   UNL A   1      46.848  26.298  35.807  1.00  0.00     0.022 A 
BRANCH  84  88
ATOM     88  S   UNL A   1      45.296  24.184  36.754  1.00  0.00     0.124 S 
ATOM     89  O   UNL A   1      44.225  23.515  36.023  1.00  0.00    -0.237 OA
ATOM     90  O   UNL A   1      46.584  23.498  36.767  1.00  0.00    -0.237 OA
ATOM     91  O   UNL A   1      44.899  24.783  38.027  1.00  0.00    -0.744 OA
ENDBRANCH  84  88
ENDBRANCH  58  81
ENDBRANCH  32  33
ENDBRANCH  25  27
ENDBRANCH  24  25
ENDBRANCH  23  24
ENDBRANCH   1  23
TORSDOF 18
ENDMDL
MODEL 3
REMARK VINA RESULT:     -12.6      1.722      7.798
REMARK SMILES O=C(OCCOCCOC(=O)c1ccc(-c2c3nc(c(-c4cc(S(=O)(=O)[O-])ccc4F)c4ccc([nH]4)c(-c4cc(S(=O)(=O)[O-])ccc4F)c4nc(c(-c5cc(S(=O)(=O)[O-])ccc5F)c5ccc2[nH]5)C=C4)C=C3)cc1)C1=Cc2cc(Cl)ccc2O[C@@H]1C(F)(F)F
REMARK SMILES IDX 7 1 6 2 5 3 4 4 3 5 2 6 1 7 75 8 76 9 85 10 77 11 84 12
REMARK SMILES IDX 78 13 83 14 79 15 82 16 80 17 81 18 86 19 87 20 88 21 89 22
REMARK SMILES IDX 8 23 9 24 10 25 11 26 12 27 13 28 74 29 14 30 73 31 15 32
REMARK SMILES IDX 16 33 17 34 67 35 18 36 72 37 66 38 68 39 19 40 71 41 65 42
REMARK SMILES IDX 64 43 20 45 52 46 32 47 51 48 33 49 36 50 50 51 69 52 34 53
REMARK SMILES IDX 35 54 49 56 70 57 37 58 21 59 22 60 30 61 23 62 29 63 31 64
REMARK SMILES IDX 28 65 24 66 25 67 26 68 27 69 53 70 54 71 62 72 55 73 61 74
REMARK SMILES IDX 63 75 60 76 56 77 57 78 58 79 59 80 38 81 39 82 47 83 40 84
REMARK SMILES IDX 46 85 48 86 45 87 41 88 42 89 43 90 44 91
REMARK H PARENT 68 44 36 55
REMARK Flexibility Score: inf
ROOT
ATOM      1  C   UNL A   1      36.684  21.086  25.039  1.00  0.00     0.202 C 
ENDROOT
BRANCH   1   2
ATOM      2  O   UNL A   1      36.601  21.844  23.818  1.00  0.00    -0.374 OA
BRANCH   2   3
ATOM      3  C   UNL A   1      36.082  23.344  23.528  1.00  0.00     0.202 C 
BRANCH   3   4
ATOM      4  C   UNL A   1      34.069  24.084  23.130  1.00  0.00     0.261 C 
BRANCH   4   5
ATOM      5  O   UNL A   1      33.642  25.571  23.076  1.00  0.00    -0.460 OA
BRANCH   5   6
ATOM      6  C   UNL A   1      32.372  25.736  22.696  1.00  0.00     0.338 C 
ATOM      7  O   UNL A   1      31.793  25.346  21.715  1.00  0.00    -0.246 OA
BRANCH   6   8
ATOM      8  C   UNL A   1      32.083  26.785  23.641  1.00  0.00     0.087 C 
ATOM      9  C   UNL A   1      31.838  28.077  22.942  1.00  0.00     0.027 C 
ATOM     10  C   UNL A   1      30.750  25.811  24.664  1.00  0.00     0.316 C 
ATOM     11  C   UNL A   1      30.191  28.827  22.769  1.00  0.00     0.019 A 
ATOM     12  O   UNL A   1      28.989  26.560  24.440  1.00  0.00    -0.475 OA
ATOM     13  C   UNL A   1      30.021  29.930  21.977  1.00  0.00     0.032 A 
ATOM     14  C   UNL A   1      28.782  28.071  23.441  1.00  0.00     0.128 A 
ATOM     15  C   UNL A   1      28.682  30.304  21.763  1.00  0.00     0.041 A 
ATOM     16  C   UNL A   1      27.522  28.439  23.085  1.00  0.00     0.048 A 
ATOM     17  Cl  UNL A   1      28.415  31.723  20.801  1.00  0.00    -0.084 Cl
ATOM     18  C   UNL A   1      27.511  29.590  22.255  1.00  0.00     0.024 A 
BRANCH  10  19
ATOM     19  C   UNL A   1      31.572  25.522  25.984  1.00  0.00     0.430 C 
ATOM     20  F   UNL A   1      31.669  26.556  26.840  1.00  0.00    -0.167 F 
ATOM     21  F   UNL A   1      30.897  24.556  26.676  1.00  0.00    -0.167 F 
ATOM     22  F   UNL A   1      32.805  25.007  25.791  1.00  0.00    -0.167 F 
ENDBRANCH  10  19
ENDBRANCH   6   8
ENDBRANCH   5   6
ENDBRANCH   4   5
ENDBRANCH   3   4
ENDBRANCH   2   3
ENDBRANCH   1   2
BRANCH   1  23
ATOM     23  C   UNL A   1      38.094  20.634  25.419  1.00  0.00     0.261 C 
BRANCH  23  24
ATOM     24  O   UNL A   1      38.994  21.729  25.520  1.00  0.00    -0.460 OA
BRANCH  24  25
ATOM     25  C   UNL A   1      39.995  21.517  26.405  1.00  0.00     0.338 C 
ATOM     26  O   UNL A   1      40.571  20.467  26.630  1.00  0.00    -0.246 OA
BRANCH  25  27
ATOM     27  C   UNL A   1      40.307  22.785  27.087  1.00  0.00     0.060 A 
ATOM     28  C   UNL A   1      39.500  23.887  26.786  1.00  0.00     0.016 A 
ATOM     29  C   UNL A   1      41.357  22.892  28.012  1.00  0.00     0.016 A 
ATOM     30  C   UNL A   1      39.743  25.103  27.404  1.00  0.00     0.010 A 
ATOM     31  C   UNL A   1      41.616  24.117  28.617  1.00  0.00     0.010 A 
ATOM     32  C   UNL A   1      40.827  25.226  28.282  1.00  0.00    -0.014 A 
BRANCH  32  33
ATOM     33  C   UNL A   1      41.292  26.585  28.603  1.00  0.00     0.031 A 
ATOM     34  C   UNL A   1      42.688  26.935  28.184  1.00  0.00     0.074 A 
ATOM     35  C   UNL A   1      40.466  27.481  29.162  1.00  0.00     0.049 A 
ATOM     36  N   UNL A   1      43.310  28.080  28.243  1.00  0.00    -0.248 NA
ATOM     37  C   UNL A   1      43.487  25.840  27.607  1.00  0.00     0.031 C 
ATOM     38  C   UNL A   1      39.079  27.227  29.546  1.00  0.00     0.029 A 
ATOM     39  N   UNL A   1      40.673  28.794  29.481  1.00  0.00    -0.354 N 
ATOM     40  C   UNL A   1      44.566  27.847  27.696  1.00  0.00     0.074 A 
ATOM     41  C   UNL A   1      44.634  26.444  27.358  1.00  0.00     0.031 C 
ATOM     42  C   UNL A   1      38.551  28.363  30.036  1.00  0.00     0.029 A 
ATOM     43  C   UNL A   1      39.573  29.408  30.027  1.00  0.00     0.049 A 
ATOM     44  H   UNL A   1      41.530  29.257  29.333  1.00  0.00     0.167 HD
ATOM     45  C   UNL A   1      45.567  28.734  27.489  1.00  0.00     0.034 A 
ATOM     46  C   UNL A   1      39.427  30.672  30.470  1.00  0.00     0.034 A 
ATOM     47  C   UNL A   1      45.481  30.115  27.890  1.00  0.00     0.049 A 
ATOM     48  C   UNL A   1      40.600  31.614  30.337  1.00  0.00     0.074 A 
ATOM     49  C   UNL A   1      46.429  31.111  27.765  1.00  0.00     0.029 A 
ATOM     50  N   UNL A   1      44.382  30.686  28.525  1.00  0.00    -0.354 N 
ATOM     51  N   UNL A   1      41.786  31.396  29.809  1.00  0.00    -0.248 NA
ATOM     52  C   UNL A   1      40.411  32.977  30.845  1.00  0.00     0.031 C 
ATOM     53  C   UNL A   1      45.944  32.253  28.410  1.00  0.00     0.029 A 
ATOM     54  C   UNL A   1      44.646  32.009  28.836  1.00  0.00     0.049 A 
ATOM     55  H   UNL A   1      43.540  30.218  28.725  1.00  0.00     0.167 HD
ATOM     56  C   UNL A   1      42.464  32.611  29.876  1.00  0.00     0.074 A 
ATOM     57  C   UNL A   1      41.549  33.554  30.492  1.00  0.00     0.031 C 
ATOM     58  C   UNL A   1      43.718  32.927  29.457  1.00  0.00     0.034 A 
BRANCH  45  59
ATOM     59  C   UNL A   1      46.846  28.196  26.896  1.00  0.00     0.023 A 
ATOM     60  C   UNL A   1      47.111  28.257  25.515  1.00  0.00     0.031 A 
ATOM     61  C   UNL A   1      47.773  27.529  27.714  1.00  0.00     0.131 A 
ATOM     62  C   UNL A   1      48.222  27.581  24.987  1.00  0.00     0.055 A 
ATOM     63  C   UNL A   1      48.928  26.942  27.193  1.00  0.00     0.041 A 
ATOM     64  F   UNL A   1      47.556  27.402  29.033  1.00  0.00    -0.206 F 
ATOM     65  C   UNL A   1      49.148  26.949  25.820  1.00  0.00     0.022 A 
BRANCH  62  66
ATOM     66  S   UNL A   1      48.332  27.371  23.187  1.00  0.00     0.124 S 
ATOM     67  O   UNL A   1      49.658  27.917  22.908  1.00  0.00    -0.237 OA
ATOM     68  O   UNL A   1      48.188  25.928  23.028  1.00  0.00    -0.237 OA
ATOM     69  O   UNL A   1      47.218  28.170  22.680  1.00  0.00    -0.744 OA
ENDBRANCH  62  66
ENDBRANCH  45  59
BRANCH  46  70
ATOM     70  C   UNL A   1      38.144  31.121  31.084  1.00  0.00     0.023 A 
ATOM     71  C   UNL A   1      37.144  31.738  30.316  1.00  0.00     0.031 A 
ATOM     72  C   UNL A   1      37.922  30.988  32.468  1.00  0.00     0.131 A 
ATOM     73  C   UNL A   1      35.994  32.246  30.940  1.00  0.00     0.055 A 
ATOM     74  C   UNL A   1      36.750  31.443  33.075  1.00  0.00     0.041 A 
ATOM     75  F   UNL A   1      38.845  30.409  33.252  1.00  0.00    -0.206 F 
ATOM     76  C   UNL A   1      35.784  32.089  32.312  1.00  0.00     0.022 A 
BRANCH  73  77
ATOM     77  S   UNL A   1      34.819  33.206  29.948  1.00  0.00     0.124 S 
ATOM     78  O   UNL A   1      34.243  32.176  29.091  1.00  0.00    -0.237 OA
ATOM     79  O   UNL A   1      33.937  33.758  30.972  1.00  0.00    -0.237 OA
ATOM     80  O   UNL A   1      35.667  34.183  29.267  1.00  0.00    -0.744 OA
ENDBRANCH  73  77
ENDBRANCH  46  70
BRANCH  58  81
ATOM     81  C   UNL A   1      44.143  34.371  29.586  1.00  0.00     0.023 A 
ATOM     82  C   UNL A   1      43.698  35.366  28.699  1.00  0.00     0.031 A 
ATOM     83  C   UNL A   1      45.027  34.751  30.613  1.00  0.00     0.131 A 
ATOM     84  C   UNL A   1      44.199  36.672  28.809  1.00  0.00     0.055 A 
ATOM     85  C   UNL A   1      45.453  36.070  30.769  1.00  0.00     0.041 A 
ATOM     86  F   UNL A   1      45.491  33.844  31.489  1.00  0.00    -0.206 F 
ATOM     87  C   UNL A   1      45.053  37.035  29.852  1.00  0.00     0.022 A 
BRANCH  84  88
ATOM     88  S   UNL A   1      43.828  37.856  27.486  1.00  0.00     0.124 S 
ATOM     89  O   UNL A   1      43.013  37.052  26.580  1.00  0.00    -0.237 OA
ATOM     90  O   UNL A   1      43.126  38.915  28.204  1.00  0.00    -0.237 OA
ATOM     91  O   UNL A   1      45.147  38.222  26.975  1.00  0.00    -0.744 OA
ENDBRANCH  84  88
ENDBRANCH  58  81
ENDBRANCH  32  33
ENDBRANCH  25  27
ENDBRANCH  24  25
ENDBRANCH  23  24
ENDBRANCH   1  23
TORSDOF 18
ENDMDL
