MODEL 1
REMARK VINA RESULT:     -10.0      0.000      0.000
REMARK SMILES CC(=O)OCc1ccc(C(=O)OCCOCCOC(=O)c2ccc(-c3c4nc(c(-c5cc(S(=O)(=O)[O-])ccc5F)c5ccc([nH]5)c(-c5cc(S(=O)(=O)[O-])ccc5F)c5nc(c(-c6cc(S(=O)(=O)[O-])ccc6F)c6ccc3[nH]6)C=C5)C=C4)cc2)o1
REMARK SMILES IDX 15 1 14 2 13 3 12 4 10 5 11 6 9 7 6 8 7 9 84 10 8 11 5 12
REMARK SMILES IDX 4 13 2 14 1 15 3 16 16 17 17 18 18 19 19 20 20 21 21 22
REMARK SMILES IDX 22 23 83 24 23 25 82 26 24 27 25 28 26 29 76 30 27 31 81 32
REMARK SMILES IDX 75 33 77 34 28 35 80 36 74 37 73 38 29 40 61 41 41 42 60 43
REMARK SMILES IDX 42 44 45 45 59 46 78 47 43 48 44 49 58 51 79 52 46 53 30 54
REMARK SMILES IDX 31 55 39 56 32 57 38 58 40 59 37 60 33 61 34 62 35 63 36 64
REMARK SMILES IDX 62 65 63 66 71 67 64 68 70 69 72 70 69 71 65 72 66 73 67 74
REMARK SMILES IDX 68 75 47 76 48 77 56 78 49 79 55 80 57 81 54 82 50 83 51 84
REMARK SMILES IDX 52 85 53 86
REMARK H PARENT 77 39 45 50
REMARK Flexibility Score: inf
ROOT
ATOM      1  O   UNL A   1      32.909  30.092  25.977  1.00  0.00    -0.374 OA
ENDROOT
BRANCH   1   2
ATOM      2  C   UNL A   1      33.115  28.879  26.707  1.00  0.00     0.202 C 
BRANCH   2   3
ATOM      3  C   UNL A   1      31.819  28.138  27.049  1.00  0.00     0.261 C 
BRANCH   3   4
ATOM      4  O   UNL A   1      31.858  26.820  26.474  1.00  0.00    -0.457 OA
BRANCH   4   5
ATOM      5  C   UNL A   1      30.729  26.405  25.833  1.00  0.00     0.374 C 
ATOM      6  O   UNL A   1      29.802  25.803  26.360  1.00  0.00    -0.242 OA
BRANCH   5   7
ATOM      7  C   UNL A   1      30.751  26.903  24.476  1.00  0.00     0.211 A 
ATOM      8  C   UNL A   1      30.267  28.368  22.902  1.00  0.00     0.142 A 
ATOM      9  C   UNL A   1      31.165  27.485  22.342  1.00  0.00     0.050 A 
ATOM     10  O   UNL A   1      29.999  28.010  24.188  1.00  0.00    -0.450 OA
ATOM     11  C   UNL A   1      31.476  26.543  23.352  1.00  0.00     0.058 A 
BRANCH   8  12
ATOM     12  C   UNL A   1      29.565  29.570  22.392  1.00  0.00     0.308 C 
BRANCH  12  13
ATOM     13  O   UNL A   1      29.260  30.396  23.522  1.00  0.00    -0.458 OA
BRANCH  13  14
ATOM     14  C   UNL A   1      28.195  31.222  23.363  1.00  0.00     0.303 C 
ATOM     15  C   UNL A   1      28.529  32.312  22.392  1.00  0.00     0.139 C 
ATOM     16  O   UNL A   1      27.105  31.097  23.903  1.00  0.00    -0.253 OA
ENDBRANCH  13  14
ENDBRANCH  12  13
ENDBRANCH   8  12
ENDBRANCH   5   7
ENDBRANCH   4   5
ENDBRANCH   3   4
ENDBRANCH   2   3
ENDBRANCH   1   2
BRANCH   1  17
ATOM     17  C   UNL A   1      31.642  30.728  26.156  1.00  0.00     0.202 C 
BRANCH  17  18
ATOM     18  C   UNL A   1      31.707  32.227  26.462  1.00  0.00     0.261 C 
BRANCH  18  19
ATOM     19  O   UNL A   1      32.309  32.470  27.747  1.00  0.00    -0.460 OA
BRANCH  19  20
ATOM     20  C   UNL A   1      33.315  33.379  27.739  1.00  0.00     0.338 C 
ATOM     21  O   UNL A   1      33.209  34.583  27.572  1.00  0.00    -0.246 OA
BRANCH  20  22
ATOM     22  C   UNL A   1      34.582  32.733  28.143  1.00  0.00     0.060 A 
ATOM     23  C   UNL A   1      34.497  31.447  28.690  1.00  0.00     0.016 A 
ATOM     24  C   UNL A   1      35.819  33.374  28.035  1.00  0.00     0.016 A 
ATOM     25  C   UNL A   1      35.641  30.817  29.176  1.00  0.00     0.010 A 
ATOM     26  C   UNL A   1      36.968  32.740  28.526  1.00  0.00     0.010 A 
ATOM     27  C   UNL A   1      36.879  31.471  29.127  1.00  0.00    -0.014 A 
BRANCH  27  28
ATOM     28  C   UNL A   1      38.044  30.873  29.827  1.00  0.00     0.031 A 
ATOM     29  C   UNL A   1      38.325  31.269  31.252  1.00  0.00     0.074 A 
ATOM     30  C   UNL A   1      38.813  29.954  29.217  1.00  0.00     0.049 A 
ATOM     31  N   UNL A   1      39.272  30.861  32.056  1.00  0.00    -0.248 NA
ATOM     32  C   UNL A   1      37.415  32.260  31.845  1.00  0.00     0.031 C 
ATOM     33  C   UNL A   1      38.621  29.467  27.851  1.00  0.00     0.029 A 
ATOM     34  N   UNL A   1      39.910  29.264  29.667  1.00  0.00    -0.354 N 
ATOM     35  C   UNL A   1      39.073  31.541  33.253  1.00  0.00     0.074 A 
ATOM     36  C   UNL A   1      37.941  32.420  33.050  1.00  0.00     0.031 C 
ATOM     37  C   UNL A   1      39.572  28.559  27.574  1.00  0.00     0.029 A 
ATOM     38  C   UNL A   1      40.457  28.421  28.728  1.00  0.00     0.049 A 
ATOM     39  H   UNL A   1      40.273  29.363  30.578  1.00  0.00     0.167 HD
ATOM     40  C   UNL A   1      39.761  31.432  34.416  1.00  0.00     0.034 A 
ATOM     41  C   UNL A   1      41.554  27.639  28.790  1.00  0.00     0.034 A 
ATOM     42  C   UNL A   1      40.898  30.561  34.601  1.00  0.00     0.049 A 
ATOM     43  C   UNL A   1      42.351  27.589  30.071  1.00  0.00     0.074 A 
ATOM     44  C   UNL A   1      41.657  30.363  35.742  1.00  0.00     0.029 A 
ATOM     45  N   UNL A   1      41.450  29.754  33.614  1.00  0.00    -0.354 N 
ATOM     46  N   UNL A   1      42.138  28.222  31.202  1.00  0.00    -0.248 NA
ATOM     47  C   UNL A   1      43.526  26.710  30.086  1.00  0.00     0.031 C 
ATOM     48  C   UNL A   1      42.705  29.491  35.426  1.00  0.00     0.029 A 
ATOM     49  C   UNL A   1      42.557  29.083  34.110  1.00  0.00     0.049 A 
ATOM     50  H   UNL A   1      41.105  29.671  32.696  1.00  0.00     0.167 HD
ATOM     51  C   UNL A   1      43.137  27.791  32.072  1.00  0.00     0.074 A 
ATOM     52  C   UNL A   1      43.943  26.838  31.338  1.00  0.00     0.031 C 
ATOM     53  C   UNL A   1      43.362  28.144  33.363  1.00  0.00     0.034 A 
BRANCH  40  54
ATOM     54  C   UNL A   1      39.328  32.318  35.560  1.00  0.00     0.023 A 
ATOM     55  C   UNL A   1      39.732  33.662  35.650  1.00  0.00     0.031 A 
ATOM     56  C   UNL A   1      38.525  31.802  36.592  1.00  0.00     0.131 A 
ATOM     57  C   UNL A   1      39.394  34.420  36.781  1.00  0.00     0.055 A 
ATOM     58  C   UNL A   1      38.127  32.586  37.678  1.00  0.00     0.041 A 
ATOM     59  F   UNL A   1      38.125  30.521  36.573  1.00  0.00    -0.206 F 
ATOM     60  C   UNL A   1      38.574  33.900  37.785  1.00  0.00     0.022 A 
BRANCH  57  61
ATOM     61  S   UNL A   1      40.160  36.052  36.992  1.00  0.00     0.124 S 
ATOM     62  O   UNL A   1      39.879  36.679  35.703  1.00  0.00    -0.237 OA
ATOM     63  O   UNL A   1      39.437  36.592  38.138  1.00  0.00    -0.237 OA
ATOM     64  O   UNL A   1      41.568  35.741  37.232  1.00  0.00    -0.744 OA
ENDBRANCH  57  61
ENDBRANCH  40  54
BRANCH  41  65
ATOM     65  C   UNL A   1      41.990  26.861  27.595  1.00  0.00     0.023 A 
ATOM     66  C   UNL A   1      41.736  25.485  27.487  1.00  0.00     0.031 A 
ATOM     67  C   UNL A   1      42.717  27.481  26.563  1.00  0.00     0.131 A 
ATOM     68  C   UNL A   1      42.241  24.765  26.394  1.00  0.00     0.055 A 
ATOM     69  C   UNL A   1      43.175  26.771  25.453  1.00  0.00     0.041 A 
ATOM     70  F   UNL A   1      42.987  28.795  26.616  1.00  0.00    -0.206 F 
ATOM     71  C   UNL A   1      42.948  25.400  25.370  1.00  0.00     0.022 A 
BRANCH  68  72
ATOM     72  S   UNL A   1      42.024  22.964  26.363  1.00  0.00     0.124 S 
ATOM     73  O   UNL A   1      42.606  22.617  25.072  1.00  0.00    -0.237 OA
ATOM     74  O   UNL A   1      42.777  22.548  27.541  1.00  0.00    -0.237 OA
ATOM     75  O   UNL A   1      40.575  22.794  26.460  1.00  0.00    -0.744 OA
ENDBRANCH  68  72
ENDBRANCH  41  65
BRANCH  53  76
ATOM     76  C   UNL A   1      44.502  27.455  34.076  1.00  0.00     0.023 A 
ATOM     77  C   UNL A   1      44.307  26.285  34.830  1.00  0.00     0.031 A 
ATOM     78  C   UNL A   1      45.801  27.988  34.006  1.00  0.00     0.131 A 
ATOM     79  C   UNL A   1      45.384  25.717  35.529  1.00  0.00     0.055 A 
ATOM     80  C   UNL A   1      46.879  27.387  34.656  1.00  0.00     0.041 A 
ATOM     81  F   UNL A   1      46.044  29.105  33.301  1.00  0.00    -0.206 F 
ATOM     82  C   UNL A   1      46.671  26.251  35.434  1.00  0.00     0.022 A 
BRANCH  79  83
ATOM     83  S   UNL A   1      45.063  24.316  36.638  1.00  0.00     0.124 S 
ATOM     84  O   UNL A   1      44.166  24.909  37.624  1.00  0.00    -0.237 OA
ATOM     85  O   UNL A   1      44.463  23.337  35.738  1.00  0.00    -0.237 OA
ATOM     86  O   UNL A   1      46.391  23.964  37.139  1.00  0.00    -0.744 OA
ENDBRANCH  79  83
ENDBRANCH  53  76
ENDBRANCH  27  28
ENDBRANCH  20  22
ENDBRANCH  19  20
ENDBRANCH  18  19
ENDBRANCH  17  18
ENDBRANCH   1  17
TORSDOF 20
ENDMDL
MODEL 2
REMARK VINA RESULT:      -9.8      5.722     12.086
REMARK SMILES CC(=O)OCc1ccc(C(=O)OCCOCCOC(=O)c2ccc(-c3c4nc(c(-c5cc(S(=O)(=O)[O-])ccc5F)c5ccc([nH]5)c(-c5cc(S(=O)(=O)[O-])ccc5F)c5nc(c(-c6cc(S(=O)(=O)[O-])ccc6F)c6ccc3[nH]6)C=C5)C=C4)cc2)o1
REMARK SMILES IDX 15 1 14 2 13 3 12 4 10 5 11 6 9 7 6 8 7 9 84 10 8 11 5 12
REMARK SMILES IDX 4 13 2 14 1 15 3 16 16 17 17 18 18 19 19 20 20 21 21 22
REMARK SMILES IDX 22 23 83 24 23 25 82 26 24 27 25 28 26 29 76 30 27 31 81 32
REMARK SMILES IDX 75 33 77 34 28 35 80 36 74 37 73 38 29 40 61 41 41 42 60 43
REMARK SMILES IDX 42 44 45 45 59 46 78 47 43 48 44 49 58 51 79 52 46 53 30 54
REMARK SMILES IDX 31 55 39 56 32 57 38 58 40 59 37 60 33 61 34 62 35 63 36 64
REMARK SMILES IDX 62 65 63 66 71 67 64 68 70 69 72 70 69 71 65 72 66 73 67 74
REMARK SMILES IDX 68 75 47 76 48 77 56 78 49 79 55 80 57 81 54 82 50 83 51 84
REMARK SMILES IDX 52 85 53 86
REMARK H PARENT 77 39 45 50
REMARK Flexibility Score: inf
ROOT
ATOM      1  O   UNL A   1      42.471  19.864  25.273  1.00  0.00    -0.374 OA
ENDROOT
BRANCH   1   2
ATOM      2  C   UNL A   1      43.305  18.821  25.785  1.00  0.00     0.202 C 
BRANCH   2   3
ATOM      3  C   UNL A   1      44.578  18.592  24.964  1.00  0.00     0.261 C 
BRANCH   3   4
ATOM      4  O   UNL A   1      45.698  19.187  25.644  1.00  0.00    -0.457 OA
BRANCH   4   5
ATOM      5  C   UNL A   1      46.419  20.103  24.939  1.00  0.00     0.374 C 
ATOM      6  O   UNL A   1      47.425  19.854  24.287  1.00  0.00    -0.242 OA
BRANCH   5   7
ATOM      7  C   UNL A   1      45.731  21.374  24.981  1.00  0.00     0.211 A 
ATOM      8  C   UNL A   1      45.095  23.244  25.960  1.00  0.00     0.142 A 
ATOM      9  C   UNL A   1      44.753  23.369  24.631  1.00  0.00     0.050 A 
ATOM     10  O   UNL A   1      45.672  22.030  26.181  1.00  0.00    -0.450 OA
ATOM     11  C   UNL A   1      45.161  22.169  24.001  1.00  0.00     0.058 A 
BRANCH   8  12
ATOM     12  C   UNL A   1      44.953  24.131  27.138  1.00  0.00     0.308 C 
BRANCH  12  13
ATOM     13  O   UNL A   1      45.091  23.313  28.306  1.00  0.00    -0.458 OA
BRANCH  13  14
ATOM     14  C   UNL A   1      44.275  23.640  29.340  1.00  0.00     0.303 C 
ATOM     15  C   UNL A   1      42.853  23.328  28.993  1.00  0.00     0.139 C 
ATOM     16  O   UNL A   1      44.633  24.100  30.416  1.00  0.00    -0.253 OA
ENDBRANCH  13  14
ENDBRANCH  12  13
ENDBRANCH   8  12
ENDBRANCH   5   7
ENDBRANCH   4   5
ENDBRANCH   3   4
ENDBRANCH   2   3
ENDBRANCH   1   2
BRANCH   1  17
ATOM     17  C   UNL A   1      42.020  20.834  26.221  1.00  0.00     0.202 C 
BRANCH  17  18
ATOM     18  C   UNL A   1      40.525  20.777  26.546  1.00  0.00     0.261 C 
BRANCH  18  19
ATOM     19  O   UNL A   1      40.109  21.939  27.286  1.00  0.00    -0.460 OA
BRANCH  19  20
ATOM     20  C   UNL A   1      39.319  22.798  26.596  1.00  0.00     0.338 C 
ATOM     21  O   UNL A   1      38.466  22.505  25.775  1.00  0.00    -0.246 OA
BRANCH  20  22
ATOM     22  C   UNL A   1      39.505  24.174  27.104  1.00  0.00     0.060 A 
ATOM     23  C   UNL A   1      40.095  25.100  26.237  1.00  0.00     0.016 A 
ATOM     24  C   UNL A   1      39.157  24.547  28.405  1.00  0.00     0.016 A 
ATOM     25  C   UNL A   1      40.384  26.389  26.681  1.00  0.00     0.010 A 
ATOM     26  C   UNL A   1      39.450  25.843  28.851  1.00  0.00     0.010 A 
ATOM     27  C   UNL A   1      40.094  26.760  28.001  1.00  0.00    -0.014 A 
BRANCH  27  28
ATOM     28  C   UNL A   1      40.588  28.062  28.514  1.00  0.00     0.031 A 
ATOM     29  C   UNL A   1      42.071  28.276  28.663  1.00  0.00     0.074 A 
ATOM     30  C   UNL A   1      39.730  29.057  28.800  1.00  0.00     0.049 A 
ATOM     31  N   UNL A   1      42.720  29.334  29.074  1.00  0.00    -0.248 NA
ATOM     32  C   UNL A   1      42.932  27.141  28.302  1.00  0.00     0.031 C 
ATOM     33  C   UNL A   1      38.275  28.980  28.665  1.00  0.00     0.029 A 
ATOM     34  N   UNL A   1      39.957  30.330  29.260  1.00  0.00    -0.354 N 
ATOM     35  C   UNL A   1      44.069  28.996  29.017  1.00  0.00     0.074 A 
ATOM     36  C   UNL A   1      44.137  27.620  28.576  1.00  0.00     0.031 C 
ATOM     37  C   UNL A   1      37.740  30.155  29.040  1.00  0.00     0.029 A 
ATOM     38  C   UNL A   1      38.808  31.056  29.467  1.00  0.00     0.049 A 
ATOM     39  H   UNL A   1      40.858  30.690  29.427  1.00  0.00     0.167 HD
ATOM     40  C   UNL A   1      45.149  29.767  29.296  1.00  0.00     0.034 A 
ATOM     41  C   UNL A   1      38.637  32.300  29.960  1.00  0.00     0.034 A 
ATOM     42  C   UNL A   1      45.067  31.135  29.749  1.00  0.00     0.049 A 
ATOM     43  C   UNL A   1      39.851  33.115  30.334  1.00  0.00     0.074 A 
ATOM     44  C   UNL A   1      46.098  32.010  30.044  1.00  0.00     0.029 A 
ATOM     45  N   UNL A   1      43.884  31.824  29.989  1.00  0.00    -0.354 N 
ATOM     46  N   UNL A   1      41.122  32.791  30.256  1.00  0.00    -0.248 NA
ATOM     47  C   UNL A   1      39.607  34.468  30.850  1.00  0.00     0.031 C 
ATOM     48  C   UNL A   1      45.542  33.201  30.525  1.00  0.00     0.029 A 
ATOM     49  C   UNL A   1      44.161  33.099  30.459  1.00  0.00     0.049 A 
ATOM     50  H   UNL A   1      42.981  31.460  29.846  1.00  0.00     0.167 HD
ATOM     51  C   UNL A   1      41.827  33.913  30.684  1.00  0.00     0.074 A 
ATOM     52  C   UNL A   1      40.842  34.924  31.008  1.00  0.00     0.031 C 
ATOM     53  C   UNL A   1      43.168  34.095  30.791  1.00  0.00     0.034 A 
BRANCH  40  54
ATOM     54  C   UNL A   1      46.509  29.124  29.163  1.00  0.00     0.023 A 
ATOM     55  C   UNL A   1      47.244  29.188  27.966  1.00  0.00     0.031 A 
ATOM     56  C   UNL A   1      47.063  28.408  30.238  1.00  0.00     0.131 A 
ATOM     57  C   UNL A   1      48.456  28.489  27.851  1.00  0.00     0.055 A 
ATOM     58  C   UNL A   1      48.306  27.778  30.141  1.00  0.00     0.041 A 
ATOM     59  F   UNL A   1      46.398  28.292  31.399  1.00  0.00    -0.206 F 
ATOM     60  C   UNL A   1      49.004  27.803  28.937  1.00  0.00     0.022 A 
BRANCH  57  61
ATOM     61  S   UNL A   1      49.236  28.367  26.216  1.00  0.00     0.124 S 
ATOM     62  O   UNL A   1      49.988  27.121  26.341  1.00  0.00    -0.237 OA
ATOM     63  O   UNL A   1      48.086  28.334  25.321  1.00  0.00    -0.237 OA
ATOM     64  O   UNL A   1      50.054  29.575  26.137  1.00  0.00    -0.744 OA
ENDBRANCH  57  61
ENDBRANCH  40  54
BRANCH  41  65
ATOM     65  C   UNL A   1      37.265  32.848  30.161  1.00  0.00     0.023 A 
ATOM     66  C   UNL A   1      36.723  33.006  31.446  1.00  0.00     0.031 A 
ATOM     67  C   UNL A   1      36.457  33.175  29.058  1.00  0.00     0.131 A 
ATOM     68  C   UNL A   1      35.396  33.436  31.596  1.00  0.00     0.055 A 
ATOM     69  C   UNL A   1      35.153  33.649  29.213  1.00  0.00     0.041 A 
ATOM     70  F   UNL A   1      36.926  33.043  27.807  1.00  0.00    -0.206 F 
ATOM     71  C   UNL A   1      34.611  33.771  30.488  1.00  0.00     0.022 A 
BRANCH  68  72
ATOM     72  S   UNL A   1      34.679  33.484  33.262  1.00  0.00     0.124 S 
ATOM     73  O   UNL A   1      33.339  32.960  33.023  1.00  0.00    -0.237 OA
ATOM     74  O   UNL A   1      35.585  32.615  34.005  1.00  0.00    -0.237 OA
ATOM     75  O   UNL A   1      34.743  34.899  33.619  1.00  0.00    -0.744 OA
ENDBRANCH  68  72
ENDBRANCH  41  65
BRANCH  53  76
ATOM     76  C   UNL A   1      43.645  35.458  31.234  1.00  0.00     0.023 A 
ATOM     77  C   UNL A   1      43.878  36.497  30.318  1.00  0.00     0.031 A 
ATOM     78  C   UNL A   1      43.879  35.713  32.598  1.00  0.00     0.131 A 
ATOM     79  C   UNL A   1      44.383  37.727  30.769  1.00  0.00     0.055 A 
ATOM     80  C   UNL A   1      44.327  36.956  33.047  1.00  0.00     0.041 A 
ATOM     81  F   UNL A   1      43.675  34.756  33.517  1.00  0.00    -0.206 F 
ATOM     82  C   UNL A   1      44.593  37.968  32.128  1.00  0.00     0.022 A 
BRANCH  79  83
ATOM     83  S   UNL A   1      44.845  38.983  29.543  1.00  0.00     0.124 S 
ATOM     84  O   UNL A   1      46.246  39.225  29.870  1.00  0.00    -0.237 OA
ATOM     85  O   UNL A   1      44.593  38.295  28.281  1.00  0.00    -0.237 OA
ATOM     86  O   UNL A   1      43.939  40.094  29.833  1.00  0.00    -0.744 OA
ENDBRANCH  79  83
ENDBRANCH  53  76
ENDBRANCH  27  28
ENDBRANCH  20  22
ENDBRANCH  19  20
ENDBRANCH  18  19
ENDBRANCH  17  18
ENDBRANCH   1  17
TORSDOF 20
ENDMDL
MODEL 3
REMARK VINA RESULT:      -9.7      5.614     12.204
REMARK SMILES CC(=O)OCc1ccc(C(=O)OCCOCCOC(=O)c2ccc(-c3c4nc(c(-c5cc(S(=O)(=O)[O-])ccc5F)c5ccc([nH]5)c(-c5cc(S(=O)(=O)[O-])ccc5F)c5nc(c(-c6cc(S(=O)(=O)[O-])ccc6F)c6ccc3[nH]6)C=C5)C=C4)cc2)o1
REMARK SMILES IDX 15 1 14 2 13 3 12 4 10 5 11 6 9 7 6 8 7 9 84 10 8 11 5 12
REMARK SMILES IDX 4 13 2 14 1 15 3 16 16 17 17 18 18 19 19 20 20 21 21 22
REMARK SMILES IDX 22 23 83 24 23 25 82 26 24 27 25 28 26 29 76 30 27 31 81 32
REMARK SMILES IDX 75 33 77 34 28 35 80 36 74 37 73 38 29 40 61 41 41 42 60 43
REMARK SMILES IDX 42 44 45 45 59 46 78 47 43 48 44 49 58 51 79 52 46 53 30 54
REMARK SMILES IDX 31 55 39 56 32 57 38 58 40 59 37 60 33 61 34 62 35 63 36 64
REMARK SMILES IDX 62 65 63 66 71 67 64 68 70 69 72 70 69 71 65 72 66 73 67 74
REMARK SMILES IDX 68 75 47 76 48 77 56 78 49 79 55 80 57 81 54 82 50 83 51 84
REMARK SMILES IDX 52 85 53 86
REMARK H PARENT 77 39 45 50
REMARK Flexibility Score: inf
ROOT
ATOM      1  O   UNL A   1      42.616  19.760  25.216  1.00  0.00    -0.374 OA
ENDROOT
BRANCH   1   2
ATOM      2  C   UNL A   1      43.372  18.683  25.778  1.00  0.00     0.202 C 
BRANCH   2   3
ATOM      3  C   UNL A   1      44.727  18.461  25.098  1.00  0.00     0.261 C 
BRANCH   3   4
ATOM      4  O   UNL A   1      45.722  19.279  25.738  1.00  0.00    -0.457 OA
BRANCH   4   5
ATOM      5  C   UNL A   1      46.412  20.135  24.933  1.00  0.00     0.374 C 
ATOM      6  O   UNL A   1      47.401  19.837  24.274  1.00  0.00    -0.242 OA
BRANCH   5   7
ATOM      7  C   UNL A   1      45.714  21.400  24.885  1.00  0.00     0.211 A 
ATOM      8  C   UNL A   1      45.253  23.429  25.611  1.00  0.00     0.142 A 
ATOM      9  C   UNL A   1      44.627  23.306  24.389  1.00  0.00     0.050 A 
ATOM     10  O   UNL A   1      45.897  22.272  25.924  1.00  0.00    -0.450 OA
ATOM     11  C   UNL A   1      44.922  22.003  23.922  1.00  0.00     0.058 A 
BRANCH   8  12
ATOM     12  C   UNL A   1      45.344  24.525  26.604  1.00  0.00     0.308 C 
BRANCH  12  13
ATOM     13  O   UNL A   1      46.640  25.120  26.462  1.00  0.00    -0.458 OA
BRANCH  13  14
ATOM     14  C   UNL A   1      46.766  25.989  25.427  1.00  0.00     0.303 C 
ATOM     15  C   UNL A   1      47.999  25.674  24.638  1.00  0.00     0.139 C 
ATOM     16  O   UNL A   1      45.985  26.888  25.147  1.00  0.00    -0.253 OA
ENDBRANCH  13  14
ENDBRANCH  12  13
ENDBRANCH   8  12
ENDBRANCH   5   7
ENDBRANCH   4   5
ENDBRANCH   3   4
ENDBRANCH   2   3
ENDBRANCH   1   2
BRANCH   1  17
ATOM     17  C   UNL A   1      42.109  20.724  26.140  1.00  0.00     0.202 C 
BRANCH  17  18
ATOM     18  C   UNL A   1      40.648  20.520  26.554  1.00  0.00     0.261 C 
BRANCH  18  19
ATOM     19  O   UNL A   1      40.139  21.674  27.248  1.00  0.00    -0.460 OA
BRANCH  19  20
ATOM     20  C   UNL A   1      39.373  22.498  26.492  1.00  0.00     0.338 C 
ATOM     21  O   UNL A   1      38.569  22.166  25.637  1.00  0.00    -0.246 OA
BRANCH  20  22
ATOM     22  C   UNL A   1      39.510  23.892  26.968  1.00  0.00     0.060 A 
ATOM     23  C   UNL A   1      40.052  24.821  26.073  1.00  0.00     0.016 A 
ATOM     24  C   UNL A   1      39.163  24.280  28.265  1.00  0.00     0.016 A 
ATOM     25  C   UNL A   1      40.295  26.130  26.485  1.00  0.00     0.010 A 
ATOM     26  C   UNL A   1      39.409  25.595  28.678  1.00  0.00     0.010 A 
ATOM     27  C   UNL A   1      40.006  26.518  27.800  1.00  0.00    -0.014 A 
BRANCH  27  28
ATOM     28  C   UNL A   1      40.455  27.850  28.279  1.00  0.00     0.031 A 
ATOM     29  C   UNL A   1      41.921  28.189  28.237  1.00  0.00     0.074 A 
ATOM     30  C   UNL A   1      39.562  28.763  28.702  1.00  0.00     0.049 A 
ATOM     31  N   UNL A   1      42.529  29.293  28.586  1.00  0.00    -0.248 NA
ATOM     32  C   UNL A   1      42.817  27.138  27.734  1.00  0.00     0.031 C 
ATOM     33  C   UNL A   1      38.114  28.563  28.759  1.00  0.00     0.029 A 
ATOM     34  N   UNL A   1      39.741  30.043  29.162  1.00  0.00    -0.354 N 
ATOM     35  C   UNL A   1      43.881  29.073  28.343  1.00  0.00     0.074 A 
ATOM     36  C   UNL A   1      44.004  27.715  27.859  1.00  0.00     0.031 C 
ATOM     37  C   UNL A   1      37.537  29.681  29.232  1.00  0.00     0.029 A 
ATOM     38  C   UNL A   1      38.574  30.664  29.539  1.00  0.00     0.049 A 
ATOM     39  H   UNL A   1      40.624  30.477  29.219  1.00  0.00     0.167 HD
ATOM     40  C   UNL A   1      44.921  29.930  28.497  1.00  0.00     0.034 A 
ATOM     41  C   UNL A   1      38.368  31.881  30.083  1.00  0.00     0.034 A 
ATOM     42  C   UNL A   1      44.786  31.279  28.994  1.00  0.00     0.049 A 
ATOM     43  C   UNL A   1      39.549  32.792  30.316  1.00  0.00     0.074 A 
ATOM     44  C   UNL A   1      45.771  32.235  29.173  1.00  0.00     0.029 A 
ATOM     45  N   UNL A   1      43.593  31.859  29.406  1.00  0.00    -0.354 N 
ATOM     46  N   UNL A   1      40.820  32.580  30.061  1.00  0.00    -0.248 NA
ATOM     47  C   UNL A   1      39.264  34.111  30.896  1.00  0.00     0.031 C 
ATOM     48  C   UNL A   1      45.186  33.365  29.756  1.00  0.00     0.029 A 
ATOM     49  C   UNL A   1      43.823  33.145  29.870  1.00  0.00     0.049 A 
ATOM     50  H   UNL A   1      42.712  31.420  29.374  1.00  0.00     0.167 HD
ATOM     51  C   UNL A   1      41.480  33.752  30.423  1.00  0.00     0.074 A 
ATOM     52  C   UNL A   1      40.466  34.668  30.901  1.00  0.00     0.031 C 
ATOM     53  C   UNL A   1      42.804  34.047  30.356  1.00  0.00     0.034 A 
BRANCH  40  54
ATOM     54  C   UNL A   1      46.299  29.408  28.168  1.00  0.00     0.023 A 
ATOM     55  C   UNL A   1      47.011  28.586  29.060  1.00  0.00     0.031 A 
ATOM     56  C   UNL A   1      46.924  29.765  26.961  1.00  0.00     0.131 A 
ATOM     57  C   UNL A   1      48.329  28.208  28.763  1.00  0.00     0.055 A 
ATOM     58  C   UNL A   1      48.208  29.321  26.637  1.00  0.00     0.041 A 
ATOM     59  F   UNL A   1      46.304  30.566  26.080  1.00  0.00    -0.206 F 
ATOM     60  C   UNL A   1      48.925  28.550  27.547  1.00  0.00     0.022 A 
BRANCH  57  61
ATOM     61  S   UNL A   1      49.307  27.383  30.050  1.00  0.00     0.124 S 
ATOM     62  O   UNL A   1      50.551  27.099  29.339  1.00  0.00    -0.237 OA
ATOM     63  O   UNL A   1      49.382  28.403  31.089  1.00  0.00    -0.237 OA
ATOM     64  O   UNL A   1      48.508  26.207  30.387  1.00  0.00    -0.744 OA
ENDBRANCH  57  61
ENDBRANCH  40  54
BRANCH  41  65
ATOM     65  C   UNL A   1      36.994  32.305  30.478  1.00  0.00     0.023 A 
ATOM     66  C   UNL A   1      36.126  32.915  29.560  1.00  0.00     0.031 A 
ATOM     67  C   UNL A   1      36.550  32.148  31.804  1.00  0.00     0.131 A 
ATOM     68  C   UNL A   1      34.874  33.385  29.988  1.00  0.00     0.055 A 
ATOM     69  C   UNL A   1      35.286  32.573  32.214  1.00  0.00     0.041 A 
ATOM     70  F   UNL A   1      37.341  31.571  32.722  1.00  0.00    -0.206 F 
ATOM     71  C   UNL A   1      34.444  33.208  31.306  1.00  0.00     0.022 A 
BRANCH  68  72
ATOM     72  S   UNL A   1      33.841  34.302  28.812  1.00  0.00     0.124 S 
ATOM     73  O   UNL A   1      33.387  33.238  27.924  1.00  0.00    -0.237 OA
ATOM     74  O   UNL A   1      32.830  34.883  29.688  1.00  0.00    -0.237 OA
ATOM     75  O   UNL A   1      34.771  35.259  28.217  1.00  0.00    -0.744 OA
ENDBRANCH  68  72
ENDBRANCH  41  65
BRANCH  53  76
ATOM     76  C   UNL A   1      43.220  35.439  30.770  1.00  0.00     0.023 A 
ATOM     77  C   UNL A   1      43.333  36.486  29.840  1.00  0.00     0.031 A 
ATOM     78  C   UNL A   1      43.517  35.715  32.117  1.00  0.00     0.131 A 
ATOM     79  C   UNL A   1      43.787  37.747  30.259  1.00  0.00     0.055 A 
ATOM     80  C   UNL A   1      43.912  36.985  32.537  1.00  0.00     0.041 A 
ATOM     81  F   UNL A   1      43.427  34.751  33.047  1.00  0.00    -0.206 F 
ATOM     82  C   UNL A   1      44.061  38.007  31.604  1.00  0.00     0.022 A 
BRANCH  79  83
ATOM     83  S   UNL A   1      44.097  39.024  29.007  1.00  0.00     0.124 S 
ATOM     84  O   UNL A   1      45.269  38.494  28.318  1.00  0.00    -0.237 OA
ATOM     85  O   UNL A   1      42.853  39.021  28.244  1.00  0.00    -0.237 OA
ATOM     86  O   UNL A   1      44.335  40.230  29.799  1.00  0.00    -0.744 OA
ENDBRANCH  79  83
ENDBRANCH  53  76
ENDBRANCH  27  28
ENDBRANCH  20  22
ENDBRANCH  19  20
ENDBRANCH  18  19
ENDBRANCH  17  18
ENDBRANCH   1  17
TORSDOF 20
ENDMDL
