MODEL 1
REMARK VINA RESULT:     -10.3      0.000      0.000
REMARK SMILES CC(=O)Oc1ccccc1C(=O)OCCOCCOC(=O)c1ccc(-c2c3nc(c(-c4cc(S(=O)(=O)[O-])ccc4F)c4ccc([nH]4)c(-c4cc(S(=O)(=O)[O-])ccc4F)c4nc(c(-c5cc(S(=O)(=O)[O-])ccc5F)c5ccc2[nH]5)C=C4)C=C3)cc1
REMARK SMILES IDX 17 1 16 2 15 3 14 4 13 5 11 6 12 7 10 8 5 9 6 10 7 11 9 12
REMARK SMILES IDX 8 13 4 14 2 15 1 16 3 17 18 18 19 19 20 20 21 21 22 22 23 23
REMARK SMILES IDX 84 24 24 25 83 26 25 27 26 28 27 29 77 30 28 31 82 32 76 33
REMARK SMILES IDX 78 34 29 35 81 36 75 37 74 38 30 40 62 41 42 42 61 43 43 44
REMARK SMILES IDX 46 45 60 46 79 47 44 48 45 49 59 51 80 52 47 53 31 54 32 55
REMARK SMILES IDX 40 56 33 57 39 58 41 59 38 60 34 61 35 62 36 63 37 64 63 65
REMARK SMILES IDX 64 66 72 67 65 68 71 69 73 70 70 71 66 72 67 73 68 74 69 75
REMARK SMILES IDX 48 76 49 77 57 78 50 79 56 80 58 81 55 82 51 83 52 84 53 85
REMARK SMILES IDX 54 86
REMARK H PARENT 78 39 46 50
REMARK Flexibility Score: inf
ROOT
ATOM      1  C   UNL A   1      35.924  21.460  25.613  1.00  0.00     0.202 C 
ENDROOT
BRANCH   1   2
ATOM      2  O   UNL A   1      35.008  21.792  24.570  1.00  0.00    -0.374 OA
BRANCH   2   3
ATOM      3  C   UNL A   1      35.327  22.907  23.737  1.00  0.00     0.202 C 
BRANCH   3   4
ATOM      4  C   UNL A   1      34.234  23.964  23.568  1.00  0.00     0.261 C 
BRANCH   4   5
ATOM      5  O   UNL A   1      34.489  25.111  24.394  1.00  0.00    -0.460 OA
BRANCH   5   6
ATOM      6  C   UNL A   1      33.815  26.237  24.056  1.00  0.00     0.342 C 
ATOM      7  O   UNL A   1      33.594  26.632  22.920  1.00  0.00    -0.246 OA
BRANCH   6   8
ATOM      8  C   UNL A   1      33.193  26.869  25.247  1.00  0.00     0.102 A 
ATOM      9  C   UNL A   1      32.099  26.366  25.961  1.00  0.00     0.145 A 
ATOM     10  C   UNL A   1      31.586  27.066  27.061  1.00  0.00     0.048 A 
ATOM     11  C   UNL A   1      32.154  28.281  27.447  1.00  0.00     0.004 A 
ATOM     12  C   UNL A   1      33.746  28.101  25.642  1.00  0.00     0.019 A 
ATOM     13  C   UNL A   1      33.226  28.806  26.728  1.00  0.00     0.001 A 
BRANCH   9  14
ATOM     14  O   UNL A   1      31.362  25.237  25.571  1.00  0.00    -0.426 OA
BRANCH  14  15
ATOM     15  C   UNL A   1      31.196  24.239  26.525  1.00  0.00     0.308 C 
ATOM     16  C   UNL A   1      32.504  23.528  26.722  1.00  0.00     0.139 C 
ATOM     17  O   UNL A   1      30.153  23.962  27.101  1.00  0.00    -0.252 OA
ENDBRANCH  14  15
ENDBRANCH   9  14
ENDBRANCH   6   8
ENDBRANCH   5   6
ENDBRANCH   4   5
ENDBRANCH   3   4
ENDBRANCH   2   3
ENDBRANCH   1   2
BRANCH   1  18
ATOM     18  C   UNL A   1      37.139  20.604  25.234  1.00  0.00     0.261 C 
BRANCH  18  19
ATOM     19  O   UNL A   1      38.345  21.370  25.070  1.00  0.00    -0.460 OA
BRANCH  19  20
ATOM     20  C   UNL A   1      39.277  21.166  26.033  1.00  0.00     0.338 C 
ATOM     21  O   UNL A   1      39.817  20.106  26.321  1.00  0.00    -0.246 OA
BRANCH  20  22
ATOM     22  C   UNL A   1      39.698  22.449  26.621  1.00  0.00     0.060 A 
ATOM     23  C   UNL A   1      39.091  23.617  26.143  1.00  0.00     0.016 A 
ATOM     24  C   UNL A   1      40.744  22.521  27.544  1.00  0.00     0.016 A 
ATOM     25  C   UNL A   1      39.557  24.865  26.552  1.00  0.00     0.010 A 
ATOM     26  C   UNL A   1      41.217  23.776  27.946  1.00  0.00     0.010 A 
ATOM     27  C   UNL A   1      40.648  24.954  27.428  1.00  0.00    -0.014 A 
BRANCH  27  28
ATOM     28  C   UNL A   1      41.276  26.274  27.689  1.00  0.00     0.031 A 
ATOM     29  C   UNL A   1      42.661  26.543  27.162  1.00  0.00     0.074 A 
ATOM     30  C   UNL A   1      40.608  27.233  28.358  1.00  0.00     0.049 A 
ATOM     31  N   UNL A   1      43.415  27.601  27.311  1.00  0.00    -0.248 NA
ATOM     32  C   UNL A   1      43.274  25.473  26.359  1.00  0.00     0.031 C 
ATOM     33  C   UNL A   1      39.243  27.108  28.867  1.00  0.00     0.029 A 
ATOM     34  N   UNL A   1      40.990  28.498  28.725  1.00  0.00    -0.354 N 
ATOM     35  C   UNL A   1      44.592  27.329  26.620  1.00  0.00     0.074 A 
ATOM     36  C   UNL A   1      44.463  25.990  26.085  1.00  0.00     0.031 C 
ATOM     37  C   UNL A   1      38.907  28.250  29.492  1.00  0.00     0.029 A 
ATOM     38  C   UNL A   1      40.042  29.170  29.461  1.00  0.00     0.049 A 
ATOM     39  H   UNL A   1      41.862  28.888  28.485  1.00  0.00     0.167 HD
ATOM     40  C   UNL A   1      45.675  28.125  26.440  1.00  0.00     0.034 A 
ATOM     41  C   UNL A   1      40.096  30.376  30.061  1.00  0.00     0.034 A 
ATOM     42  C   UNL A   1      45.797  29.454  26.990  1.00  0.00     0.049 A 
ATOM     43  C   UNL A   1      41.353  31.206  29.928  1.00  0.00     0.074 A 
ATOM     44  C   UNL A   1      46.851  30.343  26.871  1.00  0.00     0.029 A 
ATOM     45  N   UNL A   1      44.835  30.082  27.770  1.00  0.00    -0.354 N 
ATOM     46  N   UNL A   1      42.459  30.933  29.275  1.00  0.00    -0.248 NA
ATOM     47  C   UNL A   1      41.363  32.509  30.608  1.00  0.00     0.031 C 
ATOM     48  C   UNL A   1      46.555  31.481  27.631  1.00  0.00     0.029 A 
ATOM     49  C   UNL A   1      45.284  31.334  28.163  1.00  0.00     0.049 A 
ATOM     50  H   UNL A   1      43.962  29.696  28.009  1.00  0.00     0.167 HD
ATOM     51  C   UNL A   1      43.280  32.047  29.438  1.00  0.00     0.074 A 
ATOM     52  C   UNL A   1      42.537  32.998  30.239  1.00  0.00     0.031 C 
ATOM     53  C   UNL A   1      44.533  32.270  28.965  1.00  0.00     0.034 A 
BRANCH  40  54
ATOM     54  C   UNL A   1      46.831  27.558  25.654  1.00  0.00     0.023 A 
ATOM     55  C   UNL A   1      47.090  27.954  24.331  1.00  0.00     0.031 A 
ATOM     56  C   UNL A   1      47.681  26.600  26.236  1.00  0.00     0.131 A 
ATOM     57  C   UNL A   1      48.136  27.354  23.614  1.00  0.00     0.055 A 
ATOM     58  C   UNL A   1      48.764  26.059  25.540  1.00  0.00     0.041 A 
ATOM     59  F   UNL A   1      47.469  26.168  27.488  1.00  0.00    -0.206 F 
ATOM     60  C   UNL A   1      48.989  26.426  24.216  1.00  0.00     0.022 A 
BRANCH  57  61
ATOM     61  S   UNL A   1      48.294  27.714  21.843  1.00  0.00     0.124 S 
ATOM     62  O   UNL A   1      48.532  26.383  21.291  1.00  0.00    -0.237 OA
ATOM     63  O   UNL A   1      47.004  28.316  21.527  1.00  0.00    -0.237 OA
ATOM     64  O   UNL A   1      49.438  28.622  21.779  1.00  0.00    -0.744 OA
ENDBRANCH  57  61
ENDBRANCH  40  54
BRANCH  41  65
ATOM     65  C   UNL A   1      38.954  30.868  30.885  1.00  0.00     0.023 A 
ATOM     66  C   UNL A   1      37.916  31.622  30.312  1.00  0.00     0.031 A 
ATOM     67  C   UNL A   1      38.927  30.661  32.276  1.00  0.00     0.131 A 
ATOM     68  C   UNL A   1      36.929  32.191  31.133  1.00  0.00     0.055 A 
ATOM     69  C   UNL A   1      37.910  31.180  33.081  1.00  0.00     0.041 A 
ATOM     70  F   UNL A   1      39.894  29.950  32.876  1.00  0.00    -0.206 F 
ATOM     71  C   UNL A   1      36.912  31.964  32.511  1.00  0.00     0.022 A 
BRANCH  68  72
ATOM     72  S   UNL A   1      35.729  33.327  30.385  1.00  0.00     0.124 S 
ATOM     73  O   UNL A   1      34.741  32.399  29.845  1.00  0.00    -0.237 OA
ATOM     74  O   UNL A   1      35.305  34.117  31.535  1.00  0.00    -0.237 OA
ATOM     75  O   UNL A   1      36.519  34.048  29.391  1.00  0.00    -0.744 OA
ENDBRANCH  68  72
ENDBRANCH  41  65
BRANCH  53  76
ATOM     76  C   UNL A   1      45.152  33.614  29.262  1.00  0.00     0.023 A 
ATOM     77  C   UNL A   1      45.019  34.702  28.381  1.00  0.00     0.031 A 
ATOM     78  C   UNL A   1      45.896  33.804  30.439  1.00  0.00     0.131 A 
ATOM     79  C   UNL A   1      45.667  35.914  28.664  1.00  0.00     0.055 A 
ATOM     80  C   UNL A   1      46.491  35.029  30.744  1.00  0.00     0.041 A 
ATOM     81  F   UNL A   1      46.057  32.800  31.315  1.00  0.00    -0.206 F 
ATOM     82  C   UNL A   1      46.390  36.089  29.847  1.00  0.00     0.022 A 
BRANCH  79  83
ATOM     83  S   UNL A   1      45.626  37.236  27.422  1.00  0.00     0.124 S 
ATOM     84  O   UNL A   1      44.196  37.359  27.156  1.00  0.00    -0.237 OA
ATOM     85  O   UNL A   1      46.241  38.351  28.134  1.00  0.00    -0.237 OA
ATOM     86  O   UNL A   1      46.417  36.695  26.318  1.00  0.00    -0.744 OA
ENDBRANCH  79  83
ENDBRANCH  53  76
ENDBRANCH  27  28
ENDBRANCH  20  22
ENDBRANCH  19  20
ENDBRANCH  18  19
ENDBRANCH   1  18
TORSDOF 19
ENDMDL
MODEL 2
REMARK VINA RESULT:     -10.2      1.858      8.065
REMARK SMILES CC(=O)Oc1ccccc1C(=O)OCCOCCOC(=O)c1ccc(-c2c3nc(c(-c4cc(S(=O)(=O)[O-])ccc4F)c4ccc([nH]4)c(-c4cc(S(=O)(=O)[O-])ccc4F)c4nc(c(-c5cc(S(=O)(=O)[O-])ccc5F)c5ccc2[nH]5)C=C4)C=C3)cc1
REMARK SMILES IDX 17 1 16 2 15 3 14 4 13 5 11 6 12 7 10 8 5 9 6 10 7 11 9 12
REMARK SMILES IDX 8 13 4 14 2 15 1 16 3 17 18 18 19 19 20 20 21 21 22 22 23 23
REMARK SMILES IDX 84 24 24 25 83 26 25 27 26 28 27 29 77 30 28 31 82 32 76 33
REMARK SMILES IDX 78 34 29 35 81 36 75 37 74 38 30 40 62 41 42 42 61 43 43 44
REMARK SMILES IDX 46 45 60 46 79 47 44 48 45 49 59 51 80 52 47 53 31 54 32 55
REMARK SMILES IDX 40 56 33 57 39 58 41 59 38 60 34 61 35 62 36 63 37 64 63 65
REMARK SMILES IDX 64 66 72 67 65 68 71 69 73 70 70 71 66 72 67 73 68 74 69 75
REMARK SMILES IDX 48 76 49 77 57 78 50 79 56 80 58 81 55 82 51 83 52 84 53 85
REMARK SMILES IDX 54 86
REMARK H PARENT 78 39 46 50
REMARK Flexibility Score: inf
ROOT
ATOM      1  C   UNL A   1      35.132  20.819  25.165  1.00  0.00     0.202 C 
ENDROOT
BRANCH   1   2
ATOM      2  O   UNL A   1      34.765  21.296  26.459  1.00  0.00    -0.374 OA
BRANCH   2   3
ATOM      3  C   UNL A   1      33.463  21.862  26.613  1.00  0.00     0.202 C 
BRANCH   3   4
ATOM      4  C   UNL A   1      33.373  23.388  26.544  1.00  0.00     0.261 C 
BRANCH   4   5
ATOM      5  O   UNL A   1      32.316  23.884  27.382  1.00  0.00    -0.460 OA
BRANCH   5   6
ATOM      6  C   UNL A   1      31.066  23.783  26.869  1.00  0.00     0.342 C 
ATOM      7  O   UNL A   1      30.139  23.145  27.348  1.00  0.00    -0.246 OA
BRANCH   6   8
ATOM      8  C   UNL A   1      30.881  24.707  25.722  1.00  0.00     0.102 A 
ATOM      9  C   UNL A   1      30.885  26.105  25.790  1.00  0.00     0.145 A 
ATOM     10  C   UNL A   1      30.678  26.873  24.637  1.00  0.00     0.048 A 
ATOM     11  C   UNL A   1      30.451  26.249  23.409  1.00  0.00     0.004 A 
ATOM     12  C   UNL A   1      30.638  24.093  24.479  1.00  0.00     0.019 A 
ATOM     13  C   UNL A   1      30.417  24.859  23.332  1.00  0.00     0.001 A 
BRANCH   9  14
ATOM     14  O   UNL A   1      30.954  26.831  26.989  1.00  0.00    -0.426 OA
BRANCH  14  15
ATOM     15  C   UNL A   1      31.837  27.905  27.020  1.00  0.00     0.308 C 
ATOM     16  C   UNL A   1      33.210  27.420  26.653  1.00  0.00     0.139 C 
ATOM     17  O   UNL A   1      31.556  29.057  27.319  1.00  0.00    -0.252 OA
ENDBRANCH  14  15
ENDBRANCH   9  14
ENDBRANCH   6   8
ENDBRANCH   5   6
ENDBRANCH   4   5
ENDBRANCH   3   4
ENDBRANCH   2   3
ENDBRANCH   1   2
BRANCH   1  18
ATOM     18  C   UNL A   1      36.568  20.311  24.987  1.00  0.00     0.261 C 
BRANCH  18  19
ATOM     19  O   UNL A   1      37.555  21.355  25.062  1.00  0.00    -0.460 OA
BRANCH  19  20
ATOM     20  C   UNL A   1      38.682  21.017  25.736  1.00  0.00     0.338 C 
ATOM     21  O   UNL A   1      39.251  19.934  25.721  1.00  0.00    -0.246 OA
BRANCH  20  22
ATOM     22  C   UNL A   1      39.256  22.199  26.402  1.00  0.00     0.060 A 
ATOM     23  C   UNL A   1      38.722  23.454  26.080  1.00  0.00     0.016 A 
ATOM     24  C   UNL A   1      40.368  22.096  27.240  1.00  0.00     0.016 A 
ATOM     25  C   UNL A   1      39.325  24.614  26.561  1.00  0.00     0.010 A 
ATOM     26  C   UNL A   1      40.978  23.264  27.715  1.00  0.00     0.010 A 
ATOM     27  C   UNL A   1      40.480  24.529  27.352  1.00  0.00    -0.014 A 
BRANCH  27  28
ATOM     28  C   UNL A   1      41.240  25.762  27.679  1.00  0.00     0.031 A 
ATOM     29  C   UNL A   1      40.557  26.858  28.453  1.00  0.00     0.074 A 
ATOM     30  C   UNL A   1      42.531  25.889  27.320  1.00  0.00     0.049 A 
ATOM     31  N   UNL A   1      41.012  28.033  28.805  1.00  0.00    -0.248 NA
ATOM     32  C   UNL A   1      39.178  26.591  28.889  1.00  0.00     0.031 C 
ATOM     33  C   UNL A   1      43.313  24.874  26.616  1.00  0.00     0.029 A 
ATOM     34  N   UNL A   1      43.409  26.929  27.494  1.00  0.00    -0.354 N 
ATOM     35  C   UNL A   1      39.978  28.647  29.506  1.00  0.00     0.074 A 
ATOM     36  C   UNL A   1      38.860  27.726  29.494  1.00  0.00     0.031 C 
ATOM     37  C   UNL A   1      44.554  25.347  26.410  1.00  0.00     0.029 A 
ATOM     38  C   UNL A   1      44.644  26.710  26.930  1.00  0.00     0.049 A 
ATOM     39  H   UNL A   1      43.176  27.754  27.978  1.00  0.00     0.167 HD
ATOM     40  C   UNL A   1      39.964  29.861  30.111  1.00  0.00     0.034 A 
ATOM     41  C   UNL A   1      45.712  27.525  26.823  1.00  0.00     0.034 A 
ATOM     42  C   UNL A   1      41.080  30.775  30.105  1.00  0.00     0.049 A 
ATOM     43  C   UNL A   1      45.640  28.912  27.421  1.00  0.00     0.074 A 
ATOM     44  C   UNL A   1      41.172  32.029  30.683  1.00  0.00     0.029 A 
ATOM     45  N   UNL A   1      42.299  30.537  29.482  1.00  0.00    -0.354 N 
ATOM     46  N   UNL A   1      44.652  29.479  28.077  1.00  0.00    -0.248 NA
ATOM     47  C   UNL A   1      46.828  29.763  27.271  1.00  0.00     0.031 C 
ATOM     48  C   UNL A   1      42.418  32.576  30.357  1.00  0.00     0.029 A 
ATOM     49  C   UNL A   1      43.135  31.633  29.638  1.00  0.00     0.049 A 
ATOM     50  H   UNL A   1      42.535  29.712  29.001  1.00  0.00     0.167 HD
ATOM     51  C   UNL A   1      45.118  30.740  28.445  1.00  0.00     0.074 A 
ATOM     52  C   UNL A   1      46.475  30.843  27.951  1.00  0.00     0.031 C 
ATOM     53  C   UNL A   1      44.485  31.723  29.135  1.00  0.00     0.034 A 
BRANCH  40  54
ATOM     54  C   UNL A   1      38.685  30.285  30.788  1.00  0.00     0.023 A 
ATOM     55  C   UNL A   1      37.663  30.948  30.088  1.00  0.00     0.031 A 
ATOM     56  C   UNL A   1      38.489  30.029  32.157  1.00  0.00     0.131 A 
ATOM     57  C   UNL A   1      36.517  31.384  30.771  1.00  0.00     0.055 A 
ATOM     58  C   UNL A   1      37.316  30.402  32.815  1.00  0.00     0.041 A 
ATOM     59  F   UNL A   1      39.441  29.419  32.881  1.00  0.00    -0.206 F 
ATOM     60  C   UNL A   1      36.325  31.095  32.124  1.00  0.00     0.022 A 
BRANCH  57  61
ATOM     61  S   UNL A   1      35.331  32.438  29.893  1.00  0.00     0.124 S 
ATOM     62  O   UNL A   1      34.363  32.735  30.945  1.00  0.00    -0.237 OA
ATOM     63  O   UNL A   1      36.163  33.553  29.456  1.00  0.00    -0.237 OA
ATOM     64  O   UNL A   1      34.833  31.576  28.822  1.00  0.00    -0.744 OA
ENDBRANCH  57  61
ENDBRANCH  40  54
BRANCH  41  65
ATOM     65  C   UNL A   1      46.933  27.088  26.086  1.00  0.00     0.023 A 
ATOM     66  C   UNL A   1      47.978  26.417  26.742  1.00  0.00     0.031 A 
ATOM     67  C   UNL A   1      47.109  27.410  24.727  1.00  0.00     0.131 A 
ATOM     68  C   UNL A   1      49.173  26.143  26.057  1.00  0.00     0.055 A 
ATOM     69  C   UNL A   1      48.276  27.082  24.035  1.00  0.00     0.041 A 
ATOM     70  F   UNL A   1      46.143  28.052  24.052  1.00  0.00    -0.206 F 
ATOM     71  C   UNL A   1      49.324  26.459  24.706  1.00  0.00     0.022 A 
BRANCH  68  72
ATOM     72  S   UNL A   1      50.572  25.466  26.993  1.00  0.00     0.124 S 
ATOM     73  O   UNL A   1      51.517  25.151  25.927  1.00  0.00    -0.237 OA
ATOM     74  O   UNL A   1      50.928  26.587  27.856  1.00  0.00    -0.237 OA
ATOM     75  O   UNL A   1      49.995  24.312  27.678  1.00  0.00    -0.744 OA
ENDBRANCH  68  72
ENDBRANCH  41  65
BRANCH  53  76
ATOM     76  C   UNL A   1      45.278  32.972  29.437  1.00  0.00     0.023 A 
ATOM     77  C   UNL A   1      45.325  34.054  28.542  1.00  0.00     0.031 A 
ATOM     78  C   UNL A   1      46.006  33.072  30.636  1.00  0.00     0.131 A 
ATOM     79  C   UNL A   1      46.129  35.167  28.833  1.00  0.00     0.055 A 
ATOM     80  C   UNL A   1      46.758  34.205  30.947  1.00  0.00     0.041 A 
ATOM     81  F   UNL A   1      45.996  32.068  31.527  1.00  0.00    -0.206 F 
ATOM     82  C   UNL A   1      46.833  35.256  30.037  1.00  0.00     0.022 A 
BRANCH  79  83
ATOM     83  S   UNL A   1      46.312  36.463  27.577  1.00  0.00     0.124 S 
ATOM     84  O   UNL A   1      45.893  35.772  26.362  1.00  0.00    -0.237 OA
ATOM     85  O   UNL A   1      45.408  37.499  28.065  1.00  0.00    -0.237 OA
ATOM     86  O   UNL A   1      47.732  36.802  27.638  1.00  0.00    -0.744 OA
ENDBRANCH  79  83
ENDBRANCH  53  76
ENDBRANCH  27  28
ENDBRANCH  20  22
ENDBRANCH  19  20
ENDBRANCH  18  19
ENDBRANCH   1  18
TORSDOF 19
ENDMDL
MODEL 3
REMARK VINA RESULT:     -10.2      2.083      2.747
REMARK SMILES CC(=O)Oc1ccccc1C(=O)OCCOCCOC(=O)c1ccc(-c2c3nc(c(-c4cc(S(=O)(=O)[O-])ccc4F)c4ccc([nH]4)c(-c4cc(S(=O)(=O)[O-])ccc4F)c4nc(c(-c5cc(S(=O)(=O)[O-])ccc5F)c5ccc2[nH]5)C=C4)C=C3)cc1
REMARK SMILES IDX 17 1 16 2 15 3 14 4 13 5 11 6 12 7 10 8 5 9 6 10 7 11 9 12
REMARK SMILES IDX 8 13 4 14 2 15 1 16 3 17 18 18 19 19 20 20 21 21 22 22 23 23
REMARK SMILES IDX 84 24 24 25 83 26 25 27 26 28 27 29 77 30 28 31 82 32 76 33
REMARK SMILES IDX 78 34 29 35 81 36 75 37 74 38 30 40 62 41 42 42 61 43 43 44
REMARK SMILES IDX 46 45 60 46 79 47 44 48 45 49 59 51 80 52 47 53 31 54 32 55
REMARK SMILES IDX 40 56 33 57 39 58 41 59 38 60 34 61 35 62 36 63 37 64 63 65
REMARK SMILES IDX 64 66 72 67 65 68 71 69 73 70 70 71 66 72 67 73 68 74 69 75
REMARK SMILES IDX 48 76 49 77 57 78 50 79 56 80 58 81 55 82 51 83 52 84 53 85
REMARK SMILES IDX 54 86
REMARK H PARENT 78 39 46 50
REMARK Flexibility Score: inf
ROOT
ATOM      1  C   UNL A   1      35.823  20.303  25.000  1.00  0.00     0.202 C 
ENDROOT
BRANCH   1   2
ATOM      2  O   UNL A   1      34.954  19.247  24.593  1.00  0.00    -0.374 OA
BRANCH   2   3
ATOM      3  C   UNL A   1      33.585  19.323  24.990  1.00  0.00     0.202 C 
BRANCH   3   4
ATOM      4  C   UNL A   1      32.742  20.408  24.317  1.00  0.00     0.261 C 
BRANCH   4   5
ATOM      5  O   UNL A   1      31.787  20.968  25.234  1.00  0.00    -0.460 OA
BRANCH   5   6
ATOM      6  C   UNL A   1      31.649  22.314  25.186  1.00  0.00     0.342 C 
ATOM      7  O   UNL A   1      30.599  22.936  25.267  1.00  0.00    -0.246 OA
BRANCH   6   8
ATOM      8  C   UNL A   1      32.970  22.991  25.211  1.00  0.00     0.102 A 
ATOM      9  C   UNL A   1      33.583  23.630  24.126  1.00  0.00     0.145 A 
ATOM     10  C   UNL A   1      34.846  24.218  24.267  1.00  0.00     0.048 A 
ATOM     11  C   UNL A   1      35.514  24.159  25.491  1.00  0.00     0.004 A 
ATOM     12  C   UNL A   1      33.663  22.931  26.435  1.00  0.00     0.019 A 
ATOM     13  C   UNL A   1      34.929  23.503  26.572  1.00  0.00     0.001 A 
BRANCH   9  14
ATOM     14  O   UNL A   1      33.070  23.617  22.819  1.00  0.00    -0.426 OA
BRANCH  14  15
ATOM     15  C   UNL A   1      32.861  24.853  22.217  1.00  0.00     0.308 C 
ATOM     16  C   UNL A   1      31.605  25.461  22.772  1.00  0.00     0.139 C 
ATOM     17  O   UNL A   1      33.566  25.362  21.358  1.00  0.00    -0.252 OA
ENDBRANCH  14  15
ENDBRANCH   9  14
ENDBRANCH   6   8
ENDBRANCH   5   6
ENDBRANCH   4   5
ENDBRANCH   3   4
ENDBRANCH   2   3
ENDBRANCH   1   2
BRANCH   1  18
ATOM     18  C   UNL A   1      37.330  20.014  24.992  1.00  0.00     0.261 C 
BRANCH  18  19
ATOM     19  O   UNL A   1      38.134  21.186  25.216  1.00  0.00    -0.460 OA
BRANCH  19  20
ATOM     20  C   UNL A   1      39.233  20.976  25.983  1.00  0.00     0.338 C 
ATOM     21  O   UNL A   1      39.890  19.947  26.060  1.00  0.00    -0.246 OA
BRANCH  20  22
ATOM     22  C   UNL A   1      39.657  22.231  26.628  1.00  0.00     0.060 A 
ATOM     23  C   UNL A   1      39.059  23.421  26.196  1.00  0.00     0.016 A 
ATOM     24  C   UNL A   1      40.697  22.257  27.559  1.00  0.00     0.016 A 
ATOM     25  C   UNL A   1      39.529  24.648  26.661  1.00  0.00     0.010 A 
ATOM     26  C   UNL A   1      41.174  23.491  28.018  1.00  0.00     0.010 A 
ATOM     27  C   UNL A   1      40.615  24.694  27.547  1.00  0.00    -0.014 A 
BRANCH  27  28
ATOM     28  C   UNL A   1      41.248  25.998  27.867  1.00  0.00     0.031 A 
ATOM     29  C   UNL A   1      42.672  26.244  27.443  1.00  0.00     0.074 A 
ATOM     30  C   UNL A   1      40.553  26.962  28.499  1.00  0.00     0.049 A 
ATOM     31  N   UNL A   1      43.434  27.285  27.658  1.00  0.00    -0.248 NA
ATOM     32  C   UNL A   1      43.319  25.171  26.672  1.00  0.00     0.031 C 
ATOM     33  C   UNL A   1      39.153  26.860  28.909  1.00  0.00     0.029 A 
ATOM     34  N   UNL A   1      40.933  28.216  28.908  1.00  0.00    -0.354 N 
ATOM     35  C   UNL A   1      44.651  26.997  27.049  1.00  0.00     0.074 A 
ATOM     36  C   UNL A   1      44.535  25.666  26.489  1.00  0.00     0.031 C 
ATOM     37  C   UNL A   1      38.796  28.002  29.522  1.00  0.00     0.029 A 
ATOM     38  C   UNL A   1      39.948  28.899  29.583  1.00  0.00     0.049 A 
ATOM     39  H   UNL A   1      41.827  28.590  28.735  1.00  0.00     0.167 HD
ATOM     40  C   UNL A   1      45.760  27.773  26.956  1.00  0.00     0.034 A 
ATOM     41  C   UNL A   1      39.983  30.096  30.200  1.00  0.00     0.034 A 
ATOM     42  C   UNL A   1      45.868  29.093  27.529  1.00  0.00     0.049 A 
ATOM     43  C   UNL A   1      41.261  30.902  30.167  1.00  0.00     0.074 A 
ATOM     44  C   UNL A   1      46.944  29.962  27.496  1.00  0.00     0.029 A 
ATOM     45  N   UNL A   1      44.865  29.732  28.247  1.00  0.00    -0.354 N 
ATOM     46  N   UNL A   1      42.406  30.614  29.590  1.00  0.00    -0.248 NA
ATOM     47  C   UNL A   1      41.249  32.197  30.862  1.00  0.00     0.031 C 
ATOM     48  C   UNL A   1      46.618  31.098  28.247  1.00  0.00     0.029 A 
ATOM     49  C   UNL A   1      45.310  30.970  28.686  1.00  0.00     0.049 A 
ATOM     50  H   UNL A   1      43.971  29.361  28.418  1.00  0.00     0.167 HD
ATOM     51  C   UNL A   1      43.235  31.710  29.825  1.00  0.00     0.074 A 
ATOM     52  C   UNL A   1      42.455  32.666  30.582  1.00  0.00     0.031 C 
ATOM     53  C   UNL A   1      44.522  31.912  29.444  1.00  0.00     0.034 A 
BRANCH  40  54
ATOM     54  C   UNL A   1      46.957  27.191  26.246  1.00  0.00     0.023 A 
ATOM     55  C   UNL A   1      47.965  26.503  26.943  1.00  0.00     0.031 A 
ATOM     56  C   UNL A   1      47.096  27.336  24.854  1.00  0.00     0.131 A 
ATOM     57  C   UNL A   1      49.095  26.035  26.254  1.00  0.00     0.055 A 
ATOM     58  C   UNL A   1      48.188  26.806  24.165  1.00  0.00     0.041 A 
ATOM     59  F   UNL A   1      46.176  28.004  24.142  1.00  0.00    -0.206 F 
ATOM     60  C   UNL A   1      49.203  26.160  24.867  1.00  0.00     0.022 A 
BRANCH  57  61
ATOM     61  S   UNL A   1      50.480  25.363  27.213  1.00  0.00     0.124 S 
ATOM     62  O   UNL A   1      51.427  25.011  26.158  1.00  0.00    -0.237 OA
ATOM     63  O   UNL A   1      50.855  26.490  28.059  1.00  0.00    -0.237 OA
ATOM     64  O   UNL A   1      49.890  24.225  27.916  1.00  0.00    -0.744 OA
ENDBRANCH  57  61
ENDBRANCH  40  54
BRANCH  41  65
ATOM     65  C   UNL A   1      38.794  30.603  30.947  1.00  0.00     0.023 A 
ATOM     66  C   UNL A   1      37.872  31.473  30.343  1.00  0.00     0.031 A 
ATOM     67  C   UNL A   1      38.609  30.288  32.306  1.00  0.00     0.131 A 
ATOM     68  C   UNL A   1      36.844  32.044  31.109  1.00  0.00     0.055 A 
ATOM     69  C   UNL A   1      37.550  30.812  33.049  1.00  0.00     0.041 A 
ATOM     70  F   UNL A   1      39.462  29.463  32.934  1.00  0.00    -0.206 F 
ATOM     71  C   UNL A   1      36.669  31.710  32.454  1.00  0.00     0.022 A 
BRANCH  68  72
ATOM     72  S   UNL A   1      35.803  33.320  30.348  1.00  0.00     0.124 S 
ATOM     73  O   UNL A   1      36.606  33.707  29.193  1.00  0.00    -0.237 OA
ATOM     74  O   UNL A   1      34.580  32.579  30.060  1.00  0.00    -0.237 OA
ATOM     75  O   UNL A   1      35.686  34.332  31.396  1.00  0.00    -0.744 OA
ENDBRANCH  68  72
ENDBRANCH  41  65
BRANCH  53  76
ATOM     76  C   UNL A   1      45.144  33.241  29.800  1.00  0.00     0.023 A 
ATOM     77  C   UNL A   1      44.991  34.373  28.982  1.00  0.00     0.031 A 
ATOM     78  C   UNL A   1      45.912  33.369  30.971  1.00  0.00     0.131 A 
ATOM     79  C   UNL A   1      45.643  35.570  29.317  1.00  0.00     0.055 A 
ATOM     80  C   UNL A   1      46.511  34.577  31.329  1.00  0.00     0.041 A 
ATOM     81  F   UNL A   1      46.092  32.319  31.788  1.00  0.00    -0.206 F 
ATOM     82  C   UNL A   1      46.389  35.684  30.493  1.00  0.00     0.022 A 
BRANCH  79  83
ATOM     83  S   UNL A   1      45.574  36.957  28.149  1.00  0.00     0.124 S 
ATOM     84  O   UNL A   1      45.014  38.022  28.975  1.00  0.00    -0.237 OA
ATOM     85  O   UNL A   1      46.974  37.115  27.770  1.00  0.00    -0.237 OA
ATOM     86  O   UNL A   1      44.697  36.469  27.087  1.00  0.00    -0.744 OA
ENDBRANCH  79  83
ENDBRANCH  53  76
ENDBRANCH  27  28
ENDBRANCH  20  22
ENDBRANCH  19  20
ENDBRANCH  18  19
ENDBRANCH   1  18
TORSDOF 19
ENDMDL
