MODEL 1
REMARK VINA RESULT:     -10.4      0.000      0.000
REMARK SMILES C[C@@H](c1ccc(F)cc1)N1C[C@H](C(=O)OCCOCCOC(=O)c2ccc(-c3c4nc(c(-c5cc(S(=O)(=O)[O-])ccc5F)c5ccc([nH]5)c(-c5cc(S(=O)(=O)[O-])ccc5F)c5nc(c(-c6cc(S(=O)(=O)[O-])ccc6F)c6ccc3[nH]6)C=C5)C=C4)cc2)CC1=O
REMARK SMILES IDX 19 1 18 2 17 3 16 4 15 5 13 6 14 7 12 8 10 9 11 10 88 11
REMARK SMILES IDX 87 12 89 13 2 14 1 15 3 16 4 17 9 18 5 19 8 20 6 21 7 22
REMARK SMILES IDX 20 23 21 24 22 25 23 26 24 27 25 28 86 29 26 30 85 31 27 32
REMARK SMILES IDX 28 33 29 34 79 35 30 36 84 37 78 38 80 39 31 40 83 41 77 42
REMARK SMILES IDX 76 43 32 45 64 46 44 47 63 48 45 49 48 50 62 51 81 52 46 53
REMARK SMILES IDX 47 54 61 56 82 57 49 58 33 59 34 60 42 61 35 62 41 63 43 64
REMARK SMILES IDX 40 65 36 66 37 67 38 68 39 69 65 70 66 71 74 72 67 73 73 74
REMARK SMILES IDX 75 75 72 76 68 77 69 78 70 79 71 80 50 81 51 82 59 83 52 84
REMARK SMILES IDX 58 85 60 86 57 87 53 88 54 89 55 90 56 91
REMARK H PARENT 80 44 48 55
REMARK Flexibility Score: inf
ROOT
ATOM      1  C   UNL A   1      41.948  19.156  26.444  1.00  0.00     0.202 C 
ENDROOT
BRANCH   1   2
ATOM      2  O   UNL A   1      42.575  19.273  25.166  1.00  0.00    -0.374 OA
BRANCH   2   3
ATOM      3  C   UNL A   1      43.883  18.718  25.034  1.00  0.00     0.202 C 
BRANCH   3   4
ATOM      4  C   UNL A   1      44.771  19.303  23.930  1.00  0.00     0.261 C 
BRANCH   4   5
ATOM      5  O   UNL A   1      44.655  20.735  23.842  1.00  0.00    -0.463 OA
BRANCH   5   6
ATOM      6  C   UNL A   1      45.405  21.436  24.729  1.00  0.00     0.311 C 
ATOM      7  O   UNL A   1      46.631  21.449  24.746  1.00  0.00    -0.252 OA
BRANCH   6   8
ATOM      8  C   UNL A   1      44.576  22.169  25.769  1.00  0.00     0.128 C 
ATOM      9  N   UNL A   1      45.490  24.333  25.922  1.00  0.00    -0.335 N 
ATOM     10  C   UNL A   1      45.503  23.046  26.593  1.00  0.00     0.136 C 
ATOM     11  C   UNL A   1      44.255  24.498  25.297  1.00  0.00     0.224 C 
ATOM     12  C   UNL A   1      43.538  23.163  25.269  1.00  0.00     0.117 C 
ATOM     13  O   UNL A   1      43.760  25.521  24.857  1.00  0.00    -0.275 OA
BRANCH   9  14
ATOM     14  C   UNL A   1      46.430  25.413  26.315  1.00  0.00     0.112 C 
ATOM     15  C   UNL A   1      47.535  24.887  27.257  1.00  0.00     0.036 C 
BRANCH  14  16
ATOM     16  C   UNL A   1      47.044  26.212  25.160  1.00  0.00    -0.026 A 
ATOM     17  C   UNL A   1      48.235  25.749  24.565  1.00  0.00     0.009 A 
ATOM     18  C   UNL A   1      46.445  27.360  24.607  1.00  0.00     0.009 A 
ATOM     19  C   UNL A   1      48.814  26.408  23.479  1.00  0.00     0.039 A 
ATOM     20  C   UNL A   1      47.006  28.001  23.495  1.00  0.00     0.039 A 
ATOM     21  C   UNL A   1      48.187  27.522  22.946  1.00  0.00     0.123 A 
ATOM     22  F   UNL A   1      48.724  28.139  21.884  1.00  0.00    -0.207 F 
ENDBRANCH  14  16
ENDBRANCH   9  14
ENDBRANCH   6   8
ENDBRANCH   5   6
ENDBRANCH   4   5
ENDBRANCH   3   4
ENDBRANCH   2   3
ENDBRANCH   1   2
BRANCH   1  23
ATOM     23  C   UNL A   1      40.761  20.079  26.743  1.00  0.00     0.261 C 
BRANCH  23  24
ATOM     24  O   UNL A   1      41.059  21.463  26.476  1.00  0.00    -0.460 OA
BRANCH  24  25
ATOM     25  C   UNL A   1      39.969  22.257  26.337  1.00  0.00     0.338 C 
ATOM     26  O   UNL A   1      38.899  21.952  25.826  1.00  0.00    -0.246 OA
BRANCH  25  27
ATOM     27  C   UNL A   1      40.154  23.520  27.077  1.00  0.00     0.060 A 
ATOM     28  C   UNL A   1      39.386  24.619  26.670  1.00  0.00     0.016 A 
ATOM     29  C   UNL A   1      41.105  23.659  28.091  1.00  0.00     0.016 A 
ATOM     30  C   UNL A   1      39.604  25.873  27.234  1.00  0.00     0.010 A 
ATOM     31  C   UNL A   1      41.330  24.924  28.650  1.00  0.00     0.010 A 
ATOM     32  C   UNL A   1      40.607  26.042  28.197  1.00  0.00    -0.014 A 
BRANCH  32  33
ATOM     33  C   UNL A   1      40.994  27.418  28.603  1.00  0.00     0.031 A 
ATOM     34  C   UNL A   1      42.445  27.812  28.541  1.00  0.00     0.074 A 
ATOM     35  C   UNL A   1      40.061  28.322  28.953  1.00  0.00     0.049 A 
ATOM     36  N   UNL A   1      43.010  28.947  28.862  1.00  0.00    -0.248 NA
ATOM     37  C   UNL A   1      43.385  26.792  28.047  1.00  0.00     0.031 C 
ATOM     38  C   UNL A   1      38.620  28.076  28.984  1.00  0.00     0.029 A 
ATOM     39  N   UNL A   1      40.187  29.633  29.339  1.00  0.00    -0.354 N 
ATOM     40  C   UNL A   1      44.367  28.780  28.609  1.00  0.00     0.074 A 
ATOM     41  C   UNL A   1      44.546  27.425  28.138  1.00  0.00     0.031 C 
ATOM     42  C   UNL A   1      37.994  29.203  29.363  1.00  0.00     0.029 A 
ATOM     43  C   UNL A   1      38.990  30.239  29.640  1.00  0.00     0.049 A 
ATOM     44  H   UNL A   1      41.054  30.096  29.396  1.00  0.00     0.167 HD
ATOM     45  C   UNL A   1      45.370  29.680  28.750  1.00  0.00     0.034 A 
ATOM     46  C   UNL A   1      38.727  31.478  30.103  1.00  0.00     0.034 A 
ATOM     47  C   UNL A   1      45.182  31.029  29.219  1.00  0.00     0.049 A 
ATOM     48  C   UNL A   1      39.870  32.431  30.343  1.00  0.00     0.074 A 
ATOM     49  C   UNL A   1      46.134  32.019  29.393  1.00  0.00     0.029 A 
ATOM     50  N   UNL A   1      43.963  31.578  29.592  1.00  0.00    -0.354 N 
ATOM     51  N   UNL A   1      41.154  32.245  30.140  1.00  0.00    -0.248 NA
ATOM     52  C   UNL A   1      39.532  33.757  30.879  1.00  0.00     0.031 C 
ATOM     53  C   UNL A   1      45.501  33.143  29.930  1.00  0.00     0.029 A 
ATOM     54  C   UNL A   1      44.144  32.882  30.024  1.00  0.00     0.049 A 
ATOM     55  H   UNL A   1      43.098  31.110  29.553  1.00  0.00     0.167 HD
ATOM     56  C   UNL A   1      41.773  33.437  30.504  1.00  0.00     0.074 A 
ATOM     57  C   UNL A   1      40.724  34.337  30.938  1.00  0.00     0.031 C 
ATOM     58  C   UNL A   1      43.090  33.761  30.471  1.00  0.00     0.034 A 
BRANCH  45  59
ATOM     59  C   UNL A   1      46.770  29.221  28.437  1.00  0.00     0.023 A 
ATOM     60  C   UNL A   1      47.519  28.458  29.349  1.00  0.00     0.031 A 
ATOM     61  C   UNL A   1      47.352  29.534  27.196  1.00  0.00     0.131 A 
ATOM     62  C   UNL A   1      48.823  28.062  29.019  1.00  0.00     0.055 A 
ATOM     63  C   UNL A   1      48.628  29.087  26.851  1.00  0.00     0.041 A 
ATOM     64  F   UNL A   1      46.687  30.277  26.299  1.00  0.00    -0.206 F 
ATOM     65  C   UNL A   1      49.374  28.351  27.768  1.00  0.00     0.022 A 
BRANCH  62  66
ATOM     66  S   UNL A   1      49.824  27.220  30.275  1.00  0.00     0.124 S 
ATOM     67  O   UNL A   1      49.268  25.871  30.239  1.00  0.00    -0.237 OA
ATOM     68  O   UNL A   1      51.178  27.368  29.753  1.00  0.00    -0.237 OA
ATOM     69  O   UNL A   1      49.543  27.972  31.497  1.00  0.00    -0.744 OA
ENDBRANCH  62  66
ENDBRANCH  45  59
BRANCH  46  70
ATOM     70  C   UNL A   1      37.325  31.874  30.410  1.00  0.00     0.023 A 
ATOM     71  C   UNL A   1      36.464  32.343  29.406  1.00  0.00     0.031 A 
ATOM     72  C   UNL A   1      36.829  31.786  31.723  1.00  0.00     0.131 A 
ATOM     73  C   UNL A   1      35.153  32.723  29.736  1.00  0.00     0.055 A 
ATOM     74  C   UNL A   1      35.515  32.132  32.039  1.00  0.00     0.041 A 
ATOM     75  F   UNL A   1      37.615  31.340  32.716  1.00  0.00    -0.206 F 
ATOM     76  C   UNL A   1      34.670  32.609  31.042  1.00  0.00     0.022 A 
BRANCH  73  77
ATOM     77  S   UNL A   1      34.085  33.393  28.432  1.00  0.00     0.124 S 
ATOM     78  O   UNL A   1      33.537  32.176  27.844  1.00  0.00    -0.237 OA
ATOM     79  O   UNL A   1      33.151  34.216  29.194  1.00  0.00    -0.237 OA
ATOM     80  O   UNL A   1      35.012  34.136  27.582  1.00  0.00    -0.744 OA
ENDBRANCH  73  77
ENDBRANCH  46  70
BRANCH  58  81
ATOM     81  C   UNL A   1      43.478  35.154  30.891  1.00  0.00     0.023 A 
ATOM     82  C   UNL A   1      43.525  36.214  29.971  1.00  0.00     0.031 A 
ATOM     83  C   UNL A   1      43.748  35.432  32.244  1.00  0.00     0.131 A 
ATOM     84  C   UNL A   1      43.857  37.504  30.412  1.00  0.00     0.055 A 
ATOM     85  C   UNL A   1      44.034  36.724  32.684  1.00  0.00     0.041 A 
ATOM     86  F   UNL A   1      43.712  34.453  33.162  1.00  0.00    -0.206 F 
ATOM     87  C   UNL A   1      44.095  37.768  31.765  1.00  0.00     0.022 A 
BRANCH  84  88
ATOM     88  S   UNL A   1      44.002  38.835  29.190  1.00  0.00     0.124 S 
ATOM     89  O   UNL A   1      43.135  39.861  29.758  1.00  0.00    -0.237 OA
ATOM     90  O   UNL A   1      45.432  39.128  29.209  1.00  0.00    -0.237 OA
ATOM     91  O   UNL A   1      43.514  38.223  27.956  1.00  0.00    -0.744 OA
ENDBRANCH  84  88
ENDBRANCH  58  81
ENDBRANCH  32  33
ENDBRANCH  25  27
ENDBRANCH  24  25
ENDBRANCH  23  24
ENDBRANCH   1  23
TORSDOF 19
ENDMDL
MODEL 2
REMARK VINA RESULT:     -10.4      2.051      2.954
REMARK SMILES C[C@@H](c1ccc(F)cc1)N1C[C@H](C(=O)OCCOCCOC(=O)c2ccc(-c3c4nc(c(-c5cc(S(=O)(=O)[O-])ccc5F)c5ccc([nH]5)c(-c5cc(S(=O)(=O)[O-])ccc5F)c5nc(c(-c6cc(S(=O)(=O)[O-])ccc6F)c6ccc3[nH]6)C=C5)C=C4)cc2)CC1=O
REMARK SMILES IDX 19 1 18 2 17 3 16 4 15 5 13 6 14 7 12 8 10 9 11 10 88 11
REMARK SMILES IDX 87 12 89 13 2 14 1 15 3 16 4 17 9 18 5 19 8 20 6 21 7 22
REMARK SMILES IDX 20 23 21 24 22 25 23 26 24 27 25 28 86 29 26 30 85 31 27 32
REMARK SMILES IDX 28 33 29 34 79 35 30 36 84 37 78 38 80 39 31 40 83 41 77 42
REMARK SMILES IDX 76 43 32 45 64 46 44 47 63 48 45 49 48 50 62 51 81 52 46 53
REMARK SMILES IDX 47 54 61 56 82 57 49 58 33 59 34 60 42 61 35 62 41 63 43 64
REMARK SMILES IDX 40 65 36 66 37 67 38 68 39 69 65 70 66 71 74 72 67 73 73 74
REMARK SMILES IDX 75 75 72 76 68 77 69 78 70 79 71 80 50 81 51 82 59 83 52 84
REMARK SMILES IDX 58 85 60 86 57 87 53 88 54 89 55 90 56 91
REMARK H PARENT 80 44 48 55
REMARK Flexibility Score: inf
ROOT
ATOM      1  C   UNL A   1      42.021  19.174  26.645  1.00  0.00     0.202 C 
ENDROOT
BRANCH   1   2
ATOM      2  O   UNL A   1      42.710  18.342  25.712  1.00  0.00    -0.374 OA
BRANCH   2   3
ATOM      3  C   UNL A   1      44.085  18.069  25.979  1.00  0.00     0.202 C 
BRANCH   3   4
ATOM      4  C   UNL A   1      45.114  18.762  25.079  1.00  0.00     0.261 C 
BRANCH   4   5
ATOM      5  O   UNL A   1      45.220  20.169  25.362  1.00  0.00    -0.463 OA
BRANCH   5   6
ATOM      6  C   UNL A   1      44.543  20.986  24.516  1.00  0.00     0.311 C 
ATOM      7  O   UNL A   1      44.553  20.886  23.294  1.00  0.00    -0.252 OA
BRANCH   6   8
ATOM      8  C   UNL A   1      43.805  22.107  25.228  1.00  0.00     0.128 C 
ATOM      9  N   UNL A   1      45.459  23.408  26.282  1.00  0.00    -0.335 N 
ATOM     10  C   UNL A   1      44.489  22.365  26.559  1.00  0.00     0.136 C 
ATOM     11  C   UNL A   1      44.979  24.197  25.238  1.00  0.00     0.224 C 
ATOM     12  C   UNL A   1      43.818  23.483  24.578  1.00  0.00     0.117 C 
ATOM     13  O   UNL A   1      45.362  25.300  24.885  1.00  0.00    -0.275 OA
BRANCH   9  14
ATOM     14  C   UNL A   1      46.469  23.806  27.296  1.00  0.00     0.112 C 
ATOM     15  C   UNL A   1      47.573  24.689  26.677  1.00  0.00     0.036 C 
BRANCH  14  16
ATOM     16  C   UNL A   1      45.912  24.454  28.569  1.00  0.00    -0.026 A 
ATOM     17  C   UNL A   1      44.828  23.842  29.230  1.00  0.00     0.009 A 
ATOM     18  C   UNL A   1      46.470  25.603  29.161  1.00  0.00     0.009 A 
ATOM     19  C   UNL A   1      44.311  24.360  30.419  1.00  0.00     0.039 A 
ATOM     20  C   UNL A   1      45.976  26.102  30.373  1.00  0.00     0.039 A 
ATOM     21  C   UNL A   1      44.897  25.479  30.987  1.00  0.00     0.123 A 
ATOM     22  F   UNL A   1      44.423  25.961  32.144  1.00  0.00    -0.207 F 
ENDBRANCH  14  16
ENDBRANCH   9  14
ENDBRANCH   6   8
ENDBRANCH   5   6
ENDBRANCH   4   5
ENDBRANCH   3   4
ENDBRANCH   2   3
ENDBRANCH   1   2
BRANCH   1  23
ATOM     23  C   UNL A   1      40.816  19.973  26.133  1.00  0.00     0.261 C 
BRANCH  23  24
ATOM     24  O   UNL A   1      40.396  20.991  27.062  1.00  0.00    -0.460 OA
BRANCH  24  25
ATOM     25  C   UNL A   1      39.591  21.942  26.528  1.00  0.00     0.338 C 
ATOM     26  O   UNL A   1      38.657  21.764  25.757  1.00  0.00    -0.246 OA
BRANCH  25  27
ATOM     27  C   UNL A   1      39.851  23.251  27.158  1.00  0.00     0.060 A 
ATOM     28  C   UNL A   1      39.138  24.351  26.666  1.00  0.00     0.016 A 
ATOM     29  C   UNL A   1      40.820  23.422  28.151  1.00  0.00     0.016 A 
ATOM     30  C   UNL A   1      39.429  25.634  27.121  1.00  0.00     0.010 A 
ATOM     31  C   UNL A   1      41.118  24.715  28.600  1.00  0.00     0.010 A 
ATOM     32  C   UNL A   1      40.450  25.829  28.060  1.00  0.00    -0.014 A 
BRANCH  32  33
ATOM     33  C   UNL A   1      40.914  27.211  28.347  1.00  0.00     0.031 A 
ATOM     34  C   UNL A   1      42.332  27.585  28.008  1.00  0.00     0.074 A 
ATOM     35  C   UNL A   1      40.067  28.136  28.834  1.00  0.00     0.049 A 
ATOM     36  N   UNL A   1      42.953  28.723  28.186  1.00  0.00    -0.248 NA
ATOM     37  C   UNL A   1      43.158  26.541  27.381  1.00  0.00     0.031 C 
ATOM     38  C   UNL A   1      38.655  27.908  29.136  1.00  0.00     0.029 A 
ATOM     39  N   UNL A   1      40.271  29.456  29.151  1.00  0.00    -0.354 N 
ATOM     40  C   UNL A   1      44.240  28.532  27.694  1.00  0.00     0.074 A 
ATOM     41  C   UNL A   1      44.320  27.162  27.239  1.00  0.00     0.031 C 
ATOM     42  C   UNL A   1      38.117  29.053  29.589  1.00  0.00     0.029 A 
ATOM     43  C   UNL A   1      39.153  30.084  29.647  1.00  0.00     0.049 A 
ATOM     44  H   UNL A   1      41.137  29.910  29.034  1.00  0.00     0.167 HD
ATOM     45  C   UNL A   1      45.258  29.423  27.622  1.00  0.00     0.034 A 
ATOM     46  C   UNL A   1      38.988  31.339  30.113  1.00  0.00     0.034 A 
ATOM     47  C   UNL A   1      45.168  30.787  28.077  1.00  0.00     0.049 A 
ATOM     48  C   UNL A   1      40.162  32.284  30.111  1.00  0.00     0.074 A 
ATOM     49  C   UNL A   1      46.142  31.770  28.044  1.00  0.00     0.029 A 
ATOM     50  N   UNL A   1      44.042  31.361  28.650  1.00  0.00    -0.354 N 
ATOM     51  N   UNL A   1      41.386  32.077  29.682  1.00  0.00    -0.248 NA
ATOM     52  C   UNL A   1      39.937  33.629  30.660  1.00  0.00     0.031 C 
ATOM     53  C   UNL A   1      45.627  32.917  28.654  1.00  0.00     0.029 A 
ATOM     54  C   UNL A   1      44.308  32.674  29.002  1.00  0.00     0.049 A 
ATOM     55  H   UNL A   1      43.181  30.903  28.784  1.00  0.00     0.167 HD
ATOM     56  C   UNL A   1      42.069  33.272  29.891  1.00  0.00     0.074 A 
ATOM     57  C   UNL A   1      41.123  34.196  30.482  1.00  0.00     0.031 C 
ATOM     58  C   UNL A   1      43.360  33.578  29.608  1.00  0.00     0.034 A 
BRANCH  45  59
ATOM     59  C   UNL A   1      46.573  28.939  27.072  1.00  0.00     0.023 A 
ATOM     60  C   UNL A   1      46.740  28.641  25.709  1.00  0.00     0.031 A 
ATOM     61  C   UNL A   1      47.683  28.795  27.923  1.00  0.00     0.131 A 
ATOM     62  C   UNL A   1      47.980  28.181  25.242  1.00  0.00     0.055 A 
ATOM     63  C   UNL A   1      48.930  28.394  27.443  1.00  0.00     0.041 A 
ATOM     64  F   UNL A   1      47.572  29.048  29.237  1.00  0.00    -0.206 F 
ATOM     65  C   UNL A   1      49.082  28.078  26.096  1.00  0.00     0.022 A 
BRANCH  62  66
ATOM     66  S   UNL A   1      48.121  27.650  23.515  1.00  0.00     0.124 S 
ATOM     67  O   UNL A   1      49.447  28.148  23.160  1.00  0.00    -0.237 OA
ATOM     68  O   UNL A   1      47.989  26.201  23.616  1.00  0.00    -0.237 OA
ATOM     69  O   UNL A   1      47.008  28.331  22.855  1.00  0.00    -0.744 OA
ENDBRANCH  62  66
ENDBRANCH  45  59
BRANCH  46  70
ATOM     70  C   UNL A   1      37.669  31.760  30.660  1.00  0.00     0.023 A 
ATOM     71  C   UNL A   1      36.743  32.459  29.871  1.00  0.00     0.031 A 
ATOM     72  C   UNL A   1      37.319  31.466  31.990  1.00  0.00     0.131 A 
ATOM     73  C   UNL A   1      35.515  32.855  30.425  1.00  0.00     0.055 A 
ATOM     74  C   UNL A   1      36.084  31.831  32.525  1.00  0.00     0.041 A 
ATOM     75  F   UNL A   1      38.172  30.796  32.783  1.00  0.00    -0.206 F 
ATOM     76  C   UNL A   1      35.175  32.535  31.741  1.00  0.00     0.022 A 
BRANCH  73  77
ATOM     77  S   UNL A   1      34.366  33.818  29.404  1.00  0.00     0.124 S 
ATOM     78  O   UNL A   1      33.471  34.377  30.411  1.00  0.00    -0.237 OA
ATOM     79  O   UNL A   1      35.262  34.763  28.744  1.00  0.00    -0.237 OA
ATOM     80  O   UNL A   1      33.770  32.815  28.525  1.00  0.00    -0.744 OA
ENDBRANCH  73  77
ENDBRANCH  46  70
BRANCH  58  81
ATOM     81  C   UNL A   1      43.828  34.978  29.908  1.00  0.00     0.023 A 
ATOM     82  C   UNL A   1      43.694  36.015  28.971  1.00  0.00     0.031 A 
ATOM     83  C   UNL A   1      44.361  35.286  31.172  1.00  0.00     0.131 A 
ATOM     84  C   UNL A   1      44.111  37.313  29.304  1.00  0.00     0.055 A 
ATOM     85  C   UNL A   1      44.733  36.586  31.514  1.00  0.00     0.041 A 
ATOM     86  F   UNL A   1      44.505  34.330  32.103  1.00  0.00    -0.206 F 
ATOM     87  C   UNL A   1      44.613  37.608  30.576  1.00  0.00     0.022 A 
BRANCH  84  88
ATOM     88  S   UNL A   1      44.015  38.613  28.045  1.00  0.00     0.124 S 
ATOM     89  O   UNL A   1      43.614  39.771  28.837  1.00  0.00    -0.237 OA
ATOM     90  O   UNL A   1      45.375  38.644  27.517  1.00  0.00    -0.237 OA
ATOM     91  O   UNL A   1      43.002  38.117  27.115  1.00  0.00    -0.744 OA
ENDBRANCH  84  88
ENDBRANCH  58  81
ENDBRANCH  32  33
ENDBRANCH  25  27
ENDBRANCH  24  25
ENDBRANCH  23  24
ENDBRANCH   1  23
TORSDOF 19
ENDMDL
MODEL 3
REMARK VINA RESULT:     -10.3      4.677     10.665
REMARK SMILES C[C@@H](c1ccc(F)cc1)N1C[C@H](C(=O)OCCOCCOC(=O)c2ccc(-c3c4nc(c(-c5cc(S(=O)(=O)[O-])ccc5F)c5ccc([nH]5)c(-c5cc(S(=O)(=O)[O-])ccc5F)c5nc(c(-c6cc(S(=O)(=O)[O-])ccc6F)c6ccc3[nH]6)C=C5)C=C4)cc2)CC1=O
REMARK SMILES IDX 19 1 18 2 17 3 16 4 15 5 13 6 14 7 12 8 10 9 11 10 88 11
REMARK SMILES IDX 87 12 89 13 2 14 1 15 3 16 4 17 9 18 5 19 8 20 6 21 7 22
REMARK SMILES IDX 20 23 21 24 22 25 23 26 24 27 25 28 86 29 26 30 85 31 27 32
REMARK SMILES IDX 28 33 29 34 79 35 30 36 84 37 78 38 80 39 31 40 83 41 77 42
REMARK SMILES IDX 76 43 32 45 64 46 44 47 63 48 45 49 48 50 62 51 81 52 46 53
REMARK SMILES IDX 47 54 61 56 82 57 49 58 33 59 34 60 42 61 35 62 41 63 43 64
REMARK SMILES IDX 40 65 36 66 37 67 38 68 39 69 65 70 66 71 74 72 67 73 73 74
REMARK SMILES IDX 75 75 72 76 68 77 69 78 70 79 71 80 50 81 51 82 59 83 52 84
REMARK SMILES IDX 58 85 60 86 57 87 53 88 54 89 55 90 56 91
REMARK H PARENT 80 44 48 55
REMARK Flexibility Score: inf
ROOT
ATOM      1  C   UNL A   1      35.701  20.724  24.933  1.00  0.00     0.202 C 
ENDROOT
BRANCH   1   2
ATOM      2  O   UNL A   1      35.085  21.051  26.178  1.00  0.00    -0.374 OA
BRANCH   2   3
ATOM      3  C   UNL A   1      33.892  21.834  26.125  1.00  0.00     0.202 C 
BRANCH   3   4
ATOM      4  C   UNL A   1      33.748  22.943  27.172  1.00  0.00     0.261 C 
BRANCH   4   5
ATOM      5  O   UNL A   1      32.515  23.672  27.023  1.00  0.00    -0.463 OA
BRANCH   5   6
ATOM      6  C   UNL A   1      32.312  24.229  25.803  1.00  0.00     0.311 C 
ATOM      7  O   UNL A   1      31.346  23.998  25.084  1.00  0.00    -0.252 OA
BRANCH   6   8
ATOM      8  C   UNL A   1      33.446  25.138  25.362  1.00  0.00     0.128 C 
ATOM      9  N   UNL A   1      32.496  26.681  23.859  1.00  0.00    -0.335 N 
ATOM     10  C   UNL A   1      33.266  25.451  23.887  1.00  0.00     0.136 C 
ATOM     11  C   UNL A   1      32.790  27.417  25.007  1.00  0.00     0.224 C 
ATOM     12  C   UNL A   1      33.522  26.524  25.987  1.00  0.00     0.117 C 
ATOM     13  O   UNL A   1      32.556  28.592  25.233  1.00  0.00    -0.275 OA
BRANCH   9  14
ATOM     14  C   UNL A   1      31.946  27.215  22.587  1.00  0.00     0.112 C 
ATOM     15  C   UNL A   1      31.831  26.112  21.514  1.00  0.00     0.036 C 
BRANCH  14  16
ATOM     16  C   UNL A   1      30.628  27.988  22.707  1.00  0.00    -0.026 A 
ATOM     17  C   UNL A   1      30.553  29.297  22.188  1.00  0.00     0.009 A 
ATOM     18  C   UNL A   1      29.452  27.437  23.252  1.00  0.00     0.009 A 
ATOM     19  C   UNL A   1      29.366  30.030  22.225  1.00  0.00     0.039 A 
ATOM     20  C   UNL A   1      28.252  28.159  23.257  1.00  0.00     0.039 A 
ATOM     21  C   UNL A   1      28.222  29.451  22.749  1.00  0.00     0.123 A 
ATOM     22  F   UNL A   1      27.074  30.141  22.758  1.00  0.00    -0.207 F 
ENDBRANCH  14  16
ENDBRANCH   9  14
ENDBRANCH   6   8
ENDBRANCH   5   6
ENDBRANCH   4   5
ENDBRANCH   3   4
ENDBRANCH   2   3
ENDBRANCH   1   2
BRANCH   1  23
ATOM     23  C   UNL A   1      37.143  20.200  24.967  1.00  0.00     0.261 C 
BRANCH  23  24
ATOM     24  O   UNL A   1      38.110  21.259  25.110  1.00  0.00    -0.460 OA
BRANCH  24  25
ATOM     25  C   UNL A   1      39.117  20.988  25.975  1.00  0.00     0.338 C 
ATOM     26  O   UNL A   1      39.666  19.907  26.147  1.00  0.00    -0.246 OA
BRANCH  25  27
ATOM     27  C   UNL A   1      39.633  22.235  26.572  1.00  0.00     0.060 A 
ATOM     28  C   UNL A   1      39.085  23.439  26.111  1.00  0.00     0.016 A 
ATOM     29  C   UNL A   1      40.679  22.242  27.499  1.00  0.00     0.016 A 
ATOM     30  C   UNL A   1      39.616  24.655  26.531  1.00  0.00     0.010 A 
ATOM     31  C   UNL A   1      41.218  23.467  27.912  1.00  0.00     0.010 A 
ATOM     32  C   UNL A   1      40.714  24.677  27.401  1.00  0.00    -0.014 A 
BRANCH  32  33
ATOM     33  C   UNL A   1      41.421  25.961  27.640  1.00  0.00     0.031 A 
ATOM     34  C   UNL A   1      40.736  27.026  28.454  1.00  0.00     0.074 A 
ATOM     35  C   UNL A   1      42.679  26.148  27.201  1.00  0.00     0.049 A 
ATOM     36  N   UNL A   1      41.156  28.224  28.772  1.00  0.00    -0.248 NA
ATOM     37  C   UNL A   1      39.403  26.697  28.983  1.00  0.00     0.031 C 
ATOM     38  C   UNL A   1      43.468  25.164  26.463  1.00  0.00     0.029 A 
ATOM     39  N   UNL A   1      43.516  27.229  27.323  1.00  0.00    -0.354 N 
ATOM     40  C   UNL A   1      40.142  28.789  29.537  1.00  0.00     0.074 A 
ATOM     41  C   UNL A   1      39.074  27.817  29.610  1.00  0.00     0.031 C 
ATOM     42  C   UNL A   1      44.680  25.684  26.202  1.00  0.00     0.029 A 
ATOM     43  C   UNL A   1      44.739  27.051  26.719  1.00  0.00     0.049 A 
ATOM     44  H   UNL A   1      43.265  28.054  27.797  1.00  0.00     0.167 HD
ATOM     45  C   UNL A   1      40.110  30.007  30.132  1.00  0.00     0.034 A 
ATOM     46  C   UNL A   1      45.779  27.899  26.582  1.00  0.00     0.034 A 
ATOM     47  C   UNL A   1      41.180  30.968  30.055  1.00  0.00     0.049 A 
ATOM     48  C   UNL A   1      45.683  29.283  27.170  1.00  0.00     0.074 A 
ATOM     49  C   UNL A   1      41.246  32.227  30.626  1.00  0.00     0.029 A 
ATOM     50  N   UNL A   1      42.369  30.781  29.365  1.00  0.00    -0.354 N 
ATOM     51  N   UNL A   1      44.700  29.820  27.855  1.00  0.00    -0.248 NA
ATOM     52  C   UNL A   1      46.831  30.178  26.964  1.00  0.00     0.031 C 
ATOM     53  C   UNL A   1      42.445  32.825  30.228  1.00  0.00     0.029 A 
ATOM     54  C   UNL A   1      43.160  31.914  29.469  1.00  0.00     0.049 A 
ATOM     55  H   UNL A   1      42.614  29.964  28.874  1.00  0.00     0.167 HD
ATOM     56  C   UNL A   1      45.120  31.107  28.178  1.00  0.00     0.074 A 
ATOM     57  C   UNL A   1      46.445  31.267  27.616  1.00  0.00     0.031 C 
ATOM     58  C   UNL A   1      44.472  32.065  28.886  1.00  0.00     0.034 A 
BRANCH  45  59
ATOM     59  C   UNL A   1      38.860  30.387  30.880  1.00  0.00     0.023 A 
ATOM     60  C   UNL A   1      37.802  31.068  30.253  1.00  0.00     0.031 A 
ATOM     61  C   UNL A   1      38.717  30.040  32.235  1.00  0.00     0.131 A 
ATOM     62  C   UNL A   1      36.661  31.412  30.992  1.00  0.00     0.055 A 
ATOM     63  C   UNL A   1      37.555  30.333  32.948  1.00  0.00     0.041 A 
ATOM     64  F   UNL A   1      39.705  29.406  32.884  1.00  0.00    -0.206 F 
ATOM     65  C   UNL A   1      36.520  31.029  32.329  1.00  0.00     0.022 A 
BRANCH  62  66
ATOM     66  S   UNL A   1      35.385  32.432  30.205  1.00  0.00     0.124 S 
ATOM     67  O   UNL A   1      35.085  31.654  29.006  1.00  0.00    -0.237 OA
ATOM     68  O   UNL A   1      34.338  32.471  31.220  1.00  0.00    -0.237 OA
ATOM     69  O   UNL A   1      36.064  33.704  29.962  1.00  0.00    -0.744 OA
ENDBRANCH  62  66
ENDBRANCH  45  59
BRANCH  46  70
ATOM     70  C   UNL A   1      46.986  27.475  25.819  1.00  0.00     0.023 A 
ATOM     71  C   UNL A   1      47.146  27.808  24.465  1.00  0.00     0.031 A 
ATOM     72  C   UNL A   1      47.999  26.724  26.442  1.00  0.00     0.131 A 
ATOM     73  C   UNL A   1      48.289  27.377  23.773  1.00  0.00     0.055 A 
ATOM     74  C   UNL A   1      49.149  26.329  25.759  1.00  0.00     0.041 A 
ATOM     75  F   UNL A   1      47.891  26.384  27.736  1.00  0.00    -0.206 F 
ATOM     76  C   UNL A   1      49.296  26.651  24.414  1.00  0.00     0.022 A 
BRANCH  73  77
ATOM     77  S   UNL A   1      48.436  27.762  22.006  1.00  0.00     0.124 S 
ATOM     78  O   UNL A   1      48.488  26.429  21.416  1.00  0.00    -0.237 OA
ATOM     79  O   UNL A   1      47.221  28.529  21.758  1.00  0.00    -0.237 OA
ATOM     80  O   UNL A   1      49.678  28.529  21.929  1.00  0.00    -0.744 OA
ENDBRANCH  73  77
ENDBRANCH  46  70
BRANCH  58  81
ATOM     81  C   UNL A   1      45.190  33.368  29.120  1.00  0.00     0.023 A 
ATOM     82  C   UNL A   1      44.980  34.483  28.292  1.00  0.00     0.031 A 
ATOM     83  C   UNL A   1      46.051  33.509  30.223  1.00  0.00     0.131 A 
ATOM     84  C   UNL A   1      45.643  35.688  28.567  1.00  0.00     0.055 A 
ATOM     85  C   UNL A   1      46.673  34.722  30.518  1.00  0.00     0.041 A 
ATOM     86  F   UNL A   1      46.280  32.473  31.046  1.00  0.00    -0.206 F 
ATOM     87  C   UNL A   1      46.474  35.820  29.684  1.00  0.00     0.022 A 
BRANCH  84  88
ATOM     88  S   UNL A   1      45.429  37.084  27.429  1.00  0.00     0.124 S 
ATOM     89  O   UNL A   1      44.039  36.924  27.015  1.00  0.00    -0.237 OA
ATOM     90  O   UNL A   1      45.711  38.234  28.282  1.00  0.00    -0.237 OA
ATOM     91  O   UNL A   1      46.420  36.831  26.385  1.00  0.00    -0.744 OA
ENDBRANCH  84  88
ENDBRANCH  58  81
ENDBRANCH  32  33
ENDBRANCH  25  27
ENDBRANCH  24  25
ENDBRANCH  23  24
ENDBRANCH   1  23
TORSDOF 19
ENDMDL
