MODEL 1
REMARK VINA RESULT:     -11.1      0.000      0.000
REMARK SMILES C[C@@H]1[C@H](C)CCC[C@H]1NC(=O)C[N@@H+]1CCC[C@@H]1C(=O)OCCOCCOC(=O)c1ccc(-c2c3nc(c(-c4cc(S(=O)(=O)[O-])ccc4F)c4ccc([nH]4)c(-c4cc(S(=O)(=O)[O-])ccc4F)c4nc(c(-c5cc(S(=O)(=O)[O-])ccc5F)c5ccc2[nH]5)C=C4)C=C3)cc1
REMARK SMILES IDX 23 1 22 2 21 3 20 4 18 5 19 6 17 7 13 8 14 9 15 11 16 12
REMARK SMILES IDX 12 13 10 14 9 15 11 17 8 18 1 19 2 20 3 21 4 22 5 23 7 24
REMARK SMILES IDX 6 25 24 26 25 27 26 28 27 29 28 30 29 31 30 32 91 33 31 34
REMARK SMILES IDX 90 35 32 36 33 37 34 38 84 39 35 40 89 41 83 42 85 43 36 44
REMARK SMILES IDX 88 45 82 46 81 47 37 49 69 50 49 51 68 52 50 53 53 54 67 55
REMARK SMILES IDX 86 56 51 57 52 58 66 60 87 61 54 62 38 63 39 64 47 65 40 66
REMARK SMILES IDX 46 67 48 68 45 69 41 70 42 71 43 72 44 73 70 74 71 75 79 76
REMARK SMILES IDX 72 77 78 78 80 79 77 80 73 81 74 82 75 83 76 84 55 85 56 86
REMARK SMILES IDX 64 87 57 88 63 89 65 90 62 91 58 92 59 93 60 94 61 95
REMARK H PARENT 13 10 9 16 85 48 53 59
REMARK Flexibility Score: inf
ROOT
ATOM      1  O   UNL A   1      35.159  21.961  25.979  1.00  0.00    -0.374 OA
ENDROOT
BRANCH   1   2
ATOM      2  C   UNL A   1      34.730  21.631  27.302  1.00  0.00     0.202 C 
BRANCH   2   3
ATOM      3  C   UNL A   1      33.388  22.238  27.715  1.00  0.00     0.261 C 
BRANCH   3   4
ATOM      4  O   UNL A   1      33.255  23.565  27.186  1.00  0.00    -0.459 OA
BRANCH   4   5
ATOM      5  C   UNL A   1      32.047  23.868  26.647  1.00  0.00     0.365 C 
ATOM      6  O   UNL A   1      31.172  24.517  27.211  1.00  0.00    -0.245 OA
BRANCH   5   7
ATOM      7  C   UNL A   1      31.913  23.343  25.218  1.00  0.00     0.295 C 
ATOM      8  N   UNL A   1      33.069  23.552  24.318  1.00  0.00    -0.315 N 
ATOM      9  C   UNL A   1      32.614  23.219  22.971  1.00  0.00     0.263 C 
ATOM     10  H   UNL A   1      33.799  22.926  24.654  1.00  0.00     0.349 HD
ATOM     11  C   UNL A   1      31.092  23.290  22.985  1.00  0.00     0.068 C 
ATOM     12  C   UNL A   1      30.722  23.776  24.379  1.00  0.00     0.083 C 
BRANCH   8  13
ATOM     13  C   UNL A   1      33.904  24.766  24.424  1.00  0.00     0.364 C 
BRANCH  13  14
ATOM     14  C   UNL A   1      33.601  25.941  23.493  1.00  0.00     0.275 C 
ATOM     15  N   UNL A   1      32.877  27.023  23.879  1.00  0.00    -0.348 N 
ATOM     16  H   UNL A   1      33.022  27.831  23.336  1.00  0.00     0.163 HD
ATOM     17  O   UNL A   1      34.004  25.936  22.325  1.00  0.00    -0.268 OA
BRANCH  15  18
ATOM     18  C   UNL A   1      31.916  27.183  24.967  1.00  0.00     0.085 C 
ATOM     19  C   UNL A   1      31.699  27.865  27.398  1.00  0.00     0.010 C 
ATOM     20  C   UNL A   1      32.512  28.044  26.108  1.00  0.00     0.011 C 
ATOM     21  C   UNL A   1      32.665  29.522  25.683  1.00  0.00    -0.009 C 
ATOM     22  C   UNL A   1      33.266  30.402  26.781  1.00  0.00     0.008 C 
ATOM     23  C   UNL A   1      31.343  30.104  25.167  1.00  0.00     0.004 C 
ATOM     24  C   UNL A   1      30.616  27.791  24.416  1.00  0.00     0.025 C 
ATOM     25  C   UNL A   1      30.768  29.263  24.029  1.00  0.00     0.002 C 
ENDBRANCH  15  18
ENDBRANCH  13  14
ENDBRANCH   8  13
ENDBRANCH   5   7
ENDBRANCH   4   5
ENDBRANCH   3   4
ENDBRANCH   2   3
ENDBRANCH   1   2
BRANCH   1  26
ATOM     26  C   UNL A   1      35.406  20.865  25.096  1.00  0.00     0.202 C 
BRANCH  26  27
ATOM     27  C   UNL A   1      36.864  20.411  24.964  1.00  0.00     0.261 C 
BRANCH  27  28
ATOM     28  O   UNL A   1      37.817  21.483  25.090  1.00  0.00    -0.460 OA
BRANCH  28  29
ATOM     29  C   UNL A   1      38.892  21.198  25.869  1.00  0.00     0.338 C 
ATOM     30  O   UNL A   1      39.427  20.108  26.016  1.00  0.00    -0.246 OA
BRANCH  29  31
ATOM     31  C   UNL A   1      39.414  22.424  26.494  1.00  0.00     0.060 A 
ATOM     32  C   UNL A   1      38.877  23.660  26.120  1.00  0.00     0.016 A 
ATOM     33  C   UNL A   1      40.526  22.365  27.333  1.00  0.00     0.016 A 
ATOM     34  C   UNL A   1      39.475  24.844  26.564  1.00  0.00     0.010 A 
ATOM     35  C   UNL A   1      41.106  23.550  27.797  1.00  0.00     0.010 A 
ATOM     36  C   UNL A   1      40.610  24.801  27.387  1.00  0.00    -0.014 A 
BRANCH  36  37
ATOM     37  C   UNL A   1      41.384  26.036  27.693  1.00  0.00     0.031 A 
ATOM     38  C   UNL A   1      40.721  27.137  28.486  1.00  0.00     0.074 A 
ATOM     39  C   UNL A   1      42.655  26.190  27.274  1.00  0.00     0.049 A 
ATOM     40  N   UNL A   1      41.158  28.335  28.780  1.00  0.00    -0.248 NA
ATOM     41  C   UNL A   1      39.373  26.847  28.998  1.00  0.00     0.031 C 
ATOM     42  C   UNL A   1      43.424  25.199  26.523  1.00  0.00     0.029 A 
ATOM     43  N   UNL A   1      43.523  27.245  27.420  1.00  0.00    -0.354 N 
ATOM     44  C   UNL A   1      40.133  28.947  29.497  1.00  0.00     0.074 A 
ATOM     45  C   UNL A   1      39.036  28.005  29.544  1.00  0.00     0.031 C 
ATOM     46  C   UNL A   1      44.652  25.691  26.279  1.00  0.00     0.029 A 
ATOM     47  C   UNL A   1      44.745  27.047  26.818  1.00  0.00     0.049 A 
ATOM     48  H   UNL A   1      43.292  28.067  27.911  1.00  0.00     0.167 HD
ATOM     49  C   UNL A   1      40.113  30.171  30.082  1.00  0.00     0.034 A 
ATOM     50  C   UNL A   1      45.806  27.871  26.699  1.00  0.00     0.034 A 
ATOM     51  C   UNL A   1      41.216  31.099  30.047  1.00  0.00     0.049 A 
ATOM     52  C   UNL A   1      45.741  29.253  27.307  1.00  0.00     0.074 A 
ATOM     53  C   UNL A   1      41.303  32.359  30.613  1.00  0.00     0.029 A 
ATOM     54  N   UNL A   1      42.428  30.867  29.411  1.00  0.00    -0.354 N 
ATOM     55  N   UNL A   1      44.761  29.820  27.972  1.00  0.00    -0.248 NA
ATOM     56  C   UNL A   1      46.929  30.105  27.150  1.00  0.00     0.031 C 
ATOM     57  C   UNL A   1      42.545  32.910  30.276  1.00  0.00     0.029 A 
ATOM     58  C   UNL A   1      43.260  31.967  29.556  1.00  0.00     0.049 A 
ATOM     59  H   UNL A   1      42.663  30.042  28.929  1.00  0.00     0.167 HD
ATOM     60  C   UNL A   1      45.232  31.079  28.342  1.00  0.00     0.074 A 
ATOM     61  C   UNL A   1      46.583  31.184  27.834  1.00  0.00     0.031 C 
ATOM     62  C   UNL A   1      44.606  32.058  29.044  1.00  0.00     0.034 A 
BRANCH  49  63
ATOM     63  C   UNL A   1      38.838  30.580  30.780  1.00  0.00     0.023 A 
ATOM     64  C   UNL A   1      37.876  31.386  30.145  1.00  0.00     0.031 A 
ATOM     65  C   UNL A   1      38.599  30.195  32.111  1.00  0.00     0.131 A 
ATOM     66  C   UNL A   1      36.763  31.846  30.865  1.00  0.00     0.055 A 
ATOM     67  C   UNL A   1      37.448  30.588  32.796  1.00  0.00     0.041 A 
ATOM     68  F   UNL A   1      39.492  29.444  32.776  1.00  0.00    -0.206 F 
ATOM     69  C   UNL A   1      36.530  31.432  32.179  1.00  0.00     0.022 A 
BRANCH  66  70
ATOM     70  S   UNL A   1      35.706  33.111  30.109  1.00  0.00     0.124 S 
ATOM     71  O   UNL A   1      34.519  32.333  29.764  1.00  0.00    -0.237 OA
ATOM     72  O   UNL A   1      35.547  34.077  31.190  1.00  0.00    -0.237 OA
ATOM     73  O   UNL A   1      36.492  33.575  28.967  1.00  0.00    -0.744 OA
ENDBRANCH  66  70
ENDBRANCH  49  63
BRANCH  50  74
ATOM     74  C   UNL A   1      47.021  27.441  25.947  1.00  0.00     0.023 A 
ATOM     75  C   UNL A   1      47.207  27.803  24.603  1.00  0.00     0.031 A 
ATOM     76  C   UNL A   1      47.977  26.598  26.541  1.00  0.00     0.131 A 
ATOM     77  C   UNL A   1      48.292  27.282  23.882  1.00  0.00     0.055 A 
ATOM     78  C   UNL A   1      49.085  26.126  25.835  1.00  0.00     0.041 A 
ATOM     79  F   UNL A   1      47.846  26.219  27.823  1.00  0.00    -0.206 F 
ATOM     80  C   UNL A   1      49.239  26.455  24.492  1.00  0.00     0.022 A 
BRANCH  77  81
ATOM     81  S   UNL A   1      48.394  27.616  22.101  1.00  0.00     0.124 S 
ATOM     82  O   UNL A   1      47.097  28.233  21.841  1.00  0.00    -0.237 OA
ATOM     83  O   UNL A   1      49.552  28.501  22.026  1.00  0.00    -0.237 OA
ATOM     84  O   UNL A   1      48.584  26.292  21.516  1.00  0.00    -0.744 OA
ENDBRANCH  77  81
ENDBRANCH  50  74
BRANCH  62  85
ATOM     85  C   UNL A   1      45.403  33.302  29.350  1.00  0.00     0.023 A 
ATOM     86  C   UNL A   1      45.413  34.410  28.485  1.00  0.00     0.031 A 
ATOM     87  C   UNL A   1      46.167  33.375  30.529  1.00  0.00     0.131 A 
ATOM     88  C   UNL A   1      46.212  35.524  28.786  1.00  0.00     0.055 A 
ATOM     89  C   UNL A   1      46.918  34.506  30.848  1.00  0.00     0.041 A 
ATOM     90  F   UNL A   1      46.192  32.346  31.391  1.00  0.00    -0.206 F 
ATOM     91  C   UNL A   1      46.953  35.584  29.970  1.00  0.00     0.022 A 
BRANCH  88  92
ATOM     92  S   UNL A   1      46.328  36.869  27.574  1.00  0.00     0.124 S 
ATOM     93  O   UNL A   1      45.000  37.467  27.655  1.00  0.00    -0.237 OA
ATOM     94  O   UNL A   1      47.423  37.675  28.106  1.00  0.00    -0.237 OA
ATOM     95  O   UNL A   1      46.622  36.178  26.320  1.00  0.00    -0.744 OA
ENDBRANCH  88  92
ENDBRANCH  62  85
ENDBRANCH  36  37
ENDBRANCH  29  31
ENDBRANCH  28  29
ENDBRANCH  27  28
ENDBRANCH  26  27
ENDBRANCH   1  26
TORSDOF 20
ENDMDL
MODEL 2
REMARK VINA RESULT:     -11.0      1.738      2.235
REMARK SMILES C[C@@H]1[C@H](C)CCC[C@H]1NC(=O)C[N@@H+]1CCC[C@@H]1C(=O)OCCOCCOC(=O)c1ccc(-c2c3nc(c(-c4cc(S(=O)(=O)[O-])ccc4F)c4ccc([nH]4)c(-c4cc(S(=O)(=O)[O-])ccc4F)c4nc(c(-c5cc(S(=O)(=O)[O-])ccc5F)c5ccc2[nH]5)C=C4)C=C3)cc1
REMARK SMILES IDX 23 1 22 2 21 3 20 4 18 5 19 6 17 7 13 8 14 9 15 11 16 12
REMARK SMILES IDX 12 13 10 14 9 15 11 17 8 18 1 19 2 20 3 21 4 22 5 23 7 24
REMARK SMILES IDX 6 25 24 26 25 27 26 28 27 29 28 30 29 31 30 32 91 33 31 34
REMARK SMILES IDX 90 35 32 36 33 37 34 38 84 39 35 40 89 41 83 42 85 43 36 44
REMARK SMILES IDX 88 45 82 46 81 47 37 49 69 50 49 51 68 52 50 53 53 54 67 55
REMARK SMILES IDX 86 56 51 57 52 58 66 60 87 61 54 62 38 63 39 64 47 65 40 66
REMARK SMILES IDX 46 67 48 68 45 69 41 70 42 71 43 72 44 73 70 74 71 75 79 76
REMARK SMILES IDX 72 77 78 78 80 79 77 80 73 81 74 82 75 83 76 84 55 85 56 86
REMARK SMILES IDX 64 87 57 88 63 89 65 90 62 91 58 92 59 93 60 94 61 95
REMARK H PARENT 13 10 9 16 85 48 53 59
REMARK Flexibility Score: inf
ROOT
ATOM      1  O   UNL A   1      35.135  18.480  24.694  1.00  0.00    -0.374 OA
ENDROOT
BRANCH   1   2
ATOM      2  C   UNL A   1      33.755  18.448  24.323  1.00  0.00     0.202 C 
BRANCH   2   3
ATOM      3  C   UNL A   1      32.781  18.880  25.420  1.00  0.00     0.261 C 
BRANCH   3   4
ATOM      4  O   UNL A   1      32.055  20.048  25.014  1.00  0.00    -0.459 OA
BRANCH   4   5
ATOM      5  C   UNL A   1      32.590  21.237  25.391  1.00  0.00     0.365 C 
ATOM      6  O   UNL A   1      32.803  21.571  26.552  1.00  0.00    -0.245 OA
BRANCH   5   7
ATOM      7  C   UNL A   1      32.946  22.109  24.188  1.00  0.00     0.295 C 
ATOM      8  N   UNL A   1      32.519  23.524  24.239  1.00  0.00    -0.315 N 
ATOM      9  C   UNL A   1      32.727  24.070  22.900  1.00  0.00     0.263 C 
ATOM     10  H   UNL A   1      33.110  23.967  24.941  1.00  0.00     0.349 HD
ATOM     11  C   UNL A   1      32.803  22.887  21.944  1.00  0.00     0.068 C 
ATOM     12  C   UNL A   1      32.529  21.657  22.798  1.00  0.00     0.083 C 
BRANCH   8  13
ATOM     13  C   UNL A   1      31.254  23.914  24.893  1.00  0.00     0.364 C 
BRANCH  13  14
ATOM     14  C   UNL A   1      31.323  24.761  26.164  1.00  0.00     0.275 C 
ATOM     15  N   UNL A   1      31.451  26.113  26.146  1.00  0.00    -0.348 N 
ATOM     16  H   UNL A   1      31.160  26.566  26.969  1.00  0.00     0.163 HD
ATOM     17  O   UNL A   1      31.279  24.228  27.278  1.00  0.00    -0.268 OA
BRANCH  15  18
ATOM     18  C   UNL A   1      31.952  27.005  25.103  1.00  0.00     0.085 C 
ATOM     19  C   UNL A   1      31.616  29.286  24.049  1.00  0.00     0.010 C 
ATOM     20  C   UNL A   1      31.457  28.455  25.331  1.00  0.00     0.011 C 
ATOM     21  C   UNL A   1      32.132  29.098  26.563  1.00  0.00    -0.009 C 
ATOM     22  C   UNL A   1      31.656  30.527  26.830  1.00  0.00     0.008 C 
ATOM     23  C   UNL A   1      33.662  29.031  26.471  1.00  0.00     0.004 C 
ATOM     24  C   UNL A   1      33.487  26.930  25.059  1.00  0.00     0.025 C 
ATOM     25  C   UNL A   1      34.148  27.598  26.266  1.00  0.00     0.002 C 
ENDBRANCH  15  18
ENDBRANCH  13  14
ENDBRANCH   8  13
ENDBRANCH   5   7
ENDBRANCH   4   5
ENDBRANCH   3   4
ENDBRANCH   2   3
ENDBRANCH   1   2
BRANCH   1  26
ATOM     26  C   UNL A   1      35.738  19.770  24.801  1.00  0.00     0.202 C 
BRANCH  26  27
ATOM     27  C   UNL A   1      37.271  19.809  24.791  1.00  0.00     0.261 C 
BRANCH  27  28
ATOM     28  O   UNL A   1      37.824  20.961  25.454  1.00  0.00    -0.460 OA
BRANCH  28  29
ATOM     29  C   UNL A   1      39.066  20.776  25.971  1.00  0.00     0.338 C 
ATOM     30  O   UNL A   1      39.746  19.761  25.910  1.00  0.00    -0.246 OA
BRANCH  29  31
ATOM     31  C   UNL A   1      39.559  22.022  26.581  1.00  0.00     0.060 A 
ATOM     32  C   UNL A   1      39.005  23.242  26.180  1.00  0.00     0.016 A 
ATOM     33  C   UNL A   1      40.662  21.996  27.434  1.00  0.00     0.016 A 
ATOM     34  C   UNL A   1      39.578  24.443  26.612  1.00  0.00     0.010 A 
ATOM     35  C   UNL A   1      41.215  23.199  27.885  1.00  0.00     0.010 A 
ATOM     36  C   UNL A   1      40.703  24.433  27.449  1.00  0.00    -0.014 A 
BRANCH  36  37
ATOM     37  C   UNL A   1      41.451  25.687  27.743  1.00  0.00     0.031 A 
ATOM     38  C   UNL A   1      40.755  26.795  28.496  1.00  0.00     0.074 A 
ATOM     39  C   UNL A   1      42.729  25.850  27.350  1.00  0.00     0.049 A 
ATOM     40  N   UNL A   1      41.167  28.006  28.772  1.00  0.00    -0.248 NA
ATOM     41  C   UNL A   1      39.400  26.497  28.985  1.00  0.00     0.031 C 
ATOM     42  C   UNL A   1      43.530  24.855  26.638  1.00  0.00     0.029 A 
ATOM     43  N   UNL A   1      43.577  26.923  27.490  1.00  0.00    -0.354 N 
ATOM     44  C   UNL A   1      40.117  28.619  29.451  1.00  0.00     0.074 A 
ATOM     45  C   UNL A   1      39.033  27.661  29.496  1.00  0.00     0.031 C 
ATOM     46  C   UNL A   1      44.755  25.360  26.411  1.00  0.00     0.029 A 
ATOM     47  C   UNL A   1      44.815  26.729  26.920  1.00  0.00     0.049 A 
ATOM     48  H   UNL A   1      43.324  27.752  27.956  1.00  0.00     0.167 HD
ATOM     49  C   UNL A   1      40.065  29.856  30.008  1.00  0.00     0.034 A 
ATOM     50  C   UNL A   1      45.867  27.566  26.806  1.00  0.00     0.034 A 
ATOM     51  C   UNL A   1      41.155  30.799  29.976  1.00  0.00     0.049 A 
ATOM     52  C   UNL A   1      45.768  28.961  27.380  1.00  0.00     0.074 A 
ATOM     53  C   UNL A   1      41.211  32.073  30.515  1.00  0.00     0.029 A 
ATOM     54  N   UNL A   1      42.385  30.571  29.373  1.00  0.00    -0.354 N 
ATOM     55  N   UNL A   1      44.765  29.528  28.010  1.00  0.00    -0.248 NA
ATOM     56  C   UNL A   1      46.946  29.827  27.230  1.00  0.00     0.031 C 
ATOM     57  C   UNL A   1      42.453  32.635  30.193  1.00  0.00     0.029 A 
ATOM     58  C   UNL A   1      43.197  31.686  29.510  1.00  0.00     0.049 A 
ATOM     59  H   UNL A   1      42.643  29.739  28.915  1.00  0.00     0.167 HD
ATOM     60  C   UNL A   1      45.208  30.802  28.361  1.00  0.00     0.074 A 
ATOM     61  C   UNL A   1      46.569  30.916  27.881  1.00  0.00     0.031 C 
ATOM     62  C   UNL A   1      44.553  31.786  29.026  1.00  0.00     0.034 A 
BRANCH  49  63
ATOM     63  C   UNL A   1      38.769  30.261  30.668  1.00  0.00     0.023 A 
ATOM     64  C   UNL A   1      37.758  30.930  29.957  1.00  0.00     0.031 A 
ATOM     65  C   UNL A   1      38.558  30.012  32.036  1.00  0.00     0.131 A 
ATOM     66  C   UNL A   1      36.620  31.399  30.631  1.00  0.00     0.055 A 
ATOM     67  C   UNL A   1      37.386  30.407  32.683  1.00  0.00     0.041 A 
ATOM     68  F   UNL A   1      39.496  29.394  32.771  1.00  0.00    -0.206 F 
ATOM     69  C   UNL A   1      36.416  31.119  31.985  1.00  0.00     0.022 A 
BRANCH  66  70
ATOM     70  S   UNL A   1      35.486  32.505  29.750  1.00  0.00     0.124 S 
ATOM     71  O   UNL A   1      34.775  31.567  28.885  1.00  0.00    -0.237 OA
ATOM     72  O   UNL A   1      34.708  33.090  30.835  1.00  0.00    -0.237 OA
ATOM     73  O   UNL A   1      36.380  33.428  29.053  1.00  0.00    -0.744 OA
ENDBRANCH  66  70
ENDBRANCH  49  63
BRANCH  50  74
ATOM     74  C   UNL A   1      47.105  27.138  26.091  1.00  0.00     0.023 A 
ATOM     75  C   UNL A   1      48.133  26.460  26.765  1.00  0.00     0.031 A 
ATOM     76  C   UNL A   1      47.308  27.470  24.739  1.00  0.00     0.131 A 
ATOM     77  C   UNL A   1      49.339  26.182  26.103  1.00  0.00     0.055 A 
ATOM     78  C   UNL A   1      48.488  27.142  24.069  1.00  0.00     0.041 A 
ATOM     79  F   UNL A   1      46.359  28.121  24.048  1.00  0.00    -0.206 F 
ATOM     80  C   UNL A   1      49.519  26.507  24.756  1.00  0.00     0.022 A 
BRANCH  77  81
ATOM     81  S   UNL A   1      50.712  25.478  27.057  1.00  0.00     0.124 S 
ATOM     82  O   UNL A   1      51.670  25.157  26.004  1.00  0.00    -0.237 OA
ATOM     83  O   UNL A   1      51.070  26.587  27.934  1.00  0.00    -0.237 OA
ATOM     84  O   UNL A   1      50.109  24.327  27.725  1.00  0.00    -0.744 OA
ENDBRANCH  77  81
ENDBRANCH  50  74
BRANCH  62  85
ATOM     85  C   UNL A   1      45.324  33.049  29.322  1.00  0.00     0.023 A 
ATOM     86  C   UNL A   1      45.316  34.148  28.444  1.00  0.00     0.031 A 
ATOM     87  C   UNL A   1      46.082  33.150  30.502  1.00  0.00     0.131 A 
ATOM     88  C   UNL A   1      46.092  35.280  28.736  1.00  0.00     0.055 A 
ATOM     89  C   UNL A   1      46.810  34.299  30.812  1.00  0.00     0.041 A 
ATOM     90  F   UNL A   1      46.123  32.131  31.376  1.00  0.00    -0.206 F 
ATOM     91  C   UNL A   1      46.827  35.368  29.921  1.00  0.00     0.022 A 
BRANCH  88  92
ATOM     92  S   UNL A   1      46.186  36.614  27.509  1.00  0.00     0.124 S 
ATOM     93  O   UNL A   1      44.812  36.681  27.026  1.00  0.00    -0.237 OA
ATOM     94  O   UNL A   1      46.635  37.746  28.314  1.00  0.00    -0.237 OA
ATOM     95  O   UNL A   1      47.162  36.121  26.538  1.00  0.00    -0.744 OA
ENDBRANCH  88  92
ENDBRANCH  62  85
ENDBRANCH  36  37
ENDBRANCH  29  31
ENDBRANCH  28  29
ENDBRANCH  27  28
ENDBRANCH  26  27
ENDBRANCH   1  26
TORSDOF 20
ENDMDL
MODEL 3
REMARK VINA RESULT:     -10.8      1.203      7.577
REMARK SMILES C[C@@H]1[C@H](C)CCC[C@H]1NC(=O)C[N@@H+]1CCC[C@@H]1C(=O)OCCOCCOC(=O)c1ccc(-c2c3nc(c(-c4cc(S(=O)(=O)[O-])ccc4F)c4ccc([nH]4)c(-c4cc(S(=O)(=O)[O-])ccc4F)c4nc(c(-c5cc(S(=O)(=O)[O-])ccc5F)c5ccc2[nH]5)C=C4)C=C3)cc1
REMARK SMILES IDX 23 1 22 2 21 3 20 4 18 5 19 6 17 7 13 8 14 9 15 11 16 12
REMARK SMILES IDX 12 13 10 14 9 15 11 17 8 18 1 19 2 20 3 21 4 22 5 23 7 24
REMARK SMILES IDX 6 25 24 26 25 27 26 28 27 29 28 30 29 31 30 32 91 33 31 34
REMARK SMILES IDX 90 35 32 36 33 37 34 38 84 39 35 40 89 41 83 42 85 43 36 44
REMARK SMILES IDX 88 45 82 46 81 47 37 49 69 50 49 51 68 52 50 53 53 54 67 55
REMARK SMILES IDX 86 56 51 57 52 58 66 60 87 61 54 62 38 63 39 64 47 65 40 66
REMARK SMILES IDX 46 67 48 68 45 69 41 70 42 71 43 72 44 73 70 74 71 75 79 76
REMARK SMILES IDX 72 77 78 78 80 79 77 80 73 81 74 82 75 83 76 84 55 85 56 86
REMARK SMILES IDX 64 87 57 88 63 89 65 90 62 91 58 92 59 93 60 94 61 95
REMARK H PARENT 13 10 9 16 85 48 53 59
REMARK Flexibility Score: inf
ROOT
ATOM      1  O   UNL A   1      36.091  22.388  25.434  1.00  0.00    -0.374 OA
ENDROOT
BRANCH   1   2
ATOM      2  C   UNL A   1      35.397  22.358  26.684  1.00  0.00     0.202 C 
BRANCH   2   3
ATOM      3  C   UNL A   1      34.304  21.294  26.792  1.00  0.00     0.261 C 
BRANCH   3   4
ATOM      4  O   UNL A   1      33.034  21.841  26.414  1.00  0.00    -0.459 OA
BRANCH   4   5
ATOM      5  C   UNL A   1      32.533  21.410  25.228  1.00  0.00     0.365 C 
ATOM      6  O   UNL A   1      31.792  20.442  25.092  1.00  0.00    -0.245 OA
BRANCH   5   7
ATOM      7  C   UNL A   1      32.964  22.308  24.069  1.00  0.00     0.295 C 
ATOM      8  N   UNL A   1      32.584  23.735  24.151  1.00  0.00    -0.315 N 
ATOM      9  C   UNL A   1      32.859  24.316  22.840  1.00  0.00     0.263 C 
ATOM     10  H   UNL A   1      33.163  24.133  24.889  1.00  0.00     0.349 HD
ATOM     11  C   UNL A   1      32.931  23.162  21.848  1.00  0.00     0.068 C 
ATOM     12  C   UNL A   1      32.583  21.916  22.650  1.00  0.00     0.083 C 
BRANCH   8  13
ATOM     13  C   UNL A   1      31.309  24.147  24.773  1.00  0.00     0.364 C 
BRANCH  13  14
ATOM     14  C   UNL A   1      31.353  24.825  26.143  1.00  0.00     0.275 C 
ATOM     15  N   UNL A   1      31.881  26.061  26.341  1.00  0.00    -0.348 N 
ATOM     16  H   UNL A   1      31.568  26.517  27.154  1.00  0.00     0.163 HD
ATOM     17  O   UNL A   1      30.912  24.248  27.143  1.00  0.00    -0.268 OA
BRANCH  15  18
ATOM     18  C   UNL A   1      32.838  26.823  25.543  1.00  0.00     0.085 C 
ATOM     19  C   UNL A   1      33.110  28.091  23.366  1.00  0.00     0.010 C 
ATOM     20  C   UNL A   1      32.114  27.641  24.444  1.00  0.00     0.011 C 
ATOM     21  C   UNL A   1      31.299  28.806  25.049  1.00  0.00    -0.009 C 
ATOM     22  C   UNL A   1      30.557  29.628  23.994  1.00  0.00     0.008 C 
ATOM     23  C   UNL A   1      32.168  29.702  25.941  1.00  0.00     0.004 C 
ATOM     24  C   UNL A   1      33.670  27.726  26.468  1.00  0.00     0.025 C 
ATOM     25  C   UNL A   1      32.864  28.896  27.035  1.00  0.00     0.002 C 
ENDBRANCH  15  18
ENDBRANCH  13  14
ENDBRANCH   8  13
ENDBRANCH   5   7
ENDBRANCH   4   5
ENDBRANCH   3   4
ENDBRANCH   2   3
ENDBRANCH   1   2
BRANCH   1  26
ATOM     26  C   UNL A   1      36.451  21.124  24.874  1.00  0.00     0.202 C 
BRANCH  26  27
ATOM     27  C   UNL A   1      37.930  20.732  24.971  1.00  0.00     0.261 C 
BRANCH  27  28
ATOM     28  O   UNL A   1      38.471  20.838  26.301  1.00  0.00    -0.460 OA
BRANCH  28  29
ATOM     29  C   UNL A   1      39.803  21.095  26.353  1.00  0.00     0.338 C 
ATOM     30  O   UNL A   1      40.707  20.389  25.928  1.00  0.00    -0.246 OA
BRANCH  29  31
ATOM     31  C   UNL A   1      40.049  22.421  26.943  1.00  0.00     0.060 A 
ATOM     32  C   UNL A   1      39.304  23.515  26.491  1.00  0.00     0.016 A 
ATOM     33  C   UNL A   1      41.107  22.609  27.831  1.00  0.00     0.016 A 
ATOM     34  C   UNL A   1      39.641  24.808  26.907  1.00  0.00     0.010 A 
ATOM     35  C   UNL A   1      41.424  23.899  28.265  1.00  0.00     0.010 A 
ATOM     36  C   UNL A   1      40.720  25.015  27.779  1.00  0.00    -0.014 A 
BRANCH  36  37
ATOM     37  C   UNL A   1      41.226  26.387  28.061  1.00  0.00     0.031 A 
ATOM     38  C   UNL A   1      42.639  26.742  27.663  1.00  0.00     0.074 A 
ATOM     39  C   UNL A   1      40.452  27.310  28.664  1.00  0.00     0.049 A 
ATOM     40  N   UNL A   1      43.326  27.830  27.900  1.00  0.00    -0.248 NA
ATOM     41  C   UNL A   1      43.379  25.716  26.914  1.00  0.00     0.031 C 
ATOM     42  C   UNL A   1      39.064  27.112  29.078  1.00  0.00     0.029 A 
ATOM     43  N   UNL A   1      40.730  28.603  29.037  1.00  0.00    -0.354 N 
ATOM     44  C   UNL A   1      44.583  27.614  27.343  1.00  0.00     0.074 A 
ATOM     45  C   UNL A   1      44.577  26.270  26.806  1.00  0.00     0.031 C 
ATOM     46  C   UNL A   1      38.610  28.244  29.642  1.00  0.00     0.029 A 
ATOM     47  C   UNL A   1      39.684  29.236  29.670  1.00  0.00     0.049 A 
ATOM     48  H   UNL A   1      41.597  29.038  28.867  1.00  0.00     0.167 HD
ATOM     49  C   UNL A   1      45.640  28.462  27.263  1.00  0.00     0.034 A 
ATOM     50  C   UNL A   1      39.608  30.463  30.224  1.00  0.00     0.034 A 
ATOM     51  C   UNL A   1      45.635  29.806  27.785  1.00  0.00     0.049 A 
ATOM     52  C   UNL A   1      40.817  31.370  30.178  1.00  0.00     0.074 A 
ATOM     53  C   UNL A   1      46.647  30.750  27.750  1.00  0.00     0.029 A 
ATOM     54  N   UNL A   1      44.562  30.401  28.434  1.00  0.00    -0.354 N 
ATOM     55  N   UNL A   1      42.001  31.147  29.656  1.00  0.00    -0.248 NA
ATOM     56  C   UNL A   1      40.674  32.698  30.793  1.00  0.00     0.031 C 
ATOM     57  C   UNL A   1      46.206  31.895  28.424  1.00  0.00     0.029 A 
ATOM     58  C   UNL A   1      44.895  31.690  28.821  1.00  0.00     0.049 A 
ATOM     59  H   UNL A   1      43.692  29.971  28.596  1.00  0.00     0.167 HD
ATOM     60  C   UNL A   1      42.729  32.320  29.850  1.00  0.00     0.074 A 
ATOM     61  C   UNL A   1      41.849  33.249  30.527  1.00  0.00     0.031 C 
ATOM     62  C   UNL A   1      44.007  32.606  29.495  1.00  0.00     0.034 A 
BRANCH  49  63
ATOM     63  C   UNL A   1      46.898  27.935  26.615  1.00  0.00     0.023 A 
ATOM     64  C   UNL A   1      47.158  28.127  25.247  1.00  0.00     0.031 A 
ATOM     65  C   UNL A   1      47.831  27.197  27.365  1.00  0.00     0.131 A 
ATOM     66  C   UNL A   1      48.276  27.520  24.654  1.00  0.00     0.055 A 
ATOM     67  C   UNL A   1      48.985  26.666  26.787  1.00  0.00     0.041 A 
ATOM     68  F   UNL A   1      47.627  26.964  28.672  1.00  0.00    -0.206 F 
ATOM     69  C   UNL A   1      49.205  26.812  25.420  1.00  0.00     0.022 A 
BRANCH  66  70
ATOM     70  S   UNL A   1      48.417  27.544  22.847  1.00  0.00     0.124 S 
ATOM     71  O   UNL A   1      47.227  28.302  22.470  1.00  0.00    -0.237 OA
ATOM     72  O   UNL A   1      49.695  28.213  22.639  1.00  0.00    -0.237 OA
ATOM     73  O   UNL A   1      48.386  26.129  22.482  1.00  0.00    -0.744 OA
ENDBRANCH  66  70
ENDBRANCH  49  63
BRANCH  50  74
ATOM     74  C   UNL A   1      38.360  30.914  30.906  1.00  0.00     0.023 A 
ATOM     75  C   UNL A   1      37.330  31.544  30.190  1.00  0.00     0.031 A 
ATOM     76  C   UNL A   1      38.214  30.788  32.299  1.00  0.00     0.131 A 
ATOM     77  C   UNL A   1      36.224  32.072  30.874  1.00  0.00     0.055 A 
ATOM     78  C   UNL A   1      37.086  31.267  32.968  1.00  0.00     0.041 A 
ATOM     79  F   UNL A   1      39.171  30.197  33.033  1.00  0.00    -0.206 F 
ATOM     80  C   UNL A   1      36.090  31.927  32.257  1.00  0.00     0.022 A 
BRANCH  77  81
ATOM     81  S   UNL A   1      35.009  33.044  29.942  1.00  0.00     0.124 S 
ATOM     82  O   UNL A   1      34.477  32.047  29.018  1.00  0.00    -0.237 OA
ATOM     83  O   UNL A   1      34.104  33.489  30.997  1.00  0.00    -0.237 OA
ATOM     84  O   UNL A   1      35.813  34.098  29.328  1.00  0.00    -0.744 OA
ENDBRANCH  77  81
ENDBRANCH  50  74
BRANCH  62  85
ATOM     85  C   UNL A   1      44.506  34.001  29.783  1.00  0.00     0.023 A 
ATOM     86  C   UNL A   1      44.402  35.037  28.838  1.00  0.00     0.031 A 
ATOM     87  C   UNL A   1      45.099  34.293  31.025  1.00  0.00     0.131 A 
ATOM     88  C   UNL A   1      44.929  36.304  29.131  1.00  0.00     0.055 A 
ATOM     89  C   UNL A   1      45.574  35.569  31.329  1.00  0.00     0.041 A 
ATOM     90  F   UNL A   1      45.222  33.342  31.963  1.00  0.00    -0.206 F 
ATOM     91  C   UNL A   1      45.501  36.580  30.376  1.00  0.00     0.022 A 
BRANCH  88  92
ATOM     92  S   UNL A   1      44.922  37.573  27.835  1.00  0.00     0.124 S 
ATOM     93  O   UNL A   1      46.015  37.135  26.973  1.00  0.00    -0.237 OA
ATOM     94  O   UNL A   1      43.580  37.443  27.277  1.00  0.00    -0.237 OA
ATOM     95  O   UNL A   1      45.169  38.815  28.567  1.00  0.00    -0.744 OA
ENDBRANCH  88  92
ENDBRANCH  62  85
ENDBRANCH  36  37
ENDBRANCH  29  31
ENDBRANCH  28  29
ENDBRANCH  27  28
ENDBRANCH  26  27
ENDBRANCH   1  26
TORSDOF 20
ENDMDL
