MODEL 1
REMARK VINA RESULT:     -11.0      0.000      0.000
REMARK SMILES CC(C)[NH2+][C@]1(C(=O)OCCOCCOC(=O)c2ccc(-c3c4nc(c(-c5cc(S(=O)(=O)[O-])ccc5F)c5ccc([nH]5)c(-c5cc(S(=O)(=O)[O-])ccc5F)c5nc(c(-c6cc(S(=O)(=O)[O-])ccc6F)c6ccc3[nH]6)C=C5)C=C4)cc2)CCC[C@@H](Sc2nnnn2C)C1
REMARK SMILES IDX 12 1 11 2 10 3 9 4 8 5 6 6 7 7 5 8 80 9 91 10 81 11 83 12
REMARK SMILES IDX 82 13 4 14 2 17 1 18 3 19 84 20 85 21 86 22 89 23 87 24
REMARK SMILES IDX 88 25 90 26 13 27 14 28 15 29 16 30 17 31 18 32 79 33 19 34
REMARK SMILES IDX 78 35 20 36 21 37 22 38 72 39 23 40 77 41 71 42 73 43 24 44
REMARK SMILES IDX 76 45 70 46 69 47 25 49 57 50 37 51 56 52 38 53 41 54 55 55
REMARK SMILES IDX 74 56 39 57 40 58 54 60 75 61 42 62 26 63 27 64 35 65 28 66
REMARK SMILES IDX 34 67 36 68 33 69 29 70 30 71 31 72 32 73 58 74 59 75 67 76
REMARK SMILES IDX 60 77 66 78 68 79 65 80 61 81 62 82 63 83 64 84 43 85 44 86
REMARK SMILES IDX 52 87 45 88 51 89 53 90 50 91 46 92 47 93 48 94 49 95
REMARK H PARENT 4 15 4 16 73 48 41 59
REMARK Flexibility Score: inf
ROOT
ATOM      1  C   UNL A   1      31.673  29.344  25.390  1.00  0.00     0.202 C 
ENDROOT
BRANCH   1   2
ATOM      2  O   UNL A   1      31.908  27.958  25.624  1.00  0.00    -0.374 OA
BRANCH   2   3
ATOM      3  C   UNL A   1      30.906  27.044  25.178  1.00  0.00     0.202 C 
BRANCH   3   4
ATOM      4  C   UNL A   1      30.450  26.005  26.209  1.00  0.00     0.261 C 
BRANCH   4   5
ATOM      5  O   UNL A   1      31.564  25.255  26.728  1.00  0.00    -0.459 OA
BRANCH   5   6
ATOM      6  C   UNL A   1      31.451  23.896  26.744  1.00  0.00     0.368 C 
ATOM      7  O   UNL A   1      30.582  23.272  27.345  1.00  0.00    -0.245 OA
BRANCH   6   8
ATOM      8  C   UNL A   1      32.606  23.222  25.935  1.00  0.00     0.195 C 
ATOM      9  C   UNL A   1      33.992  23.437  26.595  1.00  0.00     0.081 C 
ATOM     10  C   UNL A   1      32.268  21.723  25.993  1.00  0.00     0.096 C 
ATOM     11  C   UNL A   1      35.082  22.593  25.927  1.00  0.00     0.008 C 
ATOM     12  C   UNL A   1      33.343  20.785  25.452  1.00  0.00     0.061 C 
ATOM     13  C   UNL A   1      34.749  21.102  25.976  1.00  0.00     0.015 C 
BRANCH   8  14
ATOM     14  N   UNL A   1      32.732  23.903  24.621  1.00  0.00    -0.330 N 
ATOM     15  H   UNL A   1      32.335  24.835  24.741  1.00  0.00     0.347 HD
ATOM     16  H   UNL A   1      33.729  23.815  24.426  1.00  0.00     0.347 HD
BRANCH  14  17
ATOM     17  C   UNL A   1      32.132  23.356  23.413  1.00  0.00     0.176 C 
ATOM     18  C   UNL A   1      30.668  23.792  23.291  1.00  0.00     0.075 C 
ATOM     19  C   UNL A   1      32.912  23.935  22.227  1.00  0.00     0.075 C 
ENDBRANCH  14  17
ENDBRANCH   8  14
BRANCH  12  20
ATOM     20  S   UNL A   1      32.784  19.053  25.731  1.00  0.00    -0.081 SA
BRANCH  20  21
ATOM     21  C   UNL A   1      32.955  18.315  24.182  1.00  0.00     0.209 A 
ATOM     22  N   UNL A   1      32.299  18.678  23.104  1.00  0.00    -0.102 NA
ATOM     23  N   UNL A   1      33.760  17.258  23.864  1.00  0.00    -0.224 N 
ATOM     24  N   UNL A   1      32.730  17.845  22.102  1.00  0.00    -0.023 NA
ATOM     25  N   UNL A   1      33.631  16.984  22.554  1.00  0.00    -0.045 NA
ATOM     26  C   UNL A   1      34.681  16.484  24.646  1.00  0.00     0.179 C 
ENDBRANCH  20  21
ENDBRANCH  12  20
ENDBRANCH   6   8
ENDBRANCH   5   6
ENDBRANCH   4   5
ENDBRANCH   3   4
ENDBRANCH   2   3
ENDBRANCH   1   2
BRANCH   1  27
ATOM     27  C   UNL A   1      31.963  30.302  26.551  1.00  0.00     0.261 C 
BRANCH  27  28
ATOM     28  O   UNL A   1      32.928  31.310  26.202  1.00  0.00    -0.460 OA
BRANCH  28  29
ATOM     29  C   UNL A   1      33.323  32.084  27.241  1.00  0.00     0.338 C 
ATOM     30  O   UNL A   1      32.645  32.922  27.824  1.00  0.00    -0.246 OA
BRANCH  29  31
ATOM     31  C   UNL A   1      34.653  31.672  27.728  1.00  0.00     0.060 A 
ATOM     32  C   UNL A   1      34.813  30.326  28.080  1.00  0.00     0.016 A 
ATOM     33  C   UNL A   1      35.696  32.583  27.921  1.00  0.00     0.016 A 
ATOM     34  C   UNL A   1      35.991  29.897  28.686  1.00  0.00     0.010 A 
ATOM     35  C   UNL A   1      36.879  32.148  28.535  1.00  0.00     0.010 A 
ATOM     36  C   UNL A   1      37.015  30.813  28.958  1.00  0.00    -0.014 A 
BRANCH  36  37
ATOM     37  C   UNL A   1      38.149  30.396  29.821  1.00  0.00     0.031 A 
ATOM     38  C   UNL A   1      39.151  29.408  29.282  1.00  0.00     0.074 A 
ATOM     39  C   UNL A   1      38.317  30.928  31.045  1.00  0.00     0.049 A 
ATOM     40  N   UNL A   1      40.208  28.896  29.858  1.00  0.00    -0.248 NA
ATOM     41  C   UNL A   1      38.926  28.934  27.908  1.00  0.00     0.031 C 
ATOM     42  C   UNL A   1      37.439  31.926  31.656  1.00  0.00     0.029 A 
ATOM     43  N   UNL A   1      39.282  30.703  31.994  1.00  0.00    -0.354 N 
ATOM     44  C   UNL A   1      40.772  28.037  28.922  1.00  0.00     0.074 A 
ATOM     45  C   UNL A   1      39.917  28.070  27.754  1.00  0.00     0.031 C 
ATOM     46  C   UNL A   1      37.903  32.220  32.883  1.00  0.00     0.029 A 
ATOM     47  C   UNL A   1      39.086  31.407  33.159  1.00  0.00     0.049 A 
ATOM     48  H   UNL A   1      40.044  30.095  31.854  1.00  0.00     0.167 HD
ATOM     49  C   UNL A   1      41.902  27.294  29.025  1.00  0.00     0.034 A 
ATOM     50  C   UNL A   1      39.766  31.378  34.323  1.00  0.00     0.034 A 
ATOM     51  C   UNL A   1      42.740  27.265  30.199  1.00  0.00     0.049 A 
ATOM     52  C   UNL A   1      40.976  30.483  34.443  1.00  0.00     0.074 A 
ATOM     53  C   UNL A   1      43.917  26.565  30.401  1.00  0.00     0.029 A 
ATOM     54  N   UNL A   1      42.483  27.954  31.378  1.00  0.00    -0.354 N 
ATOM     55  N   UNL A   1      41.507  29.683  33.546  1.00  0.00    -0.248 NA
ATOM     56  C   UNL A   1      41.683  30.494  35.730  1.00  0.00     0.031 C 
ATOM     57  C   UNL A   1      44.330  26.771  31.722  1.00  0.00     0.029 A 
ATOM     58  C   UNL A   1      43.458  27.666  32.322  1.00  0.00     0.049 A 
ATOM     59  H   UNL A   1      41.720  28.558  31.522  1.00  0.00     0.167 HD
ATOM     60  C   UNL A   1      42.625  29.118  34.154  1.00  0.00     0.074 A 
ATOM     61  C   UNL A   1      42.700  29.680  35.488  1.00  0.00     0.031 C 
ATOM     62  C   UNL A   1      43.515  28.222  33.655  1.00  0.00     0.034 A 
BRANCH  49  63
ATOM     63  C   UNL A   1      42.261  26.409  27.854  1.00  0.00     0.023 A 
ATOM     64  C   UNL A   1      41.764  25.100  27.730  1.00  0.00     0.031 A 
ATOM     65  C   UNL A   1      43.137  26.877  26.857  1.00  0.00     0.131 A 
ATOM     66  C   UNL A   1      42.196  24.283  26.674  1.00  0.00     0.055 A 
ATOM     67  C   UNL A   1      43.503  26.085  25.768  1.00  0.00     0.041 A 
ATOM     68  F   UNL A   1      43.663  28.110  26.934  1.00  0.00    -0.206 F 
ATOM     69  C   UNL A   1      43.044  24.776  25.679  1.00  0.00     0.022 A 
BRANCH  66  70
ATOM     70  S   UNL A   1      41.748  22.526  26.694  1.00  0.00     0.124 S 
ATOM     71  O   UNL A   1      42.532  22.033  27.825  1.00  0.00    -0.237 OA
ATOM     72  O   UNL A   1      40.304  22.571  26.889  1.00  0.00    -0.237 OA
ATOM     73  O   UNL A   1      42.186  22.044  25.386  1.00  0.00    -0.744 OA
ENDBRANCH  66  70
ENDBRANCH  49  63
BRANCH  50  74
ATOM     74  C   UNL A   1      39.300  32.184  35.487  1.00  0.00     0.023 A 
ATOM     75  C   UNL A   1      39.732  33.505  35.684  1.00  0.00     0.031 A 
ATOM     76  C   UNL A   1      38.445  31.619  36.451  1.00  0.00     0.131 A 
ATOM     77  C   UNL A   1      39.341  34.203  36.838  1.00  0.00     0.055 A 
ATOM     78  C   UNL A   1      38.018  32.334  37.570  1.00  0.00     0.041 A 
ATOM     79  F   UNL A   1      38.004  30.359  36.312  1.00  0.00    -0.206 F 
ATOM     80  C   UNL A   1      38.477  33.632  37.775  1.00  0.00     0.022 A 
BRANCH  77  81
ATOM     81  S   UNL A   1      40.040  35.850  37.137  1.00  0.00     0.124 S 
ATOM     82  O   UNL A   1      39.683  36.553  35.910  1.00  0.00    -0.237 OA
ATOM     83  O   UNL A   1      39.330  36.264  38.343  1.00  0.00    -0.237 OA
ATOM     84  O   UNL A   1      41.466  35.588  37.316  1.00  0.00    -0.744 OA
ENDBRANCH  77  81
ENDBRANCH  50  74
BRANCH  62  85
ATOM     85  C   UNL A   1      44.672  27.830  34.542  1.00  0.00     0.023 A 
ATOM     86  C   UNL A   1      44.598  26.734  35.419  1.00  0.00     0.031 A 
ATOM     87  C   UNL A   1      45.866  28.574  34.513  1.00  0.00     0.131 A 
ATOM     88  C   UNL A   1      45.676  26.444  36.270  1.00  0.00     0.055 A 
ATOM     89  C   UNL A   1      46.958  28.243  35.317  1.00  0.00     0.041 A 
ATOM     90  F   UNL A   1      45.992  29.632  33.697  1.00  0.00    -0.206 F 
ATOM     91  C   UNL A   1      46.862  27.182  36.211  1.00  0.00     0.022 A 
BRANCH  88  92
ATOM     92  S   UNL A   1      45.480  25.145  37.521  1.00  0.00     0.124 S 
ATOM     93  O   UNL A   1      46.115  25.750  38.687  1.00  0.00    -0.237 OA
ATOM     94  O   UNL A   1      44.030  24.996  37.590  1.00  0.00    -0.237 OA
ATOM     95  O   UNL A   1      46.192  24.005  36.947  1.00  0.00    -0.744 OA
ENDBRANCH  88  92
ENDBRANCH  62  85
ENDBRANCH  36  37
ENDBRANCH  29  31
ENDBRANCH  28  29
ENDBRANCH  27  28
ENDBRANCH   1  27
TORSDOF 21
ENDMDL
MODEL 2
REMARK VINA RESULT:     -10.3      1.774      7.974
REMARK SMILES CC(C)[NH2+][C@]1(C(=O)OCCOCCOC(=O)c2ccc(-c3c4nc(c(-c5cc(S(=O)(=O)[O-])ccc5F)c5ccc([nH]5)c(-c5cc(S(=O)(=O)[O-])ccc5F)c5nc(c(-c6cc(S(=O)(=O)[O-])ccc6F)c6ccc3[nH]6)C=C5)C=C4)cc2)CCC[C@@H](Sc2nnnn2C)C1
REMARK SMILES IDX 12 1 11 2 10 3 9 4 8 5 6 6 7 7 5 8 80 9 91 10 81 11 83 12
REMARK SMILES IDX 82 13 4 14 2 17 1 18 3 19 84 20 85 21 86 22 89 23 87 24
REMARK SMILES IDX 88 25 90 26 13 27 14 28 15 29 16 30 17 31 18 32 79 33 19 34
REMARK SMILES IDX 78 35 20 36 21 37 22 38 72 39 23 40 77 41 71 42 73 43 24 44
REMARK SMILES IDX 76 45 70 46 69 47 25 49 57 50 37 51 56 52 38 53 41 54 55 55
REMARK SMILES IDX 74 56 39 57 40 58 54 60 75 61 42 62 26 63 27 64 35 65 28 66
REMARK SMILES IDX 34 67 36 68 33 69 29 70 30 71 31 72 32 73 58 74 59 75 67 76
REMARK SMILES IDX 60 77 66 78 68 79 65 80 61 81 62 82 63 83 64 84 43 85 44 86
REMARK SMILES IDX 52 87 45 88 51 89 53 90 50 91 46 92 47 93 48 94 49 95
REMARK H PARENT 4 15 4 16 73 48 41 59
REMARK Flexibility Score: inf
ROOT
ATOM      1  C   UNL A   1      32.212  29.011  26.271  1.00  0.00     0.202 C 
ENDROOT
BRANCH   1   2
ATOM      2  O   UNL A   1      32.282  28.324  25.024  1.00  0.00    -0.374 OA
BRANCH   2   3
ATOM      3  C   UNL A   1      33.040  27.114  24.989  1.00  0.00     0.202 C 
BRANCH   3   4
ATOM      4  C   UNL A   1      32.489  26.014  24.076  1.00  0.00     0.261 C 
BRANCH   4   5
ATOM      5  O   UNL A   1      33.399  24.901  23.985  1.00  0.00    -0.459 OA
BRANCH   5   6
ATOM      6  C   UNL A   1      32.857  23.661  23.823  1.00  0.00     0.368 C 
ATOM      7  O   UNL A   1      31.916  23.398  23.082  1.00  0.00    -0.245 OA
BRANCH   6   8
ATOM      8  C   UNL A   1      33.559  22.612  24.745  1.00  0.00     0.195 C 
ATOM      9  C   UNL A   1      32.969  22.597  26.179  1.00  0.00     0.081 C 
ATOM     10  C   UNL A   1      33.240  21.264  24.076  1.00  0.00     0.096 C 
ATOM     11  C   UNL A   1      33.501  21.424  27.006  1.00  0.00     0.008 C 
ATOM     12  C   UNL A   1      33.631  20.024  24.875  1.00  0.00     0.061 C 
ATOM     13  C   UNL A   1      33.192  20.082  26.343  1.00  0.00     0.015 C 
BRANCH   8  14
ATOM     14  N   UNL A   1      34.972  23.022  24.950  1.00  0.00    -0.330 N 
ATOM     15  H   UNL A   1      35.048  23.976  24.598  1.00  0.00     0.347 HD
ATOM     16  H   UNL A   1      35.104  22.853  25.947  1.00  0.00     0.347 HD
BRANCH  14  17
ATOM     17  C   UNL A   1      36.078  22.280  24.363  1.00  0.00     0.176 C 
ATOM     18  C   UNL A   1      36.498  22.901  23.027  1.00  0.00     0.075 C 
ATOM     19  C   UNL A   1      37.255  22.388  25.340  1.00  0.00     0.075 C 
ENDBRANCH  14  17
ENDBRANCH   8  14
BRANCH  12  20
ATOM     20  S   UNL A   1      33.052  18.541  23.951  1.00  0.00    -0.081 SA
BRANCH  20  21
ATOM     21  C   UNL A   1      33.988  17.254  24.615  1.00  0.00     0.209 A 
ATOM     22  N   UNL A   1      35.300  17.234  24.668  1.00  0.00    -0.102 NA
ATOM     23  N   UNL A   1      33.514  16.090  25.149  1.00  0.00    -0.224 N 
ATOM     24  N   UNL A   1      35.635  16.047  25.269  1.00  0.00    -0.023 NA
ATOM     25  N   UNL A   1      34.551  15.348  25.578  1.00  0.00    -0.045 NA
ATOM     26  C   UNL A   1      32.181  15.595  25.343  1.00  0.00     0.179 C 
ENDBRANCH  20  21
ENDBRANCH  12  20
ENDBRANCH   6   8
ENDBRANCH   5   6
ENDBRANCH   4   5
ENDBRANCH   3   4
ENDBRANCH   2   3
ENDBRANCH   1   2
BRANCH   1  27
ATOM     27  C   UNL A   1      32.339  30.538  26.228  1.00  0.00     0.261 C 
BRANCH  27  28
ATOM     28  O   UNL A   1      32.466  31.114  27.539  1.00  0.00    -0.460 OA
BRANCH  28  29
ATOM     29  C   UNL A   1      33.349  32.140  27.612  1.00  0.00     0.338 C 
ATOM     30  O   UNL A   1      33.084  33.334  27.540  1.00  0.00    -0.246 OA
BRANCH  29  31
ATOM     31  C   UNL A   1      34.693  31.653  27.975  1.00  0.00     0.060 A 
ATOM     32  C   UNL A   1      34.812  30.296  28.300  1.00  0.00     0.016 A 
ATOM     33  C   UNL A   1      35.796  32.506  28.082  1.00  0.00     0.016 A 
ATOM     34  C   UNL A   1      36.015  29.798  28.795  1.00  0.00     0.010 A 
ATOM     35  C   UNL A   1      37.004  32.003  28.584  1.00  0.00     0.010 A 
ATOM     36  C   UNL A   1      37.106  30.657  28.982  1.00  0.00    -0.014 A 
BRANCH  36  37
ATOM     37  C   UNL A   1      38.289  30.170  29.736  1.00  0.00     0.031 A 
ATOM     38  C   UNL A   1      38.504  30.656  31.146  1.00  0.00     0.074 A 
ATOM     39  C   UNL A   1      39.129  29.268  29.197  1.00  0.00     0.049 A 
ATOM     40  N   UNL A   1      39.468  30.374  31.985  1.00  0.00    -0.248 NA
ATOM     41  C   UNL A   1      37.495  31.585  31.677  1.00  0.00     0.031 C 
ATOM     42  C   UNL A   1      38.998  28.691  27.859  1.00  0.00     0.029 A 
ATOM     43  N   UNL A   1      40.258  28.681  29.708  1.00  0.00    -0.354 N 
ATOM     44  C   UNL A   1      39.187  31.094  33.141  1.00  0.00     0.074 A 
ATOM     45  C   UNL A   1      37.982  31.853  32.880  1.00  0.00     0.031 C 
ATOM     46  C   UNL A   1      40.015  27.838  27.652  1.00  0.00     0.029 A 
ATOM     47  C   UNL A   1      40.888  27.835  28.825  1.00  0.00     0.049 A 
ATOM     48  H   UNL A   1      40.587  28.848  30.620  1.00  0.00     0.167 HD
ATOM     49  C   UNL A   1      39.867  31.115  34.314  1.00  0.00     0.034 A 
ATOM     50  C   UNL A   1      42.049  27.158  28.938  1.00  0.00     0.034 A 
ATOM     51  C   UNL A   1      41.072  30.359  34.557  1.00  0.00     0.049 A 
ATOM     52  C   UNL A   1      42.833  27.259  30.225  1.00  0.00     0.074 A 
ATOM     53  C   UNL A   1      41.827  30.290  35.715  1.00  0.00     0.029 A 
ATOM     54  N   UNL A   1      41.707  29.550  33.622  1.00  0.00    -0.354 N 
ATOM     55  N   UNL A   1      42.551  27.935  31.316  1.00  0.00    -0.248 NA
ATOM     56  C   UNL A   1      44.087  26.498  30.298  1.00  0.00     0.031 C 
ATOM     57  C   UNL A   1      42.956  29.503  35.457  1.00  0.00     0.029 A 
ATOM     58  C   UNL A   1      42.864  29.011  34.165  1.00  0.00     0.049 A 
ATOM     59  H   UNL A   1      41.383  29.385  32.707  1.00  0.00     0.167 HD
ATOM     60  C   UNL A   1      43.580  27.656  32.212  1.00  0.00     0.074 A 
ATOM     61  C   UNL A   1      44.480  26.741  31.540  1.00  0.00     0.031 C 
ATOM     62  C   UNL A   1      43.762  28.110  33.480  1.00  0.00     0.034 A 
BRANCH  49  63
ATOM     63  C   UNL A   1      39.352  32.030  35.400  1.00  0.00     0.023 A 
ATOM     64  C   UNL A   1      39.778  33.364  35.514  1.00  0.00     0.031 A 
ATOM     65  C   UNL A   1      38.436  31.548  36.353  1.00  0.00     0.131 A 
ATOM     66  C   UNL A   1      39.343  34.149  36.593  1.00  0.00     0.055 A 
ATOM     67  C   UNL A   1      37.947  32.359  37.380  1.00  0.00     0.041 A 
ATOM     68  F   UNL A   1      38.010  30.276  36.310  1.00  0.00    -0.206 F 
ATOM     69  C   UNL A   1      38.411  33.663  37.513  1.00  0.00     0.022 A 
BRANCH  66  70
ATOM     70  S   UNL A   1      40.117  35.769  36.858  1.00  0.00     0.124 S 
ATOM     71  O   UNL A   1      39.555  36.157  38.150  1.00  0.00    -0.237 OA
ATOM     72  O   UNL A   1      41.538  35.444  36.851  1.00  0.00    -0.237 OA
ATOM     73  O   UNL A   1      39.652  36.562  35.722  1.00  0.00    -0.744 OA
ENDBRANCH  66  70
ENDBRANCH  49  63
BRANCH  50  74
ATOM     74  C   UNL A   1      42.572  26.363  27.792  1.00  0.00     0.023 A 
ATOM     75  C   UNL A   1      42.142  25.047  27.557  1.00  0.00     0.031 A 
ATOM     76  C   UNL A   1      43.554  26.898  26.938  1.00  0.00     0.131 A 
ATOM     77  C   UNL A   1      42.721  24.298  26.519  1.00  0.00     0.055 A 
ATOM     78  C   UNL A   1      44.089  26.167  25.877  1.00  0.00     0.041 A 
ATOM     79  F   UNL A   1      44.001  28.151  27.120  1.00  0.00    -0.206 F 
ATOM     80  C   UNL A   1      43.681  24.853  25.670  1.00  0.00     0.022 A 
BRANCH  77  81
ATOM     81  S   UNL A   1      42.254  22.554  26.340  1.00  0.00     0.124 S 
ATOM     82  O   UNL A   1      42.891  21.954  27.506  1.00  0.00    -0.237 OA
ATOM     83  O   UNL A   1      40.797  22.628  26.372  1.00  0.00    -0.237 OA
ATOM     84  O   UNL A   1      42.827  22.178  25.050  1.00  0.00    -0.744 OA
ENDBRANCH  77  81
ENDBRANCH  50  74
BRANCH  62  85
ATOM     85  C   UNL A   1      44.958  27.584  34.235  1.00  0.00     0.023 A 
ATOM     86  C   UNL A   1      46.195  28.253  34.230  1.00  0.00     0.031 A 
ATOM     87  C   UNL A   1      44.860  26.386  34.967  1.00  0.00     0.131 A 
ATOM     88  C   UNL A   1      47.296  27.694  34.896  1.00  0.00     0.055 A 
ATOM     89  C   UNL A   1      45.942  25.867  35.679  1.00  0.00     0.041 A 
ATOM     90  F   UNL A   1      43.705  25.702  35.006  1.00  0.00    -0.206 F 
ATOM     91  C   UNL A   1      47.172  26.515  35.636  1.00  0.00     0.022 A 
BRANCH  88  92
ATOM     92  S   UNL A   1      48.921  28.481  34.713  1.00  0.00     0.124 S 
ATOM     93  O   UNL A   1      49.170  28.976  36.063  1.00  0.00    -0.237 OA
ATOM     94  O   UNL A   1      49.758  27.370  34.277  1.00  0.00    -0.237 OA
ATOM     95  O   UNL A   1      48.690  29.515  33.706  1.00  0.00    -0.744 OA
ENDBRANCH  88  92
ENDBRANCH  62  85
ENDBRANCH  36  37
ENDBRANCH  29  31
ENDBRANCH  28  29
ENDBRANCH  27  28
ENDBRANCH   1  27
TORSDOF 21
ENDMDL
MODEL 3
REMARK VINA RESULT:     -10.3      1.753      2.157
REMARK SMILES CC(C)[NH2+][C@]1(C(=O)OCCOCCOC(=O)c2ccc(-c3c4nc(c(-c5cc(S(=O)(=O)[O-])ccc5F)c5ccc([nH]5)c(-c5cc(S(=O)(=O)[O-])ccc5F)c5nc(c(-c6cc(S(=O)(=O)[O-])ccc6F)c6ccc3[nH]6)C=C5)C=C4)cc2)CCC[C@@H](Sc2nnnn2C)C1
REMARK SMILES IDX 12 1 11 2 10 3 9 4 8 5 6 6 7 7 5 8 80 9 91 10 81 11 83 12
REMARK SMILES IDX 82 13 4 14 2 17 1 18 3 19 84 20 85 21 86 22 89 23 87 24
REMARK SMILES IDX 88 25 90 26 13 27 14 28 15 29 16 30 17 31 18 32 79 33 19 34
REMARK SMILES IDX 78 35 20 36 21 37 22 38 72 39 23 40 77 41 71 42 73 43 24 44
REMARK SMILES IDX 76 45 70 46 69 47 25 49 57 50 37 51 56 52 38 53 41 54 55 55
REMARK SMILES IDX 74 56 39 57 40 58 54 60 75 61 42 62 26 63 27 64 35 65 28 66
REMARK SMILES IDX 34 67 36 68 33 69 29 70 30 71 31 72 32 73 58 74 59 75 67 76
REMARK SMILES IDX 60 77 66 78 68 79 65 80 61 81 62 82 63 83 64 84 43 85 44 86
REMARK SMILES IDX 52 87 45 88 51 89 53 90 50 91 46 92 47 93 48 94 49 95
REMARK H PARENT 4 15 4 16 73 48 41 59
REMARK Flexibility Score: inf
ROOT
ATOM      1  C   UNL A   1      32.346  31.366  26.735  1.00  0.00     0.202 C 
ENDROOT
BRANCH   1   2
ATOM      2  O   UNL A   1      31.406  30.296  26.745  1.00  0.00    -0.374 OA
BRANCH   2   3
ATOM      3  C   UNL A   1      31.892  28.998  26.401  1.00  0.00     0.202 C 
BRANCH   3   4
ATOM      4  C   UNL A   1      31.167  27.822  27.062  1.00  0.00     0.261 C 
BRANCH   4   5
ATOM      5  O   UNL A   1      31.981  26.634  27.061  1.00  0.00    -0.459 OA
BRANCH   5   6
ATOM      6  C   UNL A   1      31.516  25.557  26.365  1.00  0.00     0.368 C 
ATOM      7  O   UNL A   1      30.360  25.149  26.395  1.00  0.00    -0.245 OA
BRANCH   6   8
ATOM      8  C   UNL A   1      32.663  24.869  25.555  1.00  0.00     0.195 C 
ATOM      9  C   UNL A   1      34.041  25.537  25.800  1.00  0.00     0.081 C 
ATOM     10  C   UNL A   1      32.709  23.441  26.125  1.00  0.00     0.096 C 
ATOM     11  C   UNL A   1      35.187  24.729  25.185  1.00  0.00     0.008 C 
ATOM     12  C   UNL A   1      33.883  22.585  25.659  1.00  0.00     0.061 C 
ATOM     13  C   UNL A   1      35.234  23.306  25.743  1.00  0.00     0.015 C 
BRANCH   8  14
ATOM     14  N   UNL A   1      32.421  25.082  24.105  1.00  0.00    -0.330 N 
ATOM     15  H   UNL A   1      33.244  24.723  23.621  1.00  0.00     0.347 HD
ATOM     16  H   UNL A   1      31.525  24.617  23.964  1.00  0.00     0.347 HD
BRANCH  14  17
ATOM     17  C   UNL A   1      32.170  26.407  23.557  1.00  0.00     0.176 C 
ATOM     18  C   UNL A   1      33.167  26.728  22.439  1.00  0.00     0.075 C 
ATOM     19  C   UNL A   1      30.759  26.381  22.957  1.00  0.00     0.075 C 
ENDBRANCH  14  17
ENDBRANCH   8  14
BRANCH  12  20
ATOM     20  S   UNL A   1      33.806  20.976  26.551  1.00  0.00    -0.081 SA
BRANCH  20  21
ATOM     21  C   UNL A   1      33.270  19.866  25.345  1.00  0.00     0.209 A 
ATOM     22  N   UNL A   1      32.028  19.751  24.933  1.00  0.00    -0.102 NA
ATOM     23  N   UNL A   1      34.035  18.954  24.675  1.00  0.00    -0.224 N 
ATOM     24  N   UNL A   1      32.038  18.768  23.975  1.00  0.00    -0.023 NA
ATOM     25  N   UNL A   1      33.261  18.286  23.802  1.00  0.00    -0.045 NA
ATOM     26  C   UNL A   1      35.437  18.654  24.728  1.00  0.00     0.179 C 
ENDBRANCH  20  21
ENDBRANCH  12  20
ENDBRANCH   6   8
ENDBRANCH   5   6
ENDBRANCH   4   5
ENDBRANCH   3   4
ENDBRANCH   2   3
ENDBRANCH   1   2
BRANCH   1  27
ATOM     27  C   UNL A   1      31.823  32.751  27.132  1.00  0.00     0.261 C 
BRANCH  27  28
ATOM     28  O   UNL A   1      32.867  33.741  27.170  1.00  0.00    -0.460 OA
BRANCH  28  29
ATOM     29  C   UNL A   1      33.285  34.060  28.419  1.00  0.00     0.338 C 
ATOM     30  O   UNL A   1      32.678  34.741  29.238  1.00  0.00    -0.246 OA
BRANCH  29  31
ATOM     31  C   UNL A   1      34.518  33.328  28.764  1.00  0.00     0.060 A 
ATOM     32  C   UNL A   1      34.370  32.135  29.483  1.00  0.00     0.016 A 
ATOM     33  C   UNL A   1      35.791  33.827  28.475  1.00  0.00     0.016 A 
ATOM     34  C   UNL A   1      35.491  31.470  29.972  1.00  0.00     0.010 A 
ATOM     35  C   UNL A   1      36.918  33.157  28.972  1.00  0.00     0.010 A 
ATOM     36  C   UNL A   1      36.770  31.999  29.758  1.00  0.00    -0.014 A 
BRANCH  36  37
ATOM     37  C   UNL A   1      37.924  31.420  30.491  1.00  0.00     0.031 A 
ATOM     38  C   UNL A   1      38.771  30.376  29.810  1.00  0.00     0.074 A 
ATOM     39  C   UNL A   1      38.248  31.854  31.722  1.00  0.00     0.049 A 
ATOM     40  N   UNL A   1      39.816  29.729  30.261  1.00  0.00    -0.248 NA
ATOM     41  C   UNL A   1      38.384  30.015  28.439  1.00  0.00     0.031 C 
ATOM     42  C   UNL A   1      37.532  32.892  32.464  1.00  0.00     0.029 A 
ATOM     43  N   UNL A   1      39.262  31.477  32.566  1.00  0.00    -0.354 N 
ATOM     44  C   UNL A   1      40.207  28.880  29.232  1.00  0.00     0.074 A 
ATOM     45  C   UNL A   1      39.266  29.070  28.149  1.00  0.00     0.031 C 
ATOM     46  C   UNL A   1      38.125  33.061  33.658  1.00  0.00     0.029 A 
ATOM     47  C   UNL A   1      39.238  32.122  33.781  1.00  0.00     0.049 A 
ATOM     48  H   UNL A   1      39.943  30.809  32.326  1.00  0.00     0.167 HD
ATOM     49  C   UNL A   1      41.261  28.026  29.191  1.00  0.00     0.034 A 
ATOM     50  C   UNL A   1      40.007  31.954  34.876  1.00  0.00     0.034 A 
ATOM     51  C   UNL A   1      42.187  27.841  30.282  1.00  0.00     0.049 A 
ATOM     52  C   UNL A   1      41.125  30.939  34.837  1.00  0.00     0.074 A 
ATOM     53  C   UNL A   1      43.300  27.019  30.338  1.00  0.00     0.029 A 
ATOM     54  N   UNL A   1      42.103  28.476  31.515  1.00  0.00    -0.354 N 
ATOM     55  N   UNL A   1      41.494  30.150  33.854  1.00  0.00    -0.248 NA
ATOM     56  C   UNL A   1      41.936  30.800  36.054  1.00  0.00     0.031 C 
ATOM     57  C   UNL A   1      43.841  27.101  31.626  1.00  0.00     0.029 A 
ATOM     58  C   UNL A   1      43.119  28.036  32.350  1.00  0.00     0.049 A 
ATOM     59  H   UNL A   1      41.420  29.141  31.761  1.00  0.00     0.167 HD
ATOM     60  C   UNL A   1      42.596  29.443  34.327  1.00  0.00     0.074 A 
ATOM     61  C   UNL A   1      42.840  29.909  35.677  1.00  0.00     0.031 C 
ATOM     62  C   UNL A   1      43.344  28.498  33.700  1.00  0.00     0.034 A 
BRANCH  49  63
ATOM     63  C   UNL A   1      41.428  27.187  27.946  1.00  0.00     0.023 A 
ATOM     64  C   UNL A   1      41.072  25.827  27.911  1.00  0.00     0.031 A 
ATOM     65  C   UNL A   1      41.976  27.753  26.781  1.00  0.00     0.131 A 
ATOM     66  C   UNL A   1      41.330  25.065  26.762  1.00  0.00     0.055 A 
ATOM     67  C   UNL A   1      42.159  27.007  25.615  1.00  0.00     0.041 A 
ATOM     68  F   UNL A   1      42.357  29.041  26.761  1.00  0.00    -0.206 F 
ATOM     69  C   UNL A   1      41.849  25.652  25.605  1.00  0.00     0.022 A 
BRANCH  66  70
ATOM     70  S   UNL A   1      41.109  23.266  26.844  1.00  0.00     0.124 S 
ATOM     71  O   UNL A   1      39.754  23.111  26.317  1.00  0.00    -0.237 OA
ATOM     72  O   UNL A   1      42.185  22.776  25.992  1.00  0.00    -0.237 OA
ATOM     73  O   UNL A   1      41.253  22.966  28.267  1.00  0.00    -0.744 OA
ENDBRANCH  66  70
ENDBRANCH  49  63
BRANCH  50  74
ATOM     74  C   UNL A   1      39.725  32.725  36.120  1.00  0.00     0.023 A 
ATOM     75  C   UNL A   1      38.818  32.255  37.083  1.00  0.00     0.031 A 
ATOM     76  C   UNL A   1      40.329  33.976  36.339  1.00  0.00     0.131 A 
ATOM     77  C   UNL A   1      38.512  33.048  38.200  1.00  0.00     0.055 A 
ATOM     78  C   UNL A   1      40.060  34.738  37.475  1.00  0.00     0.041 A 
ATOM     79  F   UNL A   1      41.202  34.473  35.448  1.00  0.00    -0.206 F 
ATOM     80  C   UNL A   1      39.135  34.280  38.409  1.00  0.00     0.022 A 
BRANCH  77  81
ATOM     81  S   UNL A   1      37.223  32.480  39.344  1.00  0.00     0.124 S 
ATOM     82  O   UNL A   1      36.021  32.615  38.529  1.00  0.00    -0.237 OA
ATOM     83  O   UNL A   1      37.655  31.116  39.630  1.00  0.00    -0.237 OA
ATOM     84  O   UNL A   1      37.327  33.412  40.464  1.00  0.00    -0.744 OA
ENDBRANCH  77  81
ENDBRANCH  50  74
BRANCH  62  85
ATOM     85  C   UNL A   1      44.526  27.940  34.457  1.00  0.00     0.023 A 
ATOM     86  C   UNL A   1      44.447  26.735  35.177  1.00  0.00     0.031 A 
ATOM     87  C   UNL A   1      45.750  28.634  34.463  1.00  0.00     0.131 A 
ATOM     88  C   UNL A   1      45.553  26.287  35.915  1.00  0.00     0.055 A 
ATOM     89  C   UNL A   1      46.866  28.152  35.149  1.00  0.00     0.041 A 
ATOM     90  F   UNL A   1      45.883  29.791  33.796  1.00  0.00    -0.206 F 
ATOM     91  C   UNL A   1      46.767  26.979  35.891  1.00  0.00     0.022 A 
BRANCH  88  92
ATOM     92  S   UNL A   1      45.361  24.833  36.983  1.00  0.00     0.124 S 
ATOM     93  O   UNL A   1      46.632  24.145  36.788  1.00  0.00    -0.237 OA
ATOM     94  O   UNL A   1      45.156  25.435  38.296  1.00  0.00    -0.237 OA
ATOM     95  O   UNL A   1      44.194  24.150  36.427  1.00  0.00    -0.744 OA
ENDBRANCH  88  92
ENDBRANCH  62  85
ENDBRANCH  36  37
ENDBRANCH  29  31
ENDBRANCH  28  29
ENDBRANCH  27  28
ENDBRANCH   1  27
TORSDOF 21
ENDMDL
