MODEL 1
REMARK VINA RESULT:     -10.4      0.000      0.000
REMARK SMILES CCCc1sc(C(=O)NCCC(=O)OCCOCCOC(=O)c2ccc(-c3c4nc(c(-c5cc(S(=O)(=O)[O-])ccc5F)c5ccc([nH]5)c(-c5cc(S(=O)(=O)[O-])ccc5F)c5nc(c(-c6cc(S(=O)(=O)[O-])ccc6F)c6ccc3[nH]6)C=C5)C=C4)cc2)cc1CC
REMARK SMILES IDX 16 1 15 2 14 3 12 4 13 5 11 6 10 7 9 8 7 9 8 10 6 12 4 13
REMARK SMILES IDX 5 14 87 15 86 16 3 17 2 18 1 19 88 20 89 21 17 22 18 23
REMARK SMILES IDX 19 24 20 25 21 26 22 27 23 28 24 29 85 30 25 31 84 32 26 33
REMARK SMILES IDX 27 34 28 35 78 36 29 37 83 38 77 39 79 40 30 41 82 42 76 43
REMARK SMILES IDX 75 44 31 46 63 47 43 48 62 49 44 50 47 51 61 52 80 53 45 54
REMARK SMILES IDX 46 55 60 57 81 58 48 59 32 60 33 61 41 62 34 63 40 64 42 65
REMARK SMILES IDX 39 66 35 67 36 68 37 69 38 70 64 71 65 72 73 73 66 74 72 75
REMARK SMILES IDX 74 76 71 77 67 78 68 79 69 80 70 81 49 82 50 83 58 84 51 85
REMARK SMILES IDX 57 86 59 87 56 88 52 89 53 90 54 91 55 92
REMARK H PARENT 9 11 79 45 47 56
REMARK Flexibility Score: inf
ROOT
ATOM      1  C   UNL A   1      31.589  29.178  24.446  1.00  0.00     0.202 C 
ENDROOT
BRANCH   1   2
ATOM      2  C   UNL A   1      32.362  28.497  23.316  1.00  0.00     0.261 C 
BRANCH   2   3
ATOM      3  O   UNL A   1      33.172  27.408  23.802  1.00  0.00    -0.463 OA
BRANCH   3   4
ATOM      4  C   UNL A   1      33.536  26.486  22.877  1.00  0.00     0.307 C 
ATOM      5  O   UNL A   1      33.685  26.699  21.680  1.00  0.00    -0.252 OA
BRANCH   4   6
ATOM      6  C   UNL A   1      33.703  25.115  23.472  1.00  0.00     0.144 C 
BRANCH   6   7
ATOM      7  C   UNL A   1      34.206  25.094  24.905  1.00  0.00     0.128 C 
BRANCH   7   8
ATOM      8  N   UNL A   1      33.164  24.951  25.906  1.00  0.00    -0.351 N 
ATOM      9  C   UNL A   1      32.546  23.839  26.447  1.00  0.00     0.261 C 
ATOM     10  O   UNL A   1      31.639  24.067  27.249  1.00  0.00    -0.268 OA
ATOM     11  H   UNL A   1      32.835  25.807  26.268  1.00  0.00     0.163 HD
BRANCH   9  12
ATOM     12  C   UNL A   1      32.943  22.497  26.042  1.00  0.00     0.092 A 
ATOM     13  C   UNL A   1      32.972  20.234  24.965  1.00  0.00     0.009 A 
ATOM     14  S   UNL A   1      31.799  21.475  25.285  1.00  0.00    -0.135 S 
ATOM     15  C   UNL A   1      34.238  20.674  25.326  1.00  0.00    -0.034 A 
ATOM     16  C   UNL A   1      34.123  21.806  26.202  1.00  0.00     0.029 A 
BRANCH  13  17
ATOM     17  C   UNL A   1      32.423  18.973  24.335  1.00  0.00     0.047 C 
BRANCH  17  18
ATOM     18  C   UNL A   1      33.280  18.255  23.297  1.00  0.00     0.002 C 
ATOM     19  C   UNL A   1      33.782  16.881  23.729  1.00  0.00     0.004 C 
ENDBRANCH  17  18
ENDBRANCH  13  17
BRANCH  15  20
ATOM     20  C   UNL A   1      35.595  20.118  24.993  1.00  0.00     0.033 C 
ATOM     21  C   UNL A   1      36.600  21.236  24.713  1.00  0.00     0.009 C 
ENDBRANCH  15  20
ENDBRANCH   9  12
ENDBRANCH   7   8
ENDBRANCH   6   7
ENDBRANCH   4   6
ENDBRANCH   3   4
ENDBRANCH   2   3
ENDBRANCH   1   2
BRANCH   1  22
ATOM     22  O   UNL A   1      32.321  30.103  25.251  1.00  0.00    -0.374 OA
BRANCH  22  23
ATOM     23  C   UNL A   1      31.574  30.977  26.090  1.00  0.00     0.202 C 
BRANCH  23  24
ATOM     24  C   UNL A   1      32.325  31.646  27.251  1.00  0.00     0.261 C 
BRANCH  24  25
ATOM     25  O   UNL A   1      32.438  33.074  27.102  1.00  0.00    -0.460 OA
BRANCH  25  26
ATOM     26  C   UNL A   1      33.206  33.669  28.049  1.00  0.00     0.338 C 
ATOM     27  O   UNL A   1      32.859  34.568  28.810  1.00  0.00    -0.246 OA
BRANCH  26  28
ATOM     28  C   UNL A   1      34.492  32.967  28.209  1.00  0.00     0.060 A 
ATOM     29  C   UNL A   1      34.440  31.634  28.636  1.00  0.00     0.016 A 
ATOM     30  C   UNL A   1      35.721  33.614  28.058  1.00  0.00     0.016 A 
ATOM     31  C   UNL A   1      35.608  30.965  28.990  1.00  0.00     0.010 A 
ATOM     32  C   UNL A   1      36.896  32.941  28.424  1.00  0.00     0.010 A 
ATOM     33  C   UNL A   1      36.839  31.633  28.940  1.00  0.00    -0.014 A 
BRANCH  33  34
ATOM     34  C   UNL A   1      38.004  31.026  29.636  1.00  0.00     0.031 A 
ATOM     35  C   UNL A   1      38.259  31.402  31.073  1.00  0.00     0.074 A 
ATOM     36  C   UNL A   1      38.765  30.092  29.037  1.00  0.00     0.049 A 
ATOM     37  N   UNL A   1      39.190  30.985  31.892  1.00  0.00    -0.248 NA
ATOM     38  C   UNL A   1      37.333  32.382  31.665  1.00  0.00     0.031 C 
ATOM     39  C   UNL A   1      38.582  29.604  27.671  1.00  0.00     0.029 A 
ATOM     40  N   UNL A   1      39.843  29.383  29.506  1.00  0.00    -0.354 N 
ATOM     41  C   UNL A   1      38.963  31.649  33.094  1.00  0.00     0.074 A 
ATOM     42  C   UNL A   1      37.833  32.528  32.881  1.00  0.00     0.031 C 
ATOM     43  C   UNL A   1      39.518  28.674  27.412  1.00  0.00     0.029 A 
ATOM     44  C   UNL A   1      40.386  28.524  28.580  1.00  0.00     0.049 A 
ATOM     45  H   UNL A   1      40.194  29.480  30.421  1.00  0.00     0.167 HD
ATOM     46  C   UNL A   1      39.627  31.529  34.271  1.00  0.00     0.034 A 
ATOM     47  C   UNL A   1      41.469  27.724  28.660  1.00  0.00     0.034 A 
ATOM     48  C   UNL A   1      40.759  30.657  34.467  1.00  0.00     0.049 A 
ATOM     49  C   UNL A   1      42.246  27.670  29.955  1.00  0.00     0.074 A 
ATOM     50  C   UNL A   1      41.509  30.461  35.615  1.00  0.00     0.029 A 
ATOM     51  N   UNL A   1      41.313  29.842  33.489  1.00  0.00    -0.354 N 
ATOM     52  N   UNL A   1      42.023  28.304  31.084  1.00  0.00    -0.248 NA
ATOM     53  C   UNL A   1      43.416  26.781  29.989  1.00  0.00     0.031 C 
ATOM     54  C   UNL A   1      42.554  29.581  35.311  1.00  0.00     0.029 A 
ATOM     55  C   UNL A   1      42.411  29.163  33.998  1.00  0.00     0.049 A 
ATOM     56  H   UNL A   1      40.977  29.757  32.567  1.00  0.00     0.167 HD
ATOM     57  C   UNL A   1      43.001  27.860  31.970  1.00  0.00     0.074 A 
ATOM     58  C   UNL A   1      43.809  26.897  31.249  1.00  0.00     0.031 C 
ATOM     59  C   UNL A   1      43.210  28.207  33.266  1.00  0.00     0.034 A 
BRANCH  46  60
ATOM     60  C   UNL A   1      39.173  32.407  35.413  1.00  0.00     0.023 A 
ATOM     61  C   UNL A   1      39.616  33.733  35.552  1.00  0.00     0.031 A 
ATOM     62  C   UNL A   1      38.309  31.895  36.398  1.00  0.00     0.131 A 
ATOM     63  C   UNL A   1      39.254  34.479  36.685  1.00  0.00     0.055 A 
ATOM     64  C   UNL A   1      37.889  32.667  37.483  1.00  0.00     0.041 A 
ATOM     65  F   UNL A   1      37.871  30.627  36.332  1.00  0.00    -0.206 F 
ATOM     66  C   UNL A   1      38.374  33.962  37.639  1.00  0.00     0.022 A 
BRANCH  63  67
ATOM     67  S   UNL A   1      40.061  36.078  36.970  1.00  0.00     0.124 S 
ATOM     68  O   UNL A   1      41.440  35.670  37.232  1.00  0.00    -0.237 OA
ATOM     69  O   UNL A   1      39.830  36.777  35.711  1.00  0.00    -0.237 OA
ATOM     70  O   UNL A   1      39.349  36.620  38.126  1.00  0.00    -0.744 OA
ENDBRANCH  63  67
ENDBRANCH  46  60
BRANCH  47  71
ATOM     71  C   UNL A   1      41.915  26.931  27.477  1.00  0.00     0.023 A 
ATOM     72  C   UNL A   1      41.665  25.553  27.383  1.00  0.00     0.031 A 
ATOM     73  C   UNL A   1      42.661  27.536  26.450  1.00  0.00     0.131 A 
ATOM     74  C   UNL A   1      42.198  24.816  26.314  1.00  0.00     0.055 A 
ATOM     75  C   UNL A   1      43.143  26.809  25.360  1.00  0.00     0.041 A 
ATOM     76  F   UNL A   1      42.932  28.850  26.490  1.00  0.00    -0.206 F 
ATOM     77  C   UNL A   1      42.924  25.437  25.295  1.00  0.00     0.022 A 
BRANCH  74  78
ATOM     78  S   UNL A   1      42.008  23.011  26.319  1.00  0.00     0.124 S 
ATOM     79  O   UNL A   1      40.558  22.865  26.369  1.00  0.00    -0.237 OA
ATOM     80  O   UNL A   1      42.648  22.637  25.061  1.00  0.00    -0.237 OA
ATOM     81  O   UNL A   1      42.720  22.596  27.525  1.00  0.00    -0.744 OA
ENDBRANCH  74  78
ENDBRANCH  47  71
BRANCH  59  82
ATOM     82  C   UNL A   1      44.320  27.496  34.003  1.00  0.00     0.023 A 
ATOM     83  C   UNL A   1      45.626  28.011  34.062  1.00  0.00     0.031 A 
ATOM     84  C   UNL A   1      44.062  26.272  34.648  1.00  0.00     0.131 A 
ATOM     85  C   UNL A   1      46.639  27.279  34.704  1.00  0.00     0.055 A 
ATOM     86  C   UNL A   1      45.059  25.578  35.336  1.00  0.00     0.041 A 
ATOM     87  F   UNL A   1      42.833  25.731  34.623  1.00  0.00    -0.206 F 
ATOM     88  C   UNL A   1      46.359  26.074  35.354  1.00  0.00     0.022 A 
BRANCH  85  89
ATOM     89  S   UNL A   1      48.348  27.874  34.595  1.00  0.00     0.124 S 
ATOM     90  O   UNL A   1      48.302  29.087  35.406  1.00  0.00    -0.237 OA
ATOM     91  O   UNL A   1      49.103  26.759  35.156  1.00  0.00    -0.237 OA
ATOM     92  O   UNL A   1      48.544  28.095  33.163  1.00  0.00    -0.744 OA
ENDBRANCH  85  89
ENDBRANCH  59  82
ENDBRANCH  33  34
ENDBRANCH  26  28
ENDBRANCH  25  26
ENDBRANCH  24  25
ENDBRANCH  23  24
ENDBRANCH  22  23
ENDBRANCH   1  22
TORSDOF 23
ENDMDL
MODEL 2
REMARK VINA RESULT:     -10.2      2.160      2.938
REMARK SMILES CCCc1sc(C(=O)NCCC(=O)OCCOCCOC(=O)c2ccc(-c3c4nc(c(-c5cc(S(=O)(=O)[O-])ccc5F)c5ccc([nH]5)c(-c5cc(S(=O)(=O)[O-])ccc5F)c5nc(c(-c6cc(S(=O)(=O)[O-])ccc6F)c6ccc3[nH]6)C=C5)C=C4)cc2)cc1CC
REMARK SMILES IDX 16 1 15 2 14 3 12 4 13 5 11 6 10 7 9 8 7 9 8 10 6 12 4 13
REMARK SMILES IDX 5 14 87 15 86 16 3 17 2 18 1 19 88 20 89 21 17 22 18 23
REMARK SMILES IDX 19 24 20 25 21 26 22 27 23 28 24 29 85 30 25 31 84 32 26 33
REMARK SMILES IDX 27 34 28 35 78 36 29 37 83 38 77 39 79 40 30 41 82 42 76 43
REMARK SMILES IDX 75 44 31 46 63 47 43 48 62 49 44 50 47 51 61 52 80 53 45 54
REMARK SMILES IDX 46 55 60 57 81 58 48 59 32 60 33 61 41 62 34 63 40 64 42 65
REMARK SMILES IDX 39 66 35 67 36 68 37 69 38 70 64 71 65 72 73 73 66 74 72 75
REMARK SMILES IDX 74 76 71 77 67 78 68 79 69 80 70 81 49 82 50 83 58 84 51 85
REMARK SMILES IDX 57 86 59 87 56 88 52 89 53 90 54 91 55 92
REMARK H PARENT 9 11 79 45 47 56
REMARK Flexibility Score: inf
ROOT
ATOM      1  C   UNL A   1      31.937  29.056  23.928  1.00  0.00     0.202 C 
ENDROOT
BRANCH   1   2
ATOM      2  C   UNL A   1      32.598  28.320  22.762  1.00  0.00     0.261 C 
BRANCH   2   3
ATOM      3  O   UNL A   1      33.618  27.407  23.215  1.00  0.00    -0.463 OA
BRANCH   3   4
ATOM      4  C   UNL A   1      33.607  26.178  22.640  1.00  0.00     0.307 C 
ATOM      5  O   UNL A   1      33.595  25.956  21.435  1.00  0.00    -0.252 OA
BRANCH   4   6
ATOM      6  C   UNL A   1      33.563  25.072  23.657  1.00  0.00     0.144 C 
BRANCH   6   7
ATOM      7  C   UNL A   1      33.889  25.494  25.080  1.00  0.00     0.128 C 
BRANCH   7   8
ATOM      8  N   UNL A   1      32.920  25.062  26.072  1.00  0.00    -0.351 N 
ATOM      9  C   UNL A   1      32.629  23.818  26.600  1.00  0.00     0.261 C 
ATOM     10  O   UNL A   1      31.690  23.780  27.396  1.00  0.00    -0.268 OA
ATOM     11  H   UNL A   1      32.368  25.791  26.437  1.00  0.00     0.163 HD
BRANCH   9  12
ATOM     12  C   UNL A   1      33.381  22.640  26.188  1.00  0.00     0.092 A 
ATOM     13  C   UNL A   1      34.011  20.444  25.157  1.00  0.00     0.009 A 
ATOM     14  S   UNL A   1      32.546  21.288  25.554  1.00  0.00    -0.135 S 
ATOM     15  C   UNL A   1      35.109  21.260  25.398  1.00  0.00    -0.034 A 
ATOM     16  C   UNL A   1      34.724  22.344  26.258  1.00  0.00     0.029 A 
BRANCH  13  17
ATOM     17  C   UNL A   1      33.824  19.049  24.603  1.00  0.00     0.047 C 
BRANCH  17  18
ATOM     18  C   UNL A   1      32.654  18.219  25.119  1.00  0.00     0.002 C 
ATOM     19  C   UNL A   1      32.941  16.726  25.243  1.00  0.00     0.004 C 
ENDBRANCH  17  18
ENDBRANCH  13  17
BRANCH  15  20
ATOM     20  C   UNL A   1      36.540  21.123  24.959  1.00  0.00     0.033 C 
ATOM     21  C   UNL A   1      37.328  22.406  25.223  1.00  0.00     0.009 C 
ENDBRANCH  15  20
ENDBRANCH   9  12
ENDBRANCH   7   8
ENDBRANCH   6   7
ENDBRANCH   4   6
ENDBRANCH   3   4
ENDBRANCH   2   3
ENDBRANCH   1   2
BRANCH   1  22
ATOM     22  O   UNL A   1      32.815  29.711  24.844  1.00  0.00    -0.374 OA
BRANCH  22  23
ATOM     23  C   UNL A   1      32.297  30.034  26.131  1.00  0.00     0.202 C 
BRANCH  23  24
ATOM     24  C   UNL A   1      33.304  30.139  27.286  1.00  0.00     0.261 C 
BRANCH  24  25
ATOM     25  O   UNL A   1      33.952  31.423  27.355  1.00  0.00    -0.460 OA
BRANCH  25  26
ATOM     26  C   UNL A   1      34.662  31.623  28.493  1.00  0.00     0.338 C 
ATOM     27  O   UNL A   1      34.329  32.322  29.446  1.00  0.00    -0.246 OA
BRANCH  26  28
ATOM     28  C   UNL A   1      35.833  30.730  28.554  1.00  0.00     0.060 A 
ATOM     29  C   UNL A   1      35.873  29.808  29.609  1.00  0.00     0.016 A 
ATOM     30  C   UNL A   1      36.916  30.855  27.682  1.00  0.00     0.016 A 
ATOM     31  C   UNL A   1      37.025  29.062  29.844  1.00  0.00     0.010 A 
ATOM     32  C   UNL A   1      38.080  30.110  27.927  1.00  0.00     0.010 A 
ATOM     33  C   UNL A   1      38.156  29.250  29.039  1.00  0.00    -0.014 A 
BRANCH  33  34
ATOM     34  C   UNL A   1      39.459  28.712  29.510  1.00  0.00     0.031 A 
ATOM     35  C   UNL A   1      40.084  29.315  30.742  1.00  0.00     0.074 A 
ATOM     36  C   UNL A   1      40.032  27.651  28.913  1.00  0.00     0.049 A 
ATOM     37  N   UNL A   1      41.194  28.997  31.356  1.00  0.00    -0.248 NA
ATOM     38  C   UNL A   1      39.351  30.429  31.365  1.00  0.00     0.031 C 
ATOM     39  C   UNL A   1      39.495  26.945  27.751  1.00  0.00     0.029 A 
ATOM     40  N   UNL A   1      41.191  26.977  29.209  1.00  0.00    -0.354 N 
ATOM     41  C   UNL A   1      41.293  29.868  32.436  1.00  0.00     0.074 A 
ATOM     42  C   UNL A   1      40.152  30.756  32.366  1.00  0.00     0.031 C 
ATOM     43  C   UNL A   1      40.326  25.937  27.431  1.00  0.00     0.029 A 
ATOM     44  C   UNL A   1      41.468  25.945  28.345  1.00  0.00     0.049 A 
ATOM     45  H   UNL A   1      41.770  27.211  29.971  1.00  0.00     0.167 HD
ATOM     46  C   UNL A   1      42.242  29.918  33.405  1.00  0.00     0.034 A 
ATOM     47  C   UNL A   1      42.530  25.114  28.287  1.00  0.00     0.034 A 
ATOM     48  C   UNL A   1      43.381  29.034  33.458  1.00  0.00     0.049 A 
ATOM     49  C   UNL A   1      43.619  25.243  29.327  1.00  0.00     0.074 A 
ATOM     50  C   UNL A   1      44.404  28.999  34.390  1.00  0.00     0.029 A 
ATOM     51  N   UNL A   1      43.655  28.035  32.533  1.00  0.00    -0.354 N 
ATOM     52  N   UNL A   1      43.702  26.072  30.343  1.00  0.00    -0.248 NA
ATOM     53  C   UNL A   1      44.752  24.313  29.219  1.00  0.00     0.031 C 
ATOM     54  C   UNL A   1      45.328  28.026  33.992  1.00  0.00     0.029 A 
ATOM     55  C   UNL A   1      44.843  27.398  32.856  1.00  0.00     0.049 A 
ATOM     56  H   UNL A   1      43.089  27.811  31.759  1.00  0.00     0.167 HD
ATOM     57  C   UNL A   1      44.876  25.737  31.013  1.00  0.00     0.074 A 
ATOM     58  C   UNL A   1      45.461  24.624  30.293  1.00  0.00     0.031 C 
ATOM     59  C   UNL A   1      45.419  26.290  32.128  1.00  0.00     0.034 A 
BRANCH  46  60
ATOM     60  C   UNL A   1      42.107  31.001  34.449  1.00  0.00     0.023 A 
ATOM     61  C   UNL A   1      42.694  32.268  34.284  1.00  0.00     0.031 A 
ATOM     62  C   UNL A   1      41.410  30.748  35.644  1.00  0.00     0.131 A 
ATOM     63  C   UNL A   1      42.635  33.208  35.325  1.00  0.00     0.055 A 
ATOM     64  C   UNL A   1      41.287  31.716  36.644  1.00  0.00     0.041 A 
ATOM     65  F   UNL A   1      40.849  29.550  35.868  1.00  0.00    -0.206 F 
ATOM     66  C   UNL A   1      41.914  32.949  36.494  1.00  0.00     0.022 A 
BRANCH  63  67
ATOM     67  S   UNL A   1      43.631  34.718  35.192  1.00  0.00     0.124 S 
ATOM     68  O   UNL A   1      44.414  34.450  33.987  1.00  0.00    -0.237 OA
ATOM     69  O   UNL A   1      42.615  35.758  35.076  1.00  0.00    -0.237 OA
ATOM     70  O   UNL A   1      44.400  34.732  36.435  1.00  0.00    -0.744 OA
ENDBRANCH  63  67
ENDBRANCH  46  60
BRANCH  47  71
ATOM     71  C   UNL A   1      42.646  24.108  27.191  1.00  0.00     0.023 A 
ATOM     72  C   UNL A   1      42.006  22.861  27.271  1.00  0.00     0.031 A 
ATOM     73  C   UNL A   1      43.460  24.359  26.072  1.00  0.00     0.131 A 
ATOM     74  C   UNL A   1      42.229  21.894  26.279  1.00  0.00     0.055 A 
ATOM     75  C   UNL A   1      43.636  23.414  25.059  1.00  0.00     0.041 A 
ATOM     76  F   UNL A   1      44.098  25.533  25.945  1.00  0.00    -0.206 F 
ATOM     77  C   UNL A   1      43.030  22.167  25.166  1.00  0.00     0.022 A 
BRANCH  74  78
ATOM     78  S   UNL A   1      41.531  20.235  26.505  1.00  0.00     0.124 S 
ATOM     79  O   UNL A   1      42.107  19.843  27.786  1.00  0.00    -0.237 OA
ATOM     80  O   UNL A   1      40.097  20.507  26.501  1.00  0.00    -0.237 OA
ATOM     81  O   UNL A   1      42.025  19.496  25.346  1.00  0.00    -0.744 OA
ENDBRANCH  74  78
ENDBRANCH  47  71
BRANCH  59  82
ATOM     82  C   UNL A   1      46.678  25.658  32.671  1.00  0.00     0.023 A 
ATOM     83  C   UNL A   1      47.949  25.969  32.158  1.00  0.00     0.031 A 
ATOM     84  C   UNL A   1      46.599  24.719  33.716  1.00  0.00     0.131 A 
ATOM     85  C   UNL A   1      49.084  25.305  32.651  1.00  0.00     0.055 A 
ATOM     86  C   UNL A   1      47.737  24.107  34.244  1.00  0.00     0.041 A 
ATOM     87  F   UNL A   1      45.411  24.383  34.244  1.00  0.00    -0.206 F 
ATOM     88  C   UNL A   1      48.987  24.389  33.701  1.00  0.00     0.022 A 
BRANCH  85  89
ATOM     89  S   UNL A   1      50.681  25.584  31.837  1.00  0.00     0.124 S 
ATOM     90  O   UNL A   1      51.300  24.265  31.920  1.00  0.00    -0.237 OA
ATOM     91  O   UNL A   1      50.280  26.019  30.504  1.00  0.00    -0.237 OA
ATOM     92  O   UNL A   1      51.311  26.615  32.661  1.00  0.00    -0.744 OA
ENDBRANCH  85  89
ENDBRANCH  59  82
ENDBRANCH  33  34
ENDBRANCH  26  28
ENDBRANCH  25  26
ENDBRANCH  24  25
ENDBRANCH  23  24
ENDBRANCH  22  23
ENDBRANCH   1  22
TORSDOF 23
ENDMDL
MODEL 3
REMARK VINA RESULT:     -10.2      5.520     10.784
REMARK SMILES CCCc1sc(C(=O)NCCC(=O)OCCOCCOC(=O)c2ccc(-c3c4nc(c(-c5cc(S(=O)(=O)[O-])ccc5F)c5ccc([nH]5)c(-c5cc(S(=O)(=O)[O-])ccc5F)c5nc(c(-c6cc(S(=O)(=O)[O-])ccc6F)c6ccc3[nH]6)C=C5)C=C4)cc2)cc1CC
REMARK SMILES IDX 16 1 15 2 14 3 12 4 13 5 11 6 10 7 9 8 7 9 8 10 6 12 4 13
REMARK SMILES IDX 5 14 87 15 86 16 3 17 2 18 1 19 88 20 89 21 17 22 18 23
REMARK SMILES IDX 19 24 20 25 21 26 22 27 23 28 24 29 85 30 25 31 84 32 26 33
REMARK SMILES IDX 27 34 28 35 78 36 29 37 83 38 77 39 79 40 30 41 82 42 76 43
REMARK SMILES IDX 75 44 31 46 63 47 43 48 62 49 44 50 47 51 61 52 80 53 45 54
REMARK SMILES IDX 46 55 60 57 81 58 48 59 32 60 33 61 41 62 34 63 40 64 42 65
REMARK SMILES IDX 39 66 35 67 36 68 37 69 38 70 64 71 65 72 73 73 66 74 72 75
REMARK SMILES IDX 74 76 71 77 67 78 68 79 69 80 70 81 49 82 50 83 58 84 51 85
REMARK SMILES IDX 57 86 59 87 56 88 52 89 53 90 54 91 55 92
REMARK H PARENT 9 11 79 45 47 56
REMARK Flexibility Score: inf
ROOT
ATOM      1  C   UNL A   1      36.775  21.626  25.525  1.00  0.00     0.202 C 
ENDROOT
BRANCH   1   2
ATOM      2  C   UNL A   1      35.329  22.067  25.755  1.00  0.00     0.261 C 
BRANCH   2   3
ATOM      3  O   UNL A   1      34.455  21.607  24.705  1.00  0.00    -0.463 OA
BRANCH   3   4
ATOM      4  C   UNL A   1      34.026  22.557  23.837  1.00  0.00     0.307 C 
ATOM      5  O   UNL A   1      34.681  23.518  23.452  1.00  0.00    -0.252 OA
BRANCH   4   6
ATOM      6  C   UNL A   1      32.602  22.337  23.408  1.00  0.00     0.144 C 
BRANCH   6   7
ATOM      7  C   UNL A   1      31.867  23.587  22.954  1.00  0.00     0.128 C 
BRANCH   7   8
ATOM      8  N   UNL A   1      32.493  24.283  21.844  1.00  0.00    -0.351 N 
ATOM      9  C   UNL A   1      32.702  25.626  21.593  1.00  0.00     0.261 C 
ATOM     10  O   UNL A   1      33.219  25.895  20.508  1.00  0.00    -0.268 OA
ATOM     11  H   UNL A   1      32.832  23.687  21.137  1.00  0.00     0.163 HD
BRANCH   9  12
ATOM     12  C   UNL A   1      32.287  26.636  22.559  1.00  0.00     0.092 A 
ATOM     13  C   UNL A   1      32.324  28.421  24.317  1.00  0.00     0.009 A 
ATOM     14  S   UNL A   1      33.419  27.224  23.699  1.00  0.00    -0.135 S 
ATOM     15  C   UNL A   1      31.161  28.436  23.559  1.00  0.00    -0.034 A 
ATOM     16  C   UNL A   1      31.065  27.221  22.800  1.00  0.00     0.029 A 
BRANCH  13  17
ATOM     17  C   UNL A   1      32.839  29.224  25.492  1.00  0.00     0.047 C 
BRANCH  17  18
ATOM     18  C   UNL A   1      32.458  28.771  26.897  1.00  0.00     0.002 C 
ATOM     19  C   UNL A   1      31.503  27.583  26.943  1.00  0.00     0.004 C 
ENDBRANCH  17  18
ENDBRANCH  13  17
BRANCH  15  20
ATOM     20  C   UNL A   1      30.054  29.452  23.493  1.00  0.00     0.033 C 
ATOM     21  C   UNL A   1      29.684  29.776  22.045  1.00  0.00     0.009 C 
ENDBRANCH  15  20
ENDBRANCH   9  12
ENDBRANCH   7   8
ENDBRANCH   6   7
ENDBRANCH   4   6
ENDBRANCH   3   4
ENDBRANCH   2   3
ENDBRANCH   1   2
BRANCH   1  22
ATOM     22  O   UNL A   1      37.787  22.416  26.151  1.00  0.00    -0.374 OA
BRANCH  22  23
ATOM     23  C   UNL A   1      39.142  22.026  25.946  1.00  0.00     0.202 C 
BRANCH  23  24
ATOM     24  C   UNL A   1      39.422  20.525  25.779  1.00  0.00     0.261 C 
BRANCH  24  25
ATOM     25  O   UNL A   1      40.430  20.035  26.682  1.00  0.00    -0.460 OA
BRANCH  25  26
ATOM     26  C   UNL A   1      41.664  19.929  26.127  1.00  0.00     0.338 C 
ATOM     27  O   UNL A   1      42.052  19.039  25.377  1.00  0.00    -0.246 OA
BRANCH  26  28
ATOM     28  C   UNL A   1      42.464  21.143  26.374  1.00  0.00     0.060 A 
ATOM     29  C   UNL A   1      42.719  21.474  27.712  1.00  0.00     0.016 A 
ATOM     30  C   UNL A   1      42.861  21.999  25.345  1.00  0.00     0.016 A 
ATOM     31  C   UNL A   1      43.301  22.696  28.032  1.00  0.00     0.010 A 
ATOM     32  C   UNL A   1      43.439  23.235  25.671  1.00  0.00     0.010 A 
ATOM     33  C   UNL A   1      43.613  23.610  27.016  1.00  0.00    -0.014 A 
BRANCH  33  34
ATOM     34  C   UNL A   1      43.907  25.017  27.394  1.00  0.00     0.031 A 
ATOM     35  C   UNL A   1      45.324  25.515  27.266  1.00  0.00     0.074 A 
ATOM     36  C   UNL A   1      42.925  25.862  27.755  1.00  0.00     0.049 A 
ATOM     37  N   UNL A   1      45.816  26.703  27.507  1.00  0.00    -0.248 NA
ATOM     38  C   UNL A   1      46.319  24.536  26.800  1.00  0.00     0.031 C 
ATOM     39  C   UNL A   1      41.509  25.514  27.859  1.00  0.00     0.029 A 
ATOM     40  N   UNL A   1      42.969  27.191  28.094  1.00  0.00    -0.354 N 
ATOM     41  C   UNL A   1      47.175  26.615  27.222  1.00  0.00     0.074 A 
ATOM     42  C   UNL A   1      47.436  25.246  26.833  1.00  0.00     0.031 C 
ATOM     43  C   UNL A   1      40.819  26.604  28.238  1.00  0.00     0.029 A 
ATOM     44  C   UNL A   1      41.746  27.718  28.435  1.00  0.00     0.049 A 
ATOM     45  H   UNL A   1      43.801  27.720  28.092  1.00  0.00     0.167 HD
ATOM     46  C   UNL A   1      48.119  27.589  27.269  1.00  0.00     0.034 A 
ATOM     47  C   UNL A   1      41.416  28.951  28.873  1.00  0.00     0.034 A 
ATOM     48  C   UNL A   1      47.849  28.948  27.669  1.00  0.00     0.049 A 
ATOM     49  C   UNL A   1      42.499  29.998  29.000  1.00  0.00     0.074 A 
ATOM     50  C   UNL A   1      48.730  30.013  27.757  1.00  0.00     0.029 A 
ATOM     51  N   UNL A   1      46.606  29.430  28.059  1.00  0.00    -0.354 N 
ATOM     52  N   UNL A   1      43.781  29.902  28.729  1.00  0.00    -0.248 NA
ATOM     53  C   UNL A   1      42.086  31.324  29.480  1.00  0.00     0.031 C 
ATOM     54  C   UNL A   1      48.034  31.118  28.263  1.00  0.00     0.029 A 
ATOM     55  C   UNL A   1      46.702  30.767  28.415  1.00  0.00     0.049 A 
ATOM     56  H   UNL A   1      45.777  28.900  28.081  1.00  0.00     0.167 HD
ATOM     57  C   UNL A   1      44.317  31.165  28.970  1.00  0.00     0.074 A 
ATOM     58  C   UNL A   1      43.217  32.007  29.398  1.00  0.00     0.031 C 
ATOM     59  C   UNL A   1      45.598  31.595  28.843  1.00  0.00     0.034 A 
BRANCH  46  60
ATOM     60  C   UNL A   1      49.537  27.194  26.930  1.00  0.00     0.023 A 
ATOM     61  C   UNL A   1      50.104  27.471  25.673  1.00  0.00     0.031 A 
ATOM     62  C   UNL A   1      50.321  26.497  27.867  1.00  0.00     0.131 A 
ATOM     63  C   UNL A   1      51.387  26.992  25.363  1.00  0.00     0.055 A 
ATOM     64  C   UNL A   1      51.626  26.093  27.580  1.00  0.00     0.041 A 
ATOM     65  F   UNL A   1      49.825  26.184  29.075  1.00  0.00    -0.206 F 
ATOM     66  C   UNL A   1      52.160  26.326  26.317  1.00  0.00     0.022 A 
BRANCH  63  67
ATOM     67  S   UNL A   1      51.975  27.124  23.652  1.00  0.00     0.124 S 
ATOM     68  O   UNL A   1      52.942  26.031  23.587  1.00  0.00    -0.237 OA
ATOM     69  O   UNL A   1      50.749  26.941  22.882  1.00  0.00    -0.237 OA
ATOM     70  O   UNL A   1      52.555  28.464  23.592  1.00  0.00    -0.744 OA
ENDBRANCH  63  67
ENDBRANCH  46  60
BRANCH  47  71
ATOM     71  C   UNL A   1      40.011  29.266  29.262  1.00  0.00     0.023 A 
ATOM     72  C   UNL A   1      39.609  29.279  30.607  1.00  0.00     0.031 A 
ATOM     73  C   UNL A   1      39.030  29.494  28.280  1.00  0.00     0.131 A 
ATOM     74  C   UNL A   1      38.256  29.465  30.932  1.00  0.00     0.055 A 
ATOM     75  C   UNL A   1      37.695  29.733  28.610  1.00  0.00     0.041 A 
ATOM     76  F   UNL A   1      39.358  29.490  26.979  1.00  0.00    -0.206 F 
ATOM     77  C   UNL A   1      37.298  29.705  29.943  1.00  0.00     0.022 A 
BRANCH  74  78
ATOM     78  S   UNL A   1      37.744  29.297  32.665  1.00  0.00     0.124 S 
ATOM     79  O   UNL A   1      36.480  30.022  32.672  1.00  0.00    -0.237 OA
ATOM     80  O   UNL A   1      37.655  27.848  32.815  1.00  0.00    -0.237 OA
ATOM     81  O   UNL A   1      38.833  29.931  33.404  1.00  0.00    -0.744 OA
ENDBRANCH  74  78
ENDBRANCH  47  71
BRANCH  59  82
ATOM     82  C   UNL A   1      45.867  33.057  29.110  1.00  0.00     0.023 A 
ATOM     83  C   UNL A   1      45.736  34.035  28.109  1.00  0.00     0.031 A 
ATOM     84  C   UNL A   1      46.271  33.474  30.392  1.00  0.00     0.131 A 
ATOM     85  C   UNL A   1      46.061  35.372  28.390  1.00  0.00     0.055 A 
ATOM     86  C   UNL A   1      46.535  34.814  30.681  1.00  0.00     0.041 A 
ATOM     87  F   UNL A   1      46.414  32.584  31.387  1.00  0.00    -0.206 F 
ATOM     88  C   UNL A   1      46.444  35.769  29.674  1.00  0.00     0.022 A 
BRANCH  85  89
ATOM     89  S   UNL A   1      46.070  36.572  27.030  1.00  0.00     0.124 S 
ATOM     90  O   UNL A   1      44.656  36.919  26.920  1.00  0.00    -0.237 OA
ATOM     91  O   UNL A   1      46.946  37.619  27.544  1.00  0.00    -0.237 OA
ATOM     92  O   UNL A   1      46.610  35.811  25.904  1.00  0.00    -0.744 OA
ENDBRANCH  85  89
ENDBRANCH  59  82
ENDBRANCH  33  34
ENDBRANCH  26  28
ENDBRANCH  25  26
ENDBRANCH  24  25
ENDBRANCH  23  24
ENDBRANCH  22  23
ENDBRANCH   1  22
TORSDOF 23
ENDMDL
