MODEL 1
REMARK VINA RESULT:     -11.4      0.000      0.000
REMARK SMILES CC(C)c1ccc([C@]2(C(=O)OCCOCCOC(=O)c3ccc(-c4c5nc(c(-c6cc(S(=O)(=O)[O-])ccc6F)c6ccc([nH]6)c(-c6cc(S(=O)(=O)[O-])ccc6F)c6nc(c(-c7cc(S(=O)(=O)[O-])ccc7F)c7ccc4[nH]7)C=C6)C=C5)cc3)CCC[C@@H]2C)cc1
REMARK SMILES IDX 15 1 14 2 13 3 12 4 11 5 9 6 10 7 8 8 83 9 86 10 84 11 85 12
REMARK SMILES IDX 87 13 7 14 4 15 5 16 89 17 6 18 88 19 2 20 1 21 3 22 16 23
REMARK SMILES IDX 17 24 18 25 19 26 20 27 21 28 82 29 22 30 81 31 23 32 24 33
REMARK SMILES IDX 25 34 75 35 26 36 80 37 74 38 76 39 27 40 79 41 73 42 72 43
REMARK SMILES IDX 28 45 60 46 40 47 59 48 41 49 44 50 58 51 77 52 42 53 43 54
REMARK SMILES IDX 57 56 78 57 45 58 29 59 30 60 38 61 31 62 37 63 39 64 36 65
REMARK SMILES IDX 32 66 33 67 34 68 35 69 61 70 62 71 70 72 63 73 69 74 71 75
REMARK SMILES IDX 68 76 64 77 65 78 66 79 67 80 46 81 47 82 55 83 48 84 54 85
REMARK SMILES IDX 56 86 53 87 49 88 50 89 51 90 52 91
REMARK H PARENT 76 44 44 55
REMARK Flexibility Score: inf
ROOT
ATOM      1  C   UNL A   1      31.535  31.179  26.709  1.00  0.00     0.202 C 
ENDROOT
BRANCH   1   2
ATOM      2  O   UNL A   1      32.710  30.589  26.160  1.00  0.00    -0.374 OA
BRANCH   2   3
ATOM      3  C   UNL A   1      33.121  29.326  26.690  1.00  0.00     0.202 C 
BRANCH   3   4
ATOM      4  C   UNL A   1      32.002  28.396  27.163  1.00  0.00     0.261 C 
BRANCH   4   5
ATOM      5  O   UNL A   1      32.324  27.028  26.856  1.00  0.00    -0.463 OA
BRANCH   5   6
ATOM      6  C   UNL A   1      31.394  26.346  26.134  1.00  0.00     0.316 C 
ATOM      7  O   UNL A   1      30.435  25.763  26.632  1.00  0.00    -0.251 OA
BRANCH   6   8
ATOM      8  C   UNL A   1      31.687  26.361  24.603  1.00  0.00     0.095 C 
ATOM      9  C   UNL A   1      33.156  26.694  24.235  1.00  0.00     0.024 C 
ATOM     10  C   UNL A   1      31.601  24.870  24.140  1.00  0.00     0.008 C 
ATOM     11  C   UNL A   1      33.964  25.408  24.419  1.00  0.00     0.002 C 
ATOM     12  C   UNL A   1      32.945  24.289  24.616  1.00  0.00     0.005 C 
ATOM     13  C   UNL A   1      31.460  24.636  22.631  1.00  0.00     0.009 C 
BRANCH   8  14
ATOM     14  C   UNL A   1      30.683  27.345  23.975  1.00  0.00    -0.030 A 
ATOM     15  C   UNL A   1      28.741  29.207  23.011  1.00  0.00    -0.045 A 
ATOM     16  C   UNL A   1      28.407  27.868  23.239  1.00  0.00     0.004 A 
ATOM     17  C   UNL A   1      30.061  29.602  23.267  1.00  0.00     0.004 A 
ATOM     18  C   UNL A   1      29.355  26.963  23.732  1.00  0.00     0.005 A 
ATOM     19  C   UNL A   1      31.014  28.689  23.736  1.00  0.00     0.005 A 
BRANCH  15  20
ATOM     20  C   UNL A   1      27.745  30.234  22.497  1.00  0.00     0.013 C 
ATOM     21  C   UNL A   1      27.609  31.386  23.496  1.00  0.00     0.012 C 
ATOM     22  C   UNL A   1      28.055  30.786  21.101  1.00  0.00     0.012 C 
ENDBRANCH  15  20
ENDBRANCH   8  14
ENDBRANCH   6   8
ENDBRANCH   5   6
ENDBRANCH   4   5
ENDBRANCH   3   4
ENDBRANCH   2   3
ENDBRANCH   1   2
BRANCH   1  23
ATOM     23  C   UNL A   1      31.525  32.708  26.850  1.00  0.00     0.261 C 
BRANCH  23  24
ATOM     24  O   UNL A   1      32.833  33.297  26.739  1.00  0.00    -0.460 OA
BRANCH  24  25
ATOM     25  C   UNL A   1      33.356  33.719  27.918  1.00  0.00     0.338 C 
ATOM     26  O   UNL A   1      32.827  34.475  28.723  1.00  0.00    -0.246 OA
BRANCH  25  27
ATOM     27  C   UNL A   1      34.606  32.998  28.219  1.00  0.00     0.060 A 
ATOM     28  C   UNL A   1      34.488  31.698  28.726  1.00  0.00     0.016 A 
ATOM     29  C   UNL A   1      35.860  33.601  28.098  1.00  0.00     0.016 A 
ATOM     30  C   UNL A   1      35.619  31.011  29.161  1.00  0.00     0.010 A 
ATOM     31  C   UNL A   1      36.995  32.913  28.546  1.00  0.00     0.010 A 
ATOM     32  C   UNL A   1      36.875  31.630  29.114  1.00  0.00    -0.014 A 
BRANCH  32  33
ATOM     33  C   UNL A   1      38.020  30.993  29.813  1.00  0.00     0.031 A 
ATOM     34  C   UNL A   1      38.289  31.363  31.248  1.00  0.00     0.074 A 
ATOM     35  C   UNL A   1      38.770  30.060  29.202  1.00  0.00     0.049 A 
ATOM     36  N   UNL A   1      39.231  30.942  32.053  1.00  0.00    -0.248 NA
ATOM     37  C   UNL A   1      37.371  32.339  31.854  1.00  0.00     0.031 C 
ATOM     38  C   UNL A   1      38.570  29.581  27.835  1.00  0.00     0.029 A 
ATOM     39  N   UNL A   1      39.851  29.344  29.654  1.00  0.00    -0.354 N 
ATOM     40  C   UNL A   1      39.020  31.601  33.261  1.00  0.00     0.074 A 
ATOM     41  C   UNL A   1      37.884  32.478  33.067  1.00  0.00     0.031 C 
ATOM     42  C   UNL A   1      39.502  28.654  27.557  1.00  0.00     0.029 A 
ATOM     43  C   UNL A   1      40.387  28.499  28.711  1.00  0.00     0.049 A 
ATOM     44  H   UNL A   1      40.208  29.428  30.567  1.00  0.00     0.167 HD
ATOM     45  C   UNL A   1      39.703  31.478  34.426  1.00  0.00     0.034 A 
ATOM     46  C   UNL A   1      41.480  27.711  28.766  1.00  0.00     0.034 A 
ATOM     47  C   UNL A   1      40.840  30.607  34.599  1.00  0.00     0.049 A 
ATOM     48  C   UNL A   1      42.284  27.660  30.044  1.00  0.00     0.074 A 
ATOM     49  C   UNL A   1      41.601  30.399  35.737  1.00  0.00     0.029 A 
ATOM     50  N   UNL A   1      41.393  29.810  33.604  1.00  0.00    -0.354 N 
ATOM     51  N   UNL A   1      42.071  28.285  31.180  1.00  0.00    -0.248 NA
ATOM     52  C   UNL A   1      43.468  26.792  30.049  1.00  0.00     0.031 C 
ATOM     53  C   UNL A   1      42.653  29.535  35.411  1.00  0.00     0.029 A 
ATOM     54  C   UNL A   1      42.503  29.138  34.091  1.00  0.00     0.049 A 
ATOM     55  H   UNL A   1      41.045  29.734  32.686  1.00  0.00     0.167 HD
ATOM     56  C   UNL A   1      43.079  27.859  32.043  1.00  0.00     0.074 A 
ATOM     57  C   UNL A   1      43.889  26.916  31.300  1.00  0.00     0.031 C 
ATOM     58  C   UNL A   1      43.311  28.210  33.334  1.00  0.00     0.034 A 
BRANCH  45  59
ATOM     59  C   UNL A   1      39.269  32.350  35.579  1.00  0.00     0.023 A 
ATOM     60  C   UNL A   1      39.665  33.695  35.683  1.00  0.00     0.031 A 
ATOM     61  C   UNL A   1      38.471  31.818  36.607  1.00  0.00     0.131 A 
ATOM     62  C   UNL A   1      39.323  34.440  36.823  1.00  0.00     0.055 A 
ATOM     63  C   UNL A   1      38.068  32.587  37.700  1.00  0.00     0.041 A 
ATOM     64  F   UNL A   1      38.081  30.534  36.574  1.00  0.00    -0.206 F 
ATOM     65  C   UNL A   1      38.506  33.903  37.820  1.00  0.00     0.022 A 
BRANCH  62  66
ATOM     66  S   UNL A   1      40.077  36.074  37.053  1.00  0.00     0.124 S 
ATOM     67  O   UNL A   1      39.815  36.704  35.761  1.00  0.00    -0.237 OA
ATOM     68  O   UNL A   1      39.332  36.608  38.186  1.00  0.00    -0.237 OA
ATOM     69  O   UNL A   1      41.482  35.770  37.314  1.00  0.00    -0.744 OA
ENDBRANCH  62  66
ENDBRANCH  45  59
BRANCH  46  70
ATOM     70  C   UNL A   1      41.915  26.937  27.566  1.00  0.00     0.023 A 
ATOM     71  C   UNL A   1      41.681  25.557  27.463  1.00  0.00     0.031 A 
ATOM     72  C   UNL A   1      42.627  27.565  26.527  1.00  0.00     0.131 A 
ATOM     73  C   UNL A   1      42.192  24.841  26.368  1.00  0.00     0.055 A 
ATOM     74  C   UNL A   1      43.088  26.859  25.415  1.00  0.00     0.041 A 
ATOM     75  F   UNL A   1      42.881  28.882  26.577  1.00  0.00    -0.206 F 
ATOM     76  C   UNL A   1      42.883  25.484  25.338  1.00  0.00     0.022 A 
BRANCH  73  77
ATOM     77  S   UNL A   1      42.019  23.035  26.353  1.00  0.00     0.124 S 
ATOM     78  O   UNL A   1      42.802  22.651  27.521  1.00  0.00    -0.237 OA
ATOM     79  O   UNL A   1      40.573  22.870  26.464  1.00  0.00    -0.237 OA
ATOM     80  O   UNL A   1      42.590  22.651  25.063  1.00  0.00    -0.744 OA
ENDBRANCH  73  77
ENDBRANCH  46  70
BRANCH  58  81
ATOM     81  C   UNL A   1      44.463  27.531  34.035  1.00  0.00     0.023 A 
ATOM     82  C   UNL A   1      45.752  28.093  34.062  1.00  0.00     0.031 A 
ATOM     83  C   UNL A   1      44.267  26.295  34.679  1.00  0.00     0.131 A 
ATOM     84  C   UNL A   1      46.806  27.395  34.672  1.00  0.00     0.055 A 
ATOM     85  C   UNL A   1      45.307  25.635  35.336  1.00  0.00     0.041 A 
ATOM     86  F   UNL A   1      43.059  25.711  34.684  1.00  0.00    -0.206 F 
ATOM     87  C   UNL A   1      46.588  26.178  35.322  1.00  0.00     0.022 A 
BRANCH  84  88
ATOM     88  S   UNL A   1      48.490  28.056  34.523  1.00  0.00     0.124 S 
ATOM     89  O   UNL A   1      48.291  29.194  33.632  1.00  0.00    -0.237 OA
ATOM     90  O   UNL A   1      48.820  28.379  35.907  1.00  0.00    -0.237 OA
ATOM     91  O   UNL A   1      49.246  26.944  33.950  1.00  0.00    -0.744 OA
ENDBRANCH  84  88
ENDBRANCH  58  81
ENDBRANCH  32  33
ENDBRANCH  25  27
ENDBRANCH  24  25
ENDBRANCH  23  24
ENDBRANCH   1  23
TORSDOF 19
ENDMDL
MODEL 2
REMARK VINA RESULT:     -11.2      2.680      8.669
REMARK SMILES CC(C)c1ccc([C@]2(C(=O)OCCOCCOC(=O)c3ccc(-c4c5nc(c(-c6cc(S(=O)(=O)[O-])ccc6F)c6ccc([nH]6)c(-c6cc(S(=O)(=O)[O-])ccc6F)c6nc(c(-c7cc(S(=O)(=O)[O-])ccc7F)c7ccc4[nH]7)C=C6)C=C5)cc3)CCC[C@@H]2C)cc1
REMARK SMILES IDX 15 1 14 2 13 3 12 4 11 5 9 6 10 7 8 8 83 9 86 10 84 11 85 12
REMARK SMILES IDX 87 13 7 14 4 15 5 16 89 17 6 18 88 19 2 20 1 21 3 22 16 23
REMARK SMILES IDX 17 24 18 25 19 26 20 27 21 28 82 29 22 30 81 31 23 32 24 33
REMARK SMILES IDX 25 34 75 35 26 36 80 37 74 38 76 39 27 40 79 41 73 42 72 43
REMARK SMILES IDX 28 45 60 46 40 47 59 48 41 49 44 50 58 51 77 52 42 53 43 54
REMARK SMILES IDX 57 56 78 57 45 58 29 59 30 60 38 61 31 62 37 63 39 64 36 65
REMARK SMILES IDX 32 66 33 67 34 68 35 69 61 70 62 71 70 72 63 73 69 74 71 75
REMARK SMILES IDX 68 76 64 77 65 78 66 79 67 80 46 81 47 82 55 83 48 84 54 85
REMARK SMILES IDX 56 86 53 87 49 88 50 89 51 90 52 91
REMARK H PARENT 76 44 44 55
REMARK Flexibility Score: inf
ROOT
ATOM      1  C   UNL A   1      32.872  29.329  24.377  1.00  0.00     0.202 C 
ENDROOT
BRANCH   1   2
ATOM      2  O   UNL A   1      32.553  28.283  23.463  1.00  0.00    -0.374 OA
BRANCH   2   3
ATOM      3  C   UNL A   1      33.644  27.605  22.832  1.00  0.00     0.202 C 
BRANCH   3   4
ATOM      4  C   UNL A   1      33.278  26.394  21.973  1.00  0.00     0.261 C 
BRANCH   4   5
ATOM      5  O   UNL A   1      33.591  25.173  22.667  1.00  0.00    -0.463 OA
BRANCH   5   6
ATOM      6  C   UNL A   1      32.557  24.582  23.325  1.00  0.00     0.316 C 
ATOM      7  O   UNL A   1      31.415  24.512  22.879  1.00  0.00    -0.251 OA
BRANCH   6   8
ATOM      8  C   UNL A   1      32.968  24.024  24.721  1.00  0.00     0.095 C 
ATOM      9  C   UNL A   1      34.182  24.741  25.365  1.00  0.00     0.024 C 
ATOM     10  C   UNL A   1      31.825  24.447  25.701  1.00  0.00     0.008 C 
ATOM     11  C   UNL A   1      33.655  26.033  25.993  1.00  0.00     0.002 C 
ATOM     12  C   UNL A   1      32.133  25.933  25.959  1.00  0.00     0.005 C 
ATOM     13  C   UNL A   1      31.774  23.705  27.042  1.00  0.00     0.009 C 
BRANCH   8  14
ATOM     14  C   UNL A   1      33.204  22.513  24.535  1.00  0.00    -0.030 A 
ATOM     15  C   UNL A   1      33.566  19.682  24.393  1.00  0.00    -0.045 A 
ATOM     16  C   UNL A   1      34.525  20.503  24.994  1.00  0.00     0.004 A 
ATOM     17  C   UNL A   1      32.424  20.296  23.859  1.00  0.00     0.004 A 
ATOM     18  C   UNL A   1      34.335  21.888  25.082  1.00  0.00     0.005 A 
ATOM     19  C   UNL A   1      32.248  21.684  23.926  1.00  0.00     0.005 A 
BRANCH  15  20
ATOM     20  C   UNL A   1      33.713  18.173  24.292  1.00  0.00     0.013 C 
ATOM     21  C   UNL A   1      35.158  17.760  24.584  1.00  0.00     0.012 C 
ATOM     22  C   UNL A   1      32.751  17.373  25.178  1.00  0.00     0.012 C 
ENDBRANCH  15  20
ENDBRANCH   8  14
ENDBRANCH   6   8
ENDBRANCH   5   6
ENDBRANCH   4   5
ENDBRANCH   3   4
ENDBRANCH   2   3
ENDBRANCH   1   2
BRANCH   1  23
ATOM     23  C   UNL A   1      31.816  29.670  25.439  1.00  0.00     0.261 C 
BRANCH  23  24
ATOM     24  O   UNL A   1      32.359  29.762  26.768  1.00  0.00    -0.460 OA
BRANCH  24  25
ATOM     25  C   UNL A   1      32.917  30.963  27.062  1.00  0.00     0.338 C 
ATOM     26  O   UNL A   1      32.357  32.052  27.046  1.00  0.00    -0.246 OA
BRANCH  25  27
ATOM     27  C   UNL A   1      34.279  30.786  27.596  1.00  0.00     0.060 A 
ATOM     28  C   UNL A   1      34.786  29.482  27.638  1.00  0.00     0.016 A 
ATOM     29  C   UNL A   1      35.014  31.850  28.127  1.00  0.00     0.016 A 
ATOM     30  C   UNL A   1      36.008  29.225  28.255  1.00  0.00     0.010 A 
ATOM     31  C   UNL A   1      36.237  31.588  28.756  1.00  0.00     0.010 A 
ATOM     32  C   UNL A   1      36.721  30.269  28.856  1.00  0.00    -0.014 A 
BRANCH  32  33
ATOM     33  C   UNL A   1      37.880  29.945  29.726  1.00  0.00     0.031 A 
ATOM     34  C   UNL A   1      38.934  29.001  29.208  1.00  0.00     0.074 A 
ATOM     35  C   UNL A   1      38.025  30.524  30.931  1.00  0.00     0.049 A 
ATOM     36  N   UNL A   1      40.023  28.569  29.790  1.00  0.00    -0.248 NA
ATOM     37  C   UNL A   1      38.727  28.474  27.850  1.00  0.00     0.031 C 
ATOM     38  C   UNL A   1      37.099  31.495  31.514  1.00  0.00     0.029 A 
ATOM     39  N   UNL A   1      39.006  30.383  31.881  1.00  0.00    -0.354 N 
ATOM     40  C   UNL A   1      40.633  27.721  28.870  1.00  0.00     0.074 A 
ATOM     41  C   UNL A   1      39.769  27.670  27.710  1.00  0.00     0.031 C 
ATOM     42  C   UNL A   1      37.555  31.857  32.726  1.00  0.00     0.029 A 
ATOM     43  C   UNL A   1      38.783  31.119  33.020  1.00  0.00     0.049 A 
ATOM     44  H   UNL A   1      39.795  29.808  31.756  1.00  0.00     0.167 HD
ATOM     45  C   UNL A   1      41.809  27.055  28.980  1.00  0.00     0.034 A 
ATOM     46  C   UNL A   1      39.476  31.172  34.175  1.00  0.00     0.034 A 
ATOM     47  C   UNL A   1      42.654  27.108  30.149  1.00  0.00     0.049 A 
ATOM     48  C   UNL A   1      40.734  30.348  34.313  1.00  0.00     0.074 A 
ATOM     49  C   UNL A   1      43.868  26.479  30.364  1.00  0.00     0.029 A 
ATOM     50  N   UNL A   1      42.366  27.818  31.309  1.00  0.00    -0.354 N 
ATOM     51  N   UNL A   1      41.302  29.553  33.434  1.00  0.00    -0.248 NA
ATOM     52  C   UNL A   1      41.448  30.436  35.592  1.00  0.00     0.031 C 
ATOM     53  C   UNL A   1      44.278  26.750  31.675  1.00  0.00     0.029 A 
ATOM     54  C   UNL A   1      43.360  27.614  32.253  1.00  0.00     0.049 A 
ATOM     55  H   UNL A   1      41.571  28.383  31.439  1.00  0.00     0.167 HD
ATOM     56  C   UNL A   1      42.458  29.071  34.048  1.00  0.00     0.074 A 
ATOM     57  C   UNL A   1      42.510  29.676  35.363  1.00  0.00     0.031 C 
ATOM     58  C   UNL A   1      43.393  28.213  33.567  1.00  0.00     0.034 A 
BRANCH  45  59
ATOM     59  C   UNL A   1      42.214  26.170  27.826  1.00  0.00     0.023 A 
ATOM     60  C   UNL A   1      41.751  24.848  27.706  1.00  0.00     0.031 A 
ATOM     61  C   UNL A   1      43.104  26.646  26.847  1.00  0.00     0.131 A 
ATOM     62  C   UNL A   1      42.233  24.027  26.674  1.00  0.00     0.055 A 
ATOM     63  C   UNL A   1      43.519  25.850  25.778  1.00  0.00     0.041 A 
ATOM     64  F   UNL A   1      43.597  27.892  26.922  1.00  0.00    -0.206 F 
ATOM     65  C   UNL A   1      43.094  24.527  25.695  1.00  0.00     0.022 A 
BRANCH  62  66
ATOM     66  S   UNL A   1      41.831  22.259  26.709  1.00  0.00     0.124 S 
ATOM     67  O   UNL A   1      42.235  21.839  25.369  1.00  0.00    -0.237 OA
ATOM     68  O   UNL A   1      42.656  21.769  27.807  1.00  0.00    -0.237 OA
ATOM     69  O   UNL A   1      40.390  22.239  26.951  1.00  0.00    -0.744 OA
ENDBRANCH  62  66
ENDBRANCH  45  59
BRANCH  46  70
ATOM     70  C   UNL A   1      38.982  31.996  35.317  1.00  0.00     0.023 A 
ATOM     71  C   UNL A   1      38.404  31.403  36.449  1.00  0.00     0.031 A 
ATOM     72  C   UNL A   1      39.032  33.402  35.262  1.00  0.00     0.131 A 
ATOM     73  C   UNL A   1      37.858  32.210  37.460  1.00  0.00     0.055 A 
ATOM     74  C   UNL A   1      38.535  34.200  36.293  1.00  0.00     0.041 A 
ATOM     75  F   UNL A   1      39.571  34.021  34.199  1.00  0.00    -0.206 F 
ATOM     76  C   UNL A   1      37.931  33.603  37.396  1.00  0.00     0.022 A 
BRANCH  73  77
ATOM     77  S   UNL A   1      36.969  31.412  38.826  1.00  0.00     0.124 S 
ATOM     78  O   UNL A   1      35.739  32.193  38.876  1.00  0.00    -0.237 OA
ATOM     79  O   UNL A   1      36.842  30.041  38.342  1.00  0.00    -0.237 OA
ATOM     80  O   UNL A   1      37.868  31.587  39.965  1.00  0.00    -0.744 OA
ENDBRANCH  73  77
ENDBRANCH  46  70
BRANCH  58  81
ATOM     81  C   UNL A   1      44.577  27.917  34.456  1.00  0.00     0.023 A 
ATOM     82  C   UNL A   1      44.565  26.858  35.381  1.00  0.00     0.031 A 
ATOM     83  C   UNL A   1      45.733  28.716  34.381  1.00  0.00     0.131 A 
ATOM     84  C   UNL A   1      45.665  26.659  36.231  1.00  0.00     0.055 A 
ATOM     85  C   UNL A   1      46.847  28.476  35.187  1.00  0.00     0.041 A 
ATOM     86  F   UNL A   1      45.800  29.742  33.518  1.00  0.00    -0.206 F 
ATOM     87  C   UNL A   1      46.811  27.451  36.128  1.00  0.00     0.022 A 
BRANCH  84  88
ATOM     88  S   UNL A   1      45.541  25.408  37.538  1.00  0.00     0.124 S 
ATOM     89  O   UNL A   1      46.658  24.525  37.219  1.00  0.00    -0.237 OA
ATOM     90  O   UNL A   1      45.686  26.207  38.750  1.00  0.00    -0.237 OA
ATOM     91  O   UNL A   1      44.215  24.828  37.334  1.00  0.00    -0.744 OA
ENDBRANCH  84  88
ENDBRANCH  58  81
ENDBRANCH  32  33
ENDBRANCH  25  27
ENDBRANCH  24  25
ENDBRANCH  23  24
ENDBRANCH   1  23
TORSDOF 19
ENDMDL
MODEL 3
REMARK VINA RESULT:     -11.1      1.929      2.187
REMARK SMILES CC(C)c1ccc([C@]2(C(=O)OCCOCCOC(=O)c3ccc(-c4c5nc(c(-c6cc(S(=O)(=O)[O-])ccc6F)c6ccc([nH]6)c(-c6cc(S(=O)(=O)[O-])ccc6F)c6nc(c(-c7cc(S(=O)(=O)[O-])ccc7F)c7ccc4[nH]7)C=C6)C=C5)cc3)CCC[C@@H]2C)cc1
REMARK SMILES IDX 15 1 14 2 13 3 12 4 11 5 9 6 10 7 8 8 83 9 86 10 84 11 85 12
REMARK SMILES IDX 87 13 7 14 4 15 5 16 89 17 6 18 88 19 2 20 1 21 3 22 16 23
REMARK SMILES IDX 17 24 18 25 19 26 20 27 21 28 82 29 22 30 81 31 23 32 24 33
REMARK SMILES IDX 25 34 75 35 26 36 80 37 74 38 76 39 27 40 79 41 73 42 72 43
REMARK SMILES IDX 28 45 60 46 40 47 59 48 41 49 44 50 58 51 77 52 42 53 43 54
REMARK SMILES IDX 57 56 78 57 45 58 29 59 30 60 38 61 31 62 37 63 39 64 36 65
REMARK SMILES IDX 32 66 33 67 34 68 35 69 61 70 62 71 70 72 63 73 69 74 71 75
REMARK SMILES IDX 68 76 64 77 65 78 66 79 67 80 46 81 47 82 55 83 48 84 54 85
REMARK SMILES IDX 56 86 53 87 49 88 50 89 51 90 52 91
REMARK H PARENT 76 44 44 55
REMARK Flexibility Score: inf
ROOT
ATOM      1  C   UNL A   1      31.967  32.044  27.004  1.00  0.00     0.202 C 
ENDROOT
BRANCH   1   2
ATOM      2  O   UNL A   1      32.794  30.886  26.933  1.00  0.00    -0.374 OA
BRANCH   2   3
ATOM      3  C   UNL A   1      32.170  29.618  27.154  1.00  0.00     0.202 C 
BRANCH   3   4
ATOM      4  C   UNL A   1      33.110  28.440  27.418  1.00  0.00     0.261 C 
BRANCH   4   5
ATOM      5  O   UNL A   1      33.145  27.560  26.280  1.00  0.00    -0.463 OA
BRANCH   5   6
ATOM      6  C   UNL A   1      32.027  26.813  26.073  1.00  0.00     0.316 C 
ATOM      7  O   UNL A   1      31.242  26.496  26.962  1.00  0.00    -0.251 OA
BRANCH   6   8
ATOM      8  C   UNL A   1      31.859  26.376  24.586  1.00  0.00     0.095 C 
ATOM      9  C   UNL A   1      33.180  26.339  23.776  1.00  0.00     0.024 C 
ATOM     10  C   UNL A   1      31.498  24.856  24.628  1.00  0.00     0.008 C 
ATOM     11  C   UNL A   1      33.879  25.024  24.124  1.00  0.00     0.002 C 
ATOM     12  C   UNL A   1      32.861  24.192  24.899  1.00  0.00     0.005 C 
ATOM     13  C   UNL A   1      30.900  24.266  23.345  1.00  0.00     0.009 C 
BRANCH   8  14
ATOM     14  C   UNL A   1      30.814  27.324  23.968  1.00  0.00    -0.030 A 
ATOM     15  C   UNL A   1      28.815  29.136  23.025  1.00  0.00    -0.045 A 
ATOM     16  C   UNL A   1      28.486  27.830  23.400  1.00  0.00     0.004 A 
ATOM     17  C   UNL A   1      30.159  29.524  23.123  1.00  0.00     0.004 A 
ATOM     18  C   UNL A   1      29.463  26.951  23.883  1.00  0.00     0.005 A 
ATOM     19  C   UNL A   1      31.139  28.635  23.582  1.00  0.00     0.005 A 
BRANCH  15  20
ATOM     20  C   UNL A   1      27.790  30.136  22.517  1.00  0.00     0.013 C 
ATOM     21  C   UNL A   1      27.554  31.231  23.560  1.00  0.00     0.012 C 
ATOM     22  C   UNL A   1      28.127  30.770  21.162  1.00  0.00     0.012 C 
ENDBRANCH  15  20
ENDBRANCH   8  14
ENDBRANCH   6   8
ENDBRANCH   5   6
ENDBRANCH   4   5
ENDBRANCH   3   4
ENDBRANCH   2   3
ENDBRANCH   1   2
BRANCH   1  23
ATOM     23  C   UNL A   1      32.673  33.389  27.233  1.00  0.00     0.261 C 
BRANCH  23  24
ATOM     24  O   UNL A   1      32.380  33.972  28.515  1.00  0.00    -0.460 OA
BRANCH  24  25
ATOM     25  C   UNL A   1      33.411  34.664  29.061  1.00  0.00     0.338 C 
ATOM     26  O   UNL A   1      33.378  35.811  29.488  1.00  0.00    -0.246 OA
BRANCH  25  27
ATOM     27  C   UNL A   1      34.580  33.786  29.257  1.00  0.00     0.060 A 
ATOM     28  C   UNL A   1      34.381  32.610  29.991  1.00  0.00     0.016 A 
ATOM     29  C   UNL A   1      35.857  34.139  28.815  1.00  0.00     0.016 A 
ATOM     30  C   UNL A   1      35.466  31.805  30.330  1.00  0.00     0.010 A 
ATOM     31  C   UNL A   1      36.948  33.334  29.166  1.00  0.00     0.010 A 
ATOM     32  C   UNL A   1      36.762  32.184  29.957  1.00  0.00    -0.014 A 
BRANCH  32  33
ATOM     33  C   UNL A   1      37.921  31.463  30.542  1.00  0.00     0.031 A 
ATOM     34  C   UNL A   1      38.350  31.798  31.947  1.00  0.00     0.074 A 
ATOM     35  C   UNL A   1      38.543  30.485  29.859  1.00  0.00     0.049 A 
ATOM     36  N   UNL A   1      39.332  31.305  32.657  1.00  0.00    -0.248 NA
ATOM     37  C   UNL A   1      37.563  32.828  32.640  1.00  0.00     0.031 C 
ATOM     38  C   UNL A   1      38.181  30.036  28.515  1.00  0.00     0.029 A 
ATOM     39  N   UNL A   1      39.609  29.692  30.203  1.00  0.00    -0.354 N 
ATOM     40  C   UNL A   1      39.282  31.964  33.881  1.00  0.00     0.074 A 
ATOM     41  C   UNL A   1      38.198  32.919  33.799  1.00  0.00     0.031 C 
ATOM     42  C   UNL A   1      39.016  29.050  28.146  1.00  0.00     0.029 A 
ATOM     43  C   UNL A   1      39.994  28.822  29.211  1.00  0.00     0.049 A 
ATOM     44  H   UNL A   1      40.056  29.742  31.079  1.00  0.00     0.167 HD
ATOM     45  C   UNL A   1      40.063  31.782  34.975  1.00  0.00     0.034 A 
ATOM     46  C   UNL A   1      41.029  27.960  29.158  1.00  0.00     0.034 A 
ATOM     47  C   UNL A   1      41.148  30.832  35.037  1.00  0.00     0.049 A 
ATOM     48  C   UNL A   1      41.944  27.840  30.353  1.00  0.00     0.074 A 
ATOM     49  C   UNL A   1      41.996  30.561  36.096  1.00  0.00     0.029 A 
ATOM     50  N   UNL A   1      41.547  30.010  33.990  1.00  0.00    -0.354 N 
ATOM     51  N   UNL A   1      41.884  28.467  31.507  1.00  0.00    -0.248 NA
ATOM     52  C   UNL A   1      43.061  26.893  30.243  1.00  0.00     0.031 C 
ATOM     53  C   UNL A   1      42.950  29.629  35.668  1.00  0.00     0.029 A 
ATOM     54  C   UNL A   1      42.649  29.257  34.367  1.00  0.00     0.049 A 
ATOM     55  H   UNL A   1      41.109  29.967  33.110  1.00  0.00     0.167 HD
ATOM     56  C   UNL A   1      42.938  27.963  32.269  1.00  0.00     0.074 A 
ATOM     57  C   UNL A   1      43.606  26.974  31.448  1.00  0.00     0.031 C 
ATOM     58  C   UNL A   1      43.314  28.284  33.533  1.00  0.00     0.034 A 
BRANCH  45  59
ATOM     59  C   UNL A   1      39.801  32.670  36.168  1.00  0.00     0.023 A 
ATOM     60  C   UNL A   1      38.972  32.264  37.228  1.00  0.00     0.031 A 
ATOM     61  C   UNL A   1      40.365  33.957  36.230  1.00  0.00     0.131 A 
ATOM     62  C   UNL A   1      38.675  33.159  38.268  1.00  0.00     0.055 A 
ATOM     63  C   UNL A   1      40.129  34.814  37.305  1.00  0.00     0.041 A 
ATOM     64  F   UNL A   1      41.146  34.408  35.236  1.00  0.00    -0.206 F 
ATOM     65  C   UNL A   1      39.267  34.423  38.326  1.00  0.00     0.022 A 
BRANCH  62  66
ATOM     66  S   UNL A   1      37.393  32.704  39.468  1.00  0.00     0.124 S 
ATOM     67  O   UNL A   1      36.189  32.737  38.640  1.00  0.00    -0.237 OA
ATOM     68  O   UNL A   1      37.828  31.385  39.910  1.00  0.00    -0.237 OA
ATOM     69  O   UNL A   1      37.475  33.760  40.475  1.00  0.00    -0.744 OA
ENDBRANCH  62  66
ENDBRANCH  45  59
BRANCH  46  70
ATOM     70  C   UNL A   1      41.294  27.170  27.920  1.00  0.00     0.023 A 
ATOM     71  C   UNL A   1      41.035  25.792  27.863  1.00  0.00     0.031 A 
ATOM     72  C   UNL A   1      41.867  27.780  26.789  1.00  0.00     0.131 A 
ATOM     73  C   UNL A   1      41.389  25.061  26.718  1.00  0.00     0.055 A 
ATOM     74  C   UNL A   1      42.169  27.059  25.633  1.00  0.00     0.041 A 
ATOM     75  F   UNL A   1      42.138  29.095  26.791  1.00  0.00    -0.206 F 
ATOM     76  C   UNL A   1      41.943  25.686  25.599  1.00  0.00     0.022 A 
BRANCH  73  77
ATOM     77  S   UNL A   1      41.198  23.256  26.745  1.00  0.00     0.124 S 
ATOM     78  O   UNL A   1      41.660  22.928  28.088  1.00  0.00    -0.237 OA
ATOM     79  O   UNL A   1      39.768  23.101  26.499  1.00  0.00    -0.237 OA
ATOM     80  O   UNL A   1      42.066  22.807  25.657  1.00  0.00    -0.744 OA
ENDBRANCH  73  77
ENDBRANCH  46  70
BRANCH  58  81
ATOM     81  C   UNL A   1      44.477  27.519  34.119  1.00  0.00     0.023 A 
ATOM     82  C   UNL A   1      44.297  26.312  34.817  1.00  0.00     0.031 A 
ATOM     83  C   UNL A   1      45.788  28.015  33.983  1.00  0.00     0.131 A 
ATOM     84  C   UNL A   1      45.401  25.668  35.398  1.00  0.00     0.055 A 
ATOM     85  C   UNL A   1      46.888  27.339  34.512  1.00  0.00     0.041 A 
ATOM     86  F   UNL A   1      46.019  29.163  33.329  1.00  0.00    -0.206 F 
ATOM     87  C   UNL A   1      46.696  26.166  35.236  1.00  0.00     0.022 A 
BRANCH  84  88
ATOM     88  S   UNL A   1      45.111  24.219  36.449  1.00  0.00     0.124 S 
ATOM     89  O   UNL A   1      44.162  23.450  35.651  1.00  0.00    -0.237 OA
ATOM     90  O   UNL A   1      46.449  23.651  36.573  1.00  0.00    -0.237 OA
ATOM     91  O   UNL A   1      44.565  24.790  37.679  1.00  0.00    -0.744 OA
ENDBRANCH  84  88
ENDBRANCH  58  81
ENDBRANCH  32  33
ENDBRANCH  25  27
ENDBRANCH  24  25
ENDBRANCH  23  24
ENDBRANCH   1  23
TORSDOF 19
ENDMDL
