MODEL 1
REMARK VINA RESULT:     -11.9      0.000      0.000
REMARK SMILES CN1N[C@H](C(=O)N[C@@H](CC2=c3ccccc3=NC2)C(=O)OCCOCCOC(=O)c2ccc(-c3c4nc(c(-c5cc(S(=O)(=O)[O-])ccc5F)c5ccc([nH]5)c(-c5cc(S(=O)(=O)[O-])ccc5F)c5nc(c(-c6cc(S(=O)(=O)[O-])ccc6F)c6ccc3[nH]6)C=C5)C=C4)cc2)c2ccccc2C1=O
REMARK SMILES IDX 25 1 24 2 23 3 22 4 21 5 19 6 20 7 8 8 7 9 5 10 6 11 4 13
REMARK SMILES IDX 1 14 2 15 3 16 99 17 98 19 100 20 93 21 97 22 94 23 96 24
REMARK SMILES IDX 95 25 9 26 10 27 11 28 18 29 12 30 16 31 17 32 13 33 15 34
REMARK SMILES IDX 14 35 26 36 27 37 28 38 29 39 30 40 31 41 92 42 32 43 91 44
REMARK SMILES IDX 33 45 34 46 35 47 85 48 36 49 90 50 84 51 86 52 37 53 89 54
REMARK SMILES IDX 83 55 82 56 38 58 70 59 50 60 69 61 51 62 54 63 68 64 87 65
REMARK SMILES IDX 52 66 53 67 67 69 88 70 55 71 39 72 40 73 48 74 41 75 47 76
REMARK SMILES IDX 49 77 46 78 42 79 43 80 44 81 45 82 71 83 72 84 80 85 73 86
REMARK SMILES IDX 79 87 81 88 78 89 74 90 75 91 76 92 77 93 56 94 57 95 65 96
REMARK SMILES IDX 58 97 64 98 66 99 63 100 59 101 60 102 61 103 62 104
REMARK H PARENT 7 12 3 18 86 57 54 68
REMARK Flexibility Score: inf
ROOT
ATOM      1  C   UNL A   1      31.707  31.195  26.493  1.00  0.00     0.202 C 
ENDROOT
BRANCH   1   2
ATOM      2  O   UNL A   1      32.891  30.452  26.215  1.00  0.00    -0.374 OA
BRANCH   2   3
ATOM      3  C   UNL A   1      33.313  29.519  27.207  1.00  0.00     0.202 C 
BRANCH   3   4
ATOM      4  C   UNL A   1      34.173  28.369  26.688  1.00  0.00     0.261 C 
BRANCH   4   5
ATOM      5  O   UNL A   1      33.380  27.171  26.632  1.00  0.00    -0.462 OA
BRANCH   5   6
ATOM      6  C   UNL A   1      33.092  26.719  25.385  1.00  0.00     0.329 C 
ATOM      7  O   UNL A   1      33.755  26.959  24.382  1.00  0.00    -0.250 OA
BRANCH   6   8
ATOM      8  C   UNL A   1      31.753  25.983  25.329  1.00  0.00     0.196 C 
BRANCH   8   9
ATOM      9  N   UNL A   1      31.410  25.085  26.449  1.00  0.00    -0.341 N 
ATOM     10  C   UNL A   1      31.466  23.722  26.569  1.00  0.00     0.244 C 
ATOM     11  O   UNL A   1      30.986  23.228  27.597  1.00  0.00    -0.273 OA
ATOM     12  H   UNL A   1      31.080  25.548  27.253  1.00  0.00     0.164 HD
BRANCH  10  13
ATOM     13  C   UNL A   1      32.190  22.798  25.544  1.00  0.00     0.195 C 
ATOM     14  C   UNL A   1      31.808  21.513  22.186  1.00  0.00     0.169 C 
ATOM     15  N   UNL A   1      32.307  22.473  23.152  1.00  0.00    -0.276 N 
ATOM     16  N   UNL A   1      31.492  22.849  24.247  1.00  0.00    -0.215 NA
ATOM     17  C   UNL A   1      33.574  23.039  22.983  1.00  0.00     0.268 C 
ATOM     18  H   UNL A   1      30.691  22.218  24.286  1.00  0.00     0.149 HD
ATOM     19  C   UNL A   1      34.261  23.438  24.240  1.00  0.00     0.046 A 
ATOM     20  O   UNL A   1      34.184  23.059  21.918  1.00  0.00    -0.268 OA
ATOM     21  C   UNL A   1      33.662  23.135  25.468  1.00  0.00    -0.007 A 
ATOM     22  C   UNL A   1      35.586  23.886  24.188  1.00  0.00     0.014 A 
ATOM     23  C   UNL A   1      34.467  23.097  26.618  1.00  0.00     0.007 A 
ATOM     24  C   UNL A   1      36.353  23.920  25.351  1.00  0.00     0.001 A 
ATOM     25  C   UNL A   1      35.811  23.470  26.553  1.00  0.00     0.000 A 
ENDBRANCH  10  13
ENDBRANCH   8   9
BRANCH   8  26
ATOM     26  C   UNL A   1      30.669  27.060  25.087  1.00  0.00     0.070 C 
BRANCH  26  27
ATOM     27  C   UNL A   1      30.069  27.300  23.690  1.00  0.00    -0.037 C 
ATOM     28  C   UNL A   1      29.742  28.522  23.249  1.00  0.00     0.001 A 
ATOM     29  C   UNL A   1      28.852  26.419  23.485  1.00  0.00     0.174 C 
ATOM     30  C   UNL A   1      30.234  29.291  22.132  1.00  0.00     0.010 A 
ATOM     31  C   UNL A   1      28.261  28.482  23.360  1.00  0.00     0.065 A 
ATOM     32  N   UNL A   1      27.697  27.337  23.587  1.00  0.00    -0.280 NA
ATOM     33  C   UNL A   1      29.465  30.308  21.701  1.00  0.00     0.001 A 
ATOM     34  C   UNL A   1      27.602  29.792  23.192  1.00  0.00     0.028 A 
ATOM     35  C   UNL A   1      28.234  30.668  22.393  1.00  0.00     0.002 A 
ENDBRANCH  26  27
ENDBRANCH   8  26
ENDBRANCH   6   8
ENDBRANCH   5   6
ENDBRANCH   4   5
ENDBRANCH   3   4
ENDBRANCH   2   3
ENDBRANCH   1   2
BRANCH   1  36
ATOM     36  C   UNL A   1      31.877  32.703  26.687  1.00  0.00     0.261 C 
BRANCH  36  37
ATOM     37  O   UNL A   1      32.486  32.993  27.952  1.00  0.00    -0.460 OA
BRANCH  37  38
ATOM     38  C   UNL A   1      33.550  33.828  27.891  1.00  0.00     0.338 C 
ATOM     39  O   UNL A   1      33.533  35.029  27.661  1.00  0.00    -0.246 OA
BRANCH  38  40
ATOM     40  C   UNL A   1      34.735  33.109  28.387  1.00  0.00     0.060 A 
ATOM     41  C   UNL A   1      36.029  33.569  28.139  1.00  0.00     0.016 A 
ATOM     42  C   UNL A   1      34.521  31.929  29.111  1.00  0.00     0.016 A 
ATOM     43  C   UNL A   1      37.111  32.857  28.659  1.00  0.00     0.010 A 
ATOM     44  C   UNL A   1      35.604  31.205  29.600  1.00  0.00     0.010 A 
ATOM     45  C   UNL A   1      36.906  31.674  29.393  1.00  0.00    -0.014 A 
BRANCH  45  46
ATOM     46  C   UNL A   1      38.026  31.040  30.123  1.00  0.00     0.031 A 
ATOM     47  C   UNL A   1      38.408  31.453  31.510  1.00  0.00     0.074 A 
ATOM     48  C   UNL A   1      38.745  30.119  29.456  1.00  0.00     0.049 A 
ATOM     49  N   UNL A   1      39.356  30.972  32.270  1.00  0.00    -0.248 NA
ATOM     50  C   UNL A   1      37.637  32.543  32.126  1.00  0.00     0.031 C 
ATOM     51  C   UNL A   1      38.470  29.694  28.081  1.00  0.00     0.029 A 
ATOM     52  N   UNL A   1      39.845  29.388  29.819  1.00  0.00    -0.354 N 
ATOM     53  C   UNL A   1      39.291  31.683  33.462  1.00  0.00     0.074 A 
ATOM     54  C   UNL A   1      38.234  32.661  33.307  1.00  0.00     0.031 C 
ATOM     55  C   UNL A   1      39.370  28.771  27.721  1.00  0.00     0.029 A 
ATOM     56  C   UNL A   1      40.309  28.567  28.820  1.00  0.00     0.049 A 
ATOM     57  H   UNL A   1      40.261  29.446  30.709  1.00  0.00     0.167 HD
ATOM     58  C   UNL A   1      40.040  31.515  34.579  1.00  0.00     0.034 A 
ATOM     59  C   UNL A   1      41.379  27.747  28.783  1.00  0.00     0.034 A 
ATOM     60  C   UNL A   1      41.105  30.547  34.687  1.00  0.00     0.049 A 
ATOM     61  C   UNL A   1      42.221  27.612  30.022  1.00  0.00     0.074 A 
ATOM     62  C   UNL A   1      41.881  30.253  35.795  1.00  0.00     0.029 A 
ATOM     63  N   UNL A   1      41.560  29.735  33.657  1.00  0.00    -0.354 N 
ATOM     64  N   UNL A   1      42.065  28.197  31.187  1.00  0.00    -0.248 NA
ATOM     65  C   UNL A   1      43.371  26.703  29.956  1.00  0.00     0.031 C 
ATOM     66  C   UNL A   1      42.851  29.326  35.414  1.00  0.00     0.029 A 
ATOM     67  C   UNL A   1      42.635  28.976  34.090  1.00  0.00     0.049 A 
ATOM     68  H   UNL A   1      41.175  29.704  32.751  1.00  0.00     0.167 HD
ATOM     69  C   UNL A   1      43.089  27.716  31.996  1.00  0.00     0.074 A 
ATOM     70  C   UNL A   1      43.840  26.771  31.196  1.00  0.00     0.031 C 
ATOM     71  C   UNL A   1      43.380  28.035  33.283  1.00  0.00     0.034 A 
BRANCH  58  72
ATOM     72  C   UNL A   1      39.742  32.359  35.795  1.00  0.00     0.023 A 
ATOM     73  C   UNL A   1      38.799  31.925  36.748  1.00  0.00     0.031 A 
ATOM     74  C   UNL A   1      40.265  33.658  35.925  1.00  0.00     0.131 A 
ATOM     75  C   UNL A   1      38.383  32.797  37.764  1.00  0.00     0.055 A 
ATOM     76  C   UNL A   1      39.874  34.509  36.960  1.00  0.00     0.041 A 
ATOM     77  F   UNL A   1      41.161  34.122  35.037  1.00  0.00    -0.206 F 
ATOM     78  C   UNL A   1      38.918  34.084  37.877  1.00  0.00     0.022 A 
BRANCH  75  79
ATOM     79  S   UNL A   1      37.081  32.322  38.935  1.00  0.00     0.124 S 
ATOM     80  O   UNL A   1      37.198  30.865  38.935  1.00  0.00    -0.237 OA
ATOM     81  O   UNL A   1      37.518  32.982  40.162  1.00  0.00    -0.237 OA
ATOM     82  O   UNL A   1      35.860  32.846  38.334  1.00  0.00    -0.744 OA
ENDBRANCH  75  79
ENDBRANCH  58  72
BRANCH  59  83
ATOM     83  C   UNL A   1      41.637  26.962  27.543  1.00  0.00     0.023 A 
ATOM     84  C   UNL A   1      41.345  25.586  27.483  1.00  0.00     0.031 A 
ATOM     85  C   UNL A   1      42.316  27.541  26.459  1.00  0.00     0.131 A 
ATOM     86  C   UNL A   1      41.802  24.823  26.402  1.00  0.00     0.055 A 
ATOM     87  C   UNL A   1      42.704  26.791  25.349  1.00  0.00     0.041 A 
ATOM     88  F   UNL A   1      42.633  28.845  26.480  1.00  0.00    -0.206 F 
ATOM     89  C   UNL A   1      42.466  25.420  25.325  1.00  0.00     0.022 A 
BRANCH  86  90
ATOM     90  S   UNL A   1      41.690  23.012  26.429  1.00  0.00     0.124 S 
ATOM     91  O   UNL A   1      42.389  22.646  25.201  1.00  0.00    -0.237 OA
ATOM     92  O   UNL A   1      42.387  22.690  27.672  1.00  0.00    -0.237 OA
ATOM     93  O   UNL A   1      40.254  22.755  26.439  1.00  0.00    -0.744 OA
ENDBRANCH  86  90
ENDBRANCH  59  83
BRANCH  71  94
ATOM     94  C   UNL A   1      44.575  27.381  33.934  1.00  0.00     0.023 A 
ATOM     95  C   UNL A   1      44.400  26.250  34.755  1.00  0.00     0.031 A 
ATOM     96  C   UNL A   1      45.847  27.975  33.882  1.00  0.00     0.131 A 
ATOM     97  C   UNL A   1      45.464  25.785  35.536  1.00  0.00     0.055 A 
ATOM     98  C   UNL A   1      46.919  27.475  34.622  1.00  0.00     0.041 A 
ATOM     99  F   UNL A   1      46.062  29.059  33.119  1.00  0.00    -0.206 F 
ATOM    100  C   UNL A   1      46.726  26.387  35.467  1.00  0.00     0.022 A 
BRANCH  97 101
ATOM    101  S   UNL A   1      45.227  24.449  36.740  1.00  0.00     0.124 S 
ATOM    102  O   UNL A   1      43.953  24.817  37.355  1.00  0.00    -0.237 OA
ATOM    103  O   UNL A   1      45.188  23.268  35.883  1.00  0.00    -0.237 OA
ATOM    104  O   UNL A   1      46.390  24.553  37.614  1.00  0.00    -0.744 OA
ENDBRANCH  97 101
ENDBRANCH  71  94
ENDBRANCH  45  46
ENDBRANCH  38  40
ENDBRANCH  37  38
ENDBRANCH  36  37
ENDBRANCH   1  36
TORSDOF 21
ENDMDL
MODEL 2
REMARK VINA RESULT:     -11.8      1.867      7.501
REMARK SMILES CN1N[C@H](C(=O)N[C@@H](CC2=c3ccccc3=NC2)C(=O)OCCOCCOC(=O)c2ccc(-c3c4nc(c(-c5cc(S(=O)(=O)[O-])ccc5F)c5ccc([nH]5)c(-c5cc(S(=O)(=O)[O-])ccc5F)c5nc(c(-c6cc(S(=O)(=O)[O-])ccc6F)c6ccc3[nH]6)C=C5)C=C4)cc2)c2ccccc2C1=O
REMARK SMILES IDX 25 1 24 2 23 3 22 4 21 5 19 6 20 7 8 8 7 9 5 10 6 11 4 13
REMARK SMILES IDX 1 14 2 15 3 16 99 17 98 19 100 20 93 21 97 22 94 23 96 24
REMARK SMILES IDX 95 25 9 26 10 27 11 28 18 29 12 30 16 31 17 32 13 33 15 34
REMARK SMILES IDX 14 35 26 36 27 37 28 38 29 39 30 40 31 41 92 42 32 43 91 44
REMARK SMILES IDX 33 45 34 46 35 47 85 48 36 49 90 50 84 51 86 52 37 53 89 54
REMARK SMILES IDX 83 55 82 56 38 58 70 59 50 60 69 61 51 62 54 63 68 64 87 65
REMARK SMILES IDX 52 66 53 67 67 69 88 70 55 71 39 72 40 73 48 74 41 75 47 76
REMARK SMILES IDX 49 77 46 78 42 79 43 80 44 81 45 82 71 83 72 84 80 85 73 86
REMARK SMILES IDX 79 87 81 88 78 89 74 90 75 91 76 92 77 93 56 94 57 95 65 96
REMARK SMILES IDX 58 97 64 98 66 99 63 100 59 101 60 102 61 103 62 104
REMARK H PARENT 7 12 3 18 86 57 54 68
REMARK Flexibility Score: inf
ROOT
ATOM      1  C   UNL A   1      31.977  31.620  26.838  1.00  0.00     0.202 C 
ENDROOT
BRANCH   1   2
ATOM      2  O   UNL A   1      32.942  30.915  27.613  1.00  0.00    -0.374 OA
BRANCH   2   3
ATOM      3  C   UNL A   1      33.906  30.146  26.897  1.00  0.00     0.202 C 
BRANCH   3   4
ATOM      4  C   UNL A   1      33.627  28.645  26.849  1.00  0.00     0.261 C 
BRANCH   4   5
ATOM      5  O   UNL A   1      32.345  28.421  26.238  1.00  0.00    -0.462 OA
BRANCH   5   6
ATOM      6  C   UNL A   1      31.530  27.556  26.893  1.00  0.00     0.329 C 
ATOM      7  O   UNL A   1      31.016  27.770  27.986  1.00  0.00    -0.250 OA
BRANCH   6   8
ATOM      8  C   UNL A   1      31.426  26.205  26.185  1.00  0.00     0.196 C 
BRANCH   8   9
ATOM      9  N   UNL A   1      31.360  24.990  27.021  1.00  0.00    -0.341 N 
ATOM     10  C   UNL A   1      32.027  23.797  26.942  1.00  0.00     0.244 C 
ATOM     11  O   UNL A   1      31.669  22.900  27.715  1.00  0.00    -0.273 OA
ATOM     12  H   UNL A   1      30.722  25.047  27.769  1.00  0.00     0.164 HD
BRANCH  10  13
ATOM     13  C   UNL A   1      33.260  23.561  26.020  1.00  0.00     0.195 C 
ATOM     14  C   UNL A   1      36.774  22.729  26.212  1.00  0.00     0.169 C 
ATOM     15  N   UNL A   1      35.373  22.386  26.069  1.00  0.00    -0.276 N 
ATOM     16  N   UNL A   1      34.401  23.088  26.824  1.00  0.00    -0.215 NA
ATOM     17  C   UNL A   1      34.992  21.352  25.208  1.00  0.00     0.268 C 
ATOM     18  H   UNL A   1      34.850  23.896  27.255  1.00  0.00     0.149 HD
ATOM     19  C   UNL A   1      33.634  21.489  24.617  1.00  0.00     0.046 A 
ATOM     20  O   UNL A   1      35.751  20.475  24.806  1.00  0.00    -0.268 OA
ATOM     21  C   UNL A   1      32.898  22.653  24.865  1.00  0.00    -0.007 A 
ATOM     22  C   UNL A   1      33.214  20.579  23.640  1.00  0.00     0.014 A 
ATOM     23  C   UNL A   1      31.853  22.988  23.990  1.00  0.00     0.007 A 
ATOM     24  C   UNL A   1      32.124  20.887  22.827  1.00  0.00     0.001 A 
ATOM     25  C   UNL A   1      31.482  22.116  22.965  1.00  0.00     0.000 A 
ENDBRANCH  10  13
ENDBRANCH   8   9
BRANCH   8  26
ATOM     26  C   UNL A   1      30.232  26.310  25.208  1.00  0.00     0.070 C 
BRANCH  26  27
ATOM     27  C   UNL A   1      30.440  26.609  23.712  1.00  0.00    -0.037 C 
ATOM     28  C   UNL A   1      31.656  26.776  23.175  1.00  0.00     0.001 A 
ATOM     29  C   UNL A   1      29.609  27.808  23.298  1.00  0.00     0.174 C 
ATOM     30  C   UNL A   1      32.352  26.033  22.154  1.00  0.00     0.010 A 
ATOM     31  C   UNL A   1      31.690  28.250  22.990  1.00  0.00     0.065 A 
ATOM     32  N   UNL A   1      30.584  28.909  23.138  1.00  0.00    -0.280 NA
ATOM     33  C   UNL A   1      33.385  26.645  21.545  1.00  0.00     0.001 A 
ATOM     34  C   UNL A   1      33.021  28.790  22.651  1.00  0.00     0.028 A 
ATOM     35  C   UNL A   1      33.831  27.966  21.966  1.00  0.00     0.002 A 
ENDBRANCH  26  27
ENDBRANCH   8  26
ENDBRANCH   6   8
ENDBRANCH   5   6
ENDBRANCH   4   5
ENDBRANCH   3   4
ENDBRANCH   2   3
ENDBRANCH   1   2
BRANCH   1  36
ATOM     36  C   UNL A   1      32.090  33.146  26.829  1.00  0.00     0.261 C 
BRANCH  36  37
ATOM     37  O   UNL A   1      32.198  33.661  28.163  1.00  0.00    -0.460 OA
BRANCH  37  38
ATOM     38  C   UNL A   1      33.224  34.521  28.357  1.00  0.00     0.338 C 
ATOM     39  O   UNL A   1      33.172  35.744  28.357  1.00  0.00    -0.246 OA
BRANCH  38  40
ATOM     40  C   UNL A   1      34.395  33.756  28.813  1.00  0.00     0.060 A 
ATOM     41  C   UNL A   1      35.668  33.976  28.286  1.00  0.00     0.016 A 
ATOM     42  C   UNL A   1      34.187  32.777  29.794  1.00  0.00     0.016 A 
ATOM     43  C   UNL A   1      36.743  33.235  28.780  1.00  0.00     0.010 A 
ATOM     44  C   UNL A   1      35.256  32.018  30.260  1.00  0.00     0.010 A 
ATOM     45  C   UNL A   1      36.544  32.255  29.768  1.00  0.00    -0.014 A 
BRANCH  45  46
ATOM     46  C   UNL A   1      37.701  31.625  30.443  1.00  0.00     0.031 A 
ATOM     47  C   UNL A   1      38.515  30.550  29.794  1.00  0.00     0.074 A 
ATOM     48  C   UNL A   1      37.951  32.009  31.710  1.00  0.00     0.049 A 
ATOM     49  N   UNL A   1      39.561  29.925  30.265  1.00  0.00    -0.248 NA
ATOM     50  C   UNL A   1      38.107  30.115  28.451  1.00  0.00     0.031 C 
ATOM     51  C   UNL A   1      37.174  33.016  32.436  1.00  0.00     0.029 A 
ATOM     52  N   UNL A   1      38.899  31.603  32.610  1.00  0.00    -0.354 N 
ATOM     53  C   UNL A   1      39.954  29.033  29.275  1.00  0.00     0.074 A 
ATOM     54  C   UNL A   1      39.003  29.169  28.190  1.00  0.00     0.031 C 
ATOM     55  C   UNL A   1      37.683  33.157  33.666  1.00  0.00     0.029 A 
ATOM     56  C   UNL A   1      38.793  32.224  33.832  1.00  0.00     0.049 A 
ATOM     57  H   UNL A   1      39.588  30.931  32.403  1.00  0.00     0.167 HD
ATOM     58  C   UNL A   1      41.018  28.194  29.277  1.00  0.00     0.034 A 
ATOM     59  C   UNL A   1      39.502  32.057  34.966  1.00  0.00     0.034 A 
ATOM     60  C   UNL A   1      41.929  28.065  30.390  1.00  0.00     0.049 A 
ATOM     61  C   UNL A   1      40.651  31.087  34.957  1.00  0.00     0.074 A 
ATOM     62  C   UNL A   1      43.075  27.294  30.468  1.00  0.00     0.029 A 
ATOM     63  N   UNL A   1      41.793  28.699  31.617  1.00  0.00    -0.354 N 
ATOM     64  N   UNL A   1      41.090  30.345  33.966  1.00  0.00    -0.248 NA
ATOM     65  C   UNL A   1      41.411  30.935  36.203  1.00  0.00     0.031 C 
ATOM     66  C   UNL A   1      43.584  27.399  31.763  1.00  0.00     0.029 A 
ATOM     67  C   UNL A   1      42.806  28.299  32.473  1.00  0.00     0.049 A 
ATOM     68  H   UNL A   1      41.080  29.340  31.846  1.00  0.00     0.167 HD
ATOM     69  C   UNL A   1      42.186  29.650  34.465  1.00  0.00     0.074 A 
ATOM     70  C   UNL A   1      42.360  30.081  35.837  1.00  0.00     0.031 C 
ATOM     71  C   UNL A   1      42.971  28.735  33.843  1.00  0.00     0.034 A 
BRANCH  58  72
ATOM     72  C   UNL A   1      41.298  27.361  28.049  1.00  0.00     0.023 A 
ATOM     73  C   UNL A   1      41.120  25.964  28.084  1.00  0.00     0.031 A 
ATOM     74  C   UNL A   1      41.892  27.926  26.907  1.00  0.00     0.131 A 
ATOM     75  C   UNL A   1      41.568  25.179  27.013  1.00  0.00     0.055 A 
ATOM     76  C   UNL A   1      42.302  27.142  25.827  1.00  0.00     0.041 A 
ATOM     77  F   UNL A   1      42.090  29.253  26.829  1.00  0.00    -0.206 F 
ATOM     78  C   UNL A   1      42.154  25.760  25.884  1.00  0.00     0.022 A 
BRANCH  75  79
ATOM     79  S   UNL A   1      41.473  23.367  27.071  1.00  0.00     0.124 S 
ATOM     80  O   UNL A   1      42.459  23.050  28.102  1.00  0.00    -0.237 OA
ATOM     81  O   UNL A   1      40.081  23.147  27.451  1.00  0.00    -0.237 OA
ATOM     82  O   UNL A   1      41.834  22.952  25.720  1.00  0.00    -0.744 OA
ENDBRANCH  75  79
ENDBRANCH  58  72
BRANCH  59  83
ATOM     83  C   UNL A   1      39.158  32.888  36.155  1.00  0.00     0.023 A 
ATOM     84  C   UNL A   1      39.681  34.186  36.305  1.00  0.00     0.031 A 
ATOM     85  C   UNL A   1      38.428  32.341  37.222  1.00  0.00     0.131 A 
ATOM     86  C   UNL A   1      39.535  34.859  37.524  1.00  0.00     0.055 A 
ATOM     87  C   UNL A   1      38.222  33.046  38.409  1.00  0.00     0.041 A 
ATOM     88  F   UNL A   1      37.927  31.099  37.132  1.00  0.00    -0.206 F 
ATOM     89  C   UNL A   1      38.794  34.303  38.572  1.00  0.00     0.022 A 
BRANCH  86  90
ATOM     90  S   UNL A   1      40.431  36.405  37.846  1.00  0.00     0.124 S 
ATOM     91  O   UNL A   1      39.410  37.216  38.502  1.00  0.00    -0.237 OA
ATOM     92  O   UNL A   1      41.519  35.944  38.705  1.00  0.00    -0.237 OA
ATOM     93  O   UNL A   1      40.836  36.851  36.518  1.00  0.00    -0.744 OA
ENDBRANCH  86  90
ENDBRANCH  59  83
BRANCH  71  94
ATOM     94  C   UNL A   1      44.097  28.101  34.624  1.00  0.00     0.023 A 
ATOM     95  C   UNL A   1      43.839  27.005  35.469  1.00  0.00     0.031 A 
ATOM     96  C   UNL A   1      45.374  28.685  34.664  1.00  0.00     0.131 A 
ATOM     97  C   UNL A   1      44.824  26.565  36.361  1.00  0.00     0.055 A 
ATOM     98  C   UNL A   1      46.371  28.209  35.516  1.00  0.00     0.041 A 
ATOM     99  F   UNL A   1      45.667  29.737  33.881  1.00  0.00    -0.206 F 
ATOM    100  C   UNL A   1      46.092  27.157  36.383  1.00  0.00     0.022 A 
BRANCH  97 101
ATOM    101  S   UNL A   1      44.468  25.280  37.590  1.00  0.00     0.124 S 
ATOM    102  O   UNL A   1      44.558  26.026  38.844  1.00  0.00    -0.237 OA
ATOM    103  O   UNL A   1      43.122  24.858  37.210  1.00  0.00    -0.237 OA
ATOM    104  O   UNL A   1      45.519  24.291  37.381  1.00  0.00    -0.744 OA
ENDBRANCH  97 101
ENDBRANCH  71  94
ENDBRANCH  45  46
ENDBRANCH  38  40
ENDBRANCH  37  38
ENDBRANCH  36  37
ENDBRANCH   1  36
TORSDOF 21
ENDMDL
MODEL 3
REMARK VINA RESULT:     -11.5      1.159      7.283
REMARK SMILES CN1N[C@H](C(=O)N[C@@H](CC2=c3ccccc3=NC2)C(=O)OCCOCCOC(=O)c2ccc(-c3c4nc(c(-c5cc(S(=O)(=O)[O-])ccc5F)c5ccc([nH]5)c(-c5cc(S(=O)(=O)[O-])ccc5F)c5nc(c(-c6cc(S(=O)(=O)[O-])ccc6F)c6ccc3[nH]6)C=C5)C=C4)cc2)c2ccccc2C1=O
REMARK SMILES IDX 25 1 24 2 23 3 22 4 21 5 19 6 20 7 8 8 7 9 5 10 6 11 4 13
REMARK SMILES IDX 1 14 2 15 3 16 99 17 98 19 100 20 93 21 97 22 94 23 96 24
REMARK SMILES IDX 95 25 9 26 10 27 11 28 18 29 12 30 16 31 17 32 13 33 15 34
REMARK SMILES IDX 14 35 26 36 27 37 28 38 29 39 30 40 31 41 92 42 32 43 91 44
REMARK SMILES IDX 33 45 34 46 35 47 85 48 36 49 90 50 84 51 86 52 37 53 89 54
REMARK SMILES IDX 83 55 82 56 38 58 70 59 50 60 69 61 51 62 54 63 68 64 87 65
REMARK SMILES IDX 52 66 53 67 67 69 88 70 55 71 39 72 40 73 48 74 41 75 47 76
REMARK SMILES IDX 49 77 46 78 42 79 43 80 44 81 45 82 71 83 72 84 80 85 73 86
REMARK SMILES IDX 79 87 81 88 78 89 74 90 75 91 76 92 77 93 56 94 57 95 65 96
REMARK SMILES IDX 58 97 64 98 66 99 63 100 59 101 60 102 61 103 62 104
REMARK H PARENT 7 12 3 18 86 57 54 68
REMARK Flexibility Score: inf
ROOT
ATOM      1  C   UNL A   1      32.192  31.305  26.492  1.00  0.00     0.202 C 
ENDROOT
BRANCH   1   2
ATOM      2  O   UNL A   1      32.178  30.345  27.544  1.00  0.00    -0.374 OA
BRANCH   2   3
ATOM      3  C   UNL A   1      33.113  29.272  27.449  1.00  0.00     0.202 C 
BRANCH   3   4
ATOM      4  C   UNL A   1      34.013  29.307  26.216  1.00  0.00     0.261 C 
BRANCH   4   5
ATOM      5  O   UNL A   1      33.499  28.396  25.229  1.00  0.00    -0.462 OA
BRANCH   5   6
ATOM      6  C   UNL A   1      33.477  27.090  25.596  1.00  0.00     0.329 C 
ATOM      7  O   UNL A   1      34.416  26.489  26.108  1.00  0.00    -0.250 OA
BRANCH   6   8
ATOM      8  C   UNL A   1      32.186  26.389  25.172  1.00  0.00     0.196 C 
BRANCH   8   9
ATOM      9  N   UNL A   1      31.778  25.182  25.916  1.00  0.00    -0.341 N 
ATOM     10  C   UNL A   1      32.217  23.886  25.854  1.00  0.00     0.244 C 
ATOM     11  O   UNL A   1      31.592  23.049  26.518  1.00  0.00    -0.273 OA
ATOM     12  H   UNL A   1      31.062  25.335  26.574  1.00  0.00     0.164 HD
BRANCH  10  13
ATOM     13  C   UNL A   1      33.503  23.449  25.092  1.00  0.00     0.195 C 
ATOM     14  C   UNL A   1      37.104  23.567  25.392  1.00  0.00     0.169 C 
ATOM     15  N   UNL A   1      35.815  22.928  25.569  1.00  0.00    -0.276 N 
ATOM     16  N   UNL A   1      34.690  23.713  25.924  1.00  0.00    -0.215 NA
ATOM     17  C   UNL A   1      35.694  21.544  25.415  1.00  0.00     0.268 C 
ATOM     18  H   UNL A   1      34.940  24.697  25.828  1.00  0.00     0.149 HD
ATOM     19  C   UNL A   1      34.360  21.072  24.957  1.00  0.00     0.046 A 
ATOM     20  O   UNL A   1      36.637  20.759  25.469  1.00  0.00    -0.268 OA
ATOM     21  C   UNL A   1      33.383  22.017  24.620  1.00  0.00    -0.007 A 
ATOM     22  C   UNL A   1      34.179  19.721  24.641  1.00  0.00     0.014 A 
ATOM     23  C   UNL A   1      32.321  21.621  23.791  1.00  0.00     0.007 A 
ATOM     24  C   UNL A   1      33.076  19.327  23.884  1.00  0.00     0.001 A 
ATOM     25  C   UNL A   1      32.182  20.285  23.411  1.00  0.00     0.000 A 
ENDBRANCH  10  13
ENDBRANCH   8   9
BRANCH   8  26
ATOM     26  C   UNL A   1      31.082  27.471  25.158  1.00  0.00     0.070 C 
BRANCH  26  27
ATOM     27  C   UNL A   1      31.012  28.538  24.050  1.00  0.00    -0.037 C 
ATOM     28  C   UNL A   1      29.949  29.337  23.888  1.00  0.00     0.001 A 
ATOM     29  C   UNL A   1      31.297  27.908  22.700  1.00  0.00     0.174 C 
ATOM     30  C   UNL A   1      29.821  30.771  23.968  1.00  0.00     0.010 A 
ATOM     31  C   UNL A   1      29.311  28.731  22.691  1.00  0.00     0.065 A 
ATOM     32  N   UNL A   1      29.982  27.844  22.026  1.00  0.00    -0.280 NA
ATOM     33  C   UNL A   1      28.739  31.324  23.387  1.00  0.00     0.001 A 
ATOM     34  C   UNL A   1      27.952  29.231  22.407  1.00  0.00     0.028 A 
ATOM     35  C   UNL A   1      27.703  30.496  22.784  1.00  0.00     0.002 A 
ENDBRANCH  26  27
ENDBRANCH   8  26
ENDBRANCH   6   8
ENDBRANCH   5   6
ENDBRANCH   4   5
ENDBRANCH   3   4
ENDBRANCH   2   3
ENDBRANCH   1   2
BRANCH   1  36
ATOM     36  C   UNL A   1      32.093  32.775  26.907  1.00  0.00     0.261 C 
BRANCH  36  37
ATOM     37  O   UNL A   1      32.732  32.995  28.172  1.00  0.00    -0.460 OA
BRANCH  37  38
ATOM     38  C   UNL A   1      33.781  33.848  28.137  1.00  0.00     0.338 C 
ATOM     39  O   UNL A   1      33.740  35.063  27.995  1.00  0.00    -0.246 OA
BRANCH  38  40
ATOM     40  C   UNL A   1      34.992  33.115  28.539  1.00  0.00     0.060 A 
ATOM     41  C   UNL A   1      36.271  33.597  28.256  1.00  0.00     0.016 A 
ATOM     42  C   UNL A   1      34.819  31.897  29.209  1.00  0.00     0.016 A 
ATOM     43  C   UNL A   1      37.380  32.868  28.687  1.00  0.00     0.010 A 
ATOM     44  C   UNL A   1      35.928  31.157  29.609  1.00  0.00     0.010 A 
ATOM     45  C   UNL A   1      37.216  31.647  29.366  1.00  0.00    -0.014 A 
BRANCH  45  46
ATOM     46  C   UNL A   1      38.373  30.985  30.011  1.00  0.00     0.031 A 
ATOM     47  C   UNL A   1      39.156  29.908  29.329  1.00  0.00     0.074 A 
ATOM     48  C   UNL A   1      38.650  31.343  31.278  1.00  0.00     0.049 A 
ATOM     49  N   UNL A   1      40.199  29.256  29.771  1.00  0.00    -0.248 NA
ATOM     50  C   UNL A   1      38.717  29.503  27.985  1.00  0.00     0.031 C 
ATOM     51  C   UNL A   1      37.904  32.351  32.035  1.00  0.00     0.029 A 
ATOM     52  N   UNL A   1      39.606  30.904  32.156  1.00  0.00    -0.354 N 
ATOM     53  C   UNL A   1      40.558  28.374  28.759  1.00  0.00     0.074 A 
ATOM     54  C   UNL A   1      39.592  28.546  27.693  1.00  0.00     0.031 C 
ATOM     55  C   UNL A   1      38.436  32.461  33.258  1.00  0.00     0.029 A 
ATOM     56  C   UNL A   1      39.532  31.506  33.389  1.00  0.00     0.049 A 
ATOM     57  H   UNL A   1      40.280  30.225  31.925  1.00  0.00     0.167 HD
ATOM     58  C   UNL A   1      41.608  27.518  28.729  1.00  0.00     0.034 A 
ATOM     59  C   UNL A   1      40.257  31.306  34.508  1.00  0.00     0.034 A 
ATOM     60  C   UNL A   1      42.535  27.353  29.823  1.00  0.00     0.049 A 
ATOM     61  C   UNL A   1      41.389  30.317  34.462  1.00  0.00     0.074 A 
ATOM     62  C   UNL A   1      43.668  26.561  29.868  1.00  0.00     0.029 A 
ATOM     63  N   UNL A   1      42.431  27.968  31.063  1.00  0.00    -0.354 N 
ATOM     64  N   UNL A   1      41.797  29.585  33.452  1.00  0.00    -0.248 NA
ATOM     65  C   UNL A   1      42.167  30.130  35.693  1.00  0.00     0.031 C 
ATOM     66  C   UNL A   1      44.201  26.634  31.156  1.00  0.00     0.029 A 
ATOM     67  C   UNL A   1      43.451  27.536  31.895  1.00  0.00     0.049 A 
ATOM     68  H   UNL A   1      41.734  28.617  31.315  1.00  0.00     0.167 HD
ATOM     69  C   UNL A   1      42.889  28.862  33.920  1.00  0.00     0.074 A 
ATOM     70  C   UNL A   1      43.094  29.266  35.296  1.00  0.00     0.031 C 
ATOM     71  C   UNL A   1      43.647  27.945  33.268  1.00  0.00     0.034 A 
BRANCH  58  72
ATOM     72  C   UNL A   1      41.852  26.701  27.482  1.00  0.00     0.023 A 
ATOM     73  C   UNL A   1      41.585  25.318  27.476  1.00  0.00     0.031 A 
ATOM     74  C   UNL A   1      42.497  27.257  26.364  1.00  0.00     0.131 A 
ATOM     75  C   UNL A   1      41.997  24.534  26.389  1.00  0.00     0.055 A 
ATOM     76  C   UNL A   1      42.872  26.478  25.268  1.00  0.00     0.041 A 
ATOM     77  F   UNL A   1      42.780  28.570  26.324  1.00  0.00    -0.206 F 
ATOM     78  C   UNL A   1      42.635  25.107  25.284  1.00  0.00     0.022 A 
BRANCH  75  79
ATOM     79  S   UNL A   1      41.786  22.731  26.397  1.00  0.00     0.124 S 
ATOM     80  O   UNL A   1      42.443  22.350  25.148  1.00  0.00    -0.237 OA
ATOM     81  O   UNL A   1      42.491  22.347  27.615  1.00  0.00    -0.237 OA
ATOM     82  O   UNL A   1      40.339  22.547  26.417  1.00  0.00    -0.744 OA
ENDBRANCH  75  79
ENDBRANCH  58  72
BRANCH  59  83
ATOM     83  C   UNL A   1      39.948  32.123  35.716  1.00  0.00     0.023 A 
ATOM     84  C   UNL A   1      39.000  31.688  36.662  1.00  0.00     0.031 A 
ATOM     85  C   UNL A   1      40.482  33.414  35.861  1.00  0.00     0.131 A 
ATOM     86  C   UNL A   1      38.558  32.565  37.660  1.00  0.00     0.055 A 
ATOM     87  C   UNL A   1      40.093  34.258  36.902  1.00  0.00     0.041 A 
ATOM     88  F   UNL A   1      41.373  33.880  34.973  1.00  0.00    -0.206 F 
ATOM     89  C   UNL A   1      39.111  33.842  37.796  1.00  0.00     0.022 A 
BRANCH  86  90
ATOM     90  S   UNL A   1      37.144  32.136  38.714  1.00  0.00     0.124 S 
ATOM     91  O   UNL A   1      36.078  32.948  38.135  1.00  0.00    -0.237 OA
ATOM     92  O   UNL A   1      37.033  30.696  38.491  1.00  0.00    -0.237 OA
ATOM     93  O   UNL A   1      37.580  32.524  40.050  1.00  0.00    -0.744 OA
ENDBRANCH  86  90
ENDBRANCH  59  83
BRANCH  71  94
ATOM     94  C   UNL A   1      44.774  27.277  34.019  1.00  0.00     0.023 A 
ATOM     95  C   UNL A   1      44.530  26.109  34.766  1.00  0.00     0.031 A 
ATOM     96  C   UNL A   1      46.034  27.889  34.134  1.00  0.00     0.131 A 
ATOM     97  C   UNL A   1      45.509  25.623  35.640  1.00  0.00     0.055 A 
ATOM     98  C   UNL A   1      47.027  27.370  34.966  1.00  0.00     0.041 A 
ATOM     99  F   UNL A   1      46.313  29.009  33.446  1.00  0.00    -0.206 F 
ATOM    100  C   UNL A   1      46.760  26.243  35.737  1.00  0.00     0.022 A 
BRANCH  97 101
ATOM    101  S   UNL A   1      45.165  24.232  36.752  1.00  0.00     0.124 S 
ATOM    102  O   UNL A   1      44.577  23.253  35.839  1.00  0.00    -0.237 OA
ATOM    103  O   UNL A   1      46.497  23.900  37.249  1.00  0.00    -0.237 OA
ATOM    104  O   UNL A   1      44.247  24.789  37.739  1.00  0.00    -0.744 OA
ENDBRANCH  97 101
ENDBRANCH  71  94
ENDBRANCH  45  46
ENDBRANCH  38  40
ENDBRANCH  37  38
ENDBRANCH  36  37
ENDBRANCH   1  36
TORSDOF 21
ENDMDL
