MODEL 1
REMARK VINA RESULT:     -11.2      0.000      0.000
REMARK SMILES O=C(OCCOCCOC(=O)c1ccnc(Oc2cccc(C(F)(F)F)c2)c1)c1ccc(-c2c3nc(c(-c4cc(S(=O)(=O)[O-])ccc4F)c4ccc([nH]4)c(-c4cc(S(=O)(=O)[O-])ccc4F)c4nc(c(-c5cc(S(=O)(=O)[O-])ccc5F)c5ccc2[nH]5)C=C4)C=C3)cc1
REMARK SMILES IDX 6 1 5 2 4 3 3 4 2 5 1 6 29 7 30 8 91 9 31 10 90 11 32 12
REMARK SMILES IDX 33 13 34 14 84 15 35 16 89 17 83 18 85 19 36 20 88 21 82 22
REMARK SMILES IDX 81 23 37 25 69 26 49 27 68 28 50 29 53 30 67 31 86 32 51 33
REMARK SMILES IDX 52 34 66 36 87 37 54 38 38 39 39 40 47 41 40 42 46 43 48 44
REMARK SMILES IDX 45 45 41 46 42 47 43 48 44 49 70 50 71 51 79 52 72 53 78 54
REMARK SMILES IDX 80 55 77 56 73 57 74 58 75 59 76 60 55 61 56 62 64 63 57 64
REMARK SMILES IDX 63 65 65 66 62 67 58 68 59 69 60 70 61 71 7 72 8 73 9 74
REMARK SMILES IDX 10 75 11 76 12 77 13 78 28 79 14 80 16 81 15 82 17 83 18 84
REMARK SMILES IDX 19 85 27 86 20 87 22 88 21 89 23 90 24 91 25 92 26 93
REMARK H PARENT 85 24 53 35
REMARK Flexibility Score: inf
ROOT
ATOM      1  O   UNL A   1      31.325  30.875  25.606  1.00  0.00    -0.374 OA
ENDROOT
BRANCH   1   2
ATOM      2  C   UNL A   1      31.214  32.055  26.400  1.00  0.00     0.202 C 
BRANCH   2   3
ATOM      3  C   UNL A   1      32.442  32.381  27.259  1.00  0.00     0.261 C 
BRANCH   3   4
ATOM      4  O   UNL A   1      32.426  33.758  27.671  1.00  0.00    -0.460 OA
BRANCH   4   5
ATOM      5  C   UNL A   1      33.335  34.399  28.448  1.00  0.00     0.338 C 
ATOM      6  O   UNL A   1      33.173  35.597  28.678  1.00  0.00    -0.246 OA
BRANCH   5   7
ATOM      7  C   UNL A   1      34.540  33.725  29.020  1.00  0.00     0.060 A 
ATOM      8  C   UNL A   1      35.846  34.159  28.813  1.00  0.00     0.016 A 
ATOM      9  C   UNL A   1      34.338  32.644  29.895  1.00  0.00     0.016 A 
ATOM     10  C   UNL A   1      36.928  33.506  29.372  1.00  0.00     0.010 A 
ATOM     11  C   UNL A   1      35.423  32.020  30.527  1.00  0.00     0.010 A 
ATOM     12  C   UNL A   1      36.727  32.450  30.254  1.00  0.00    -0.014 A 
BRANCH  12  13
ATOM     13  C   UNL A   1      37.938  31.811  30.801  1.00  0.00     0.031 A 
ATOM     14  C   UNL A   1      38.316  32.089  32.221  1.00  0.00     0.074 A 
ATOM     15  C   UNL A   1      38.540  30.845  30.080  1.00  0.00     0.049 A 
ATOM     16  N   UNL A   1      39.301  31.602  32.924  1.00  0.00    -0.248 NA
ATOM     17  C   UNL A   1      37.453  33.028  32.958  1.00  0.00     0.031 C 
ATOM     18  C   UNL A   1      38.134  30.431  28.731  1.00  0.00     0.029 A 
ATOM     19  N   UNL A   1      39.569  29.997  30.387  1.00  0.00    -0.354 N 
ATOM     20  C   UNL A   1      39.184  32.177  34.183  1.00  0.00     0.074 A 
ATOM     21  C   UNL A   1      38.047  33.071  34.139  1.00  0.00     0.031 C 
ATOM     22  C   UNL A   1      38.876  29.380  28.350  1.00  0.00     0.029 A 
ATOM     23  C   UNL A   1      39.866  29.102  29.383  1.00  0.00     0.049 A 
ATOM     24  H   UNL A   1      40.051  30.024  31.245  1.00  0.00     0.167 HD
ATOM     25  C   UNL A   1      39.961  31.968  35.272  1.00  0.00     0.034 A 
ATOM     26  C   UNL A   1      40.853  28.190  29.300  1.00  0.00     0.034 A 
ATOM     27  C   UNL A   1      41.099  31.082  35.259  1.00  0.00     0.049 A 
ATOM     28  C   UNL A   1      41.776  28.067  30.485  1.00  0.00     0.074 A 
ATOM     29  C   UNL A   1      42.042  30.864  36.245  1.00  0.00     0.029 A 
ATOM     30  N   UNL A   1      41.444  30.260  34.190  1.00  0.00    -0.354 N 
ATOM     31  N   UNL A   1      41.722  28.693  31.641  1.00  0.00    -0.248 NA
ATOM     32  C   UNL A   1      42.891  27.125  30.360  1.00  0.00     0.031 C 
ATOM     33  C   UNL A   1      42.985  29.955  35.752  1.00  0.00     0.029 A 
ATOM     34  C   UNL A   1      42.593  29.547  34.486  1.00  0.00     0.049 A 
ATOM     35  H   UNL A   1      40.943  30.196  33.345  1.00  0.00     0.167 HD
ATOM     36  C   UNL A   1      42.794  28.213  32.383  1.00  0.00     0.074 A 
ATOM     37  C   UNL A   1      43.447  27.213  31.560  1.00  0.00     0.031 C 
ATOM     38  C   UNL A   1      43.218  28.568  33.625  1.00  0.00     0.034 A 
BRANCH  25  39
ATOM     39  C   UNL A   1      39.643  32.781  36.501  1.00  0.00     0.023 A 
ATOM     40  C   UNL A   1      38.788  32.299  37.508  1.00  0.00     0.031 A 
ATOM     41  C   UNL A   1      40.128  34.095  36.623  1.00  0.00     0.131 A 
ATOM     42  C   UNL A   1      38.383  33.150  38.550  1.00  0.00     0.055 A 
ATOM     43  C   UNL A   1      39.783  34.910  37.702  1.00  0.00     0.041 A 
ATOM     44  F   UNL A   1      40.921  34.620  35.676  1.00  0.00    -0.206 F 
ATOM     45  C   UNL A   1      38.893  34.444  38.666  1.00  0.00     0.022 A 
BRANCH  42  46
ATOM     46  S   UNL A   1      37.065  32.593  39.666  1.00  0.00     0.124 S 
ATOM     47  O   UNL A   1      37.524  31.252  40.018  1.00  0.00    -0.237 OA
ATOM     48  O   UNL A   1      37.113  33.585  40.734  1.00  0.00    -0.237 OA
ATOM     49  O   UNL A   1      35.867  32.636  38.829  1.00  0.00    -0.744 OA
ENDBRANCH  42  46
ENDBRANCH  25  39
BRANCH  26  50
ATOM     50  C   UNL A   1      41.080  27.409  28.043  1.00  0.00     0.023 A 
ATOM     51  C   UNL A   1      40.799  26.036  27.962  1.00  0.00     0.031 A 
ATOM     52  C   UNL A   1      41.662  28.022  26.916  1.00  0.00     0.131 A 
ATOM     53  C   UNL A   1      41.150  25.314  26.807  1.00  0.00     0.055 A 
ATOM     54  C   UNL A   1      41.945  27.315  25.746  1.00  0.00     0.041 A 
ATOM     55  F   UNL A   1      41.968  29.330  26.932  1.00  0.00    -0.206 F 
ATOM     56  C   UNL A   1      41.707  25.947  25.694  1.00  0.00     0.022 A 
BRANCH  53  57
ATOM     57  S   UNL A   1      40.990  23.506  26.824  1.00  0.00     0.124 S 
ATOM     58  O   UNL A   1      41.941  23.113  25.791  1.00  0.00    -0.237 OA
ATOM     59  O   UNL A   1      41.363  23.182  28.198  1.00  0.00    -0.237 OA
ATOM     60  O   UNL A   1      39.584  23.285  26.494  1.00  0.00    -0.744 OA
ENDBRANCH  53  57
ENDBRANCH  26  50
BRANCH  38  61
ATOM     61  C   UNL A   1      44.427  27.838  34.148  1.00  0.00     0.023 A 
ATOM     62  C   UNL A   1      44.301  26.657  34.899  1.00  0.00     0.031 A 
ATOM     63  C   UNL A   1      45.717  28.349  33.921  1.00  0.00     0.131 A 
ATOM     64  C   UNL A   1      45.439  26.067  35.463  1.00  0.00     0.055 A 
ATOM     65  C   UNL A   1      46.853  27.716  34.424  1.00  0.00     0.041 A 
ATOM     66  F   UNL A   1      45.891  29.474  33.210  1.00  0.00    -0.206 F 
ATOM     67  C   UNL A   1      46.716  26.578  35.215  1.00  0.00     0.022 A 
BRANCH  64  68
ATOM     68  S   UNL A   1      45.216  24.692  36.624  1.00  0.00     0.124 S 
ATOM     69  O   UNL A   1      46.516  24.642  37.286  1.00  0.00    -0.237 OA
ATOM     70  O   UNL A   1      44.101  25.154  37.444  1.00  0.00    -0.237 OA
ATOM     71  O   UNL A   1      44.918  23.556  35.755  1.00  0.00    -0.744 OA
ENDBRANCH  64  68
ENDBRANCH  38  61
ENDBRANCH  12  13
ENDBRANCH   5   7
ENDBRANCH   4   5
ENDBRANCH   3   4
ENDBRANCH   2   3
ENDBRANCH   1   2
BRANCH   1  72
ATOM     72  C   UNL A   1      32.449  30.036  25.892  1.00  0.00     0.202 C 
BRANCH  72  73
ATOM     73  C   UNL A   1      32.663  29.061  24.731  1.00  0.00     0.261 C 
BRANCH  73  74
ATOM     74  O   UNL A   1      32.330  27.739  25.188  1.00  0.00    -0.460 OA
BRANCH  74  75
ATOM     75  C   UNL A   1      31.415  27.089  24.420  1.00  0.00     0.338 C 
ATOM     76  O   UNL A   1      30.201  27.167  24.482  1.00  0.00    -0.246 OA
BRANCH  75  77
ATOM     77  C   UNL A   1      32.142  26.417  23.324  1.00  0.00     0.067 A 
ATOM     78  C   UNL A   1      31.704  26.533  22.007  1.00  0.00     0.036 A 
ATOM     79  C   UNL A   1      33.230  25.598  23.642  1.00  0.00     0.084 A 
ATOM     80  C   UNL A   1      32.369  25.798  21.052  1.00  0.00     0.116 A 
ATOM     81  C   UNL A   1      33.811  24.873  22.615  1.00  0.00     0.220 A 
ATOM     82  N   UNL A   1      33.401  24.974  21.328  1.00  0.00    -0.222 NA
BRANCH  81  83
ATOM     83  O   UNL A   1      34.925  24.083  22.773  1.00  0.00    -0.439 OA
BRANCH  83  84
ATOM     84  C   UNL A   1      34.959  23.151  23.782  1.00  0.00     0.130 A 
ATOM     85  C   UNL A   1      35.969  23.299  24.734  1.00  0.00     0.047 A 
ATOM     86  C   UNL A   1      34.155  22.008  23.783  1.00  0.00     0.060 A 
ATOM     87  C   UNL A   1      36.158  22.324  25.712  1.00  0.00     0.004 A 
ATOM     88  C   UNL A   1      34.340  21.016  24.767  1.00  0.00     0.059 A 
ATOM     89  C   UNL A   1      35.347  21.190  25.732  1.00  0.00     0.013 A 
BRANCH  88  90
ATOM     90  C   UNL A   1      33.498  19.763  24.798  1.00  0.00     0.416 C 
ATOM     91  F   UNL A   1      34.163  18.667  24.347  1.00  0.00    -0.166 F 
ATOM     92  F   UNL A   1      33.054  19.465  26.048  1.00  0.00    -0.166 F 
ATOM     93  F   UNL A   1      32.375  19.860  24.028  1.00  0.00    -0.166 F 
ENDBRANCH  88  90
ENDBRANCH  83  84
ENDBRANCH  81  83
ENDBRANCH  75  77
ENDBRANCH  74  75
ENDBRANCH  73  74
ENDBRANCH  72  73
ENDBRANCH   1  72
TORSDOF 20
ENDMDL
MODEL 2
REMARK VINA RESULT:     -11.0      1.757      7.866
REMARK SMILES O=C(OCCOCCOC(=O)c1ccnc(Oc2cccc(C(F)(F)F)c2)c1)c1ccc(-c2c3nc(c(-c4cc(S(=O)(=O)[O-])ccc4F)c4ccc([nH]4)c(-c4cc(S(=O)(=O)[O-])ccc4F)c4nc(c(-c5cc(S(=O)(=O)[O-])ccc5F)c5ccc2[nH]5)C=C4)C=C3)cc1
REMARK SMILES IDX 6 1 5 2 4 3 3 4 2 5 1 6 29 7 30 8 91 9 31 10 90 11 32 12
REMARK SMILES IDX 33 13 34 14 84 15 35 16 89 17 83 18 85 19 36 20 88 21 82 22
REMARK SMILES IDX 81 23 37 25 69 26 49 27 68 28 50 29 53 30 67 31 86 32 51 33
REMARK SMILES IDX 52 34 66 36 87 37 54 38 38 39 39 40 47 41 40 42 46 43 48 44
REMARK SMILES IDX 45 45 41 46 42 47 43 48 44 49 70 50 71 51 79 52 72 53 78 54
REMARK SMILES IDX 80 55 77 56 73 57 74 58 75 59 76 60 55 61 56 62 64 63 57 64
REMARK SMILES IDX 63 65 65 66 62 67 58 68 59 69 60 70 61 71 7 72 8 73 9 74
REMARK SMILES IDX 10 75 11 76 12 77 13 78 28 79 14 80 16 81 15 82 17 83 18 84
REMARK SMILES IDX 19 85 27 86 20 87 22 88 21 89 23 90 24 91 25 92 26 93
REMARK H PARENT 85 24 53 35
REMARK Flexibility Score: inf
ROOT
ATOM      1  O   UNL A   1      31.383  28.921  22.938  1.00  0.00    -0.374 OA
ENDROOT
BRANCH   1   2
ATOM      2  C   UNL A   1      31.136  29.273  24.299  1.00  0.00     0.202 C 
BRANCH   2   3
ATOM      3  C   UNL A   1      32.373  29.709  25.093  1.00  0.00     0.261 C 
BRANCH   3   4
ATOM      4  O   UNL A   1      31.991  30.423  26.281  1.00  0.00    -0.460 OA
BRANCH   4   5
ATOM      5  C   UNL A   1      32.727  31.327  26.976  1.00  0.00     0.338 C 
ATOM      6  O   UNL A   1      32.406  32.513  26.923  1.00  0.00    -0.246 OA
BRANCH   5   7
ATOM      7  C   UNL A   1      33.926  30.953  27.787  1.00  0.00     0.060 A 
ATOM      8  C   UNL A   1      34.394  29.650  27.926  1.00  0.00     0.016 A 
ATOM      9  C   UNL A   1      34.678  31.987  28.367  1.00  0.00     0.016 A 
ATOM     10  C   UNL A   1      35.514  29.356  28.680  1.00  0.00     0.010 A 
ATOM     11  C   UNL A   1      35.858  31.708  29.072  1.00  0.00     0.010 A 
ATOM     12  C   UNL A   1      36.270  30.381  29.237  1.00  0.00    -0.014 A 
BRANCH  12  13
ATOM     13  C   UNL A   1      37.448  29.974  30.027  1.00  0.00     0.031 A 
ATOM     14  C   UNL A   1      38.548  29.228  29.342  1.00  0.00     0.074 A 
ATOM     15  C   UNL A   1      37.588  30.466  31.274  1.00  0.00     0.049 A 
ATOM     16  N   UNL A   1      39.691  28.819  29.821  1.00  0.00    -0.248 NA
ATOM     17  C   UNL A   1      38.343  28.919  27.917  1.00  0.00     0.031 C 
ATOM     18  C   UNL A   1      36.604  31.317  31.955  1.00  0.00     0.029 A 
ATOM     19  N   UNL A   1      38.623  30.382  32.166  1.00  0.00    -0.354 N 
ATOM     20  C   UNL A   1      40.340  28.199  28.761  1.00  0.00     0.074 A 
ATOM     21  C   UNL A   1      39.452  28.261  27.621  1.00  0.00     0.031 C 
ATOM     22  C   UNL A   1      37.104  31.711  33.136  1.00  0.00     0.029 A 
ATOM     23  C   UNL A   1      38.399  31.073  33.337  1.00  0.00     0.049 A 
ATOM     24  H   UNL A   1      39.447  29.875  31.988  1.00  0.00     0.167 HD
ATOM     25  C   UNL A   1      41.571  27.633  28.753  1.00  0.00     0.034 A 
ATOM     26  C   UNL A   1      39.146  31.146  34.455  1.00  0.00     0.034 A 
ATOM     27  C   UNL A   1      42.411  27.576  29.924  1.00  0.00     0.049 A 
ATOM     28  C   UNL A   1      40.458  30.403  34.455  1.00  0.00     0.074 A 
ATOM     29  C   UNL A   1      43.622  26.933  30.094  1.00  0.00     0.029 A 
ATOM     30  N   UNL A   1      42.115  28.196  31.134  1.00  0.00    -0.354 N 
ATOM     31  N   UNL A   1      41.022  29.726  33.478  1.00  0.00    -0.248 NA
ATOM     32  C   UNL A   1      41.231  30.426  35.699  1.00  0.00     0.031 C 
ATOM     33  C   UNL A   1      44.030  27.118  31.420  1.00  0.00     0.029 A 
ATOM     34  C   UNL A   1      43.113  27.938  32.060  1.00  0.00     0.049 A 
ATOM     35  H   UNL A   1      41.313  28.739  31.307  1.00  0.00     0.167 HD
ATOM     36  C   UNL A   1      42.222  29.249  33.991  1.00  0.00     0.074 A 
ATOM     37  C   UNL A   1      42.317  29.755  35.347  1.00  0.00     0.031 C 
ATOM     38  C   UNL A   1      43.159  28.454  33.410  1.00  0.00     0.034 A 
BRANCH  25  39
ATOM     39  C   UNL A   1      42.005  26.968  27.471  1.00  0.00     0.023 A 
ATOM     40  C   UNL A   1      41.945  25.573  27.304  1.00  0.00     0.031 A 
ATOM     41  C   UNL A   1      42.574  27.731  26.438  1.00  0.00     0.131 A 
ATOM     42  C   UNL A   1      42.514  24.979  26.165  1.00  0.00     0.055 A 
ATOM     43  C   UNL A   1      43.069  27.141  25.273  1.00  0.00     0.041 A 
ATOM     44  F   UNL A   1      42.689  29.064  26.556  1.00  0.00    -0.206 F 
ATOM     45  C   UNL A   1      43.055  25.756  25.138  1.00  0.00     0.022 A 
BRANCH  42  46
ATOM     46  S   UNL A   1      42.675  23.172  26.113  1.00  0.00     0.124 S 
ATOM     47  O   UNL A   1      41.395  22.747  26.675  1.00  0.00    -0.237 OA
ATOM     48  O   UNL A   1      42.867  22.911  24.692  1.00  0.00    -0.237 OA
ATOM     49  O   UNL A   1      43.838  22.908  26.959  1.00  0.00    -0.744 OA
ENDBRANCH  42  46
ENDBRANCH  25  39
BRANCH  26  50
ATOM     50  C   UNL A   1      38.642  31.850  35.676  1.00  0.00     0.023 A 
ATOM     51  C   UNL A   1      38.096  31.149  36.763  1.00  0.00     0.031 A 
ATOM     52  C   UNL A   1      38.629  33.257  35.736  1.00  0.00     0.131 A 
ATOM     53  C   UNL A   1      37.514  31.854  37.832  1.00  0.00     0.055 A 
ATOM     54  C   UNL A   1      38.113  33.952  36.831  1.00  0.00     0.041 A 
ATOM     55  F   UNL A   1      39.123  33.988  34.723  1.00  0.00    -0.206 F 
ATOM     56  C   UNL A   1      37.532  33.250  37.880  1.00  0.00     0.022 A 
BRANCH  53  57
ATOM     57  S   UNL A   1      36.612  30.925  39.104  1.00  0.00     0.124 S 
ATOM     58  O   UNL A   1      36.283  29.693  38.396  1.00  0.00    -0.237 OA
ATOM     59  O   UNL A   1      37.612  30.811  40.161  1.00  0.00    -0.237 OA
ATOM     60  O   UNL A   1      35.475  31.788  39.416  1.00  0.00    -0.744 OA
ENDBRANCH  53  57
ENDBRANCH  26  50
BRANCH  38  61
ATOM     61  C   UNL A   1      44.363  28.122  34.251  1.00  0.00     0.023 A 
ATOM     62  C   UNL A   1      44.430  26.931  34.994  1.00  0.00     0.031 A 
ATOM     63  C   UNL A   1      45.439  29.022  34.335  1.00  0.00     0.131 A 
ATOM     64  C   UNL A   1      45.516  26.708  35.851  1.00  0.00     0.055 A 
ATOM     65  C   UNL A   1      46.551  28.759  35.134  1.00  0.00     0.041 A 
ATOM     66  F   UNL A   1      45.423  30.174  33.644  1.00  0.00    -0.206 F 
ATOM     67  C   UNL A   1      46.586  27.605  35.912  1.00  0.00     0.022 A 
BRANCH  64  68
ATOM     68  S   UNL A   1      45.453  25.286  36.974  1.00  0.00     0.124 S 
ATOM     69  O   UNL A   1      45.411  24.165  36.041  1.00  0.00    -0.237 OA
ATOM     70  O   UNL A   1      46.689  25.435  37.735  1.00  0.00    -0.237 OA
ATOM     71  O   UNL A   1      44.226  25.506  37.736  1.00  0.00    -0.744 OA
ENDBRANCH  64  68
ENDBRANCH  38  61
ENDBRANCH  12  13
ENDBRANCH   5   7
ENDBRANCH   4   5
ENDBRANCH   3   4
ENDBRANCH   2   3
ENDBRANCH   1   2
BRANCH   1  72
ATOM     72  C   UNL A   1      30.703  27.753  22.464  1.00  0.00     0.202 C 
BRANCH  72  73
ATOM     73  C   UNL A   1      31.197  26.529  23.241  1.00  0.00     0.261 C 
BRANCH  73  74
ATOM     74  O   UNL A   1      31.504  25.491  22.293  1.00  0.00    -0.460 OA
BRANCH  74  75
ATOM     75  C   UNL A   1      32.831  25.233  22.150  1.00  0.00     0.338 C 
ATOM     76  O   UNL A   1      33.626  25.800  21.421  1.00  0.00    -0.246 OA
BRANCH  75  77
ATOM     77  C   UNL A   1      33.219  24.269  23.201  1.00  0.00     0.067 A 
ATOM     78  C   UNL A   1      34.418  24.421  23.892  1.00  0.00     0.036 A 
ATOM     79  C   UNL A   1      32.399  23.160  23.431  1.00  0.00     0.084 A 
ATOM     80  C   UNL A   1      34.763  23.430  24.784  1.00  0.00     0.116 A 
ATOM     81  C   UNL A   1      32.850  22.203  24.324  1.00  0.00     0.220 A 
ATOM     82  N   UNL A   1      34.012  22.332  25.008  1.00  0.00    -0.222 NA
BRANCH  81  83
ATOM     83  O   UNL A   1      32.118  21.098  24.694  1.00  0.00    -0.439 OA
BRANCH  83  84
ATOM     84  C   UNL A   1      32.453  19.864  24.194  1.00  0.00     0.130 A 
ATOM     85  C   UNL A   1      32.270  19.674  22.824  1.00  0.00     0.047 A 
ATOM     86  C   UNL A   1      32.790  18.782  25.014  1.00  0.00     0.060 A 
ATOM     87  C   UNL A   1      32.457  18.413  22.260  1.00  0.00     0.004 A 
ATOM     88  C   UNL A   1      32.979  17.504  24.452  1.00  0.00     0.059 A 
ATOM     89  C   UNL A   1      32.813  17.333  23.068  1.00  0.00     0.013 A 
BRANCH  88  90
ATOM     90  C   UNL A   1      33.335  16.309  25.304  1.00  0.00     0.416 C 
ATOM     91  F   UNL A   1      33.166  15.126  24.656  1.00  0.00    -0.166 F 
ATOM     92  F   UNL A   1      34.625  16.339  25.731  1.00  0.00    -0.166 F 
ATOM     93  F   UNL A   1      32.580  16.223  26.438  1.00  0.00    -0.166 F 
ENDBRANCH  88  90
ENDBRANCH  83  84
ENDBRANCH  81  83
ENDBRANCH  75  77
ENDBRANCH  74  75
ENDBRANCH  73  74
ENDBRANCH  72  73
ENDBRANCH   1  72
TORSDOF 20
ENDMDL
MODEL 3
REMARK VINA RESULT:     -10.9      7.090     13.953
REMARK SMILES O=C(OCCOCCOC(=O)c1ccnc(Oc2cccc(C(F)(F)F)c2)c1)c1ccc(-c2c3nc(c(-c4cc(S(=O)(=O)[O-])ccc4F)c4ccc([nH]4)c(-c4cc(S(=O)(=O)[O-])ccc4F)c4nc(c(-c5cc(S(=O)(=O)[O-])ccc5F)c5ccc2[nH]5)C=C4)C=C3)cc1
REMARK SMILES IDX 6 1 5 2 4 3 3 4 2 5 1 6 29 7 30 8 91 9 31 10 90 11 32 12
REMARK SMILES IDX 33 13 34 14 84 15 35 16 89 17 83 18 85 19 36 20 88 21 82 22
REMARK SMILES IDX 81 23 37 25 69 26 49 27 68 28 50 29 53 30 67 31 86 32 51 33
REMARK SMILES IDX 52 34 66 36 87 37 54 38 38 39 39 40 47 41 40 42 46 43 48 44
REMARK SMILES IDX 45 45 41 46 42 47 43 48 44 49 70 50 71 51 79 52 72 53 78 54
REMARK SMILES IDX 80 55 77 56 73 57 74 58 75 59 76 60 55 61 56 62 64 63 57 64
REMARK SMILES IDX 63 65 65 66 62 67 58 68 59 69 60 70 61 71 7 72 8 73 9 74
REMARK SMILES IDX 10 75 11 76 12 77 13 78 28 79 14 80 16 81 15 82 17 83 18 84
REMARK SMILES IDX 19 85 27 86 20 87 22 88 21 89 23 90 24 91 25 92 26 93
REMARK H PARENT 85 24 53 35
REMARK Flexibility Score: inf
ROOT
ATOM      1  O   UNL A   1      46.623  22.966  39.909  1.00  0.00    -0.374 OA
ENDROOT
BRANCH   1   2
ATOM      2  C   UNL A   1      47.569  22.892  38.843  1.00  0.00     0.202 C 
BRANCH   2   3
ATOM      3  C   UNL A   1      48.111  24.243  38.359  1.00  0.00     0.261 C 
BRANCH   3   4
ATOM      4  O   UNL A   1      47.088  24.989  37.677  1.00  0.00    -0.460 OA
BRANCH   4   5
ATOM      5  C   UNL A   1      47.234  25.791  36.592  1.00  0.00     0.338 C 
ATOM      6  O   UNL A   1      48.368  26.135  36.262  1.00  0.00    -0.246 OA
BRANCH   5   7
ATOM      7  C   UNL A   1      46.079  26.296  35.790  1.00  0.00     0.060 A 
ATOM      8  C   UNL A   1      44.823  25.697  35.773  1.00  0.00     0.016 A 
ATOM      9  C   UNL A   1      46.242  27.499  35.083  1.00  0.00     0.016 A 
ATOM     10  C   UNL A   1      43.782  26.208  35.021  1.00  0.00     0.010 A 
ATOM     11  C   UNL A   1      45.172  28.067  34.376  1.00  0.00     0.010 A 
ATOM     12  C   UNL A   1      43.938  27.409  34.338  1.00  0.00    -0.014 A 
BRANCH  12  13
ATOM     13  C   UNL A   1      42.776  27.878  33.560  1.00  0.00     0.031 A 
ATOM     14  C   UNL A   1      41.821  28.832  34.203  1.00  0.00     0.074 A 
ATOM     15  C   UNL A   1      42.728  27.601  32.242  1.00  0.00     0.049 A 
ATOM     16  N   UNL A   1      40.767  29.413  33.697  1.00  0.00    -0.248 NA
ATOM     17  C   UNL A   1      42.102  29.200  35.601  1.00  0.00     0.031 C 
ATOM     18  C   UNL A   1      43.711  26.781  31.522  1.00  0.00     0.029 A 
ATOM     19  N   UNL A   1      41.869  28.019  31.262  1.00  0.00    -0.354 N 
ATOM     20  C   UNL A   1      40.255  30.209  34.713  1.00  0.00     0.074 A 
ATOM     21  C   UNL A   1      41.097  30.016  35.873  1.00  0.00     0.031 C 
ATOM     22  C   UNL A   1      43.421  26.795  30.212  1.00  0.00     0.029 A 
ATOM     23  C   UNL A   1      42.190  27.547  30.009  1.00  0.00     0.049 A 
ATOM     24  H   UNL A   1      41.095  28.601  31.437  1.00  0.00     0.167 HD
ATOM     25  C   UNL A   1      39.176  31.028  34.668  1.00  0.00     0.034 A 
ATOM     26  C   UNL A   1      41.535  27.680  28.839  1.00  0.00     0.034 A 
ATOM     27  C   UNL A   1      38.353  31.169  33.492  1.00  0.00     0.049 A 
ATOM     28  C   UNL A   1      40.270  28.500  28.850  1.00  0.00     0.074 A 
ATOM     29  C   UNL A   1      37.169  31.864  33.339  1.00  0.00     0.029 A 
ATOM     30  N   UNL A   1      38.641  30.595  32.257  1.00  0.00    -0.354 N 
ATOM     31  N   UNL A   1      39.730  29.170  29.846  1.00  0.00    -0.248 NA
ATOM     32  C   UNL A   1      39.523  28.582  27.592  1.00  0.00     0.031 C 
ATOM     33  C   UNL A   1      36.714  31.665  32.030  1.00  0.00     0.029 A 
ATOM     34  C   UNL A   1      37.650  30.907  31.342  1.00  0.00     0.049 A 
ATOM     35  H   UNL A   1      39.435  30.047  32.063  1.00  0.00     0.167 HD
ATOM     36  C   UNL A   1      38.582  29.759  29.328  1.00  0.00     0.074 A 
ATOM     37  C   UNL A   1      38.537  29.401  27.924  1.00  0.00     0.031 C 
ATOM     38  C   UNL A   1      37.639  30.514  29.950  1.00  0.00     0.034 A 
BRANCH  25  39
ATOM     39  C   UNL A   1      38.803  31.732  35.948  1.00  0.00     0.023 A 
ATOM     40  C   UNL A   1      38.127  31.069  36.988  1.00  0.00     0.031 A 
ATOM     41  C   UNL A   1      39.043  33.109  36.091  1.00  0.00     0.131 A 
ATOM     42  C   UNL A   1      37.648  31.799  38.088  1.00  0.00     0.055 A 
ATOM     43  C   UNL A   1      38.632  33.815  37.224  1.00  0.00     0.041 A 
ATOM     44  F   UNL A   1      39.655  33.801  35.117  1.00  0.00    -0.206 F 
ATOM     45  C   UNL A   1      37.916  33.163  38.224  1.00  0.00     0.022 A 
BRANCH  42  46
ATOM     46  S   UNL A   1      36.540  30.974  39.264  1.00  0.00     0.124 S 
ATOM     47  O   UNL A   1      36.230  29.734  38.556  1.00  0.00    -0.237 OA
ATOM     48  O   UNL A   1      37.378  30.840  40.450  1.00  0.00    -0.237 OA
ATOM     49  O   UNL A   1      35.421  31.906  39.393  1.00  0.00    -0.744 OA
ENDBRANCH  42  46
ENDBRANCH  25  39
BRANCH  26  50
ATOM     50  C   UNL A   1      41.993  26.960  27.611  1.00  0.00     0.023 A 
ATOM     51  C   UNL A   1      41.823  25.575  27.456  1.00  0.00     0.031 A 
ATOM     52  C   UNL A   1      42.688  27.647  26.596  1.00  0.00     0.131 A 
ATOM     53  C   UNL A   1      42.385  24.917  26.348  1.00  0.00     0.055 A 
ATOM     54  C   UNL A   1      43.184  27.000  25.462  1.00  0.00     0.041 A 
ATOM     55  F   UNL A   1      42.898  28.970  26.688  1.00  0.00    -0.206 F 
ATOM     56  C   UNL A   1      43.050  25.622  25.343  1.00  0.00     0.022 A 
BRANCH  53  57
ATOM     57  S   UNL A   1      42.349  23.102  26.297  1.00  0.00     0.124 S 
ATOM     58  O   UNL A   1      43.415  22.757  27.231  1.00  0.00    -0.237 OA
ATOM     59  O   UNL A   1      40.989  22.814  26.741  1.00  0.00    -0.237 OA
ATOM     60  O   UNL A   1      42.623  22.795  24.896  1.00  0.00    -0.744 OA
ENDBRANCH  53  57
ENDBRANCH  26  50
BRANCH  38  61
ATOM     61  C   UNL A   1      36.508  31.009  29.087  1.00  0.00     0.023 A 
ATOM     62  C   UNL A   1      35.542  30.128  28.572  1.00  0.00     0.031 A 
ATOM     63  C   UNL A   1      36.417  32.370  28.749  1.00  0.00     0.131 A 
ATOM     64  C   UNL A   1      34.570  30.605  27.684  1.00  0.00     0.055 A 
ATOM     65  C   UNL A   1      35.403  32.851  27.922  1.00  0.00     0.041 A 
ATOM     66  F   UNL A   1      37.315  33.252  29.215  1.00  0.00    -0.206 F 
ATOM     67  C   UNL A   1      34.483  31.964  27.370  1.00  0.00     0.022 A 
BRANCH  64  68
ATOM     68  S   UNL A   1      33.496  29.405  26.850  1.00  0.00     0.124 S 
ATOM     69  O   UNL A   1      32.516  30.274  26.205  1.00  0.00    -0.237 OA
ATOM     70  O   UNL A   1      34.426  28.721  25.958  1.00  0.00    -0.237 OA
ATOM     71  O   UNL A   1      32.977  28.591  27.947  1.00  0.00    -0.744 OA
ENDBRANCH  64  68
ENDBRANCH  38  61
ENDBRANCH  12  13
ENDBRANCH   5   7
ENDBRANCH   4   5
ENDBRANCH   3   4
ENDBRANCH   2   3
ENDBRANCH   1   2
BRANCH   1  72
ATOM     72  C   UNL A   1      45.743  21.843  40.037  1.00  0.00     0.202 C 
BRANCH  72  73
ATOM     73  C   UNL A   1      46.520  20.556  39.749  1.00  0.00     0.261 C 
BRANCH  73  74
ATOM     74  O   UNL A   1      45.743  19.446  40.233  1.00  0.00    -0.460 OA
BRANCH  74  75
ATOM     75  C   UNL A   1      46.240  18.223  39.905  1.00  0.00     0.338 C 
ATOM     76  O   UNL A   1      47.402  17.923  39.694  1.00  0.00    -0.246 OA
BRANCH  75  77
ATOM     77  C   UNL A   1      45.149  17.238  40.058  1.00  0.00     0.067 A 
ATOM     78  C   UNL A   1      44.647  16.562  38.949  1.00  0.00     0.036 A 
ATOM     79  C   UNL A   1      44.579  17.057  41.322  1.00  0.00     0.084 A 
ATOM     80  C   UNL A   1      43.563  15.736  39.151  1.00  0.00     0.116 A 
ATOM     81  C   UNL A   1      43.472  16.231  41.415  1.00  0.00     0.220 A 
ATOM     82  N   UNL A   1      42.969  15.563  40.349  1.00  0.00    -0.222 NA
BRANCH  81  83
ATOM     83  O   UNL A   1      42.853  15.913  42.601  1.00  0.00    -0.439 OA
BRANCH  83  84
ATOM     84  C   UNL A   1      43.182  14.746  43.247  1.00  0.00     0.130 A 
ATOM     85  C   UNL A   1      44.372  14.750  43.977  1.00  0.00     0.047 A 
ATOM     86  C   UNL A   1      42.479  13.553  43.057  1.00  0.00     0.060 A 
ATOM     87  C   UNL A   1      44.846  13.571  44.550  1.00  0.00     0.004 A 
ATOM     88  C   UNL A   1      42.953  12.356  43.631  1.00  0.00     0.059 A 
ATOM     89  C   UNL A   1      44.140  12.380  44.381  1.00  0.00     0.013 A 
BRANCH  88  90
ATOM     90  C   UNL A   1      42.228  11.045  43.442  1.00  0.00     0.416 C 
ATOM     91  F   UNL A   1      42.491  10.147  44.427  1.00  0.00    -0.166 F 
ATOM     92  F   UNL A   1      40.877  11.198  43.404  1.00  0.00    -0.166 F 
ATOM     93  F   UNL A   1      42.555  10.422  42.273  1.00  0.00    -0.166 F 
ENDBRANCH  88  90
ENDBRANCH  83  84
ENDBRANCH  81  83
ENDBRANCH  75  77
ENDBRANCH  74  75
ENDBRANCH  73  74
ENDBRANCH  72  73
ENDBRANCH   1  72
TORSDOF 20
ENDMDL
