MODEL 1
REMARK VINA RESULT:      -9.4      0.000      0.000
REMARK SMILES COc1ccc(-c2nc(NCC(=O)OCCOCCOC(=O)c3ccc(-c4c5nc(c(-c6cc(S(=O)(=O)[O-])ccc6F)c6ccc([nH]6)c(-c6cc(S(=O)(=O)[O-])ccc6F)c6nc(c(-c7cc(S(=O)(=O)[O-])ccc7F)c7ccc4[nH]7)C=C6)C=C5)cc3)sc2-c2ccc(OC)cc2)cc1
REMARK SMILES IDX 16 1 15 2 14 3 12 4 13 5 11 6 10 7 9 9 7 10 8 11 87 12 86 13
REMARK SMILES IDX 6 14 3 15 4 16 97 17 5 18 96 19 2 20 1 21 88 22 89 23 95 24
REMARK SMILES IDX 90 25 94 26 91 27 92 28 93 29 17 30 18 31 19 32 20 33 21 34
REMARK SMILES IDX 22 35 23 36 24 37 85 38 25 39 84 40 26 41 27 42 28 43 78 44
REMARK SMILES IDX 29 45 83 46 77 47 79 48 30 49 82 50 76 51 75 52 31 54 63 55
REMARK SMILES IDX 43 56 62 57 44 58 47 59 61 60 80 61 45 62 46 63 60 65 81 66
REMARK SMILES IDX 48 67 32 68 33 69 41 70 34 71 40 72 42 73 39 74 35 75 36 76
REMARK SMILES IDX 37 77 38 78 64 79 65 80 73 81 66 82 72 83 74 84 71 85 67 86
REMARK SMILES IDX 68 87 69 88 70 89 49 90 50 91 58 92 51 93 57 94 59 95 56 96
REMARK SMILES IDX 52 97 53 98 54 99 55 100
REMARK H PARENT 10 8 79 53 47 64
REMARK Flexibility Score: inf
ROOT
ATOM      1  C   UNL A   1      33.655  35.380  32.596  1.00  0.00     0.202 C 
ENDROOT
BRANCH   1   2
ATOM      2  C   UNL A   1      32.676  36.250  31.803  1.00  0.00     0.261 C 
BRANCH   2   3
ATOM      3  O   UNL A   1      33.318  36.802  30.643  1.00  0.00    -0.462 OA
BRANCH   3   4
ATOM      4  C   UNL A   1      33.051  36.188  29.461  1.00  0.00     0.325 C 
ATOM      5  O   UNL A   1      32.135  36.493  28.703  1.00  0.00    -0.250 OA
BRANCH   4   6
ATOM      6  C   UNL A   1      34.089  35.137  29.083  1.00  0.00     0.238 C 
BRANCH   6   7
ATOM      7  N   UNL A   1      33.769  34.322  27.917  1.00  0.00    -0.351 N 
ATOM      8  H   UNL A   1      33.413  34.778  27.121  1.00  0.00     0.163 HD
BRANCH   7   9
ATOM      9  C   UNL A   1      33.927  32.985  27.857  1.00  0.00     0.184 A 
ATOM     10  C   UNL A   1      34.945  31.031  28.120  1.00  0.00     0.091 A 
ATOM     11  N   UNL A   1      34.972  32.392  28.390  1.00  0.00    -0.220 NA
ATOM     12  C   UNL A   1      33.821  30.591  27.441  1.00  0.00     0.064 A 
ATOM     13  S   UNL A   1      32.809  31.925  27.096  1.00  0.00    -0.096 S 
BRANCH  10  14
ATOM     14  C   UNL A   1      36.028  30.147  28.530  1.00  0.00     0.002 A 
ATOM     15  C   UNL A   1      38.229  28.605  29.360  1.00  0.00     0.118 A 
ATOM     16  C   UNL A   1      37.252  28.990  30.279  1.00  0.00     0.047 A 
ATOM     17  C   UNL A   1      38.078  28.947  28.016  1.00  0.00     0.047 A 
ATOM     18  C   UNL A   1      36.161  29.760  29.870  1.00  0.00     0.014 A 
ATOM     19  C   UNL A   1      36.977  29.710  27.601  1.00  0.00     0.014 A 
BRANCH  15  20
ATOM     20  O   UNL A   1      39.260  27.872  29.883  1.00  0.00    -0.497 OA
ATOM     21  C   UNL A   1      39.931  27.016  28.966  1.00  0.00     0.278 C 
ENDBRANCH  15  20
ENDBRANCH  10  14
BRANCH  12  22
ATOM     22  C   UNL A   1      33.391  29.254  27.049  1.00  0.00    -0.006 A 
ATOM     23  C   UNL A   1      32.177  28.728  27.505  1.00  0.00     0.013 A 
ATOM     24  C   UNL A   1      34.196  28.480  26.208  1.00  0.00     0.013 A 
ATOM     25  C   UNL A   1      31.784  27.444  27.128  1.00  0.00     0.047 A 
ATOM     26  C   UNL A   1      33.801  27.193  25.832  1.00  0.00     0.047 A 
ATOM     27  C   UNL A   1      32.592  26.670  26.292  1.00  0.00     0.118 A 
BRANCH  27  28
ATOM     28  O   UNL A   1      32.093  25.430  26.002  1.00  0.00    -0.497 OA
ATOM     29  C   UNL A   1      30.699  25.357  25.727  1.00  0.00     0.278 C 
ENDBRANCH  27  28
ENDBRANCH  12  22
ENDBRANCH   7   9
ENDBRANCH   6   7
ENDBRANCH   4   6
ENDBRANCH   3   4
ENDBRANCH   2   3
ENDBRANCH   1   2
BRANCH   1  30
ATOM     30  O   UNL A   1      33.533  33.967  32.406  1.00  0.00    -0.374 OA
BRANCH  30  31
ATOM     31  C   UNL A   1      34.467  33.126  33.082  1.00  0.00     0.202 C 
BRANCH  31  32
ATOM     32  C   UNL A   1      35.781  32.803  32.358  1.00  0.00     0.261 C 
BRANCH  32  33
ATOM     33  O   UNL A   1      36.417  31.613  32.854  1.00  0.00    -0.460 OA
BRANCH  33  34
ATOM     34  C   UNL A   1      37.284  31.823  33.875  1.00  0.00     0.338 C 
ATOM     35  O   UNL A   1      37.023  32.326  34.962  1.00  0.00    -0.246 OA
BRANCH  34  36
ATOM     36  C   UNL A   1      38.588  31.194  33.594  1.00  0.00     0.060 A 
ATOM     37  C   UNL A   1      38.617  29.798  33.488  1.00  0.00     0.016 A 
ATOM     38  C   UNL A   1      39.772  31.933  33.517  1.00  0.00     0.016 A 
ATOM     39  C   UNL A   1      39.832  29.130  33.355  1.00  0.00     0.010 A 
ATOM     40  C   UNL A   1      40.993  31.259  33.391  1.00  0.00     0.010 A 
ATOM     41  C   UNL A   1      41.033  29.853  33.342  1.00  0.00    -0.014 A 
BRANCH  41  42
ATOM     42  C   UNL A   1      42.322  29.117  33.413  1.00  0.00     0.031 A 
ATOM     43  C   UNL A   1      43.006  28.709  32.136  1.00  0.00     0.074 A 
ATOM     44  C   UNL A   1      42.901  28.863  34.600  1.00  0.00     0.049 A 
ATOM     45  N   UNL A   1      44.132  28.067  31.964  1.00  0.00    -0.248 NA
ATOM     46  C   UNL A   1      42.324  29.075  30.884  1.00  0.00     0.031 C 
ATOM     47  C   UNL A   1      42.357  29.246  35.902  1.00  0.00     0.029 A 
ATOM     48  N   UNL A   1      44.078  28.224  34.903  1.00  0.00    -0.354 N 
ATOM     49  C   UNL A   1      44.299  27.952  30.588  1.00  0.00     0.074 A 
ATOM     50  C   UNL A   1      43.134  28.556  29.974  1.00  0.00     0.031 C 
ATOM     51  C   UNL A   1      43.197  28.830  36.865  1.00  0.00     0.029 A 
ATOM     52  C   UNL A   1      44.320  28.122  36.253  1.00  0.00     0.049 A 
ATOM     53  H   UNL A   1      44.690  27.870  34.218  1.00  0.00     0.167 HD
ATOM     54  C   UNL A   1      45.332  27.405  29.900  1.00  0.00     0.034 A 
ATOM     55  C   UNL A   1      45.322  27.512  36.919  1.00  0.00     0.034 A 
ATOM     56  C   UNL A   1      46.482  26.796  30.524  1.00  0.00     0.049 A 
ATOM     57  C   UNL A   1      46.420  26.836  36.133  1.00  0.00     0.074 A 
ATOM     58  C   UNL A   1      47.590  26.223  29.921  1.00  0.00     0.029 A 
ATOM     59  N   UNL A   1      46.669  26.667  31.895  1.00  0.00    -0.354 N 
ATOM     60  N   UNL A   1      46.570  26.744  34.831  1.00  0.00    -0.248 NA
ATOM     61  C   UNL A   1      47.489  26.192  36.907  1.00  0.00     0.031 C 
ATOM     62  C   UNL A   1      48.407  25.686  30.922  1.00  0.00     0.029 A 
ATOM     63  C   UNL A   1      47.854  25.993  32.154  1.00  0.00     0.049 A 
ATOM     64  H   UNL A   1      46.051  27.004  32.583  1.00  0.00     0.167 HD
ATOM     65  C   UNL A   1      47.767  26.059  34.634  1.00  0.00     0.074 A 
ATOM     66  C   UNL A   1      48.303  25.775  35.949  1.00  0.00     0.031 C 
ATOM     67  C   UNL A   1      48.372  25.702  33.472  1.00  0.00     0.034 A 
BRANCH  54  68
ATOM     68  C   UNL A   1      45.234  27.397  28.393  1.00  0.00     0.023 A 
ATOM     69  C   UNL A   1      44.801  26.262  27.684  1.00  0.00     0.031 A 
ATOM     70  C   UNL A   1      45.603  28.533  27.651  1.00  0.00     0.131 A 
ATOM     71  C   UNL A   1      44.815  26.266  26.280  1.00  0.00     0.055 A 
ATOM     72  C   UNL A   1      45.540  28.557  26.258  1.00  0.00     0.041 A 
ATOM     73  F   UNL A   1      46.046  29.639  28.272  1.00  0.00    -0.206 F 
ATOM     74  C   UNL A   1      45.159  27.414  25.562  1.00  0.00     0.022 A 
BRANCH  71  75
ATOM     75  S   UNL A   1      44.512  24.707  25.404  1.00  0.00     0.124 S 
ATOM     76  O   UNL A   1      43.238  24.982  24.742  1.00  0.00    -0.237 OA
ATOM     77  O   UNL A   1      45.676  24.604  24.531  1.00  0.00    -0.237 OA
ATOM     78  O   UNL A   1      44.447  23.717  26.477  1.00  0.00    -0.744 OA
ENDBRANCH  71  75
ENDBRANCH  54  68
BRANCH  55  79
ATOM     79  C   UNL A   1      45.323  27.472  38.410  1.00  0.00     0.023 A 
ATOM     80  C   UNL A   1      45.935  28.484  39.165  1.00  0.00     0.031 A 
ATOM     81  C   UNL A   1      44.759  26.383  39.098  1.00  0.00     0.131 A 
ATOM     82  C   UNL A   1      46.009  28.364  40.563  1.00  0.00     0.055 A 
ATOM     83  C   UNL A   1      44.788  26.295  40.491  1.00  0.00     0.041 A 
ATOM     84  F   UNL A   1      44.164  25.387  38.423  1.00  0.00    -0.206 F 
ATOM     85  C   UNL A   1      45.428  27.284  41.231  1.00  0.00     0.022 A 
BRANCH  82  86
ATOM     86  S   UNL A   1      46.956  29.602  41.492  1.00  0.00     0.124 S 
ATOM     87  O   UNL A   1      48.025  28.791  42.063  1.00  0.00    -0.237 OA
ATOM     88  O   UNL A   1      47.350  30.533  40.441  1.00  0.00    -0.237 OA
ATOM     89  O   UNL A   1      45.985  30.123  42.451  1.00  0.00    -0.744 OA
ENDBRANCH  82  86
ENDBRANCH  55  79
BRANCH  67  90
ATOM     90  C   UNL A   1      49.707  25.004  33.578  1.00  0.00     0.023 A 
ATOM     91  C   UNL A   1      49.811  23.601  33.597  1.00  0.00     0.031 A 
ATOM     92  C   UNL A   1      50.891  25.755  33.679  1.00  0.00     0.131 A 
ATOM     93  C   UNL A   1      51.065  22.995  33.775  1.00  0.00     0.055 A 
ATOM     94  C   UNL A   1      52.142  25.145  33.793  1.00  0.00     0.041 A 
ATOM     95  F   UNL A   1      50.853  27.097  33.667  1.00  0.00    -0.206 F 
ATOM     96  C   UNL A   1      52.232  23.758  33.856  1.00  0.00     0.022 A 
BRANCH  93  97
ATOM     97  S   UNL A   1      51.140  21.195  33.994  1.00  0.00     0.124 S 
ATOM     98  O   UNL A   1      50.856  21.051  35.418  1.00  0.00    -0.237 OA
ATOM     99  O   UNL A   1      50.098  20.727  33.086  1.00  0.00    -0.237 OA
ATOM    100  O   UNL A   1      52.506  20.858  33.597  1.00  0.00    -0.744 OA
ENDBRANCH  93  97
ENDBRANCH  67  90
ENDBRANCH  41  42
ENDBRANCH  34  36
ENDBRANCH  33  34
ENDBRANCH  32  33
ENDBRANCH  31  32
ENDBRANCH  30  31
ENDBRANCH   1  30
TORSDOF 23
ENDMDL
MODEL 2
REMARK VINA RESULT:      -9.3      3.981      5.640
REMARK SMILES COc1ccc(-c2nc(NCC(=O)OCCOCCOC(=O)c3ccc(-c4c5nc(c(-c6cc(S(=O)(=O)[O-])ccc6F)c6ccc([nH]6)c(-c6cc(S(=O)(=O)[O-])ccc6F)c6nc(c(-c7cc(S(=O)(=O)[O-])ccc7F)c7ccc4[nH]7)C=C6)C=C5)cc3)sc2-c2ccc(OC)cc2)cc1
REMARK SMILES IDX 16 1 15 2 14 3 12 4 13 5 11 6 10 7 9 9 7 10 8 11 87 12 86 13
REMARK SMILES IDX 6 14 3 15 4 16 97 17 5 18 96 19 2 20 1 21 88 22 89 23 95 24
REMARK SMILES IDX 90 25 94 26 91 27 92 28 93 29 17 30 18 31 19 32 20 33 21 34
REMARK SMILES IDX 22 35 23 36 24 37 85 38 25 39 84 40 26 41 27 42 28 43 78 44
REMARK SMILES IDX 29 45 83 46 77 47 79 48 30 49 82 50 76 51 75 52 31 54 63 55
REMARK SMILES IDX 43 56 62 57 44 58 47 59 61 60 80 61 45 62 46 63 60 65 81 66
REMARK SMILES IDX 48 67 32 68 33 69 41 70 34 71 40 72 42 73 39 74 35 75 36 76
REMARK SMILES IDX 37 77 38 78 64 79 65 80 73 81 66 82 72 83 74 84 71 85 67 86
REMARK SMILES IDX 68 87 69 88 70 89 49 90 50 91 58 92 51 93 57 94 59 95 56 96
REMARK SMILES IDX 52 97 53 98 54 99 55 100
REMARK H PARENT 10 8 79 53 47 64
REMARK Flexibility Score: inf
ROOT
ATOM      1  C   UNL A   1      33.765  37.166  32.578  1.00  0.00     0.202 C 
ENDROOT
BRANCH   1   2
ATOM      2  C   UNL A   1      32.675  36.320  31.915  1.00  0.00     0.261 C 
BRANCH   2   3
ATOM      3  O   UNL A   1      32.281  36.899  30.661  1.00  0.00    -0.462 OA
BRANCH   3   4
ATOM      4  C   UNL A   1      33.091  36.640  29.601  1.00  0.00     0.325 C 
ATOM      5  O   UNL A   1      33.362  37.442  28.712  1.00  0.00    -0.250 OA
BRANCH   4   6
ATOM      6  C   UNL A   1      33.756  35.269  29.675  1.00  0.00     0.238 C 
BRANCH   6   7
ATOM      7  N   UNL A   1      33.445  34.355  28.583  1.00  0.00    -0.351 N 
ATOM      8  H   UNL A   1      32.774  34.641  27.922  1.00  0.00     0.163 HD
BRANCH   7   9
ATOM      9  C   UNL A   1      34.014  33.145  28.419  1.00  0.00     0.184 A 
ATOM     10  C   UNL A   1      34.144  31.007  27.841  1.00  0.00     0.091 A 
ATOM     11  N   UNL A   1      33.384  32.168  27.805  1.00  0.00    -0.220 NA
ATOM     12  C   UNL A   1      35.395  31.143  28.421  1.00  0.00     0.064 A 
ATOM     13  S   UNL A   1      35.591  32.748  28.975  1.00  0.00    -0.096 S 
BRANCH  10  14
ATOM     14  C   UNL A   1      33.647  29.749  27.300  1.00  0.00     0.002 A 
ATOM     15  C   UNL A   1      32.681  27.409  26.075  1.00  0.00     0.118 A 
ATOM     16  C   UNL A   1      34.054  27.629  26.189  1.00  0.00     0.047 A 
ATOM     17  C   UNL A   1      31.791  28.335  26.620  1.00  0.00     0.047 A 
ATOM     18  C   UNL A   1      34.536  28.792  26.793  1.00  0.00     0.014 A 
ATOM     19  C   UNL A   1      32.273  29.499  27.237  1.00  0.00     0.014 A 
BRANCH  15  20
ATOM     20  O   UNL A   1      32.331  26.245  25.445  1.00  0.00    -0.497 OA
ATOM     21  C   UNL A   1      30.959  25.881  25.548  1.00  0.00     0.278 C 
ENDBRANCH  15  20
ENDBRANCH  10  14
BRANCH  12  22
ATOM     22  C   UNL A   1      36.496  30.199  28.576  1.00  0.00    -0.006 A 
ATOM     23  C   UNL A   1      37.407  29.984  27.537  1.00  0.00     0.013 A 
ATOM     24  C   UNL A   1      36.650  29.497  29.775  1.00  0.00     0.013 A 
ATOM     25  C   UNL A   1      38.450  29.071  27.698  1.00  0.00     0.047 A 
ATOM     26  C   UNL A   1      37.695  28.582  29.934  1.00  0.00     0.047 A 
ATOM     27  C   UNL A   1      38.599  28.366  28.894  1.00  0.00     0.118 A 
BRANCH  27  28
ATOM     28  O   UNL A   1      39.658  27.501  28.919  1.00  0.00    -0.497 OA
ATOM     29  C   UNL A   1      39.787  26.626  27.804  1.00  0.00     0.278 C 
ENDBRANCH  27  28
ENDBRANCH  12  22
ENDBRANCH   7   9
ENDBRANCH   6   7
ENDBRANCH   4   6
ENDBRANCH   3   4
ENDBRANCH   2   3
ENDBRANCH   1   2
BRANCH   1  30
ATOM     30  O   UNL A   1      34.795  36.441  33.256  1.00  0.00    -0.374 OA
BRANCH  30  31
ATOM     31  C   UNL A   1      34.596  35.041  33.455  1.00  0.00     0.202 C 
BRANCH  31  32
ATOM     32  C   UNL A   1      35.552  34.082  32.735  1.00  0.00     0.261 C 
BRANCH  32  33
ATOM     33  O   UNL A   1      36.884  34.106  33.276  1.00  0.00    -0.460 OA
BRANCH  33  34
ATOM     34  C   UNL A   1      37.123  33.166  34.224  1.00  0.00     0.338 C 
ATOM     35  O   UNL A   1      36.446  32.951  35.224  1.00  0.00    -0.246 OA
BRANCH  34  36
ATOM     36  C   UNL A   1      38.226  32.277  33.816  1.00  0.00     0.060 A 
ATOM     37  C   UNL A   1      39.462  32.457  34.450  1.00  0.00     0.016 A 
ATOM     38  C   UNL A   1      38.090  31.345  32.784  1.00  0.00     0.016 A 
ATOM     39  C   UNL A   1      40.579  31.742  34.022  1.00  0.00     0.010 A 
ATOM     40  C   UNL A   1      39.217  30.634  32.350  1.00  0.00     0.010 A 
ATOM     41  C   UNL A   1      40.474  30.852  32.945  1.00  0.00    -0.014 A 
BRANCH  41  42
ATOM     42  C   UNL A   1      41.710  30.262  32.369  1.00  0.00     0.031 A 
ATOM     43  C   UNL A   1      42.388  30.958  31.219  1.00  0.00     0.074 A 
ATOM     44  C   UNL A   1      42.249  29.150  32.898  1.00  0.00     0.049 A 
ATOM     45  N   UNL A   1      43.472  30.624  30.568  1.00  0.00    -0.248 NA
ATOM     46  C   UNL A   1      41.754  32.196  30.739  1.00  0.00     0.031 C 
ATOM     47  C   UNL A   1      41.708  28.412  34.038  1.00  0.00     0.029 A 
ATOM     48  N   UNL A   1      43.375  28.448  32.547  1.00  0.00    -0.354 N 
ATOM     49  C   UNL A   1      43.656  31.609  29.603  1.00  0.00     0.074 A 
ATOM     50  C   UNL A   1      42.544  32.530  29.730  1.00  0.00     0.031 C 
ATOM     51  C   UNL A   1      42.502  27.357  34.291  1.00  0.00     0.029 A 
ATOM     52  C   UNL A   1      43.586  27.324  33.311  1.00  0.00     0.049 A 
ATOM     53  H   UNL A   1      43.975  28.721  31.816  1.00  0.00     0.167 HD
ATOM     54  C   UNL A   1      44.662  31.741  28.704  1.00  0.00     0.034 A 
ATOM     55  C   UNL A   1      44.534  26.368  33.219  1.00  0.00     0.034 A 
ATOM     56  C   UNL A   1      45.758  30.809  28.580  1.00  0.00     0.049 A 
ATOM     57  C   UNL A   1      45.598  26.491  32.156  1.00  0.00     0.074 A 
ATOM     58  C   UNL A   1      46.836  30.855  27.712  1.00  0.00     0.029 A 
ATOM     59  N   UNL A   1      45.911  29.655  29.339  1.00  0.00    -0.354 N 
ATOM     60  N   UNL A   1      45.766  27.434  31.256  1.00  0.00    -0.248 NA
ATOM     61  C   UNL A   1      46.608  25.425  32.103  1.00  0.00     0.031 C 
ATOM     62  C   UNL A   1      47.598  29.695  27.895  1.00  0.00     0.029 A 
ATOM     63  C   UNL A   1      47.044  28.964  28.933  1.00  0.00     0.049 A 
ATOM     64  H   UNL A   1      45.305  29.369  30.059  1.00  0.00     0.167 HD
ATOM     65  C   UNL A   1      46.918  27.089  30.553  1.00  0.00     0.074 A 
ATOM     66  C   UNL A   1      47.410  25.860  31.142  1.00  0.00     0.031 C 
ATOM     67  C   UNL A   1      47.518  27.731  29.518  1.00  0.00     0.034 A 
BRANCH  54  68
ATOM     68  C   UNL A   1      44.591  32.909  27.750  1.00  0.00     0.023 A 
ATOM     69  C   UNL A   1      45.018  34.197  28.120  1.00  0.00     0.031 A 
ATOM     70  C   UNL A   1      44.063  32.738  26.457  1.00  0.00     0.131 A 
ATOM     71  C   UNL A   1      44.846  35.273  27.235  1.00  0.00     0.055 A 
ATOM     72  C   UNL A   1      43.966  33.798  25.554  1.00  0.00     0.041 A 
ATOM     73  F   UNL A   1      43.617  31.537  26.055  1.00  0.00    -0.206 F 
ATOM     74  C   UNL A   1      44.345  35.078  25.946  1.00  0.00     0.022 A 
BRANCH  71  75
ATOM     75  S   UNL A   1      45.155  36.955  27.841  1.00  0.00     0.124 S 
ATOM     76  O   UNL A   1      46.202  37.411  26.928  1.00  0.00    -0.237 OA
ATOM     77  O   UNL A   1      43.851  37.590  27.686  1.00  0.00    -0.237 OA
ATOM     78  O   UNL A   1      45.589  36.747  29.221  1.00  0.00    -0.744 OA
ENDBRANCH  71  75
ENDBRANCH  54  68
BRANCH  55  79
ATOM     79  C   UNL A   1      44.505  25.187  34.130  1.00  0.00     0.023 A 
ATOM     80  C   UNL A   1      44.944  25.281  35.459  1.00  0.00     0.031 A 
ATOM     81  C   UNL A   1      44.091  23.928  33.659  1.00  0.00     0.131 A 
ATOM     82  C   UNL A   1      45.002  24.128  36.259  1.00  0.00     0.055 A 
ATOM     83  C   UNL A   1      44.100  22.795  34.474  1.00  0.00     0.041 A 
ATOM     84  F   UNL A   1      43.664  23.782  32.395  1.00  0.00    -0.206 F 
ATOM     85  C   UNL A   1      44.570  22.889  35.780  1.00  0.00     0.022 A 
BRANCH  82  86
ATOM     86  S   UNL A   1      45.735  24.254  37.914  1.00  0.00     0.124 S 
ATOM     87  O   UNL A   1      47.110  24.629  37.602  1.00  0.00    -0.237 OA
ATOM     88  O   UNL A   1      44.913  25.289  38.531  1.00  0.00    -0.237 OA
ATOM     89  O   UNL A   1      45.561  22.913  38.466  1.00  0.00    -0.744 OA
ENDBRANCH  82  86
ENDBRANCH  55  79
BRANCH  67  90
ATOM     90  C   UNL A   1      48.802  27.135  28.992  1.00  0.00     0.023 A 
ATOM     91  C   UNL A   1      50.053  27.464  29.543  1.00  0.00     0.031 A 
ATOM     92  C   UNL A   1      48.773  26.238  27.909  1.00  0.00     0.131 A 
ATOM     93  C   UNL A   1      51.227  26.946  28.972  1.00  0.00     0.055 A 
ATOM     94  C   UNL A   1      49.940  25.678  27.385  1.00  0.00     0.041 A 
ATOM     95  F   UNL A   1      47.608  25.889  27.341  1.00  0.00    -0.206 F 
ATOM     96  C   UNL A   1      51.177  26.043  27.908  1.00  0.00     0.022 A 
BRANCH  93  97
ATOM     97  S   UNL A   1      52.829  27.545  29.580  1.00  0.00     0.124 S 
ATOM     98  O   UNL A   1      52.493  28.000  30.925  1.00  0.00    -0.237 OA
ATOM     99  O   UNL A   1      53.659  26.347  29.501  1.00  0.00    -0.237 OA
ATOM    100  O   UNL A   1      53.180  28.605  28.635  1.00  0.00    -0.744 OA
ENDBRANCH  93  97
ENDBRANCH  67  90
ENDBRANCH  41  42
ENDBRANCH  34  36
ENDBRANCH  33  34
ENDBRANCH  32  33
ENDBRANCH  31  32
ENDBRANCH  30  31
ENDBRANCH   1  30
TORSDOF 23
ENDMDL
MODEL 3
REMARK VINA RESULT:      -9.2      5.494     12.148
REMARK SMILES COc1ccc(-c2nc(NCC(=O)OCCOCCOC(=O)c3ccc(-c4c5nc(c(-c6cc(S(=O)(=O)[O-])ccc6F)c6ccc([nH]6)c(-c6cc(S(=O)(=O)[O-])ccc6F)c6nc(c(-c7cc(S(=O)(=O)[O-])ccc7F)c7ccc4[nH]7)C=C6)C=C5)cc3)sc2-c2ccc(OC)cc2)cc1
REMARK SMILES IDX 16 1 15 2 14 3 12 4 13 5 11 6 10 7 9 9 7 10 8 11 87 12 86 13
REMARK SMILES IDX 6 14 3 15 4 16 97 17 5 18 96 19 2 20 1 21 88 22 89 23 95 24
REMARK SMILES IDX 90 25 94 26 91 27 92 28 93 29 17 30 18 31 19 32 20 33 21 34
REMARK SMILES IDX 22 35 23 36 24 37 85 38 25 39 84 40 26 41 27 42 28 43 78 44
REMARK SMILES IDX 29 45 83 46 77 47 79 48 30 49 82 50 76 51 75 52 31 54 63 55
REMARK SMILES IDX 43 56 62 57 44 58 47 59 61 60 80 61 45 62 46 63 60 65 81 66
REMARK SMILES IDX 48 67 32 68 33 69 41 70 34 71 40 72 42 73 39 74 35 75 36 76
REMARK SMILES IDX 37 77 38 78 64 79 65 80 73 81 66 82 72 83 74 84 71 85 67 86
REMARK SMILES IDX 68 87 69 88 70 89 49 90 50 91 58 92 51 93 57 94 59 95 56 96
REMARK SMILES IDX 52 97 53 98 54 99 55 100
REMARK H PARENT 10 8 79 53 47 64
REMARK Flexibility Score: inf
ROOT
ATOM      1  C   UNL A   1      45.976  22.821  24.508  1.00  0.00     0.202 C 
ENDROOT
BRANCH   1   2
ATOM      2  C   UNL A   1      45.873  24.287  24.937  1.00  0.00     0.261 C 
BRANCH   2   3
ATOM      3  O   UNL A   1      47.128  24.747  25.465  1.00  0.00    -0.462 OA
BRANCH   3   4
ATOM      4  C   UNL A   1      47.343  26.087  25.415  1.00  0.00     0.325 C 
ATOM      5  O   UNL A   1      48.445  26.625  25.484  1.00  0.00    -0.250 OA
BRANCH   4   6
ATOM      6  C   UNL A   1      46.076  26.889  25.133  1.00  0.00     0.238 C 
BRANCH   6   7
ATOM      7  N   UNL A   1      45.517  27.609  26.270  1.00  0.00    -0.351 N 
ATOM      8  H   UNL A   1      44.881  27.130  26.851  1.00  0.00     0.163 HD
BRANCH   7   9
ATOM      9  C   UNL A   1      45.811  28.886  26.581  1.00  0.00     0.184 A 
ATOM     10  C   UNL A   1      45.456  31.059  26.857  1.00  0.00     0.091 A 
ATOM     11  N   UNL A   1      44.887  29.821  26.593  1.00  0.00    -0.220 NA
ATOM     12  C   UNL A   1      46.815  31.034  27.125  1.00  0.00     0.064 A 
ATOM     13  S   UNL A   1      47.390  29.430  26.990  1.00  0.00    -0.096 S 
BRANCH  10  14
ATOM     14  C   UNL A   1      44.665  32.283  26.851  1.00  0.00     0.002 A 
ATOM     15  C   UNL A   1      43.309  34.747  26.871  1.00  0.00     0.118 A 
ATOM     16  C   UNL A   1      43.791  34.218  25.673  1.00  0.00     0.047 A 
ATOM     17  C   UNL A   1      43.461  34.019  28.052  1.00  0.00     0.047 A 
ATOM     18  C   UNL A   1      44.469  32.997  25.662  1.00  0.00     0.014 A 
ATOM     19  C   UNL A   1      44.131  32.787  28.040  1.00  0.00     0.014 A 
BRANCH  15  20
ATOM     20  O   UNL A   1      42.683  35.959  26.759  1.00  0.00    -0.497 OA
ATOM     21  C   UNL A   1      41.776  36.280  27.809  1.00  0.00     0.278 C 
ENDBRANCH  15  20
ENDBRANCH  10  14
BRANCH  12  22
ATOM     22  C   UNL A   1      47.742  32.089  27.517  1.00  0.00    -0.006 A 
ATOM     23  C   UNL A   1      47.642  32.703  28.770  1.00  0.00     0.013 A 
ATOM     24  C   UNL A   1      48.747  32.499  26.635  1.00  0.00     0.013 A 
ATOM     25  C   UNL A   1      48.531  33.718  29.126  1.00  0.00     0.047 A 
ATOM     26  C   UNL A   1      49.636  33.516  26.994  1.00  0.00     0.047 A 
ATOM     27  C   UNL A   1      49.531  34.130  28.242  1.00  0.00     0.118 A 
BRANCH  27  28
ATOM     28  O   UNL A   1      50.331  35.134  28.712  1.00  0.00    -0.497 OA
ATOM     29  C   UNL A   1      50.704  36.137  27.774  1.00  0.00     0.278 C 
ENDBRANCH  27  28
ENDBRANCH  12  22
ENDBRANCH   7   9
ENDBRANCH   6   7
ENDBRANCH   4   6
ENDBRANCH   3   4
ENDBRANCH   2   3
ENDBRANCH   1   2
BRANCH   1  30
ATOM     30  O   UNL A   1      45.730  21.850  25.530  1.00  0.00    -0.374 OA
BRANCH  30  31
ATOM     31  C   UNL A   1      45.777  20.473  25.159  1.00  0.00     0.202 C 
BRANCH  31  32
ATOM     32  C   UNL A   1      44.446  19.711  25.100  1.00  0.00     0.261 C 
BRANCH  32  33
ATOM     33  O   UNL A   1      43.310  20.578  24.943  1.00  0.00    -0.460 OA
BRANCH  33  34
ATOM     34  C   UNL A   1      42.408  20.512  25.953  1.00  0.00     0.338 C 
ATOM     35  O   UNL A   1      41.800  19.513  26.323  1.00  0.00    -0.246 OA
BRANCH  34  36
ATOM     36  C   UNL A   1      42.368  21.779  26.705  1.00  0.00     0.060 A 
ATOM     37  C   UNL A   1      42.408  22.967  25.963  1.00  0.00     0.016 A 
ATOM     38  C   UNL A   1      42.375  21.818  28.102  1.00  0.00     0.016 A 
ATOM     39  C   UNL A   1      42.505  24.195  26.612  1.00  0.00     0.010 A 
ATOM     40  C   UNL A   1      42.482  23.055  28.752  1.00  0.00     0.010 A 
ATOM     41  C   UNL A   1      42.580  24.247  28.011  1.00  0.00    -0.014 A 
BRANCH  41  42
ATOM     42  C   UNL A   1      42.896  25.539  28.672  1.00  0.00     0.031 A 
ATOM     43  C   UNL A   1      44.327  25.862  29.007  1.00  0.00     0.074 A 
ATOM     44  C   UNL A   1      41.925  26.436  28.923  1.00  0.00     0.049 A 
ATOM     45  N   UNL A   1      44.828  26.927  29.578  1.00  0.00    -0.248 NA
ATOM     46  C   UNL A   1      45.327  24.844  28.650  1.00  0.00     0.031 C 
ATOM     47  C   UNL A   1      40.510  26.255  28.605  1.00  0.00     0.029 A 
ATOM     48  N   UNL A   1      41.983  27.680  29.500  1.00  0.00    -0.354 N 
ATOM     49  C   UNL A   1      46.200  26.712  29.649  1.00  0.00     0.074 A 
ATOM     50  C   UNL A   1      46.445  25.395  29.098  1.00  0.00     0.031 C 
ATOM     51  C   UNL A   1      39.832  27.348  28.996  1.00  0.00     0.029 A 
ATOM     52  C   UNL A   1      40.757  28.291  29.622  1.00  0.00     0.049 A 
ATOM     53  H   UNL A   1      42.824  28.096  29.801  1.00  0.00     0.167 HD
ATOM     54  C   UNL A   1      47.167  27.540  30.118  1.00  0.00     0.034 A 
ATOM     55  C   UNL A   1      40.417  29.467  30.190  1.00  0.00     0.034 A 
ATOM     56  C   UNL A   1      46.908  28.845  30.675  1.00  0.00     0.049 A 
ATOM     57  C   UNL A   1      41.502  30.335  30.781  1.00  0.00     0.074 A 
ATOM     58  C   UNL A   1      47.815  29.769  31.167  1.00  0.00     0.029 A 
ATOM     59  N   UNL A   1      45.648  29.410  30.828  1.00  0.00    -0.354 N 
ATOM     60  N   UNL A   1      42.798  30.124  30.831  1.00  0.00    -0.248 NA
ATOM     61  C   UNL A   1      41.078  31.607  31.382  1.00  0.00     0.031 C 
ATOM     62  C   UNL A   1      47.100  30.857  31.682  1.00  0.00     0.029 A 
ATOM     63  C   UNL A   1      45.752  30.652  31.439  1.00  0.00     0.049 A 
ATOM     64  H   UNL A   1      44.804  28.991  30.544  1.00  0.00     0.167 HD
ATOM     65  C   UNL A   1      43.344  31.251  31.441  1.00  0.00     0.074 A 
ATOM     66  C   UNL A   1      42.239  32.144  31.727  1.00  0.00     0.031 C 
ATOM     67  C   UNL A   1      44.640  31.528  31.733  1.00  0.00     0.034 A 
BRANCH  54  68
ATOM     68  C   UNL A   1      48.588  27.029  30.093  1.00  0.00     0.023 A 
ATOM     69  C   UNL A   1      49.477  27.356  29.054  1.00  0.00     0.031 A 
ATOM     70  C   UNL A   1      49.054  26.179  31.113  1.00  0.00     0.131 A 
ATOM     71  C   UNL A   1      50.759  26.784  29.021  1.00  0.00     0.055 A 
ATOM     72  C   UNL A   1      50.355  25.675  31.116  1.00  0.00     0.041 A 
ATOM     73  F   UNL A   1      48.244  25.813  32.119  1.00  0.00    -0.206 F 
ATOM     74  C   UNL A   1      51.212  25.964  30.058  1.00  0.00     0.022 A 
BRANCH  71  75
ATOM     75  S   UNL A   1      51.775  27.011  27.536  1.00  0.00     0.124 S 
ATOM     76  O   UNL A   1      53.040  27.465  28.111  1.00  0.00    -0.237 OA
ATOM     77  O   UNL A   1      51.781  25.675  26.951  1.00  0.00    -0.237 OA
ATOM     78  O   UNL A   1      51.047  28.023  26.774  1.00  0.00    -0.744 OA
ENDBRANCH  71  75
ENDBRANCH  54  68
BRANCH  55  79
ATOM     79  C   UNL A   1      38.987  29.881  30.268  1.00  0.00     0.023 A 
ATOM     80  C   UNL A   1      38.496  30.951  29.503  1.00  0.00     0.031 A 
ATOM     81  C   UNL A   1      38.104  29.247  31.159  1.00  0.00     0.131 A 
ATOM     82  C   UNL A   1      37.171  31.383  29.676  1.00  0.00     0.055 A 
ATOM     83  C   UNL A   1      36.773  29.646  31.289  1.00  0.00     0.041 A 
ATOM     84  F   UNL A   1      38.523  28.221  31.917  1.00  0.00    -0.206 F 
ATOM     85  C   UNL A   1      36.303  30.729  30.554  1.00  0.00     0.022 A 
BRANCH  82  86
ATOM     86  S   UNL A   1      36.621  32.873  28.799  1.00  0.00     0.124 S 
ATOM     87  O   UNL A   1      35.689  33.455  29.758  1.00  0.00    -0.237 OA
ATOM     88  O   UNL A   1      37.876  33.592  28.607  1.00  0.00    -0.237 OA
ATOM     89  O   UNL A   1      36.016  32.345  27.579  1.00  0.00    -0.744 OA
ENDBRANCH  82  86
ENDBRANCH  55  79
BRANCH  67  90
ATOM     90  C   UNL A   1      44.934  32.872  32.355  1.00  0.00     0.023 A 
ATOM     91  C   UNL A   1      45.074  34.035  31.576  1.00  0.00     0.031 A 
ATOM     92  C   UNL A   1      45.092  32.987  33.747  1.00  0.00     0.131 A 
ATOM     93  C   UNL A   1      45.423  35.249  32.189  1.00  0.00     0.055 A 
ATOM     94  C   UNL A   1      45.379  34.210  34.357  1.00  0.00     0.041 A 
ATOM     95  F   UNL A   1      44.972  31.911  34.541  1.00  0.00    -0.206 F 
ATOM     96  C   UNL A   1      45.560  35.347  33.575  1.00  0.00     0.022 A 
BRANCH  93  97
ATOM     97  S   UNL A   1      45.790  36.682  31.137  1.00  0.00     0.124 S 
ATOM     98  O   UNL A   1      47.175  36.430  30.753  1.00  0.00    -0.237 OA
ATOM     99  O   UNL A   1      44.799  36.550  30.074  1.00  0.00    -0.237 OA
ATOM    100  O   UNL A   1      45.592  37.823  32.030  1.00  0.00    -0.744 OA
ENDBRANCH  93  97
ENDBRANCH  67  90
ENDBRANCH  41  42
ENDBRANCH  34  36
ENDBRANCH  33  34
ENDBRANCH  32  33
ENDBRANCH  31  32
ENDBRANCH  30  31
ENDBRANCH   1  30
TORSDOF 23
ENDMDL
