MODEL 1
REMARK VINA RESULT:     -11.9      0.000      0.000
REMARK SMILES Nc1nc(N2CCOC[C@H]2C(=O)OCCOCCOC(=O)c2ccc(-c3c4nc(c(-c5cc(S(=O)(=O)[O-])ccc5F)c5ccc([nH]5)c(-c5cc(S(=O)(=O)[O-])ccc5F)c5nc(c(-c6cc(S(=O)(=O)[O-])ccc6F)c6ccc3[nH]6)C=C5)C=C4)cc2)ccc1[N+](=O)[O-]
REMARK SMILES IDX 17 1 16 2 15 3 14 4 13 5 11 6 12 7 10 8 5 9 6 10 7 11 9 12
REMARK SMILES IDX 8 13 4 14 2 15 3 16 87 17 86 18 85 19 1 20 88 23 89 24 90 25
REMARK SMILES IDX 18 26 19 27 20 28 21 29 22 30 23 31 84 32 24 33 83 34 25 35
REMARK SMILES IDX 26 36 27 37 77 38 28 39 82 40 76 41 78 42 29 43 81 44 75 45
REMARK SMILES IDX 74 46 30 48 62 49 42 50 61 51 43 52 46 53 60 54 79 55 44 56
REMARK SMILES IDX 45 57 59 59 80 60 47 61 31 62 32 63 40 64 33 65 39 66 41 67
REMARK SMILES IDX 38 68 34 69 35 70 36 71 37 72 63 73 64 74 72 75 65 76 71 77
REMARK SMILES IDX 73 78 70 79 66 80 67 81 68 82 69 83 48 84 49 85 57 86 50 87
REMARK SMILES IDX 56 88 58 89 55 90 51 91 52 92 53 93 54 94
REMARK H PARENT 1 21 1 22 78 47 46 58
REMARK Flexibility Score: inf
ROOT
ATOM      1  C   UNL A   1      35.250  21.543  24.607  1.00  0.00     0.202 C 
ENDROOT
BRANCH   1   2
ATOM      2  O   UNL A   1      34.021  20.815  24.572  1.00  0.00    -0.374 OA
BRANCH   2   3
ATOM      3  C   UNL A   1      32.814  21.576  24.507  1.00  0.00     0.202 C 
BRANCH   3   4
ATOM      4  C   UNL A   1      32.205  21.737  23.113  1.00  0.00     0.261 C 
BRANCH   4   5
ATOM      5  O   UNL A   1      31.890  23.114  22.851  1.00  0.00    -0.462 OA
BRANCH   5   6
ATOM      6  C   UNL A   1      32.934  23.953  22.621  1.00  0.00     0.331 C 
ATOM      7  O   UNL A   1      33.934  23.656  21.972  1.00  0.00    -0.250 OA
BRANCH   6   8
ATOM      8  C   UNL A   1      32.779  25.323  23.291  1.00  0.00     0.220 C 
ATOM      9  N   UNL A   1      31.539  25.545  24.076  1.00  0.00    -0.339 N 
ATOM     10  C   UNL A   1      31.460  24.899  25.390  1.00  0.00     0.147 C 
ATOM     11  C   UNL A   1      32.750  25.148  26.180  1.00  0.00     0.181 C 
ATOM     12  C   UNL A   1      34.007  25.522  24.200  1.00  0.00     0.197 C 
ATOM     13  O   UNL A   1      33.916  24.779  25.430  1.00  0.00    -0.377 OA
BRANCH   9  14
ATOM     14  C   UNL A   1      30.702  26.585  23.742  1.00  0.00     0.132 A 
ATOM     15  C   UNL A   1      30.408  28.614  22.599  1.00  0.00     0.204 A 
ATOM     16  N   UNL A   1      31.229  27.660  23.110  1.00  0.00    -0.207 NA
ATOM     17  C   UNL A   1      29.029  28.561  22.788  1.00  0.00     0.311 A 
ATOM     18  C   UNL A   1      28.483  27.515  23.529  1.00  0.00     0.093 A 
ATOM     19  C   UNL A   1      29.333  26.519  23.999  1.00  0.00     0.054 A 
BRANCH  15  20
ATOM     20  N   UNL A   1      31.063  29.645  21.952  1.00  0.00    -0.378 N 
ATOM     21  H   UNL A   1      30.554  30.420  21.620  1.00  0.00     0.158 HD
ATOM     22  H   UNL A   1      32.038  29.606  21.824  1.00  0.00     0.158 HD
ENDBRANCH  15  20
BRANCH  17  23
ATOM     23  N   UNL A   1      28.135  29.547  22.197  1.00  0.00     0.066 N 
ATOM     24  O   UNL A   1      27.123  29.858  22.844  1.00  0.00    -0.258 OA
ATOM     25  O   UNL A   1      28.405  29.991  21.071  1.00  0.00    -0.258 OA
ENDBRANCH  17  23
ENDBRANCH   9  14
ENDBRANCH   6   8
ENDBRANCH   5   6
ENDBRANCH   4   5
ENDBRANCH   3   4
ENDBRANCH   2   3
ENDBRANCH   1   2
BRANCH   1  26
ATOM     26  C   UNL A   1      36.449  20.833  25.244  1.00  0.00     0.261 C 
BRANCH  26  27
ATOM     27  O   UNL A   1      37.702  21.454  24.912  1.00  0.00    -0.460 OA
BRANCH  27  28
ATOM     28  C   UNL A   1      38.727  21.105  25.720  1.00  0.00     0.338 C 
ATOM     29  O   UNL A   1      39.233  19.993  25.829  1.00  0.00    -0.246 OA
BRANCH  28  30
ATOM     30  C   UNL A   1      39.300  22.297  26.368  1.00  0.00     0.060 A 
ATOM     31  C   UNL A   1      38.671  23.522  26.118  1.00  0.00     0.016 A 
ATOM     32  C   UNL A   1      40.470  22.241  27.132  1.00  0.00     0.016 A 
ATOM     33  C   UNL A   1      39.248  24.706  26.569  1.00  0.00     0.010 A 
ATOM     34  C   UNL A   1      41.049  23.432  27.583  1.00  0.00     0.010 A 
ATOM     35  C   UNL A   1      40.462  24.671  27.267  1.00  0.00    -0.014 A 
BRANCH  35  36
ATOM     36  C   UNL A   1      41.188  25.942  27.507  1.00  0.00     0.031 A 
ATOM     37  C   UNL A   1      40.526  27.013  28.333  1.00  0.00     0.074 A 
ATOM     38  C   UNL A   1      42.443  26.111  27.055  1.00  0.00     0.049 A 
ATOM     39  N   UNL A   1      40.974  28.189  28.686  1.00  0.00    -0.248 NA
ATOM     40  C   UNL A   1      39.173  26.711  28.823  1.00  0.00     0.031 C 
ATOM     41  C   UNL A   1      43.203  25.121  26.294  1.00  0.00     0.029 A 
ATOM     42  N   UNL A   1      43.302  27.172  27.182  1.00  0.00    -0.354 N 
ATOM     43  C   UNL A   1      39.962  28.766  29.447  1.00  0.00     0.074 A 
ATOM     44  C   UNL A   1      38.858  27.831  29.452  1.00  0.00     0.031 C 
ATOM     45  C   UNL A   1      44.423  25.621  26.029  1.00  0.00     0.029 A 
ATOM     46  C   UNL A   1      44.516  26.975  26.569  1.00  0.00     0.049 A 
ATOM     47  H   UNL A   1      43.071  27.998  27.666  1.00  0.00     0.167 HD
ATOM     48  C   UNL A   1      39.961  29.959  30.095  1.00  0.00     0.034 A 
ATOM     49  C   UNL A   1      45.576  27.800  26.449  1.00  0.00     0.034 A 
ATOM     50  C   UNL A   1      41.065  30.889  30.061  1.00  0.00     0.049 A 
ATOM     51  C   UNL A   1      45.512  29.168  27.084  1.00  0.00     0.074 A 
ATOM     52  C   UNL A   1      41.174  32.126  30.672  1.00  0.00     0.029 A 
ATOM     53  N   UNL A   1      42.251  30.687  29.364  1.00  0.00    -0.354 N 
ATOM     54  N   UNL A   1      44.548  29.705  27.797  1.00  0.00    -0.248 NA
ATOM     55  C   UNL A   1      46.683  30.034  26.904  1.00  0.00     0.031 C 
ATOM     56  C   UNL A   1      42.391  32.701  30.286  1.00  0.00     0.029 A 
ATOM     57  C   UNL A   1      43.079  31.792  29.500  1.00  0.00     0.049 A 
ATOM     58  H   UNL A   1      42.471  29.878  28.847  1.00  0.00     0.167 HD
ATOM     59  C   UNL A   1      45.012  30.962  28.177  1.00  0.00     0.074 A 
ATOM     60  C   UNL A   1      46.345  31.094  27.623  1.00  0.00     0.031 C 
ATOM     61  C   UNL A   1      44.399  31.917  28.924  1.00  0.00     0.034 A 
BRANCH  48  62
ATOM     62  C   UNL A   1      38.704  30.331  30.847  1.00  0.00     0.023 A 
ATOM     63  C   UNL A   1      37.628  30.980  30.213  1.00  0.00     0.031 A 
ATOM     64  C   UNL A   1      38.602  30.093  32.229  1.00  0.00     0.131 A 
ATOM     65  C   UNL A   1      36.545  31.447  30.972  1.00  0.00     0.055 A 
ATOM     66  C   UNL A   1      37.481  30.482  32.964  1.00  0.00     0.041 A 
ATOM     67  F   UNL A   1      39.605  29.500  32.896  1.00  0.00    -0.206 F 
ATOM     68  C   UNL A   1      36.452  31.181  32.340  1.00  0.00     0.022 A 
BRANCH  65  69
ATOM     69  S   UNL A   1      35.348  32.558  30.181  1.00  0.00     0.124 S 
ATOM     70  O   UNL A   1      34.867  31.733  29.076  1.00  0.00    -0.237 OA
ATOM     71  O   UNL A   1      34.395  32.811  31.254  1.00  0.00    -0.237 OA
ATOM     72  O   UNL A   1      36.160  33.707  29.783  1.00  0.00    -0.744 OA
ENDBRANCH  65  69
ENDBRANCH  48  62
BRANCH  49  73
ATOM     73  C   UNL A   1      46.779  27.373  25.680  1.00  0.00     0.023 A 
ATOM     74  C   UNL A   1      46.981  27.796  24.357  1.00  0.00     0.031 A 
ATOM     75  C   UNL A   1      47.725  26.500  26.246  1.00  0.00     0.131 A 
ATOM     76  C   UNL A   1      48.082  27.316  23.630  1.00  0.00     0.055 A 
ATOM     77  C   UNL A   1      48.844  26.065  25.536  1.00  0.00     0.041 A 
ATOM     78  F   UNL A   1      47.577  26.066  27.508  1.00  0.00    -0.206 F 
ATOM     79  C   UNL A   1      49.021  26.464  24.216  1.00  0.00     0.022 A 
BRANCH  76  80
ATOM     80  S   UNL A   1      48.232  27.768  21.880  1.00  0.00     0.124 S 
ATOM     81  O   UNL A   1      48.347  26.462  21.245  1.00  0.00    -0.237 OA
ATOM     82  O   UNL A   1      46.986  28.490  21.647  1.00  0.00    -0.237 OA
ATOM     83  O   UNL A   1      49.440  28.590  21.845  1.00  0.00    -0.744 OA
ENDBRANCH  76  80
ENDBRANCH  49  73
BRANCH  61  84
ATOM     84  C   UNL A   1      45.191  33.171  29.213  1.00  0.00     0.023 A 
ATOM     85  C   UNL A   1      45.244  34.241  28.303  1.00  0.00     0.031 A 
ATOM     86  C   UNL A   1      45.916  33.286  30.413  1.00  0.00     0.131 A 
ATOM     87  C   UNL A   1      46.055  35.352  28.578  1.00  0.00     0.055 A 
ATOM     88  C   UNL A   1      46.671  34.422  30.709  1.00  0.00     0.041 A 
ATOM     89  F   UNL A   1      45.903  32.295  31.318  1.00  0.00    -0.206 F 
ATOM     90  C   UNL A   1      46.755  35.458  29.783  1.00  0.00     0.022 A 
BRANCH  87  91
ATOM     91  S   UNL A   1      46.262  36.619  27.296  1.00  0.00     0.124 S 
ATOM     92  O   UNL A   1      47.456  37.323  27.754  1.00  0.00    -0.237 OA
ATOM     93  O   UNL A   1      46.419  35.817  26.087  1.00  0.00    -0.237 OA
ATOM     94  O   UNL A   1      45.022  37.390  27.371  1.00  0.00    -0.744 OA
ENDBRANCH  87  91
ENDBRANCH  61  84
ENDBRANCH  35  36
ENDBRANCH  28  30
ENDBRANCH  27  28
ENDBRANCH  26  27
ENDBRANCH   1  26
TORSDOF 20
ENDMDL
MODEL 2
REMARK VINA RESULT:     -11.7      2.701      8.572
REMARK SMILES Nc1nc(N2CCOC[C@H]2C(=O)OCCOCCOC(=O)c2ccc(-c3c4nc(c(-c5cc(S(=O)(=O)[O-])ccc5F)c5ccc([nH]5)c(-c5cc(S(=O)(=O)[O-])ccc5F)c5nc(c(-c6cc(S(=O)(=O)[O-])ccc6F)c6ccc3[nH]6)C=C5)C=C4)cc2)ccc1[N+](=O)[O-]
REMARK SMILES IDX 17 1 16 2 15 3 14 4 13 5 11 6 12 7 10 8 5 9 6 10 7 11 9 12
REMARK SMILES IDX 8 13 4 14 2 15 3 16 87 17 86 18 85 19 1 20 88 23 89 24 90 25
REMARK SMILES IDX 18 26 19 27 20 28 21 29 22 30 23 31 84 32 24 33 83 34 25 35
REMARK SMILES IDX 26 36 27 37 77 38 28 39 82 40 76 41 78 42 29 43 81 44 75 45
REMARK SMILES IDX 74 46 30 48 62 49 42 50 61 51 43 52 46 53 60 54 79 55 44 56
REMARK SMILES IDX 45 57 59 59 80 60 47 61 31 62 32 63 40 64 33 65 39 66 41 67
REMARK SMILES IDX 38 68 34 69 35 70 36 71 37 72 63 73 64 74 72 75 65 76 71 77
REMARK SMILES IDX 73 78 70 79 66 80 67 81 68 82 69 83 48 84 49 85 57 86 50 87
REMARK SMILES IDX 56 88 58 89 55 90 51 91 52 92 53 93 54 94
REMARK H PARENT 1 21 1 22 78 47 46 58
REMARK Flexibility Score: inf
ROOT
ATOM      1  C   UNL A   1      36.339  20.327  24.980  1.00  0.00     0.202 C 
ENDROOT
BRANCH   1   2
ATOM      2  O   UNL A   1      36.075  21.574  25.627  1.00  0.00    -0.374 OA
BRANCH   2   3
ATOM      3  C   UNL A   1      35.965  22.730  24.793  1.00  0.00     0.202 C 
BRANCH   3   4
ATOM      4  C   UNL A   1      35.439  22.479  23.378  1.00  0.00     0.261 C 
BRANCH   4   5
ATOM      5  O   UNL A   1      34.613  23.570  22.942  1.00  0.00    -0.462 OA
BRANCH   5   6
ATOM      6  C   UNL A   1      33.528  23.866  23.706  1.00  0.00     0.331 C 
ATOM      7  O   UNL A   1      33.417  24.881  24.391  1.00  0.00    -0.250 OA
BRANCH   6   8
ATOM      8  C   UNL A   1      32.442  22.785  23.677  1.00  0.00     0.220 C 
ATOM      9  N   UNL A   1      32.387  21.866  24.841  1.00  0.00    -0.339 N 
ATOM     10  C   UNL A   1      31.817  22.398  26.082  1.00  0.00     0.147 C 
ATOM     11  C   UNL A   1      30.493  23.114  25.791  1.00  0.00     0.181 C 
ATOM     12  C   UNL A   1      31.090  23.507  23.526  1.00  0.00     0.197 C 
ATOM     13  O   UNL A   1      30.634  24.099  24.756  1.00  0.00    -0.377 OA
BRANCH   9  14
ATOM     14  C   UNL A   1      32.517  20.509  24.640  1.00  0.00     0.132 A 
ATOM     15  C   UNL A   1      32.521  18.713  23.130  1.00  0.00     0.204 A 
ATOM     16  N   UNL A   1      32.225  20.007  23.418  1.00  0.00    -0.207 NA
ATOM     17  C   UNL A   1      33.039  17.855  24.097  1.00  0.00     0.311 A 
ATOM     18  C   UNL A   1      33.245  18.333  25.390  1.00  0.00     0.093 A 
ATOM     19  C   UNL A   1      32.987  19.675  25.653  1.00  0.00     0.054 A 
BRANCH  15  20
ATOM     20  N   UNL A   1      32.202  18.326  21.843  1.00  0.00    -0.378 N 
ATOM     21  H   UNL A   1      31.643  17.529  21.692  1.00  0.00     0.158 HD
ATOM     22  H   UNL A   1      32.533  18.847  21.075  1.00  0.00     0.158 HD
ENDBRANCH  15  20
BRANCH  17  23
ATOM     23  N   UNL A   1      33.413  16.483  23.786  1.00  0.00     0.066 N 
ATOM     24  O   UNL A   1      34.050  16.289  22.740  1.00  0.00    -0.258 OA
ATOM     25  O   UNL A   1      33.043  15.581  24.554  1.00  0.00    -0.258 OA
ENDBRANCH  17  23
ENDBRANCH   9  14
ENDBRANCH   6   8
ENDBRANCH   5   6
ENDBRANCH   4   5
ENDBRANCH   3   4
ENDBRANCH   2   3
ENDBRANCH   1   2
BRANCH   1  26
ATOM     26  C   UNL A   1      37.787  19.829  25.020  1.00  0.00     0.261 C 
BRANCH  26  27
ATOM     27  O   UNL A   1      38.736  20.895  25.187  1.00  0.00    -0.460 OA
BRANCH  27  28
ATOM     28  C   UNL A   1      39.670  20.665  26.137  1.00  0.00     0.338 C 
ATOM     29  O   UNL A   1      40.256  19.610  26.352  1.00  0.00    -0.246 OA
BRANCH  28  30
ATOM     30  C   UNL A   1      40.038  21.922  26.811  1.00  0.00     0.060 A 
ATOM     31  C   UNL A   1      39.383  23.086  26.392  1.00  0.00     0.016 A 
ATOM     32  C   UNL A   1      41.056  21.984  27.767  1.00  0.00     0.016 A 
ATOM     33  C   UNL A   1      39.790  24.326  26.873  1.00  0.00     0.010 A 
ATOM     34  C   UNL A   1      41.465  23.233  28.249  1.00  0.00     0.010 A 
ATOM     35  C   UNL A   1      40.862  24.411  27.771  1.00  0.00    -0.014 A 
BRANCH  35  36
ATOM     36  C   UNL A   1      41.448  25.742  28.066  1.00  0.00     0.031 A 
ATOM     37  C   UNL A   1      42.840  26.047  27.580  1.00  0.00     0.074 A 
ATOM     38  C   UNL A   1      40.725  26.684  28.695  1.00  0.00     0.049 A 
ATOM     39  N   UNL A   1      43.544  27.142  27.704  1.00  0.00    -0.248 NA
ATOM     40  C   UNL A   1      43.528  24.966  26.859  1.00  0.00     0.031 C 
ATOM     41  C   UNL A   1      39.348  26.518  29.159  1.00  0.00     0.029 A 
ATOM     42  N   UNL A   1      41.045  27.972  29.040  1.00  0.00    -0.354 N 
ATOM     43  C   UNL A   1      44.755  26.887  27.070  1.00  0.00     0.074 A 
ATOM     44  C   UNL A   1      44.707  25.513  26.615  1.00  0.00     0.031 C 
ATOM     45  C   UNL A   1      38.938  27.668  29.722  1.00  0.00     0.029 A 
ATOM     46  C   UNL A   1      40.032  28.637  29.690  1.00  0.00     0.049 A 
ATOM     47  H   UNL A   1      41.918  28.383  28.841  1.00  0.00     0.167 HD
ATOM     48  C   UNL A   1      45.804  27.725  26.871  1.00  0.00     0.034 A 
ATOM     49  C   UNL A   1      40.000  29.880  30.209  1.00  0.00     0.034 A 
ATOM     50  C   UNL A   1      45.842  29.086  27.351  1.00  0.00     0.049 A 
ATOM     51  C   UNL A   1      41.218  30.761  30.073  1.00  0.00     0.074 A 
ATOM     52  C   UNL A   1      46.850  30.024  27.215  1.00  0.00     0.029 A 
ATOM     53  N   UNL A   1      44.826  29.701  28.074  1.00  0.00    -0.354 N 
ATOM     54  N   UNL A   1      42.361  30.507  29.477  1.00  0.00    -0.248 NA
ATOM     55  C   UNL A   1      41.137  32.097  30.676  1.00  0.00     0.031 C 
ATOM     56  C   UNL A   1      46.476  31.177  27.916  1.00  0.00     0.029 A 
ATOM     57  C   UNL A   1      45.200  30.991  28.422  1.00  0.00     0.049 A 
ATOM     58  H   UNL A   1      43.966  29.282  28.307  1.00  0.00     0.167 HD
ATOM     59  C   UNL A   1      43.121  31.666  29.605  1.00  0.00     0.074 A 
ATOM     60  C   UNL A   1      42.302  32.620  30.325  1.00  0.00     0.031 C 
ATOM     61  C   UNL A   1      44.379  31.925  29.159  1.00  0.00     0.034 A 
BRANCH  48  62
ATOM     62  C   UNL A   1      47.005  27.162  26.146  1.00  0.00     0.023 A 
ATOM     63  C   UNL A   1      47.989  26.413  26.816  1.00  0.00     0.031 A 
ATOM     64  C   UNL A   1      47.205  27.433  24.781  1.00  0.00     0.131 A 
ATOM     65  C   UNL A   1      49.163  26.038  26.147  1.00  0.00     0.055 A 
ATOM     66  C   UNL A   1      48.336  26.981  24.097  1.00  0.00     0.041 A 
ATOM     67  F   UNL A   1      46.316  28.164  24.091  1.00  0.00    -0.206 F 
ATOM     68  C   UNL A   1      49.333  26.296  24.785  1.00  0.00     0.022 A 
BRANCH  65  69
ATOM     69  S   UNL A   1      50.539  25.368  27.121  1.00  0.00     0.124 S 
ATOM     70  O   UNL A   1      49.879  24.301  27.868  1.00  0.00    -0.237 OA
ATOM     71  O   UNL A   1      51.478  24.943  26.091  1.00  0.00    -0.237 OA
ATOM     72  O   UNL A   1      50.973  26.507  27.930  1.00  0.00    -0.744 OA
ENDBRANCH  65  69
ENDBRANCH  48  62
BRANCH  49  73
ATOM     73  C   UNL A   1      38.785  30.366  30.925  1.00  0.00     0.023 A 
ATOM     74  C   UNL A   1      37.742  31.001  30.233  1.00  0.00     0.031 A 
ATOM     75  C   UNL A   1      38.671  30.237  32.320  1.00  0.00     0.131 A 
ATOM     76  C   UNL A   1      36.646  31.517  30.943  1.00  0.00     0.055 A 
ATOM     77  C   UNL A   1      37.557  30.708  33.015  1.00  0.00     0.041 A 
ATOM     78  F   UNL A   1      39.642  29.638  33.029  1.00  0.00    -0.206 F 
ATOM     79  C   UNL A   1      36.541  31.363  32.327  1.00  0.00     0.022 A 
BRANCH  76  80
ATOM     80  S   UNL A   1      35.389  32.457  30.035  1.00  0.00     0.124 S 
ATOM     81  O   UNL A   1      36.132  33.651  29.650  1.00  0.00    -0.237 OA
ATOM     82  O   UNL A   1      35.044  31.538  28.956  1.00  0.00    -0.237 OA
ATOM     83  O   UNL A   1      34.339  32.668  31.030  1.00  0.00    -0.744 OA
ENDBRANCH  76  80
ENDBRANCH  49  73
BRANCH  61  84
ATOM     84  C   UNL A   1      44.921  33.312  29.410  1.00  0.00     0.023 A 
ATOM     85  C   UNL A   1      44.664  34.379  28.531  1.00  0.00     0.031 A 
ATOM     86  C   UNL A   1      45.722  33.563  30.539  1.00  0.00     0.131 A 
ATOM     87  C   UNL A   1      45.254  35.631  28.761  1.00  0.00     0.055 A 
ATOM     88  C   UNL A   1      46.254  34.828  30.796  1.00  0.00     0.041 A 
ATOM     89  F   UNL A   1      46.001  32.582  31.412  1.00  0.00    -0.206 F 
ATOM     90  C   UNL A   1      46.032  35.867  29.897  1.00  0.00     0.022 A 
BRANCH  87  91
ATOM     91  S   UNL A   1      45.069  36.925  27.503  1.00  0.00     0.124 S 
ATOM     92  O   UNL A   1      44.941  38.128  28.321  1.00  0.00    -0.237 OA
ATOM     93  O   UNL A   1      46.309  36.801  26.743  1.00  0.00    -0.237 OA
ATOM     94  O   UNL A   1      43.859  36.534  26.783  1.00  0.00    -0.744 OA
ENDBRANCH  87  91
ENDBRANCH  61  84
ENDBRANCH  35  36
ENDBRANCH  28  30
ENDBRANCH  27  28
ENDBRANCH  26  27
ENDBRANCH   1  26
TORSDOF 20
ENDMDL
MODEL 3
REMARK VINA RESULT:     -11.5      1.625      7.678
REMARK SMILES Nc1nc(N2CCOC[C@H]2C(=O)OCCOCCOC(=O)c2ccc(-c3c4nc(c(-c5cc(S(=O)(=O)[O-])ccc5F)c5ccc([nH]5)c(-c5cc(S(=O)(=O)[O-])ccc5F)c5nc(c(-c6cc(S(=O)(=O)[O-])ccc6F)c6ccc3[nH]6)C=C5)C=C4)cc2)ccc1[N+](=O)[O-]
REMARK SMILES IDX 17 1 16 2 15 3 14 4 13 5 11 6 12 7 10 8 5 9 6 10 7 11 9 12
REMARK SMILES IDX 8 13 4 14 2 15 3 16 87 17 86 18 85 19 1 20 88 23 89 24 90 25
REMARK SMILES IDX 18 26 19 27 20 28 21 29 22 30 23 31 84 32 24 33 83 34 25 35
REMARK SMILES IDX 26 36 27 37 77 38 28 39 82 40 76 41 78 42 29 43 81 44 75 45
REMARK SMILES IDX 74 46 30 48 62 49 42 50 61 51 43 52 46 53 60 54 79 55 44 56
REMARK SMILES IDX 45 57 59 59 80 60 47 61 31 62 32 63 40 64 33 65 39 66 41 67
REMARK SMILES IDX 38 68 34 69 35 70 36 71 37 72 63 73 64 74 72 75 65 76 71 77
REMARK SMILES IDX 73 78 70 79 66 80 67 81 68 82 69 83 48 84 49 85 57 86 50 87
REMARK SMILES IDX 56 88 58 89 55 90 51 91 52 92 53 93 54 94
REMARK H PARENT 1 21 1 22 78 47 46 58
REMARK Flexibility Score: inf
ROOT
ATOM      1  C   UNL A   1      35.748  20.984  25.064  1.00  0.00     0.202 C 
ENDROOT
BRANCH   1   2
ATOM      2  O   UNL A   1      34.643  20.092  24.906  1.00  0.00    -0.374 OA
BRANCH   2   3
ATOM      3  C   UNL A   1      33.400  20.484  25.493  1.00  0.00     0.202 C 
BRANCH   3   4
ATOM      4  C   UNL A   1      33.431  21.780  26.307  1.00  0.00     0.261 C 
BRANCH   4   5
ATOM      5  O   UNL A   1      32.280  22.589  26.017  1.00  0.00    -0.462 OA
BRANCH   5   6
ATOM      6  C   UNL A   1      32.510  23.846  25.553  1.00  0.00     0.331 C 
ATOM      7  O   UNL A   1      33.301  24.640  26.060  1.00  0.00    -0.250 OA
BRANCH   6   8
ATOM      8  C   UNL A   1      31.652  24.220  24.339  1.00  0.00     0.220 C 
ATOM      9  N   UNL A   1      32.067  25.423  23.575  1.00  0.00    -0.339 N 
ATOM     10  C   UNL A   1      33.235  25.284  22.700  1.00  0.00     0.147 C 
ATOM     11  C   UNL A   1      33.109  24.017  21.846  1.00  0.00     0.181 C 
ATOM     12  C   UNL A   1      31.635  22.996  23.404  1.00  0.00     0.197 C 
ATOM     13  O   UNL A   1      32.852  22.855  22.648  1.00  0.00    -0.377 OA
BRANCH   9  14
ATOM     14  C   UNL A   1      31.184  26.469  23.425  1.00  0.00     0.132 A 
ATOM     15  C   UNL A   1      30.747  28.589  22.519  1.00  0.00     0.204 A 
ATOM     16  N   UNL A   1      31.630  27.613  22.855  1.00  0.00    -0.207 NA
ATOM     17  C   UNL A   1      29.394  28.483  22.831  1.00  0.00     0.311 A 
ATOM     18  C   UNL A   1      28.940  27.356  23.514  1.00  0.00     0.093 A 
ATOM     19  C   UNL A   1      29.848  26.341  23.801  1.00  0.00     0.054 A 
BRANCH  15  20
ATOM     20  N   UNL A   1      31.320  29.695  21.919  1.00  0.00    -0.378 N 
ATOM     21  H   UNL A   1      31.759  29.607  21.042  1.00  0.00     0.158 HD
ATOM     22  H   UNL A   1      31.289  30.571  22.368  1.00  0.00     0.158 HD
ENDBRANCH  15  20
BRANCH  17  23
ATOM     23  N   UNL A   1      28.431  29.497  22.427  1.00  0.00     0.066 N 
ATOM     24  O   UNL A   1      28.367  29.774  21.219  1.00  0.00    -0.258 OA
ATOM     25  O   UNL A   1      27.758  30.056  23.306  1.00  0.00    -0.258 OA
ENDBRANCH  17  23
ENDBRANCH   9  14
ENDBRANCH   6   8
ENDBRANCH   5   6
ENDBRANCH   4   5
ENDBRANCH   3   4
ENDBRANCH   2   3
ENDBRANCH   1   2
BRANCH   1  26
ATOM     26  C   UNL A   1      37.145  20.358  25.017  1.00  0.00     0.261 C 
BRANCH  26  27
ATOM     27  O   UNL A   1      38.194  21.339  25.069  1.00  0.00    -0.460 OA
BRANCH  27  28
ATOM     28  C   UNL A   1      39.202  21.030  25.916  1.00  0.00     0.338 C 
ATOM     29  O   UNL A   1      39.782  19.954  26.009  1.00  0.00    -0.246 OA
BRANCH  28  30
ATOM     30  C   UNL A   1      39.653  22.232  26.638  1.00  0.00     0.060 A 
ATOM     31  C   UNL A   1      39.033  23.443  26.309  1.00  0.00     0.016 A 
ATOM     32  C   UNL A   1      40.712  22.200  27.550  1.00  0.00     0.016 A 
ATOM     33  C   UNL A   1      39.514  24.638  26.836  1.00  0.00     0.010 A 
ATOM     34  C   UNL A   1      41.195  23.403  28.078  1.00  0.00     0.010 A 
ATOM     35  C   UNL A   1      40.626  24.629  27.689  1.00  0.00    -0.014 A 
BRANCH  35  36
ATOM     36  C   UNL A   1      41.281  25.916  28.027  1.00  0.00     0.031 A 
ATOM     37  C   UNL A   1      42.691  26.159  27.558  1.00  0.00     0.074 A 
ATOM     38  C   UNL A   1      40.606  26.878  28.681  1.00  0.00     0.049 A 
ATOM     39  N   UNL A   1      43.452  27.210  27.718  1.00  0.00    -0.248 NA
ATOM     40  C   UNL A   1      43.323  25.064  26.808  1.00  0.00     0.031 C 
ATOM     41  C   UNL A   1      39.220  26.774  29.133  1.00  0.00     0.029 A 
ATOM     42  N   UNL A   1      40.994  28.135  29.066  1.00  0.00    -0.354 N 
ATOM     43  C   UNL A   1      44.652  26.908  27.082  1.00  0.00     0.074 A 
ATOM     44  C   UNL A   1      44.532  25.553  26.586  1.00  0.00     0.031 C 
ATOM     45  C   UNL A   1      38.870  27.927  29.729  1.00  0.00     0.029 A 
ATOM     46  C   UNL A   1      40.015  28.834  29.731  1.00  0.00     0.049 A 
ATOM     47  H   UNL A   1      41.889  28.503  28.884  1.00  0.00     0.167 HD
ATOM     48  C   UNL A   1      45.746  27.693  26.913  1.00  0.00     0.034 A 
ATOM     49  C   UNL A   1      40.047  30.062  30.287  1.00  0.00     0.034 A 
ATOM     50  C   UNL A   1      45.856  29.035  27.435  1.00  0.00     0.049 A 
ATOM     51  C   UNL A   1      41.313  30.878  30.185  1.00  0.00     0.074 A 
ATOM     52  C   UNL A   1      46.914  29.920  27.332  1.00  0.00     0.029 A 
ATOM     53  N   UNL A   1      44.870  29.682  28.172  1.00  0.00    -0.354 N 
ATOM     54  N   UNL A   1      42.443  30.580  29.586  1.00  0.00    -0.248 NA
ATOM     55  C   UNL A   1      41.301  32.198  30.827  1.00  0.00     0.031 C 
ATOM     56  C   UNL A   1      46.599  31.070  28.066  1.00  0.00     0.029 A 
ATOM     57  C   UNL A   1      45.312  30.939  28.560  1.00  0.00     0.049 A 
ATOM     58  H   UNL A   1      43.987  29.304  28.388  1.00  0.00     0.167 HD
ATOM     59  C   UNL A   1      43.265  31.691  29.753  1.00  0.00     0.074 A 
ATOM     60  C   UNL A   1      42.495  32.667  30.498  1.00  0.00     0.031 C 
ATOM     61  C   UNL A   1      44.538  31.894  29.322  1.00  0.00     0.034 A 
BRANCH  48  62
ATOM     62  C   UNL A   1      46.920  27.088  26.178  1.00  0.00     0.023 A 
ATOM     63  C   UNL A   1      47.926  26.372  26.852  1.00  0.00     0.031 A 
ATOM     64  C   UNL A   1      47.070  27.282  24.794  1.00  0.00     0.131 A 
ATOM     65  C   UNL A   1      49.075  25.958  26.162  1.00  0.00     0.055 A 
ATOM     66  C   UNL A   1      48.175  26.790  24.095  1.00  0.00     0.041 A 
ATOM     67  F   UNL A   1      46.157  27.977  24.097  1.00  0.00    -0.206 F 
ATOM     68  C   UNL A   1      49.196  26.140  24.783  1.00  0.00     0.022 A 
BRANCH  65  69
ATOM     69  S   UNL A   1      50.484  25.338  27.122  1.00  0.00     0.124 S 
ATOM     70  O   UNL A   1      50.853  26.518  27.900  1.00  0.00    -0.237 OA
ATOM     71  O   UNL A   1      49.896  24.235  27.871  1.00  0.00    -0.237 OA
ATOM     72  O   UNL A   1      51.453  24.951  26.097  1.00  0.00    -0.744 OA
ENDBRANCH  65  69
ENDBRANCH  48  62
BRANCH  49  73
ATOM     73  C   UNL A   1      38.856  30.591  31.012  1.00  0.00     0.023 A 
ATOM     74  C   UNL A   1      37.941  31.444  30.376  1.00  0.00     0.031 A 
ATOM     75  C   UNL A   1      38.641  30.283  32.367  1.00  0.00     0.131 A 
ATOM     76  C   UNL A   1      36.872  31.989  31.104  1.00  0.00     0.055 A 
ATOM     77  C   UNL A   1      37.549  30.789  33.073  1.00  0.00     0.041 A 
ATOM     78  F   UNL A   1      39.488  29.473  33.022  1.00  0.00    -0.206 F 
ATOM     79  C   UNL A   1      36.663  31.657  32.444  1.00  0.00     0.022 A 
BRANCH  76  80
ATOM     80  S   UNL A   1      35.794  33.199  30.289  1.00  0.00     0.124 S 
ATOM     81  O   UNL A   1      35.671  34.227  31.315  1.00  0.00    -0.237 OA
ATOM     82  O   UNL A   1      36.576  33.556  29.111  1.00  0.00    -0.237 OA
ATOM     83  O   UNL A   1      34.575  32.438  30.017  1.00  0.00    -0.744 OA
ENDBRANCH  76  80
ENDBRANCH  49  73
BRANCH  61  84
ATOM     84  C   UNL A   1      45.154  33.241  29.617  1.00  0.00     0.023 A 
ATOM     85  C   UNL A   1      44.875  34.372  28.830  1.00  0.00     0.031 A 
ATOM     86  C   UNL A   1      46.046  33.389  30.693  1.00  0.00     0.131 A 
ATOM     87  C   UNL A   1      45.530  35.585  29.092  1.00  0.00     0.055 A 
ATOM     88  C   UNL A   1      46.647  34.614  30.989  1.00  0.00     0.041 A 
ATOM     89  F   UNL A   1      46.350  32.343  31.478  1.00  0.00    -0.206 F 
ATOM     90  C   UNL A   1      46.401  35.718  30.177  1.00  0.00     0.022 A 
BRANCH  87  91
ATOM     91  S   UNL A   1      45.305  36.965  27.936  1.00  0.00     0.124 S 
ATOM     92  O   UNL A   1      46.674  37.221  27.499  1.00  0.00    -0.237 OA
ATOM     93  O   UNL A   1      44.413  36.391  26.934  1.00  0.00    -0.237 OA
ATOM     94  O   UNL A   1      44.713  38.014  28.765  1.00  0.00    -0.744 OA
ENDBRANCH  87  91
ENDBRANCH  61  84
ENDBRANCH  35  36
ENDBRANCH  28  30
ENDBRANCH  27  28
ENDBRANCH  26  27
ENDBRANCH   1  26
TORSDOF 20
ENDMDL
