MODEL 1
REMARK VINA RESULT:     -11.7      0.000      0.000
REMARK SMILES O=C(COc1ccc(NC(=O)c2ccc(Br)cc2)cc1-c1nc2ccccc2o1)OCCOCCOC(=O)c1ccc(-c2c3nc(c(-c4cc(S(=O)(=O)[O-])ccc4F)c4ccc([nH]4)c(-c4cc(S(=O)(=O)[O-])ccc4F)c4nc(c(-c5cc(S(=O)(=O)[O-])ccc5F)c5ccc2[nH]5)C=C4)C=C3)cc1
REMARK SMILES IDX 32 1 31 2 30 3 2 4 1 5 3 6 4 7 5 8 6 9 20 10 7 11 19 12 8 13
REMARK SMILES IDX 21 14 22 15 29 16 23 17 28 18 24 19 27 20 25 21 26 22 9 23
REMARK SMILES IDX 10 24 11 26 12 27 13 28 18 29 14 30 17 31 15 32 16 33 33 34
REMARK SMILES IDX 34 35 35 36 36 37 37 38 38 39 39 40 40 41 101 42 41 43
REMARK SMILES IDX 100 44 42 45 43 46 44 47 94 48 45 49 99 50 93 51 95 52 46 53
REMARK SMILES IDX 98 54 92 55 91 56 47 58 79 59 59 60 78 61 60 62 63 63 77 64
REMARK SMILES IDX 96 65 61 66 62 67 76 69 97 70 64 71 48 72 49 73 57 74 50 75
REMARK SMILES IDX 56 76 58 77 55 78 51 79 52 80 53 81 54 82 80 83 81 84 89 85
REMARK SMILES IDX 82 86 88 87 90 88 87 89 83 90 84 91 85 92 86 93 65 94 66 95
REMARK SMILES IDX 74 96 67 97 73 98 75 99 72 100 68 101 69 102 70 103 71 104
REMARK H PARENT 9 25 95 57 63 68
REMARK Flexibility Score: inf
ROOT
ATOM      1  C   UNL A   1      34.609  20.409  25.313  1.00  0.00     0.202 C 
ENDROOT
BRANCH   1   2
ATOM      2  C   UNL A   1      33.932  20.849  26.590  1.00  0.00     0.261 C 
BRANCH   2   3
ATOM      3  O   UNL A   1      32.714  21.533  26.231  1.00  0.00    -0.461 OA
BRANCH   3   4
ATOM      4  C   UNL A   1      32.005  22.341  27.048  1.00  0.00     0.344 C 
ATOM      5  O   UNL A   1      32.448  22.697  28.139  1.00  0.00    -0.248 OA
BRANCH   4   6
ATOM      6  C   UNL A   1      30.672  22.813  26.555  1.00  0.00     0.352 C 
BRANCH   6   7
ATOM      7  O   UNL A   1      30.469  24.187  26.802  1.00  0.00    -0.481 OA
BRANCH   7   8
ATOM      8  C   UNL A   1      30.486  25.056  25.767  1.00  0.00     0.133 A 
ATOM      9  C   UNL A   1      29.183  25.398  25.441  1.00  0.00     0.049 A 
ATOM     10  C   UNL A   1      31.560  25.514  24.981  1.00  0.00     0.081 A 
ATOM     11  C   UNL A   1      28.947  26.342  24.475  1.00  0.00     0.030 A 
ATOM     12  C   UNL A   1      31.310  26.595  24.112  1.00  0.00     0.043 A 
ATOM     13  C   UNL A   1      30.000  27.076  23.947  1.00  0.00     0.042 A 
BRANCH  10  14
ATOM     14  C   UNL A   1      32.805  24.748  24.855  1.00  0.00     0.231 A 
ATOM     15  N   UNL A   1      33.840  24.787  25.675  1.00  0.00    -0.209 NA
ATOM     16  O   UNL A   1      33.001  23.992  23.723  1.00  0.00    -0.436 OA
ATOM     17  C   UNL A   1      34.844  24.165  24.976  1.00  0.00     0.110 A 
ATOM     18  C   UNL A   1      34.337  23.651  23.791  1.00  0.00     0.155 A 
ATOM     19  C   UNL A   1      36.224  24.103  25.220  1.00  0.00     0.032 A 
ATOM     20  C   UNL A   1      35.115  23.011  22.829  1.00  0.00     0.049 A 
ATOM     21  C   UNL A   1      37.049  23.540  24.236  1.00  0.00     0.003 A 
ATOM     22  C   UNL A   1      36.500  22.990  23.071  1.00  0.00     0.004 A 
ENDBRANCH  10  14
BRANCH  13  23
ATOM     23  N   UNL A   1      29.763  28.277  23.253  1.00  0.00    -0.322 N 
ATOM     24  C   UNL A   1      30.304  29.538  23.472  1.00  0.00     0.255 C 
ATOM     25  H   UNL A   1      29.124  28.215  22.507  1.00  0.00     0.170 HD
ATOM     26  O   UNL A   1      29.865  30.520  22.880  1.00  0.00    -0.269 OA
BRANCH  24  27
ATOM     27  C   UNL A   1      31.463  29.734  24.389  1.00  0.00     0.040 A 
ATOM     28  C   UNL A   1      31.231  30.282  25.658  1.00  0.00     0.015 A 
ATOM     29  C   UNL A   1      32.750  29.286  24.045  1.00  0.00     0.015 A 
ATOM     30  C   UNL A   1      32.262  30.310  26.605  1.00  0.00     0.016 A 
ATOM     31  C   UNL A   1      33.775  29.309  24.997  1.00  0.00     0.016 A 
ATOM     32  C   UNL A   1      33.521  29.810  26.275  1.00  0.00     0.018 A 
ATOM     33  Br  UNL A   1      34.892  29.781  27.579  1.00  0.00    -0.051 Br
ENDBRANCH  24  27
ENDBRANCH  13  23
ENDBRANCH   7   8
ENDBRANCH   6   7
ENDBRANCH   4   6
ENDBRANCH   3   4
ENDBRANCH   2   3
ENDBRANCH   1   2
BRANCH   1  34
ATOM     34  O   UNL A   1      36.027  20.595  25.348  1.00  0.00    -0.374 OA
BRANCH  34  35
ATOM     35  C   UNL A   1      36.804  19.498  24.849  1.00  0.00     0.202 C 
BRANCH  35  36
ATOM     36  C   UNL A   1      38.314  19.645  25.015  1.00  0.00     0.261 C 
BRANCH  36  37
ATOM     37  O   UNL A   1      38.648  20.846  25.738  1.00  0.00    -0.460 OA
BRANCH  37  38
ATOM     38  C   UNL A   1      39.840  20.814  26.379  1.00  0.00     0.338 C 
ATOM     39  O   UNL A   1      40.650  19.894  26.362  1.00  0.00    -0.246 OA
BRANCH  38  40
ATOM     40  C   UNL A   1      40.157  22.150  26.931  1.00  0.00     0.060 A 
ATOM     41  C   UNL A   1      39.381  23.235  26.496  1.00  0.00     0.016 A 
ATOM     42  C   UNL A   1      41.208  22.352  27.828  1.00  0.00     0.016 A 
ATOM     43  C   UNL A   1      39.697  24.531  26.896  1.00  0.00     0.010 A 
ATOM     44  C   UNL A   1      41.534  23.656  28.217  1.00  0.00     0.010 A 
ATOM     45  C   UNL A   1      40.809  24.753  27.715  1.00  0.00    -0.014 A 
BRANCH  45  46
ATOM     46  C   UNL A   1      41.326  26.134  27.889  1.00  0.00     0.031 A 
ATOM     47  C   UNL A   1      42.665  26.474  27.288  1.00  0.00     0.074 A 
ATOM     48  C   UNL A   1      40.613  27.069  28.542  1.00  0.00     0.049 A 
ATOM     49  N   UNL A   1      43.357  27.579  27.376  1.00  0.00    -0.248 NA
ATOM     50  C   UNL A   1      43.308  25.425  26.478  1.00  0.00     0.031 C 
ATOM     51  C   UNL A   1      39.279  26.871  29.108  1.00  0.00     0.029 A 
ATOM     52  N   UNL A   1      40.920  28.371  28.854  1.00  0.00    -0.354 N 
ATOM     53  C   UNL A   1      44.523  27.355  26.651  1.00  0.00     0.074 A 
ATOM     54  C   UNL A   1      44.453  26.004  26.142  1.00  0.00     0.031 C 
ATOM     55  C   UNL A   1      38.893  28.005  29.719  1.00  0.00     0.029 A 
ATOM     56  C   UNL A   1      39.969  28.990  29.633  1.00  0.00     0.049 A 
ATOM     57  H   UNL A   1      41.742  28.818  28.547  1.00  0.00     0.167 HD
ATOM     58  C   UNL A   1      45.557  28.203  26.435  1.00  0.00     0.034 A 
ATOM     59  C   UNL A   1      39.991  30.193  30.244  1.00  0.00     0.034 A 
ATOM     60  C   UNL A   1      45.607  29.550  26.945  1.00  0.00     0.049 A 
ATOM     61  C   UNL A   1      41.205  31.080  30.067  1.00  0.00     0.074 A 
ATOM     62  C   UNL A   1      46.584  30.508  26.741  1.00  0.00     0.029 A 
ATOM     63  N   UNL A   1      44.654  30.124  27.773  1.00  0.00    -0.354 N 
ATOM     64  N   UNL A   1      42.287  30.870  29.351  1.00  0.00    -0.248 NA
ATOM     65  C   UNL A   1      41.203  32.365  30.781  1.00  0.00     0.031 C 
ATOM     66  C   UNL A   1      46.269  31.624  27.519  1.00  0.00     0.029 A 
ATOM     67  C   UNL A   1      45.050  31.401  28.138  1.00  0.00     0.049 A 
ATOM     68  H   UNL A   1      43.819  29.687  28.061  1.00  0.00     0.167 HD
ATOM     69  C   UNL A   1      43.077  32.006  29.513  1.00  0.00     0.074 A 
ATOM     70  C   UNL A   1      42.338  32.908  30.370  1.00  0.00     0.031 C 
ATOM     71  C   UNL A   1      44.305  32.282  29.003  1.00  0.00     0.034 A 
BRANCH  58  72
ATOM     72  C   UNL A   1      46.750  27.688  25.670  1.00  0.00     0.023 A 
ATOM     73  C   UNL A   1      46.957  27.989  24.314  1.00  0.00     0.031 A 
ATOM     74  C   UNL A   1      47.715  26.907  26.331  1.00  0.00     0.131 A 
ATOM     75  C   UNL A   1      48.090  27.486  23.654  1.00  0.00     0.055 A 
ATOM     76  C   UNL A   1      48.870  26.465  25.687  1.00  0.00     0.041 A 
ATOM     77  F   UNL A   1      47.553  26.567  27.619  1.00  0.00    -0.206 F 
ATOM     78  C   UNL A   1      49.061  26.749  24.338  1.00  0.00     0.022 A 
BRANCH  75  79
ATOM     79  S   UNL A   1      48.238  27.732  21.863  1.00  0.00     0.124 S 
ATOM     80  O   UNL A   1      49.384  28.633  21.782  1.00  0.00    -0.237 OA
ATOM     81  O   UNL A   1      48.455  26.376  21.375  1.00  0.00    -0.237 OA
ATOM     82  O   UNL A   1      46.957  28.331  21.492  1.00  0.00    -0.744 OA
ENDBRANCH  75  79
ENDBRANCH  58  72
BRANCH  59  83
ATOM     83  C   UNL A   1      38.879  30.614  31.149  1.00  0.00     0.023 A 
ATOM     84  C   UNL A   1      37.836  31.435  30.692  1.00  0.00     0.031 A 
ATOM     85  C   UNL A   1      38.903  30.286  32.518  1.00  0.00     0.131 A 
ATOM     86  C   UNL A   1      36.904  31.957  31.603  1.00  0.00     0.055 A 
ATOM     87  C   UNL A   1      37.931  30.748  33.407  1.00  0.00     0.041 A 
ATOM     88  F   UNL A   1      39.882  29.515  33.017  1.00  0.00    -0.206 F 
ATOM     89  C   UNL A   1      36.934  31.605  32.954  1.00  0.00     0.022 A 
BRANCH  86  90
ATOM     90  S   UNL A   1      35.736  33.217  31.021  1.00  0.00     0.124 S 
ATOM     91  O   UNL A   1      34.556  32.412  30.726  1.00  0.00    -0.237 OA
ATOM     92  O   UNL A   1      35.639  34.097  32.180  1.00  0.00    -0.237 OA
ATOM     93  O   UNL A   1      36.407  33.792  29.858  1.00  0.00    -0.744 OA
ENDBRANCH  86  90
ENDBRANCH  59  83
BRANCH  71  94
ATOM     94  C   UNL A   1      44.907  33.625  29.338  1.00  0.00     0.023 A 
ATOM     95  C   UNL A   1      44.558  34.786  28.628  1.00  0.00     0.031 A 
ATOM     96  C   UNL A   1      45.836  33.746  30.387  1.00  0.00     0.131 A 
ATOM     97  C   UNL A   1      45.170  36.009  28.943  1.00  0.00     0.055 A 
ATOM     98  C   UNL A   1      46.393  34.975  30.739  1.00  0.00     0.041 A 
ATOM     99  F   UNL A   1      46.207  32.669  31.099  1.00  0.00    -0.206 F 
ATOM    100  C   UNL A   1      46.069  36.114  30.006  1.00  0.00     0.022 A 
BRANCH  97 101
ATOM    101  S   UNL A   1      44.835  37.448  27.891  1.00  0.00     0.124 S 
ATOM    102  O   UNL A   1      46.181  37.860  27.504  1.00  0.00    -0.237 OA
ATOM    103  O   UNL A   1      44.014  36.875  26.829  1.00  0.00    -0.237 OA
ATOM    104  O   UNL A   1      44.136  38.370  28.784  1.00  0.00    -0.744 OA
ENDBRANCH  97 101
ENDBRANCH  71  94
ENDBRANCH  45  46
ENDBRANCH  38  40
ENDBRANCH  37  38
ENDBRANCH  36  37
ENDBRANCH  35  36
ENDBRANCH  34  35
ENDBRANCH   1  34
TORSDOF 22
ENDMDL
MODEL 2
REMARK VINA RESULT:     -11.3      5.770      9.917
REMARK SMILES O=C(COc1ccc(NC(=O)c2ccc(Br)cc2)cc1-c1nc2ccccc2o1)OCCOCCOC(=O)c1ccc(-c2c3nc(c(-c4cc(S(=O)(=O)[O-])ccc4F)c4ccc([nH]4)c(-c4cc(S(=O)(=O)[O-])ccc4F)c4nc(c(-c5cc(S(=O)(=O)[O-])ccc5F)c5ccc2[nH]5)C=C4)C=C3)cc1
REMARK SMILES IDX 32 1 31 2 30 3 2 4 1 5 3 6 4 7 5 8 6 9 20 10 7 11 19 12 8 13
REMARK SMILES IDX 21 14 22 15 29 16 23 17 28 18 24 19 27 20 25 21 26 22 9 23
REMARK SMILES IDX 10 24 11 26 12 27 13 28 18 29 14 30 17 31 15 32 16 33 33 34
REMARK SMILES IDX 34 35 35 36 36 37 37 38 38 39 39 40 40 41 101 42 41 43
REMARK SMILES IDX 100 44 42 45 43 46 44 47 94 48 45 49 99 50 93 51 95 52 46 53
REMARK SMILES IDX 98 54 92 55 91 56 47 58 79 59 59 60 78 61 60 62 63 63 77 64
REMARK SMILES IDX 96 65 61 66 62 67 76 69 97 70 64 71 48 72 49 73 57 74 50 75
REMARK SMILES IDX 56 76 58 77 55 78 51 79 52 80 53 81 54 82 80 83 81 84 89 85
REMARK SMILES IDX 82 86 88 87 90 88 87 89 83 90 84 91 85 92 86 93 65 94 66 95
REMARK SMILES IDX 74 96 67 97 73 98 75 99 72 100 68 101 69 102 70 103 71 104
REMARK H PARENT 9 25 95 57 63 68
REMARK Flexibility Score: inf
ROOT
ATOM      1  C   UNL A   1      35.248  32.579  27.948  1.00  0.00     0.202 C 
ENDROOT
BRANCH   1   2
ATOM      2  C   UNL A   1      34.424  31.377  28.348  1.00  0.00     0.261 C 
BRANCH   2   3
ATOM      3  O   UNL A   1      34.516  30.406  27.285  1.00  0.00    -0.461 OA
BRANCH   3   4
ATOM      4  C   UNL A   1      33.492  30.014  26.498  1.00  0.00     0.344 C 
ATOM      5  O   UNL A   1      32.433  30.640  26.465  1.00  0.00    -0.248 OA
BRANCH   4   6
ATOM      6  C   UNL A   1      33.712  28.805  25.641  1.00  0.00     0.352 C 
BRANCH   6   7
ATOM      7  O   UNL A   1      33.155  28.957  24.353  1.00  0.00    -0.481 OA
BRANCH   7   8
ATOM      8  C   UNL A   1      32.669  27.872  23.710  1.00  0.00     0.133 A 
ATOM      9  C   UNL A   1      33.724  27.048  23.352  1.00  0.00     0.049 A 
ATOM     10  C   UNL A   1      31.358  27.571  23.296  1.00  0.00     0.081 A 
ATOM     11  C   UNL A   1      33.473  25.835  22.763  1.00  0.00     0.030 A 
ATOM     12  C   UNL A   1      31.109  26.260  22.844  1.00  0.00     0.043 A 
ATOM     13  C   UNL A   1      32.173  25.356  22.683  1.00  0.00     0.042 A 
BRANCH  10  14
ATOM     14  C   UNL A   1      30.359  28.622  23.076  1.00  0.00     0.231 A 
ATOM     15  N   UNL A   1      29.643  28.812  21.983  1.00  0.00    -0.209 NA
ATOM     16  O   UNL A   1      30.205  29.596  24.035  1.00  0.00    -0.436 OA
ATOM     17  C   UNL A   1      29.112  30.067  22.143  1.00  0.00     0.110 A 
ATOM     18  C   UNL A   1      29.427  30.547  23.406  1.00  0.00     0.155 A 
ATOM     19  C   UNL A   1      28.462  30.909  21.228  1.00  0.00     0.032 A 
ATOM     20  C   UNL A   1      29.084  31.820  23.859  1.00  0.00     0.049 A 
ATOM     21  C   UNL A   1      28.176  32.223  21.621  1.00  0.00     0.003 A 
ATOM     22  C   UNL A   1      28.467  32.663  22.918  1.00  0.00     0.004 A 
ENDBRANCH  10  14
BRANCH  13  23
ATOM     23  N   UNL A   1      31.922  23.994  22.438  1.00  0.00    -0.322 N 
ATOM     24  C   UNL A   1      32.709  22.889  22.740  1.00  0.00     0.255 C 
ATOM     25  H   UNL A   1      31.069  23.795  21.989  1.00  0.00     0.170 HD
ATOM     26  O   UNL A   1      32.419  21.776  22.307  1.00  0.00    -0.269 OA
BRANCH  24  27
ATOM     27  C   UNL A   1      33.894  23.005  23.636  1.00  0.00     0.040 A 
ATOM     28  C   UNL A   1      35.174  22.936  23.069  1.00  0.00     0.015 A 
ATOM     29  C   UNL A   1      33.749  23.283  25.005  1.00  0.00     0.015 A 
ATOM     30  C   UNL A   1      36.300  23.222  23.851  1.00  0.00     0.016 A 
ATOM     31  C   UNL A   1      34.876  23.576  25.781  1.00  0.00     0.016 A 
ATOM     32  C   UNL A   1      36.144  23.555  25.197  1.00  0.00     0.018 A 
ATOM     33  Br  UNL A   1      37.659  24.013  26.233  1.00  0.00    -0.051 Br
ENDBRANCH  24  27
ENDBRANCH  13  23
ENDBRANCH   7   8
ENDBRANCH   6   7
ENDBRANCH   4   6
ENDBRANCH   3   4
ENDBRANCH   2   3
ENDBRANCH   1   2
BRANCH   1  34
ATOM     34  O   UNL A   1      34.445  33.728  27.663  1.00  0.00    -0.374 OA
BRANCH  34  35
ATOM     35  C   UNL A   1      34.655  34.855  28.525  1.00  0.00     0.202 C 
BRANCH  35  36
ATOM     36  C   UNL A   1      33.435  35.289  29.333  1.00  0.00     0.261 C 
BRANCH  36  37
ATOM     37  O   UNL A   1      33.212  34.416  30.458  1.00  0.00    -0.460 OA
BRANCH  37  38
ATOM     38  C   UNL A   1      33.329  35.005  31.671  1.00  0.00     0.338 C 
ATOM     39  O   UNL A   1      32.501  35.732  32.209  1.00  0.00    -0.246 OA
BRANCH  38  40
ATOM     40  C   UNL A   1      34.508  34.469  32.386  1.00  0.00     0.060 A 
ATOM     41  C   UNL A   1      35.705  35.198  32.307  1.00  0.00     0.016 A 
ATOM     42  C   UNL A   1      34.463  33.266  33.094  1.00  0.00     0.016 A 
ATOM     43  C   UNL A   1      36.875  34.693  32.869  1.00  0.00     0.010 A 
ATOM     44  C   UNL A   1      35.643  32.752  33.645  1.00  0.00     0.010 A 
ATOM     45  C   UNL A   1      36.861  33.441  33.493  1.00  0.00    -0.014 A 
BRANCH  45  46
ATOM     46  C   UNL A   1      38.144  32.769  33.814  1.00  0.00     0.031 A 
ATOM     47  C   UNL A   1      38.632  31.684  32.890  1.00  0.00     0.074 A 
ATOM     48  C   UNL A   1      38.872  33.131  34.887  1.00  0.00     0.049 A 
ATOM     49  N   UNL A   1      39.673  30.902  33.004  1.00  0.00    -0.248 NA
ATOM     50  C   UNL A   1      37.836  31.450  31.673  1.00  0.00     0.031 C 
ATOM     51  C   UNL A   1      38.532  34.210  35.813  1.00  0.00     0.029 A 
ATOM     52  N   UNL A   1      40.044  32.617  35.386  1.00  0.00    -0.354 N 
ATOM     53  C   UNL A   1      39.649  30.073  31.887  1.00  0.00     0.074 A 
ATOM     54  C   UNL A   1      38.482  30.436  31.115  1.00  0.00     0.031 C 
ATOM     55  C   UNL A   1      39.462  34.261  36.782  1.00  0.00     0.029 A 
ATOM     56  C   UNL A   1      40.434  33.188  36.576  1.00  0.00     0.049 A 
ATOM     57  H   UNL A   1      40.556  31.907  34.934  1.00  0.00     0.167 HD
ATOM     58  C   UNL A   1      40.523  29.097  31.544  1.00  0.00     0.034 A 
ATOM     59  C   UNL A   1      41.431  32.851  37.420  1.00  0.00     0.034 A 
ATOM     60  C   UNL A   1      41.685  28.754  32.323  1.00  0.00     0.049 A 
ATOM     61  C   UNL A   1      42.331  31.689  37.059  1.00  0.00     0.074 A 
ATOM     62  C   UNL A   1      42.662  27.816  32.037  1.00  0.00     0.029 A 
ATOM     63  N   UNL A   1      42.018  29.315  33.547  1.00  0.00    -0.354 N 
ATOM     64  N   UNL A   1      42.319  30.934  35.983  1.00  0.00    -0.248 NA
ATOM     65  C   UNL A   1      43.380  31.331  38.025  1.00  0.00     0.031 C 
ATOM     66  C   UNL A   1      43.531  27.746  33.129  1.00  0.00     0.029 A 
ATOM     67  C   UNL A   1      43.152  28.702  34.056  1.00  0.00     0.049 A 
ATOM     68  H   UNL A   1      41.522  30.042  33.988  1.00  0.00     0.167 HD
ATOM     69  C   UNL A   1      43.370  30.033  36.137  1.00  0.00     0.074 A 
ATOM     70  C   UNL A   1      44.012  30.354  37.394  1.00  0.00     0.031 C 
ATOM     71  C   UNL A   1      43.771  29.028  35.318  1.00  0.00     0.034 A 
BRANCH  58  72
ATOM     72  C   UNL A   1      40.229  28.284  30.309  1.00  0.00     0.023 A 
ATOM     73  C   UNL A   1      40.920  28.479  29.101  1.00  0.00     0.031 A 
ATOM     74  C   UNL A   1      39.258  27.268  30.360  1.00  0.00     0.131 A 
ATOM     75  C   UNL A   1      40.608  27.687  27.984  1.00  0.00     0.055 A 
ATOM     76  C   UNL A   1      38.999  26.442  29.266  1.00  0.00     0.041 A 
ATOM     77  F   UNL A   1      38.550  27.057  31.480  1.00  0.00    -0.206 F 
ATOM     78  C   UNL A   1      39.672  26.653  28.067  1.00  0.00     0.022 A 
BRANCH  75  79
ATOM     79  S   UNL A   1      41.379  28.083  26.391  1.00  0.00     0.124 S 
ATOM     80  O   UNL A   1      41.276  26.807  25.687  1.00  0.00    -0.237 OA
ATOM     81  O   UNL A   1      40.534  29.160  25.890  1.00  0.00    -0.237 OA
ATOM     82  O   UNL A   1      42.739  28.476  26.756  1.00  0.00    -0.744 OA
ENDBRANCH  75  79
ENDBRANCH  58  72
BRANCH  59  83
ATOM     83  C   UNL A   1      41.596  33.550  38.730  1.00  0.00     0.023 A 
ATOM     84  C   UNL A   1      40.862  33.163  39.862  1.00  0.00     0.031 A 
ATOM     85  C   UNL A   1      42.416  34.689  38.839  1.00  0.00     0.131 A 
ATOM     86  C   UNL A   1      40.905  33.945  41.027  1.00  0.00     0.055 A 
ATOM     87  C   UNL A   1      42.512  35.422  40.024  1.00  0.00     0.041 A 
ATOM     88  F   UNL A   1      43.132  35.117  37.787  1.00  0.00    -0.206 F 
ATOM     89  C   UNL A   1      41.738  35.062  41.121  1.00  0.00     0.022 A 
BRANCH  86  90
ATOM     90  S   UNL A   1      39.748  33.563  42.371  1.00  0.00     0.124 S 
ATOM     91  O   UNL A   1      38.518  33.296  41.634  1.00  0.00    -0.237 OA
ATOM     92  O   UNL A   1      40.383  32.410  42.999  1.00  0.00    -0.237 OA
ATOM     93  O   UNL A   1      39.743  34.784  43.173  1.00  0.00    -0.744 OA
ENDBRANCH  86  90
ENDBRANCH  59  83
BRANCH  71  94
ATOM     94  C   UNL A   1      44.976  28.225  35.745  1.00  0.00     0.023 A 
ATOM     95  C   UNL A   1      44.855  27.106  36.585  1.00  0.00     0.031 A 
ATOM     96  C   UNL A   1      46.262  28.580  35.298  1.00  0.00     0.131 A 
ATOM     97  C   UNL A   1      46.004  26.410  36.992  1.00  0.00     0.055 A 
ATOM     98  C   UNL A   1      47.393  27.847  35.653  1.00  0.00     0.041 A 
ATOM     99  F   UNL A   1      46.437  29.642  34.494  1.00  0.00    -0.206 F 
ATOM    100  C   UNL A   1      47.269  26.761  36.516  1.00  0.00     0.022 A 
BRANCH  97 101
ATOM    101  S   UNL A   1      45.831  25.086  38.220  1.00  0.00     0.124 S 
ATOM    102  O   UNL A   1      45.127  24.058  37.460  1.00  0.00    -0.237 OA
ATOM    103  O   UNL A   1      47.219  24.790  38.560  1.00  0.00    -0.237 OA
ATOM    104  O   UNL A   1      45.052  25.709  39.288  1.00  0.00    -0.744 OA
ENDBRANCH  97 101
ENDBRANCH  71  94
ENDBRANCH  45  46
ENDBRANCH  38  40
ENDBRANCH  37  38
ENDBRANCH  36  37
ENDBRANCH  35  36
ENDBRANCH  34  35
ENDBRANCH   1  34
TORSDOF 22
ENDMDL
MODEL 3
REMARK VINA RESULT:     -11.1      1.885      2.104
REMARK SMILES O=C(COc1ccc(NC(=O)c2ccc(Br)cc2)cc1-c1nc2ccccc2o1)OCCOCCOC(=O)c1ccc(-c2c3nc(c(-c4cc(S(=O)(=O)[O-])ccc4F)c4ccc([nH]4)c(-c4cc(S(=O)(=O)[O-])ccc4F)c4nc(c(-c5cc(S(=O)(=O)[O-])ccc5F)c5ccc2[nH]5)C=C4)C=C3)cc1
REMARK SMILES IDX 32 1 31 2 30 3 2 4 1 5 3 6 4 7 5 8 6 9 20 10 7 11 19 12 8 13
REMARK SMILES IDX 21 14 22 15 29 16 23 17 28 18 24 19 27 20 25 21 26 22 9 23
REMARK SMILES IDX 10 24 11 26 12 27 13 28 18 29 14 30 17 31 15 32 16 33 33 34
REMARK SMILES IDX 34 35 35 36 36 37 37 38 38 39 39 40 40 41 101 42 41 43
REMARK SMILES IDX 100 44 42 45 43 46 44 47 94 48 45 49 99 50 93 51 95 52 46 53
REMARK SMILES IDX 98 54 92 55 91 56 47 58 79 59 59 60 78 61 60 62 63 63 77 64
REMARK SMILES IDX 96 65 61 66 62 67 76 69 97 70 64 71 48 72 49 73 57 74 50 75
REMARK SMILES IDX 56 76 58 77 55 78 51 79 52 80 53 81 54 82 80 83 81 84 89 85
REMARK SMILES IDX 82 86 88 87 90 88 87 89 83 90 84 91 85 92 86 93 65 94 66 95
REMARK SMILES IDX 74 96 67 97 73 98 75 99 72 100 68 101 69 102 70 103 71 104
REMARK H PARENT 9 25 95 57 63 68
REMARK Flexibility Score: inf
ROOT
ATOM      1  C   UNL A   1      34.572  20.316  25.314  1.00  0.00     0.202 C 
ENDROOT
BRANCH   1   2
ATOM      2  C   UNL A   1      34.173  21.088  26.551  1.00  0.00     0.261 C 
BRANCH   2   3
ATOM      3  O   UNL A   1      32.743  21.275  26.511  1.00  0.00    -0.461 OA
BRANCH   3   4
ATOM      4  C   UNL A   1      32.070  22.259  27.145  1.00  0.00     0.344 C 
ATOM      5  O   UNL A   1      32.511  22.781  28.168  1.00  0.00    -0.248 OA
BRANCH   4   6
ATOM      6  C   UNL A   1      30.782  22.712  26.530  1.00  0.00     0.352 C 
BRANCH   6   7
ATOM      7  O   UNL A   1      30.490  24.058  26.833  1.00  0.00    -0.481 OA
BRANCH   7   8
ATOM      8  C   UNL A   1      30.503  24.979  25.843  1.00  0.00     0.133 A 
ATOM      9  C   UNL A   1      29.199  25.342  25.547  1.00  0.00     0.049 A 
ATOM     10  C   UNL A   1      31.572  25.471  25.072  1.00  0.00     0.081 A 
ATOM     11  C   UNL A   1      28.959  26.334  24.632  1.00  0.00     0.030 A 
ATOM     12  C   UNL A   1      31.319  26.595  24.261  1.00  0.00     0.043 A 
ATOM     13  C   UNL A   1      30.010  27.090  24.132  1.00  0.00     0.042 A 
BRANCH  10  14
ATOM     14  C   UNL A   1      32.812  24.707  24.896  1.00  0.00     0.231 A 
ATOM     15  N   UNL A   1      33.879  24.748  25.673  1.00  0.00    -0.209 NA
ATOM     16  O   UNL A   1      32.964  23.950  23.758  1.00  0.00    -0.436 OA
ATOM     17  C   UNL A   1      34.855  24.128  24.934  1.00  0.00     0.110 A 
ATOM     18  C   UNL A   1      34.302  23.612  23.772  1.00  0.00     0.155 A 
ATOM     19  C   UNL A   1      36.245  24.068  25.123  1.00  0.00     0.032 A 
ATOM     20  C   UNL A   1      35.041  22.972  22.779  1.00  0.00     0.049 A 
ATOM     21  C   UNL A   1      37.030  23.506  24.107  1.00  0.00     0.003 A 
ATOM     22  C   UNL A   1      36.435  22.954  22.965  1.00  0.00     0.004 A 
ENDBRANCH  10  14
BRANCH  13  23
ATOM     23  N   UNL A   1      29.773  28.325  23.502  1.00  0.00    -0.322 N 
ATOM     24  C   UNL A   1      30.357  29.562  23.749  1.00  0.00     0.255 C 
ATOM     25  H   UNL A   1      29.099  28.312  22.785  1.00  0.00     0.170 HD
ATOM     26  O   UNL A   1      29.917  30.580  23.220  1.00  0.00    -0.269 OA
BRANCH  24  27
ATOM     27  C   UNL A   1      31.561  29.690  24.618  1.00  0.00     0.040 A 
ATOM     28  C   UNL A   1      31.391  30.111  25.944  1.00  0.00     0.015 A 
ATOM     29  C   UNL A   1      32.832  29.299  24.165  1.00  0.00     0.015 A 
ATOM     30  C   UNL A   1      32.472  30.067  26.833  1.00  0.00     0.016 A 
ATOM     31  C   UNL A   1      33.907  29.249  25.059  1.00  0.00     0.016 A 
ATOM     32  C   UNL A   1      33.718  29.621  26.391  1.00  0.00     0.018 A 
ATOM     33  Br  UNL A   1      35.157  29.493  27.612  1.00  0.00    -0.051 Br
ENDBRANCH  24  27
ENDBRANCH  13  23
ENDBRANCH   7   8
ENDBRANCH   6   7
ENDBRANCH   4   6
ENDBRANCH   3   4
ENDBRANCH   2   3
ENDBRANCH   1   2
BRANCH   1  34
ATOM     34  O   UNL A   1      35.949  20.499  24.970  1.00  0.00    -0.374 OA
BRANCH  34  35
ATOM     35  C   UNL A   1      36.748  19.309  24.976  1.00  0.00     0.202 C 
BRANCH  35  36
ATOM     36  C   UNL A   1      38.256  19.541  25.000  1.00  0.00     0.261 C 
BRANCH  36  37
ATOM     37  O   UNL A   1      38.595  20.711  25.772  1.00  0.00    -0.460 OA
BRANCH  37  38
ATOM     38  C   UNL A   1      39.827  20.689  26.331  1.00  0.00     0.338 C 
ATOM     39  O   UNL A   1      40.650  19.784  26.243  1.00  0.00    -0.246 OA
BRANCH  38  40
ATOM     40  C   UNL A   1      40.159  22.020  26.886  1.00  0.00     0.060 A 
ATOM     41  C   UNL A   1      39.426  23.121  26.416  1.00  0.00     0.016 A 
ATOM     42  C   UNL A   1      41.180  22.202  27.820  1.00  0.00     0.016 A 
ATOM     43  C   UNL A   1      39.761  24.412  26.818  1.00  0.00     0.010 A 
ATOM     44  C   UNL A   1      41.525  23.501  28.211  1.00  0.00     0.010 A 
ATOM     45  C   UNL A   1      40.848  24.612  27.676  1.00  0.00    -0.014 A 
BRANCH  45  46
ATOM     46  C   UNL A   1      41.393  25.980  27.859  1.00  0.00     0.031 A 
ATOM     47  C   UNL A   1      42.790  26.262  27.370  1.00  0.00     0.074 A 
ATOM     48  C   UNL A   1      40.657  26.955  28.424  1.00  0.00     0.049 A 
ATOM     49  N   UNL A   1      43.508  27.347  27.491  1.00  0.00    -0.248 NA
ATOM     50  C   UNL A   1      43.467  25.171  26.648  1.00  0.00     0.031 C 
ATOM     51  C   UNL A   1      39.273  26.814  28.874  1.00  0.00     0.029 A 
ATOM     52  N   UNL A   1      40.979  28.255  28.728  1.00  0.00    -0.354 N 
ATOM     53  C   UNL A   1      44.725  27.067  26.878  1.00  0.00     0.074 A 
ATOM     54  C   UNL A   1      44.655  25.704  26.399  1.00  0.00     0.031 C 
ATOM     55  C   UNL A   1      38.873  27.976  29.420  1.00  0.00     0.029 A 
ATOM     56  C   UNL A   1      39.985  28.925  29.404  1.00  0.00     0.049 A 
ATOM     57  H   UNL A   1      41.839  28.668  28.483  1.00  0.00     0.167 HD
ATOM     58  C   UNL A   1      45.802  27.875  26.733  1.00  0.00     0.034 A 
ATOM     59  C   UNL A   1      39.993  30.144  29.983  1.00  0.00     0.034 A 
ATOM     60  C   UNL A   1      45.851  29.234  27.210  1.00  0.00     0.049 A 
ATOM     61  C   UNL A   1      41.247  30.987  29.892  1.00  0.00     0.074 A 
ATOM     62  C   UNL A   1      46.874  30.155  27.068  1.00  0.00     0.029 A 
ATOM     63  N   UNL A   1      44.850  29.860  27.936  1.00  0.00    -0.354 N 
ATOM     64  N   UNL A   1      42.380  30.724  29.280  1.00  0.00    -0.248 NA
ATOM     65  C   UNL A   1      41.226  32.291  30.570  1.00  0.00     0.031 C 
ATOM     66  C   UNL A   1      46.529  31.303  27.787  1.00  0.00     0.029 A 
ATOM     67  C   UNL A   1      45.255  31.134  28.301  1.00  0.00     0.049 A 
ATOM     68  H   UNL A   1      43.979  29.458  28.160  1.00  0.00     0.167 HD
ATOM     69  C   UNL A   1      43.191  31.839  29.482  1.00  0.00     0.074 A 
ATOM     70  C   UNL A   1      42.410  32.787  30.247  1.00  0.00     0.031 C 
ATOM     71  C   UNL A   1      44.466  32.062  29.075  1.00  0.00     0.034 A 
BRANCH  58  72
ATOM     72  C   UNL A   1      47.039  27.303  26.089  1.00  0.00     0.023 A 
ATOM     73  C   UNL A   1      48.012  26.605  26.823  1.00  0.00     0.031 A 
ATOM     74  C   UNL A   1      47.224  27.433  24.701  1.00  0.00     0.131 A 
ATOM     75  C   UNL A   1      49.141  26.088  26.169  1.00  0.00     0.055 A 
ATOM     76  C   UNL A   1      48.316  26.862  24.047  1.00  0.00     0.041 A 
ATOM     77  F   UNL A   1      46.339  28.113  23.955  1.00  0.00    -0.206 F 
ATOM     78  C   UNL A   1      49.286  26.189  24.783  1.00  0.00     0.022 A 
BRANCH  75  79
ATOM     79  S   UNL A   1      50.469  25.357  27.165  1.00  0.00     0.124 S 
ATOM     80  O   UNL A   1      51.358  24.831  26.133  1.00  0.00    -0.237 OA
ATOM     81  O   UNL A   1      50.968  26.502  27.917  1.00  0.00    -0.237 OA
ATOM     82  O   UNL A   1      49.782  24.341  27.961  1.00  0.00    -0.744 OA
ENDBRANCH  75  79
ENDBRANCH  58  72
BRANCH  59  83
ATOM     83  C   UNL A   1      38.822  30.624  30.776  1.00  0.00     0.023 A 
ATOM     84  C   UNL A   1      37.824  31.422  30.194  1.00  0.00     0.031 A 
ATOM     85  C   UNL A   1      38.740  30.379  32.160  1.00  0.00     0.131 A 
ATOM     86  C   UNL A   1      36.831  32.002  31.000  1.00  0.00     0.055 A 
ATOM     87  C   UNL A   1      37.709  30.899  32.944  1.00  0.00     0.041 A 
ATOM     88  F   UNL A   1      39.672  29.635  32.776  1.00  0.00    -0.206 F 
ATOM     89  C   UNL A   1      36.757  31.733  32.368  1.00  0.00     0.022 A 
BRANCH  86  90
ATOM     90  S   UNL A   1      35.722  33.231  30.258  1.00  0.00     0.124 S 
ATOM     91  O   UNL A   1      34.751  32.381  29.579  1.00  0.00    -0.237 OA
ATOM     92  O   UNL A   1      35.238  33.949  31.432  1.00  0.00    -0.237 OA
ATOM     93  O   UNL A   1      36.602  33.998  29.379  1.00  0.00    -0.744 OA
ENDBRANCH  86  90
ENDBRANCH  59  83
BRANCH  71  94
ATOM     94  C   UNL A   1      45.082  33.395  29.427  1.00  0.00     0.023 A 
ATOM     95  C   UNL A   1      45.832  33.573  30.601  1.00  0.00     0.031 A 
ATOM     96  C   UNL A   1      44.923  34.499  28.570  1.00  0.00     0.131 A 
ATOM     97  C   UNL A   1      46.354  34.837  30.913  1.00  0.00     0.055 A 
ATOM     98  C   UNL A   1      45.498  35.738  28.853  1.00  0.00     0.041 A 
ATOM     99  F   UNL A   1      44.215  34.388  27.434  1.00  0.00    -0.206 F 
ATOM    100  C   UNL A   1      46.209  35.915  30.037  1.00  0.00     0.022 A 
BRANCH  97 101
ATOM    101  S   UNL A   1      47.158  35.076  32.521  1.00  0.00     0.124 S 
ATOM    102  O   UNL A   1      47.658  33.736  32.812  1.00  0.00    -0.237 OA
ATOM    103  O   UNL A   1      48.170  36.083  32.219  1.00  0.00    -0.237 OA
ATOM    104  O   UNL A   1      46.070  35.533  33.384  1.00  0.00    -0.744 OA
ENDBRANCH  97 101
ENDBRANCH  71  94
ENDBRANCH  45  46
ENDBRANCH  38  40
ENDBRANCH  37  38
ENDBRANCH  36  37
ENDBRANCH  35  36
ENDBRANCH  34  35
ENDBRANCH   1  34
TORSDOF 22
ENDMDL
