MODEL 1
REMARK VINA RESULT:     -10.4      0.000      0.000
REMARK SMILES Nc1nc(N)nc(N/C=C/C(=O)OCCOCCOC(=O)c2ccc(-c3c4nc(c(-c5cc(S(=O)(=O)[O-])ccc5F)c5ccc([nH]5)c(-c5cc(S(=O)(=O)[O-])ccc5F)c5nc(c(-c6cc(S(=O)(=O)[O-])ccc6F)c6ccc3[nH]6)C=C5)C=C4)cc2)n1
REMARK SMILES IDX 16 1 15 2 14 3 13 4 11 5 12 6 10 7 9 8 8 9 7 11 2 12 3 13
REMARK SMILES IDX 85 14 4 15 6 16 1 17 5 20 17 23 18 24 19 25 20 26 21 27
REMARK SMILES IDX 22 28 23 29 84 30 24 31 83 32 25 33 26 34 27 35 77 36 28 37
REMARK SMILES IDX 82 38 76 39 78 40 29 41 81 42 75 43 74 44 30 46 62 47 42 48
REMARK SMILES IDX 61 49 43 50 46 51 60 52 79 53 44 54 45 55 59 57 80 58 47 59
REMARK SMILES IDX 31 60 32 61 40 62 33 63 39 64 41 65 38 66 34 67 35 68 36 69
REMARK SMILES IDX 37 70 63 71 64 72 72 73 65 74 71 75 73 76 70 77 66 78 67 79
REMARK SMILES IDX 68 80 69 81 48 82 49 83 57 84 50 85 56 86 58 87 55 88 51 89
REMARK SMILES IDX 52 90 53 91 54 92
REMARK H PARENT 8 10 1 18 1 19 5 21 5 22 78 45 46 56
REMARK Flexibility Score: inf
ROOT
ATOM      1  O   UNL A   1      36.111  22.000  25.987  1.00  0.00    -0.374 OA
ENDROOT
BRANCH   1   2
ATOM      2  C   UNL A   1      35.163  22.972  25.541  1.00  0.00     0.202 C 
BRANCH   2   3
ATOM      3  C   UNL A   1      33.726  22.751  26.023  1.00  0.00     0.261 C 
BRANCH   3   4
ATOM      4  O   UNL A   1      32.890  22.283  24.950  1.00  0.00    -0.460 OA
BRANCH   4   5
ATOM      5  C   UNL A   1      31.904  21.428  25.307  1.00  0.00     0.332 C 
ATOM      6  O   UNL A   1      30.861  21.707  25.880  1.00  0.00    -0.247 OA
BRANCH   5   7
ATOM      7  C   UNL A   1      32.157  20.060  24.814  1.00  0.00     0.111 C 
ATOM      8  C   UNL A   1      32.883  19.736  23.736  1.00  0.00     0.093 C 
BRANCH   8   9
ATOM      9  N   UNL A   1      33.124  18.460  23.304  1.00  0.00    -0.330 N 
ATOM     10  H   UNL A   1      33.001  18.301  22.341  1.00  0.00     0.169 HD
BRANCH   9  11
ATOM     11  C   UNL A   1      33.523  17.359  24.059  1.00  0.00     0.233 A 
ATOM     12  C   UNL A   1      32.916  15.492  25.134  1.00  0.00     0.226 A 
ATOM     13  N   UNL A   1      34.122  15.314  25.639  1.00  0.00    -0.177 NA
ATOM     14  N   UNL A   1      32.561  16.485  24.337  1.00  0.00    -0.177 NA
ATOM     15  C   UNL A   1      35.015  16.225  25.287  1.00  0.00     0.226 A 
ATOM     16  N   UNL A   1      34.770  17.262  24.505  1.00  0.00    -0.177 NA
BRANCH  12  17
ATOM     17  N   UNL A   1      31.946  14.594  25.486  1.00  0.00    -0.368 N 
ATOM     18  H   UNL A   1      31.341  14.792  26.238  1.00  0.00     0.159 HD
ATOM     19  H   UNL A   1      31.854  13.749  24.990  1.00  0.00     0.159 HD
ENDBRANCH  12  17
BRANCH  15  20
ATOM     20  N   UNL A   1      36.279  16.093  25.781  1.00  0.00    -0.368 N 
ATOM     21  H   UNL A   1      36.893  16.863  25.777  1.00  0.00     0.159 HD
ATOM     22  H   UNL A   1      36.579  15.227  26.141  1.00  0.00     0.159 HD
ENDBRANCH  15  20
ENDBRANCH   9  11
ENDBRANCH   8   9
ENDBRANCH   5   7
ENDBRANCH   4   5
ENDBRANCH   3   4
ENDBRANCH   2   3
ENDBRANCH   1   2
BRANCH   1  23
ATOM     23  C   UNL A   1      36.094  20.739  25.317  1.00  0.00     0.202 C 
BRANCH  23  24
ATOM     24  C   UNL A   1      37.465  20.125  25.008  1.00  0.00     0.261 C 
BRANCH  24  25
ATOM     25  O   UNL A   1      38.525  21.092  25.118  1.00  0.00    -0.460 OA
BRANCH  25  26
ATOM     26  C   UNL A   1      39.442  20.826  26.079  1.00  0.00     0.338 C 
ATOM     27  O   UNL A   1      39.926  19.734  26.346  1.00  0.00    -0.246 OA
BRANCH  26  28
ATOM     28  C   UNL A   1      39.937  22.082  26.672  1.00  0.00     0.060 A 
ATOM     29  C   UNL A   1      39.375  23.280  26.213  1.00  0.00     0.016 A 
ATOM     30  C   UNL A   1      40.968  22.103  27.616  1.00  0.00     0.016 A 
ATOM     31  C   UNL A   1      39.873  24.503  26.656  1.00  0.00     0.010 A 
ATOM     32  C   UNL A   1      41.471  23.333  28.055  1.00  0.00     0.010 A 
ATOM     33  C   UNL A   1      40.948  24.539  27.554  1.00  0.00    -0.014 A 
BRANCH  33  34
ATOM     34  C   UNL A   1      41.610  25.834  27.857  1.00  0.00     0.031 A 
ATOM     35  C   UNL A   1      40.840  26.889  28.606  1.00  0.00     0.074 A 
ATOM     36  C   UNL A   1      42.887  26.057  27.495  1.00  0.00     0.049 A 
ATOM     37  N   UNL A   1      41.199  28.101  28.939  1.00  0.00    -0.248 NA
ATOM     38  C   UNL A   1      39.480  26.525  29.033  1.00  0.00     0.031 C 
ATOM     39  C   UNL A   1      43.748  25.095  26.808  1.00  0.00     0.029 A 
ATOM     40  N   UNL A   1      43.681  27.166  27.651  1.00  0.00    -0.354 N 
ATOM     41  C   UNL A   1      40.112  28.649  29.611  1.00  0.00     0.074 A 
ATOM     42  C   UNL A   1      39.068  27.646  29.607  1.00  0.00     0.031 C 
ATOM     43  C   UNL A   1      44.948  25.660  26.593  1.00  0.00     0.029 A 
ATOM     44  C   UNL A   1      44.930  27.035  27.091  1.00  0.00     0.049 A 
ATOM     45  H   UNL A   1      43.384  27.978  28.122  1.00  0.00     0.167 HD
ATOM     46  C   UNL A   1      39.998  29.872  30.186  1.00  0.00     0.034 A 
ATOM     47  C   UNL A   1      45.932  27.930  26.968  1.00  0.00     0.034 A 
ATOM     48  C   UNL A   1      41.045  30.864  30.178  1.00  0.00     0.049 A 
ATOM     49  C   UNL A   1      45.750  29.316  27.544  1.00  0.00     0.074 A 
ATOM     50  C   UNL A   1      41.039  32.127  30.743  1.00  0.00     0.029 A 
ATOM     51  N   UNL A   1      42.281  30.712  29.564  1.00  0.00    -0.354 N 
ATOM     52  N   UNL A   1      44.718  29.817  28.185  1.00  0.00    -0.248 NA
ATOM     53  C   UNL A   1      46.870  30.254  27.385  1.00  0.00     0.031 C 
ATOM     54  C   UNL A   1      42.240  32.763  30.412  1.00  0.00     0.029 A 
ATOM     55  C   UNL A   1      43.031  31.870  29.707  1.00  0.00     0.049 A 
ATOM     56  H   UNL A   1      42.581  29.900  29.095  1.00  0.00     0.167 HD
ATOM     57  C   UNL A   1      45.084  31.116  28.536  1.00  0.00     0.074 A 
ATOM     58  C   UNL A   1      46.431  31.315  28.046  1.00  0.00     0.031 C 
ATOM     59  C   UNL A   1      44.373  32.057  29.208  1.00  0.00     0.034 A 
BRANCH  46  60
ATOM     60  C   UNL A   1      38.676  30.221  30.824  1.00  0.00     0.023 A 
ATOM     61  C   UNL A   1      37.678  30.926  30.129  1.00  0.00     0.031 A 
ATOM     62  C   UNL A   1      38.414  29.850  32.156  1.00  0.00     0.131 A 
ATOM     63  C   UNL A   1      36.491  31.288  30.786  1.00  0.00     0.055 A 
ATOM     64  C   UNL A   1      37.202  30.150  32.780  1.00  0.00     0.041 A 
ATOM     65  F   UNL A   1      39.339  29.195  32.877  1.00  0.00    -0.206 F 
ATOM     66  C   UNL A   1      36.236  30.884  32.099  1.00  0.00     0.022 A 
BRANCH  63  67
ATOM     67  S   UNL A   1      35.336  32.402  29.941  1.00  0.00     0.124 S 
ATOM     68  O   UNL A   1      34.947  31.602  28.782  1.00  0.00    -0.237 OA
ATOM     69  O   UNL A   1      34.303  32.610  30.950  1.00  0.00    -0.237 OA
ATOM     70  O   UNL A   1      36.152  33.575  29.634  1.00  0.00    -0.744 OA
ENDBRANCH  63  67
ENDBRANCH  46  60
BRANCH  47  71
ATOM     71  C   UNL A   1      47.183  27.576  26.238  1.00  0.00     0.023 A 
ATOM     72  C   UNL A   1      47.327  27.843  24.868  1.00  0.00     0.031 A 
ATOM     73  C   UNL A   1      48.229  26.896  26.889  1.00  0.00     0.131 A 
ATOM     74  C   UNL A   1      48.462  27.385  24.180  1.00  0.00     0.055 A 
ATOM     75  C   UNL A   1      49.382  26.493  26.213  1.00  0.00     0.041 A 
ATOM     76  F   UNL A   1      48.143  26.611  28.198  1.00  0.00    -0.206 F 
ATOM     77  C   UNL A   1      49.496  26.723  24.846  1.00  0.00     0.022 A 
BRANCH  74  78
ATOM     78  S   UNL A   1      48.520  27.574  22.376  1.00  0.00     0.124 S 
ATOM     79  O   UNL A   1      49.769  28.305  22.196  1.00  0.00    -0.237 OA
ATOM     80  O   UNL A   1      48.518  26.185  21.928  1.00  0.00    -0.237 OA
ATOM     81  O   UNL A   1      47.305  28.327  22.074  1.00  0.00    -0.744 OA
ENDBRANCH  74  78
ENDBRANCH  47  71
BRANCH  59  82
ATOM     82  C   UNL A   1      45.066  33.367  29.499  1.00  0.00     0.023 A 
ATOM     83  C   UNL A   1      45.089  34.418  28.566  1.00  0.00     0.031 A 
ATOM     84  C   UNL A   1      45.718  33.560  30.730  1.00  0.00     0.131 A 
ATOM     85  C   UNL A   1      45.799  35.595  28.857  1.00  0.00     0.055 A 
ATOM     86  C   UNL A   1      46.370  34.756  31.038  1.00  0.00     0.041 A 
ATOM     87  F   UNL A   1      45.729  32.590  31.658  1.00  0.00    -0.206 F 
ATOM     88  C   UNL A   1      46.425  35.776  30.094  1.00  0.00     0.022 A 
BRANCH  85  89
ATOM     89  S   UNL A   1      45.967  36.854  27.562  1.00  0.00     0.124 S 
ATOM     90  O   UNL A   1      45.890  36.051  26.346  1.00  0.00    -0.237 OA
ATOM     91  O   UNL A   1      44.827  37.725  27.823  1.00  0.00    -0.237 OA
ATOM     92  O   UNL A   1      47.275  37.450  27.831  1.00  0.00    -0.744 OA
ENDBRANCH  85  89
ENDBRANCH  59  82
ENDBRANCH  33  34
ENDBRANCH  26  28
ENDBRANCH  25  26
ENDBRANCH  24  25
ENDBRANCH  23  24
ENDBRANCH   1  23
TORSDOF 21
ENDMDL
MODEL 2
REMARK VINA RESULT:     -10.1      3.163      8.801
REMARK SMILES Nc1nc(N)nc(N/C=C/C(=O)OCCOCCOC(=O)c2ccc(-c3c4nc(c(-c5cc(S(=O)(=O)[O-])ccc5F)c5ccc([nH]5)c(-c5cc(S(=O)(=O)[O-])ccc5F)c5nc(c(-c6cc(S(=O)(=O)[O-])ccc6F)c6ccc3[nH]6)C=C5)C=C4)cc2)n1
REMARK SMILES IDX 16 1 15 2 14 3 13 4 11 5 12 6 10 7 9 8 8 9 7 11 2 12 3 13
REMARK SMILES IDX 85 14 4 15 6 16 1 17 5 20 17 23 18 24 19 25 20 26 21 27
REMARK SMILES IDX 22 28 23 29 84 30 24 31 83 32 25 33 26 34 27 35 77 36 28 37
REMARK SMILES IDX 82 38 76 39 78 40 29 41 81 42 75 43 74 44 30 46 62 47 42 48
REMARK SMILES IDX 61 49 43 50 46 51 60 52 79 53 44 54 45 55 59 57 80 58 47 59
REMARK SMILES IDX 31 60 32 61 40 62 33 63 39 64 41 65 38 66 34 67 35 68 36 69
REMARK SMILES IDX 37 70 63 71 64 72 72 73 65 74 71 75 73 76 70 77 66 78 67 79
REMARK SMILES IDX 68 80 69 81 48 82 49 83 57 84 50 85 56 86 58 87 55 88 51 89
REMARK SMILES IDX 52 90 53 91 54 92
REMARK H PARENT 8 10 1 18 1 19 5 21 5 22 78 45 46 56
REMARK Flexibility Score: inf
ROOT
ATOM      1  O   UNL A   1      36.737  21.910  25.721  1.00  0.00    -0.374 OA
ENDROOT
BRANCH   1   2
ATOM      2  C   UNL A   1      35.628  22.708  25.302  1.00  0.00     0.202 C 
BRANCH   2   3
ATOM      3  C   UNL A   1      34.456  21.929  24.698  1.00  0.00     0.261 C 
BRANCH   3   4
ATOM      4  O   UNL A   1      33.198  22.453  25.158  1.00  0.00    -0.460 OA
BRANCH   4   5
ATOM      5  C   UNL A   1      32.192  22.440  24.255  1.00  0.00     0.332 C 
ATOM      6  O   UNL A   1      32.077  21.694  23.294  1.00  0.00    -0.247 OA
BRANCH   5   7
ATOM      7  C   UNL A   1      31.117  23.386  24.614  1.00  0.00     0.111 C 
ATOM      8  C   UNL A   1      30.892  24.573  24.036  1.00  0.00     0.093 C 
BRANCH   8   9
ATOM      9  N   UNL A   1      29.878  25.431  24.368  1.00  0.00    -0.330 N 
ATOM     10  H   UNL A   1      29.353  25.190  25.165  1.00  0.00     0.169 HD
BRANCH   9  11
ATOM     11  C   UNL A   1      29.496  26.602  23.718  1.00  0.00     0.233 A 
ATOM     12  C   UNL A   1      30.141  28.489  22.702  1.00  0.00     0.226 A 
ATOM     13  N   UNL A   1      28.905  28.942  22.617  1.00  0.00    -0.177 NA
ATOM     14  N   UNL A   1      30.495  27.331  23.232  1.00  0.00    -0.177 NA
ATOM     15  C   UNL A   1      27.979  28.135  23.110  1.00  0.00     0.226 A 
ATOM     16  N   UNL A   1      28.219  26.962  23.670  1.00  0.00    -0.177 NA
BRANCH  12  17
ATOM     17  N   UNL A   1      31.141  29.295  22.231  1.00  0.00    -0.368 N 
ATOM     18  H   UNL A   1      30.921  30.084  21.685  1.00  0.00     0.159 HD
ATOM     19  H   UNL A   1      32.080  29.086  22.438  1.00  0.00     0.159 HD
ENDBRANCH  12  17
BRANCH  15  20
ATOM     20  N   UNL A   1      26.682  28.552  23.052  1.00  0.00    -0.368 N 
ATOM     21  H   UNL A   1      26.468  29.453  22.717  1.00  0.00     0.159 HD
ATOM     22  H   UNL A   1      25.958  27.952  23.345  1.00  0.00     0.159 HD
ENDBRANCH  15  20
ENDBRANCH   9  11
ENDBRANCH   8   9
ENDBRANCH   5   7
ENDBRANCH   4   5
ENDBRANCH   3   4
ENDBRANCH   2   3
ENDBRANCH   1   2
BRANCH   1  23
ATOM     23  C   UNL A   1      36.886  20.639  25.085  1.00  0.00     0.202 C 
BRANCH  23  24
ATOM     24  C   UNL A   1      38.236  19.941  25.288  1.00  0.00     0.261 C 
BRANCH  24  25
ATOM     25  O   UNL A   1      39.315  20.884  25.422  1.00  0.00    -0.460 OA
BRANCH  25  26
ATOM     26  C   UNL A   1      40.010  20.793  26.581  1.00  0.00     0.338 C 
ATOM     27  O   UNL A   1      40.460  19.772  27.086  1.00  0.00    -0.246 OA
BRANCH  26  28
ATOM     28  C   UNL A   1      40.324  22.140  27.094  1.00  0.00     0.060 A 
ATOM     29  C   UNL A   1      39.648  23.223  26.520  1.00  0.00     0.016 A 
ATOM     30  C   UNL A   1      41.298  22.354  28.074  1.00  0.00     0.016 A 
ATOM     31  C   UNL A   1      39.975  24.527  26.886  1.00  0.00     0.010 A 
ATOM     32  C   UNL A   1      41.630  23.665  28.435  1.00  0.00     0.010 A 
ATOM     33  C   UNL A   1      40.993  24.759  27.821  1.00  0.00    -0.014 A 
BRANCH  33  34
ATOM     34  C   UNL A   1      41.482  26.143  28.048  1.00  0.00     0.031 A 
ATOM     35  C   UNL A   1      42.845  26.528  27.537  1.00  0.00     0.074 A 
ATOM     36  C   UNL A   1      40.711  27.052  28.673  1.00  0.00     0.049 A 
ATOM     37  N   UNL A   1      43.488  27.660  27.657  1.00  0.00    -0.248 NA
ATOM     38  C   UNL A   1      43.580  25.494  26.793  1.00  0.00     0.031 C 
ATOM     39  C   UNL A   1      39.357  26.810  29.170  1.00  0.00     0.029 A 
ATOM     40  N   UNL A   1      40.960  28.361  29.002  1.00  0.00    -0.354 N 
ATOM     41  C   UNL A   1      44.705  27.476  27.010  1.00  0.00     0.074 A 
ATOM     42  C   UNL A   1      44.721  26.111  26.529  1.00  0.00     0.031 C 
ATOM     43  C   UNL A   1      38.898  27.933  29.750  1.00  0.00     0.029 A 
ATOM     44  C   UNL A   1      39.937  28.960  29.701  1.00  0.00     0.049 A 
ATOM     45  H   UNL A   1      41.792  28.828  28.760  1.00  0.00     0.167 HD
ATOM     46  C   UNL A   1      45.712  28.366  26.826  1.00  0.00     0.034 A 
ATOM     47  C   UNL A   1      39.861  30.185  30.261  1.00  0.00     0.034 A 
ATOM     48  C   UNL A   1      45.684  29.722  27.318  1.00  0.00     0.049 A 
ATOM     49  C   UNL A   1      41.030  31.131  30.115  1.00  0.00     0.074 A 
ATOM     50  C   UNL A   1      46.643  30.710  27.173  1.00  0.00     0.029 A 
ATOM     51  N   UNL A   1      44.651  30.280  28.058  1.00  0.00    -0.354 N 
ATOM     52  N   UNL A   1      42.172  30.947  29.492  1.00  0.00    -0.248 NA
ATOM     53  C   UNL A   1      40.897  32.454  30.743  1.00  0.00     0.031 C 
ATOM     54  C   UNL A   1      46.221  31.839  27.884  1.00  0.00     0.029 A 
ATOM     55  C   UNL A   1      44.963  31.585  28.406  1.00  0.00     0.049 A 
ATOM     56  H   UNL A   1      43.816  29.817  28.299  1.00  0.00     0.167 HD
ATOM     57  C   UNL A   1      42.874  32.144  29.623  1.00  0.00     0.074 A 
ATOM     58  C   UNL A   1      42.025  33.043  30.373  1.00  0.00     0.031 C 
ATOM     59  C   UNL A   1      44.108  32.471  29.160  1.00  0.00     0.034 A 
BRANCH  46  60
ATOM     60  C   UNL A   1      46.948  27.881  26.110  1.00  0.00     0.023 A 
ATOM     61  C   UNL A   1      47.134  28.081  24.731  1.00  0.00     0.031 A 
ATOM     62  C   UNL A   1      47.953  27.197  26.818  1.00  0.00     0.131 A 
ATOM     63  C   UNL A   1      48.267  27.551  24.094  1.00  0.00     0.055 A 
ATOM     64  C   UNL A   1      49.112  26.736  26.191  1.00  0.00     0.041 A 
ATOM     65  F   UNL A   1      47.819  26.956  28.132  1.00  0.00    -0.206 F 
ATOM     66  C   UNL A   1      49.269  26.902  24.819  1.00  0.00     0.022 A 
BRANCH  63  67
ATOM     67  S   UNL A   1      48.356  27.614  22.283  1.00  0.00     0.124 S 
ATOM     68  O   UNL A   1      48.502  26.201  21.945  1.00  0.00    -0.237 OA
ATOM     69  O   UNL A   1      47.082  28.229  21.926  1.00  0.00    -0.237 OA
ATOM     70  O   UNL A   1      49.538  28.435  22.026  1.00  0.00    -0.744 OA
ENDBRANCH  63  67
ENDBRANCH  46  60
BRANCH  47  71
ATOM     71  C   UNL A   1      38.661  30.586  31.051  1.00  0.00     0.023 A 
ATOM     72  C   UNL A   1      37.567  31.221  30.444  1.00  0.00     0.031 A 
ATOM     73  C   UNL A   1      38.625  30.405  32.446  1.00  0.00     0.131 A 
ATOM     74  C   UNL A   1      36.510  31.701  31.231  1.00  0.00     0.055 A 
ATOM     75  C   UNL A   1      37.544  30.832  33.219  1.00  0.00     0.041 A 
ATOM     76  F   UNL A   1      39.645  29.806  33.081  1.00  0.00    -0.206 F 
ATOM     77  C   UNL A   1      36.484  31.499  32.614  1.00  0.00     0.022 A 
BRANCH  74  78
ATOM     78  S   UNL A   1      35.212  32.689  30.436  1.00  0.00     0.124 S 
ATOM     79  O   UNL A   1      34.841  31.840  29.311  1.00  0.00    -0.237 OA
ATOM     80  O   UNL A   1      34.225  32.807  31.505  1.00  0.00    -0.237 OA
ATOM     81  O   UNL A   1      35.898  33.931  30.083  1.00  0.00    -0.744 OA
ENDBRANCH  74  78
ENDBRANCH  47  71
BRANCH  59  82
ATOM     82  C   UNL A   1      44.584  33.883  29.407  1.00  0.00     0.023 A 
ATOM     83  C   UNL A   1      44.292  34.932  28.518  1.00  0.00     0.031 A 
ATOM     84  C   UNL A   1      45.347  34.179  30.551  1.00  0.00     0.131 A 
ATOM     85  C   UNL A   1      44.808  36.216  28.758  1.00  0.00     0.055 A 
ATOM     86  C   UNL A   1      45.807  35.470  30.816  1.00  0.00     0.041 A 
ATOM     87  F   UNL A   1      45.657  33.217  31.434  1.00  0.00    -0.206 F 
ATOM     88  C   UNL A   1      45.549  36.494  29.910  1.00  0.00     0.022 A 
BRANCH  85  89
ATOM     89  S   UNL A   1      44.572  37.500  27.499  1.00  0.00     0.124 S 
ATOM     90  O   UNL A   1      44.469  38.707  28.313  1.00  0.00    -0.237 OA
ATOM     91  O   UNL A   1      45.784  37.376  26.695  1.00  0.00    -0.237 OA
ATOM     92  O   UNL A   1      43.339  37.098  26.825  1.00  0.00    -0.744 OA
ENDBRANCH  85  89
ENDBRANCH  59  82
ENDBRANCH  33  34
ENDBRANCH  26  28
ENDBRANCH  25  26
ENDBRANCH  24  25
ENDBRANCH  23  24
ENDBRANCH   1  23
TORSDOF 21
ENDMDL
MODEL 3
REMARK VINA RESULT:     -10.1      3.351      8.981
REMARK SMILES Nc1nc(N)nc(N/C=C/C(=O)OCCOCCOC(=O)c2ccc(-c3c4nc(c(-c5cc(S(=O)(=O)[O-])ccc5F)c5ccc([nH]5)c(-c5cc(S(=O)(=O)[O-])ccc5F)c5nc(c(-c6cc(S(=O)(=O)[O-])ccc6F)c6ccc3[nH]6)C=C5)C=C4)cc2)n1
REMARK SMILES IDX 16 1 15 2 14 3 13 4 11 5 12 6 10 7 9 8 8 9 7 11 2 12 3 13
REMARK SMILES IDX 85 14 4 15 6 16 1 17 5 20 17 23 18 24 19 25 20 26 21 27
REMARK SMILES IDX 22 28 23 29 84 30 24 31 83 32 25 33 26 34 27 35 77 36 28 37
REMARK SMILES IDX 82 38 76 39 78 40 29 41 81 42 75 43 74 44 30 46 62 47 42 48
REMARK SMILES IDX 61 49 43 50 46 51 60 52 79 53 44 54 45 55 59 57 80 58 47 59
REMARK SMILES IDX 31 60 32 61 40 62 33 63 39 64 41 65 38 66 34 67 35 68 36 69
REMARK SMILES IDX 37 70 63 71 64 72 72 73 65 74 71 75 73 76 70 77 66 78 67 79
REMARK SMILES IDX 68 80 69 81 48 82 49 83 57 84 50 85 56 86 58 87 55 88 51 89
REMARK SMILES IDX 52 90 53 91 54 92
REMARK H PARENT 8 10 1 18 1 19 5 21 5 22 78 45 46 56
REMARK Flexibility Score: inf
ROOT
ATOM      1  O   UNL A   1      35.565  21.117  24.611  1.00  0.00    -0.374 OA
ENDROOT
BRANCH   1   2
ATOM      2  C   UNL A   1      34.356  21.501  25.269  1.00  0.00     0.202 C 
BRANCH   2   3
ATOM      3  C   UNL A   1      34.302  22.958  25.737  1.00  0.00     0.261 C 
BRANCH   3   4
ATOM      4  O   UNL A   1      35.144  23.792  24.921  1.00  0.00    -0.460 OA
BRANCH   4   5
ATOM      5  C   UNL A   1      34.523  24.433  23.905  1.00  0.00     0.332 C 
ATOM      6  O   UNL A   1      34.641  24.205  22.710  1.00  0.00    -0.247 OA
BRANCH   5   7
ATOM      7  C   UNL A   1      33.542  25.421  24.395  1.00  0.00     0.111 C 
ATOM      8  C   UNL A   1      33.664  26.753  24.320  1.00  0.00     0.093 C 
BRANCH   8   9
ATOM      9  N   UNL A   1      32.734  27.655  24.762  1.00  0.00    -0.330 N 
ATOM     10  H   UNL A   1      31.809  27.503  24.461  1.00  0.00     0.169 HD
BRANCH   9  11
ATOM     11  C   UNL A   1      32.935  28.761  25.585  1.00  0.00     0.233 A 
ATOM     12  C   UNL A   1      34.153  29.706  27.207  1.00  0.00     0.226 A 
ATOM     13  N   UNL A   1      33.324  30.726  27.324  1.00  0.00    -0.177 NA
ATOM     14  N   UNL A   1      34.015  28.704  26.356  1.00  0.00    -0.177 NA
ATOM     15  C   UNL A   1      32.290  30.702  26.498  1.00  0.00     0.226 A 
ATOM     16  N   UNL A   1      32.048  29.749  25.616  1.00  0.00    -0.177 NA
BRANCH  12  17
ATOM     17  N   UNL A   1      35.225  29.666  28.055  1.00  0.00    -0.368 N 
ATOM     18  H   UNL A   1      35.492  28.815  28.472  1.00  0.00     0.159 HD
ATOM     19  H   UNL A   1      35.730  30.489  28.248  1.00  0.00     0.159 HD
ENDBRANCH  12  17
BRANCH  15  20
ATOM     20  N   UNL A   1      31.397  31.731  26.575  1.00  0.00    -0.368 N 
ATOM     21  H   UNL A   1      30.687  31.818  25.900  1.00  0.00     0.159 HD
ATOM     22  H   UNL A   1      31.464  32.388  27.307  1.00  0.00     0.159 HD
ENDBRANCH  15  20
ENDBRANCH   9  11
ENDBRANCH   8   9
ENDBRANCH   5   7
ENDBRANCH   4   5
ENDBRANCH   3   4
ENDBRANCH   2   3
ENDBRANCH   1   2
BRANCH   1  23
ATOM     23  C   UNL A   1      36.146  19.876  25.017  1.00  0.00     0.202 C 
BRANCH  23  24
ATOM     24  C   UNL A   1      37.677  19.809  24.980  1.00  0.00     0.261 C 
BRANCH  24  25
ATOM     25  O   UNL A   1      38.281  21.046  25.399  1.00  0.00    -0.460 OA
BRANCH  25  26
ATOM     26  C   UNL A   1      39.441  20.911  26.085  1.00  0.00     0.338 C 
ATOM     27  O   UNL A   1      40.149  19.914  26.136  1.00  0.00    -0.246 OA
BRANCH  26  28
ATOM     28  C   UNL A   1      39.855  22.212  26.645  1.00  0.00     0.060 A 
ATOM     29  C   UNL A   1      39.198  23.356  26.177  1.00  0.00     0.016 A 
ATOM     30  C   UNL A   1      40.900  22.325  27.566  1.00  0.00     0.016 A 
ATOM     31  C   UNL A   1      39.614  24.621  26.588  1.00  0.00     0.010 A 
ATOM     32  C   UNL A   1      41.321  23.597  27.973  1.00  0.00     0.010 A 
ATOM     33  C   UNL A   1      40.702  24.752  27.462  1.00  0.00    -0.014 A 
BRANCH  33  34
ATOM     34  C   UNL A   1      41.273  26.096  27.728  1.00  0.00     0.031 A 
ATOM     35  C   UNL A   1      42.624  26.440  27.158  1.00  0.00     0.074 A 
ATOM     36  C   UNL A   1      40.586  27.009  28.440  1.00  0.00     0.049 A 
ATOM     37  N   UNL A   1      43.330  27.531  27.296  1.00  0.00    -0.248 NA
ATOM     38  C   UNL A   1      43.262  25.411  26.323  1.00  0.00     0.031 C 
ATOM     39  C   UNL A   1      39.251  26.808  29.002  1.00  0.00     0.029 A 
ATOM     40  N   UNL A   1      40.921  28.286  28.818  1.00  0.00    -0.354 N 
ATOM     41  C   UNL A   1      44.498  27.322  26.571  1.00  0.00     0.074 A 
ATOM     42  C   UNL A   1      44.417  25.984  26.023  1.00  0.00     0.031 C 
ATOM     43  C   UNL A   1      38.884  27.921  29.662  1.00  0.00     0.029 A 
ATOM     44  C   UNL A   1      39.970  28.897  29.603  1.00  0.00     0.049 A 
ATOM     45  H   UNL A   1      41.761  28.723  28.551  1.00  0.00     0.167 HD
ATOM     46  C   UNL A   1      45.538  28.170  26.373  1.00  0.00     0.034 A 
ATOM     47  C   UNL A   1      39.989  30.093  30.226  1.00  0.00     0.034 A 
ATOM     48  C   UNL A   1      45.608  29.499  26.931  1.00  0.00     0.049 A 
ATOM     49  C   UNL A   1      41.196  30.987  30.059  1.00  0.00     0.074 A 
ATOM     50  C   UNL A   1      46.607  30.445  26.780  1.00  0.00     0.029 A 
ATOM     51  N   UNL A   1      44.648  30.068  27.756  1.00  0.00    -0.354 N 
ATOM     52  N   UNL A   1      42.290  30.780  29.362  1.00  0.00    -0.248 NA
ATOM     53  C   UNL A   1      41.167  32.281  30.757  1.00  0.00     0.031 C 
ATOM     54  C   UNL A   1      46.285  31.555  27.568  1.00  0.00     0.029 A 
ATOM     55  C   UNL A   1      45.046  31.336  28.149  1.00  0.00     0.049 A 
ATOM     56  H   UNL A   1      43.805  29.634  28.023  1.00  0.00     0.167 HD
ATOM     57  C   UNL A   1      43.060  31.932  29.510  1.00  0.00     0.074 A 
ATOM     58  C   UNL A   1      42.301  32.833  30.352  1.00  0.00     0.031 C 
ATOM     59  C   UNL A   1      44.281  32.223  28.994  1.00  0.00     0.034 A 
BRANCH  46  60
ATOM     60  C   UNL A   1      46.706  27.663  25.563  1.00  0.00     0.023 A 
ATOM     61  C   UNL A   1      46.913  28.057  24.230  1.00  0.00     0.031 A 
ATOM     62  C   UNL A   1      47.622  26.759  26.132  1.00  0.00     0.131 A 
ATOM     63  C   UNL A   1      47.973  27.506  23.494  1.00  0.00     0.055 A 
ATOM     64  C   UNL A   1      48.717  26.271  25.417  1.00  0.00     0.041 A 
ATOM     65  F   UNL A   1      47.462  26.329  27.395  1.00  0.00    -0.206 F 
ATOM     66  C   UNL A   1      48.891  26.634  24.086  1.00  0.00     0.022 A 
BRANCH  63  67
ATOM     67  S   UNL A   1      48.067  27.847  21.715  1.00  0.00     0.124 S 
ATOM     68  O   UNL A   1      48.322  26.516  21.171  1.00  0.00    -0.237 OA
ATOM     69  O   UNL A   1      46.752  28.412  21.432  1.00  0.00    -0.237 OA
ATOM     70  O   UNL A   1      49.185  28.783  21.603  1.00  0.00    -0.744 OA
ENDBRANCH  63  67
ENDBRANCH  46  60
BRANCH  47  71
ATOM     71  C   UNL A   1      38.857  30.512  31.103  1.00  0.00     0.023 A 
ATOM     72  C   UNL A   1      37.776  31.249  30.596  1.00  0.00     0.031 A 
ATOM     73  C   UNL A   1      38.879  30.240  32.484  1.00  0.00     0.131 A 
ATOM     74  C   UNL A   1      36.791  31.738  31.468  1.00  0.00     0.055 A 
ATOM     75  C   UNL A   1      37.866  30.678  33.338  1.00  0.00     0.041 A 
ATOM     76  F   UNL A   1      39.890  29.542  33.024  1.00  0.00    -0.206 F 
ATOM     77  C   UNL A   1      36.822  31.446  32.834  1.00  0.00     0.022 A 
BRANCH  74  78
ATOM     78  S   UNL A   1      35.520  32.851  30.807  1.00  0.00     0.124 S 
ATOM     79  O   UNL A   1      36.162  34.152  30.950  1.00  0.00    -0.237 OA
ATOM     80  O   UNL A   1      35.366  32.356  29.443  1.00  0.00    -0.237 OA
ATOM     81  O   UNL A   1      34.375  32.620  31.686  1.00  0.00    -0.744 OA
ENDBRANCH  74  78
ENDBRANCH  47  71
BRANCH  59  82
ATOM     82  C   UNL A   1      44.842  33.595  29.281  1.00  0.00     0.023 A 
ATOM     83  C   UNL A   1      44.353  34.747  28.642  1.00  0.00     0.031 A 
ATOM     84  C   UNL A   1      45.890  33.747  30.208  1.00  0.00     0.131 A 
ATOM     85  C   UNL A   1      44.947  35.994  28.896  1.00  0.00     0.055 A 
ATOM     86  C   UNL A   1      46.437  34.998  30.501  1.00  0.00     0.041 A 
ATOM     87  F   UNL A   1      46.398  32.682  30.847  1.00  0.00    -0.206 F 
ATOM     88  C   UNL A   1      45.975  36.128  29.834  1.00  0.00     0.022 A 
BRANCH  85  89
ATOM     89  S   UNL A   1      44.419  37.428  27.919  1.00  0.00     0.124 S 
ATOM     90  O   UNL A   1      43.588  38.155  28.873  1.00  0.00    -0.237 OA
ATOM     91  O   UNL A   1      45.690  38.056  27.574  1.00  0.00    -0.237 OA
ATOM     92  O   UNL A   1      43.699  36.832  26.796  1.00  0.00    -0.744 OA
ENDBRANCH  85  89
ENDBRANCH  59  82
ENDBRANCH  33  34
ENDBRANCH  26  28
ENDBRANCH  25  26
ENDBRANCH  24  25
ENDBRANCH  23  24
ENDBRANCH   1  23
TORSDOF 21
ENDMDL
