MODEL 1
REMARK VINA RESULT:     -12.2      0.000      0.000
REMARK SMILES CC1(C)S[C@H](c2ccc(-c3ccccc3)o2)[NH2+][C@H]1C(=O)OCCOCCOC(=O)c1ccc(-c2c3nc(c(-c4cc(S(=O)(=O)[O-])ccc4F)c4ccc([nH]4)c(-c4cc(S(=O)(=O)[O-])ccc4F)c4nc(c(-c5cc(S(=O)(=O)[O-])ccc5F)c5ccc2[nH]5)C=C4)C=C3)cc1
REMARK SMILES IDX 25 1 24 2 23 3 22 4 21 5 19 6 20 7 18 8 1 9 2 10 3 11 4 12
REMARK SMILES IDX 5 13 17 14 6 17 7 18 16 19 8 20 9 21 10 22 11 23 15 24 12 25
REMARK SMILES IDX 14 26 13 27 26 28 27 29 28 30 29 31 30 32 31 33 92 34 32 35
REMARK SMILES IDX 91 36 33 37 34 38 35 39 85 40 36 41 90 42 84 43 86 44 37 45
REMARK SMILES IDX 89 46 83 47 82 48 38 50 70 51 50 52 69 53 51 54 54 55 68 56
REMARK SMILES IDX 87 57 52 58 53 59 67 61 88 62 55 63 39 64 40 65 48 66 41 67
REMARK SMILES IDX 47 68 49 69 46 70 42 71 43 72 44 73 45 74 71 75 72 76 80 77
REMARK SMILES IDX 73 78 79 79 81 80 78 81 74 82 75 83 76 84 77 85 56 86 57 87
REMARK SMILES IDX 65 88 58 89 64 90 66 91 63 92 59 93 60 94 61 95 62 96
REMARK H PARENT 17 15 17 16 86 49 54 60
REMARK Flexibility Score: inf
ROOT
ATOM      1  C   UNL A   1      35.625  21.233  24.621  1.00  0.00     0.202 C 
ENDROOT
BRANCH   1   2
ATOM      2  O   UNL A   1      34.393  21.322  25.326  1.00  0.00    -0.374 OA
BRANCH   2   3
ATOM      3  C   UNL A   1      34.480  21.612  26.724  1.00  0.00     0.202 C 
BRANCH   3   4
ATOM      4  C   UNL A   1      33.262  22.300  27.356  1.00  0.00     0.261 C 
BRANCH   4   5
ATOM      5  O   UNL A   1      33.040  23.625  26.828  1.00  0.00    -0.459 OA
BRANCH   5   6
ATOM      6  C   UNL A   1      31.747  23.950  26.552  1.00  0.00     0.366 C 
ATOM      7  O   UNL A   1      30.793  23.655  27.266  1.00  0.00    -0.245 OA
BRANCH   6   8
ATOM      8  C   UNL A   1      31.594  24.739  25.245  1.00  0.00     0.310 C 
ATOM      9  C   UNL A   1      32.112  22.705  23.654  1.00  0.00     0.030 C 
ATOM     10  C   UNL A   1      32.286  24.197  23.968  1.00  0.00     0.079 C 
ATOM     11  C   UNL A   1      33.756  24.619  23.880  1.00  0.00     0.030 C 
ATOM     12  S   UNL A   1      31.390  25.085  22.625  1.00  0.00    -0.078 SA
ATOM     13  C   UNL A   1      30.107  25.752  23.728  1.00  0.00     0.311 C 
ATOM     14  N   UNL A   1      30.151  24.954  24.956  1.00  0.00    -0.316 N 
ATOM     15  H   UNL A   1      29.680  24.060  24.816  1.00  0.00     0.348 HD
ATOM     16  H   UNL A   1      29.678  25.425  25.728  1.00  0.00     0.348 HD
BRANCH  13  17
ATOM     17  C   UNL A   1      30.308  27.230  23.918  1.00  0.00     0.172 A 
ATOM     18  C   UNL A   1      31.236  27.934  24.665  1.00  0.00     0.054 A 
ATOM     19  O   UNL A   1      29.482  28.117  23.270  1.00  0.00    -0.454 OA
ATOM     20  C   UNL A   1      30.984  29.305  24.445  1.00  0.00     0.051 A 
ATOM     21  C   UNL A   1      29.910  29.372  23.584  1.00  0.00     0.134 A 
BRANCH  21  22
ATOM     22  C   UNL A   1      29.227  30.490  22.955  1.00  0.00     0.017 A 
ATOM     23  C   UNL A   1      29.106  31.729  23.595  1.00  0.00     0.012 A 
ATOM     24  C   UNL A   1      28.747  30.352  21.645  1.00  0.00     0.012 A 
ATOM     25  C   UNL A   1      28.541  32.817  22.922  1.00  0.00     0.001 A 
ATOM     26  C   UNL A   1      28.171  31.436  20.979  1.00  0.00     0.001 A 
ATOM     27  C   UNL A   1      28.078  32.672  21.615  1.00  0.00     0.000 A 
ENDBRANCH  21  22
ENDBRANCH  13  17
ENDBRANCH   6   8
ENDBRANCH   5   6
ENDBRANCH   4   5
ENDBRANCH   3   4
ENDBRANCH   2   3
ENDBRANCH   1   2
BRANCH   1  28
ATOM     28  C   UNL A   1      36.821  20.651  25.385  1.00  0.00     0.261 C 
BRANCH  28  29
ATOM     29  O   UNL A   1      38.038  21.356  25.084  1.00  0.00    -0.460 OA
BRANCH  29  30
ATOM     30  C   UNL A   1      39.068  21.053  25.910  1.00  0.00     0.338 C 
ATOM     31  O   UNL A   1      39.623  19.967  26.012  1.00  0.00    -0.246 OA
BRANCH  30  32
ATOM     32  C   UNL A   1      39.586  22.276  26.553  1.00  0.00     0.060 A 
ATOM     33  C   UNL A   1      39.028  23.492  26.136  1.00  0.00     0.016 A 
ATOM     34  C   UNL A   1      40.613  22.258  27.501  1.00  0.00     0.016 A 
ATOM     35  C   UNL A   1      39.549  24.695  26.599  1.00  0.00     0.010 A 
ATOM     36  C   UNL A   1      41.134  23.471  27.969  1.00  0.00     0.010 A 
ATOM     37  C   UNL A   1      40.636  24.694  27.482  1.00  0.00    -0.014 A 
BRANCH  37  38
ATOM     38  C   UNL A   1      41.349  25.971  27.740  1.00  0.00     0.031 A 
ATOM     39  C   UNL A   1      40.647  27.045  28.529  1.00  0.00     0.074 A 
ATOM     40  C   UNL A   1      42.624  26.140  27.347  1.00  0.00     0.049 A 
ATOM     41  N   UNL A   1      41.077  28.227  28.892  1.00  0.00    -0.248 NA
ATOM     42  C   UNL A   1      39.274  26.745  28.965  1.00  0.00     0.031 C 
ATOM     43  C   UNL A   1      43.419  25.149  26.621  1.00  0.00     0.029 A 
ATOM     44  N   UNL A   1      43.478  27.201  27.510  1.00  0.00    -0.354 N 
ATOM     45  C   UNL A   1      40.029  28.811  29.596  1.00  0.00     0.074 A 
ATOM     46  C   UNL A   1      38.927  27.873  29.565  1.00  0.00     0.031 C 
ATOM     47  C   UNL A   1      44.648  25.651  26.406  1.00  0.00     0.029 A 
ATOM     48  C   UNL A   1      44.715  27.008  26.942  1.00  0.00     0.049 A 
ATOM     49  H   UNL A   1      43.228  28.024  27.989  1.00  0.00     0.167 HD
ATOM     50  C   UNL A   1      39.994  30.014  30.221  1.00  0.00     0.034 A 
ATOM     51  C   UNL A   1      45.772  27.840  26.849  1.00  0.00     0.034 A 
ATOM     52  C   UNL A   1      41.100  30.940  30.235  1.00  0.00     0.049 A 
ATOM     53  C   UNL A   1      45.680  29.210  27.478  1.00  0.00     0.074 A 
ATOM     54  C   UNL A   1      41.180  32.179  30.847  1.00  0.00     0.029 A 
ATOM     55  N   UNL A   1      42.318  30.735  29.597  1.00  0.00    -0.354 N 
ATOM     56  N   UNL A   1      44.686  29.748  28.149  1.00  0.00    -0.248 NA
ATOM     57  C   UNL A   1      46.856  30.079  27.349  1.00  0.00     0.031 C 
ATOM     58  C   UNL A   1      42.409  32.757  30.509  1.00  0.00     0.029 A 
ATOM     59  C   UNL A   1      43.138  31.842  29.767  1.00  0.00     0.049 A 
ATOM     60  H   UNL A   1      42.563  29.925  29.097  1.00  0.00     0.167 HD
ATOM     61  C   UNL A   1      45.134  31.005  28.550  1.00  0.00     0.074 A 
ATOM     62  C   UNL A   1      46.491  31.134  28.061  1.00  0.00     0.031 C 
ATOM     63  C   UNL A   1      44.486  31.964  29.262  1.00  0.00     0.034 A 
BRANCH  50  64
ATOM     64  C   UNL A   1      38.699  30.413  30.892  1.00  0.00     0.023 A 
ATOM     65  C   UNL A   1      37.660  31.046  30.187  1.00  0.00     0.031 A 
ATOM     66  C   UNL A   1      38.514  30.183  32.267  1.00  0.00     0.131 A 
ATOM     67  C   UNL A   1      36.517  31.488  30.871  1.00  0.00     0.055 A 
ATOM     68  C   UNL A   1      37.338  30.549  32.925  1.00  0.00     0.041 A 
ATOM     69  F   UNL A   1      39.480  29.608  33.000  1.00  0.00    -0.206 F 
ATOM     70  C   UNL A   1      36.337  31.220  32.230  1.00  0.00     0.022 A 
BRANCH  67  71
ATOM     71  S   UNL A   1      35.338  32.553  29.995  1.00  0.00     0.124 S 
ATOM     72  O   UNL A   1      34.895  31.676  28.914  1.00  0.00    -0.237 OA
ATOM     73  O   UNL A   1      34.351  32.846  31.027  1.00  0.00    -0.237 OA
ATOM     74  O   UNL A   1      36.153  33.689  29.570  1.00  0.00    -0.744 OA
ENDBRANCH  67  71
ENDBRANCH  50  64
BRANCH  51  75
ATOM     75  C   UNL A   1      46.998  27.426  26.104  1.00  0.00     0.023 A 
ATOM     76  C   UNL A   1      47.208  27.812  24.771  1.00  0.00     0.031 A 
ATOM     77  C   UNL A   1      47.953  26.585  26.704  1.00  0.00     0.131 A 
ATOM     78  C   UNL A   1      48.317  27.318  24.066  1.00  0.00     0.055 A 
ATOM     79  C   UNL A   1      49.086  26.145  26.017  1.00  0.00     0.041 A 
ATOM     80  F   UNL A   1      47.802  26.181  27.976  1.00  0.00    -0.206 F 
ATOM     81  C   UNL A   1      49.265  26.500  24.685  1.00  0.00     0.022 A 
BRANCH  78  82
ATOM     82  S   UNL A   1      48.452  27.679  22.294  1.00  0.00     0.124 S 
ATOM     83  O   UNL A   1      49.694  28.443  22.241  1.00  0.00    -0.237 OA
ATOM     84  O   UNL A   1      48.494  26.341  21.714  1.00  0.00    -0.237 OA
ATOM     85  O   UNL A   1      47.237  28.441  22.008  1.00  0.00    -0.744 OA
ENDBRANCH  78  82
ENDBRANCH  51  75
BRANCH  63  86
ATOM     86  C   UNL A   1      45.263  33.218  29.595  1.00  0.00     0.023 A 
ATOM     87  C   UNL A   1      46.027  33.329  30.770  1.00  0.00     0.031 A 
ATOM     88  C   UNL A   1      45.220  34.327  28.730  1.00  0.00     0.131 A 
ATOM     89  C   UNL A   1      46.659  34.543  31.081  1.00  0.00     0.055 A 
ATOM     90  C   UNL A   1      45.912  35.506  29.009  1.00  0.00     0.041 A 
ATOM     91  F   UNL A   1      44.504  34.281  27.595  1.00  0.00    -0.206 F 
ATOM     92  C   UNL A   1      46.622  35.625  30.199  1.00  0.00     0.022 A 
BRANCH  89  93
ATOM     93  S   UNL A   1      47.432  34.728  32.711  1.00  0.00     0.124 S 
ATOM     94  O   UNL A   1      46.741  35.897  33.244  1.00  0.00    -0.237 OA
ATOM     95  O   UNL A   1      47.118  33.455  33.353  1.00  0.00    -0.237 OA
ATOM     96  O   UNL A   1      48.846  34.932  32.400  1.00  0.00    -0.744 OA
ENDBRANCH  89  93
ENDBRANCH  63  86
ENDBRANCH  37  38
ENDBRANCH  30  32
ENDBRANCH  29  30
ENDBRANCH  28  29
ENDBRANCH   1  28
TORSDOF 19
ENDMDL
MODEL 2
REMARK VINA RESULT:     -12.1      2.422      8.819
REMARK SMILES CC1(C)S[C@H](c2ccc(-c3ccccc3)o2)[NH2+][C@H]1C(=O)OCCOCCOC(=O)c1ccc(-c2c3nc(c(-c4cc(S(=O)(=O)[O-])ccc4F)c4ccc([nH]4)c(-c4cc(S(=O)(=O)[O-])ccc4F)c4nc(c(-c5cc(S(=O)(=O)[O-])ccc5F)c5ccc2[nH]5)C=C4)C=C3)cc1
REMARK SMILES IDX 25 1 24 2 23 3 22 4 21 5 19 6 20 7 18 8 1 9 2 10 3 11 4 12
REMARK SMILES IDX 5 13 17 14 6 17 7 18 16 19 8 20 9 21 10 22 11 23 15 24 12 25
REMARK SMILES IDX 14 26 13 27 26 28 27 29 28 30 29 31 30 32 31 33 92 34 32 35
REMARK SMILES IDX 91 36 33 37 34 38 35 39 85 40 36 41 90 42 84 43 86 44 37 45
REMARK SMILES IDX 89 46 83 47 82 48 38 50 70 51 50 52 69 53 51 54 54 55 68 56
REMARK SMILES IDX 87 57 52 58 53 59 67 61 88 62 55 63 39 64 40 65 48 66 41 67
REMARK SMILES IDX 47 68 49 69 46 70 42 71 43 72 44 73 45 74 71 75 72 76 80 77
REMARK SMILES IDX 73 78 79 79 81 80 78 81 74 82 75 83 76 84 77 85 56 86 57 87
REMARK SMILES IDX 65 88 58 89 64 90 66 91 63 92 59 93 60 94 61 95 62 96
REMARK H PARENT 17 15 17 16 86 49 54 60
REMARK Flexibility Score: inf
ROOT
ATOM      1  C   UNL A   1      36.041  21.638  24.443  1.00  0.00     0.202 C 
ENDROOT
BRANCH   1   2
ATOM      2  O   UNL A   1      35.470  22.921  24.676  1.00  0.00    -0.374 OA
BRANCH   2   3
ATOM      3  C   UNL A   1      35.354  23.780  23.538  1.00  0.00     0.202 C 
BRANCH   3   4
ATOM      4  C   UNL A   1      34.195  23.486  22.576  1.00  0.00     0.261 C 
BRANCH   4   5
ATOM      5  O   UNL A   1      33.649  24.685  21.986  1.00  0.00    -0.459 OA
BRANCH   5   6
ATOM      6  C   UNL A   1      32.448  25.098  22.475  1.00  0.00     0.366 C 
ATOM      7  O   UNL A   1      31.656  25.805  21.858  1.00  0.00    -0.245 OA
BRANCH   6   8
ATOM      8  C   UNL A   1      32.169  24.581  23.893  1.00  0.00     0.310 C 
ATOM      9  C   UNL A   1      30.916  26.747  24.715  1.00  0.00     0.030 C 
ATOM     10  C   UNL A   1      31.905  25.615  25.019  1.00  0.00     0.079 C 
ATOM     11  C   UNL A   1      33.204  26.154  25.627  1.00  0.00     0.030 C 
ATOM     12  S   UNL A   1      31.090  24.589  26.314  1.00  0.00    -0.078 SA
ATOM     13  C   UNL A   1      30.887  23.137  25.237  1.00  0.00     0.311 C 
ATOM     14  N   UNL A   1      31.045  23.609  23.859  1.00  0.00    -0.316 N 
ATOM     15  H   UNL A   1      30.190  24.065  23.540  1.00  0.00     0.348 HD
ATOM     16  H   UNL A   1      31.232  22.838  23.217  1.00  0.00     0.348 HD
BRANCH  13  17
ATOM     17  C   UNL A   1      31.839  22.050  25.654  1.00  0.00     0.172 A 
ATOM     18  C   UNL A   1      32.756  21.990  26.690  1.00  0.00     0.054 A 
ATOM     19  O   UNL A   1      31.871  20.869  24.953  1.00  0.00    -0.454 OA
ATOM     20  C   UNL A   1      33.354  20.713  26.634  1.00  0.00     0.051 A 
ATOM     21  C   UNL A   1      32.782  20.059  25.564  1.00  0.00     0.134 A 
BRANCH  21  22
ATOM     22  C   UNL A   1      32.943  18.715  25.038  1.00  0.00     0.017 A 
ATOM     23  C   UNL A   1      33.396  18.488  23.733  1.00  0.00     0.012 A 
ATOM     24  C   UNL A   1      32.717  17.616  25.879  1.00  0.00     0.012 A 
ATOM     25  C   UNL A   1      33.646  17.184  23.290  1.00  0.00     0.001 A 
ATOM     26  C   UNL A   1      32.954  16.314  25.431  1.00  0.00     0.001 A 
ATOM     27  C   UNL A   1      33.429  16.100  24.140  1.00  0.00     0.000 A 
ENDBRANCH  21  22
ENDBRANCH  13  17
ENDBRANCH   6   8
ENDBRANCH   5   6
ENDBRANCH   4   5
ENDBRANCH   3   4
ENDBRANCH   2   3
ENDBRANCH   1   2
BRANCH   1  28
ATOM     28  C   UNL A   1      37.115  21.168  25.432  1.00  0.00     0.261 C 
BRANCH  28  29
ATOM     29  O   UNL A   1      38.396  21.755  25.143  1.00  0.00    -0.460 OA
BRANCH  29  30
ATOM     30  C   UNL A   1      39.349  21.477  26.065  1.00  0.00     0.338 C 
ATOM     31  O   UNL A   1      39.939  20.415  26.204  1.00  0.00    -0.246 OA
BRANCH  30  32
ATOM     32  C   UNL A   1      39.741  22.706  26.781  1.00  0.00     0.060 A 
ATOM     33  C   UNL A   1      39.055  23.879  26.442  1.00  0.00     0.016 A 
ATOM     34  C   UNL A   1      40.773  22.738  27.724  1.00  0.00     0.016 A 
ATOM     35  C   UNL A   1      39.451  25.100  26.978  1.00  0.00     0.010 A 
ATOM     36  C   UNL A   1      41.168  23.968  28.265  1.00  0.00     0.010 A 
ATOM     37  C   UNL A   1      40.540  25.159  27.856  1.00  0.00    -0.014 A 
BRANCH  37  38
ATOM     38  C   UNL A   1      41.118  26.486  28.191  1.00  0.00     0.031 A 
ATOM     39  C   UNL A   1      42.533  26.787  27.772  1.00  0.00     0.074 A 
ATOM     40  C   UNL A   1      40.370  27.431  28.787  1.00  0.00     0.049 A 
ATOM     41  N   UNL A   1      43.236  27.878  27.938  1.00  0.00    -0.248 NA
ATOM     42  C   UNL A   1      43.252  25.708  27.075  1.00  0.00     0.031 C 
ATOM     43  C   UNL A   1      38.973  27.269  29.191  1.00  0.00     0.029 A 
ATOM     44  N   UNL A   1      40.676  28.719  29.148  1.00  0.00    -0.354 N 
ATOM     45  C   UNL A   1      44.478  27.618  27.368  1.00  0.00     0.074 A 
ATOM     46  C   UNL A   1      44.447  26.249  26.898  1.00  0.00     0.031 C 
ATOM     47  C   UNL A   1      38.544  28.418  29.741  1.00  0.00     0.029 A 
ATOM     48  C   UNL A   1      39.641  29.382  29.764  1.00  0.00     0.049 A 
ATOM     49  H   UNL A   1      41.555  29.130  28.981  1.00  0.00     0.167 HD
ATOM     50  C   UNL A   1      45.542  28.449  27.237  1.00  0.00     0.034 A 
ATOM     51  C   UNL A   1      39.593  30.617  30.303  1.00  0.00     0.034 A 
ATOM     52  C   UNL A   1      45.558  29.809  27.719  1.00  0.00     0.049 A 
ATOM     53  C   UNL A   1      40.819  31.495  30.223  1.00  0.00     0.074 A 
ATOM     54  C   UNL A   1      46.574  30.744  27.630  1.00  0.00     0.029 A 
ATOM     55  N   UNL A   1      44.510  30.427  28.393  1.00  0.00    -0.354 N 
ATOM     56  N   UNL A   1      41.986  31.241  29.674  1.00  0.00    -0.248 NA
ATOM     57  C   UNL A   1      40.718  32.831  30.824  1.00  0.00     0.031 C 
ATOM     58  C   UNL A   1      46.176  31.893  28.321  1.00  0.00     0.029 A 
ATOM     59  C   UNL A   1      44.873  31.715  28.760  1.00  0.00     0.049 A 
ATOM     60  H   UNL A   1      43.639  30.012  28.583  1.00  0.00     0.167 HD
ATOM     61  C   UNL A   1      42.742  32.401  29.835  1.00  0.00     0.074 A 
ATOM     62  C   UNL A   1      41.893  33.356  30.515  1.00  0.00     0.031 C 
ATOM     63  C   UNL A   1      44.021  32.655  29.450  1.00  0.00     0.034 A 
BRANCH  50  64
ATOM     64  C   UNL A   1      46.790  27.888  26.596  1.00  0.00     0.023 A 
ATOM     65  C   UNL A   1      47.083  28.089  25.235  1.00  0.00     0.031 A 
ATOM     66  C   UNL A   1      47.688  27.113  27.353  1.00  0.00     0.131 A 
ATOM     67  C   UNL A   1      48.202  27.466  24.659  1.00  0.00     0.055 A 
ATOM     68  C   UNL A   1      48.844  26.566  26.794  1.00  0.00     0.041 A 
ATOM     69  F   UNL A   1      47.449  26.863  28.650  1.00  0.00    -0.206 F 
ATOM     70  C   UNL A   1      49.099  26.728  25.435  1.00  0.00     0.022 A 
BRANCH  67  71
ATOM     71  S   UNL A   1      48.384  27.504  22.855  1.00  0.00     0.124 S 
ATOM     72  O   UNL A   1      47.196  28.254  22.454  1.00  0.00    -0.237 OA
ATOM     73  O   UNL A   1      49.661  28.187  22.682  1.00  0.00    -0.237 OA
ATOM     74  O   UNL A   1      48.376  26.092  22.480  1.00  0.00    -0.744 OA
ENDBRANCH  67  71
ENDBRANCH  50  64
BRANCH  51  75
ATOM     75  C   UNL A   1      38.361  31.093  30.998  1.00  0.00     0.023 A 
ATOM     76  C   UNL A   1      37.299  31.673  30.288  1.00  0.00     0.031 A 
ATOM     77  C   UNL A   1      38.255  31.025  32.400  1.00  0.00     0.131 A 
ATOM     78  C   UNL A   1      36.201  32.208  30.981  1.00  0.00     0.055 A 
ATOM     79  C   UNL A   1      37.134  31.503  33.080  1.00  0.00     0.041 A 
ATOM     80  F   UNL A   1      39.242  30.483  33.131  1.00  0.00    -0.206 F 
ATOM     81  C   UNL A   1      36.105  32.112  32.371  1.00  0.00     0.022 A 
BRANCH  78  82
ATOM     82  S   UNL A   1      34.943  33.121  30.047  1.00  0.00     0.124 S 
ATOM     83  O   UNL A   1      34.433  32.090  29.150  1.00  0.00    -0.237 OA
ATOM     84  O   UNL A   1      34.038  33.557  31.105  1.00  0.00    -0.237 OA
ATOM     85  O   UNL A   1      35.705  34.189  29.404  1.00  0.00    -0.744 OA
ENDBRANCH  78  82
ENDBRANCH  51  75
BRANCH  63  86
ATOM     86  C   UNL A   1      44.557  34.044  29.717  1.00  0.00     0.023 A 
ATOM     87  C   UNL A   1      44.421  35.085  28.783  1.00  0.00     0.031 A 
ATOM     88  C   UNL A   1      45.232  34.322  30.920  1.00  0.00     0.131 A 
ATOM     89  C   UNL A   1      45.012  36.333  29.034  1.00  0.00     0.055 A 
ATOM     90  C   UNL A   1      45.753  35.587  31.196  1.00  0.00     0.041 A 
ATOM     91  F   UNL A   1      45.397  33.367  31.848  1.00  0.00    -0.206 F 
ATOM     92  C   UNL A   1      45.660  36.596  30.244  1.00  0.00     0.022 A 
BRANCH  89  93
ATOM     93  S   UNL A   1      45.024  37.572  27.710  1.00  0.00     0.124 S 
ATOM     94  O   UNL A   1      45.436  38.776  28.425  1.00  0.00    -0.237 OA
ATOM     95  O   UNL A   1      46.000  37.021  26.775  1.00  0.00    -0.237 OA
ATOM     96  O   UNL A   1      43.643  37.578  27.231  1.00  0.00    -0.744 OA
ENDBRANCH  89  93
ENDBRANCH  63  86
ENDBRANCH  37  38
ENDBRANCH  30  32
ENDBRANCH  29  30
ENDBRANCH  28  29
ENDBRANCH   1  28
TORSDOF 19
ENDMDL
MODEL 3
REMARK VINA RESULT:     -12.0      2.331      4.844
REMARK SMILES CC1(C)S[C@H](c2ccc(-c3ccccc3)o2)[NH2+][C@H]1C(=O)OCCOCCOC(=O)c1ccc(-c2c3nc(c(-c4cc(S(=O)(=O)[O-])ccc4F)c4ccc([nH]4)c(-c4cc(S(=O)(=O)[O-])ccc4F)c4nc(c(-c5cc(S(=O)(=O)[O-])ccc5F)c5ccc2[nH]5)C=C4)C=C3)cc1
REMARK SMILES IDX 25 1 24 2 23 3 22 4 21 5 19 6 20 7 18 8 1 9 2 10 3 11 4 12
REMARK SMILES IDX 5 13 17 14 6 17 7 18 16 19 8 20 9 21 10 22 11 23 15 24 12 25
REMARK SMILES IDX 14 26 13 27 26 28 27 29 28 30 29 31 30 32 31 33 92 34 32 35
REMARK SMILES IDX 91 36 33 37 34 38 35 39 85 40 36 41 90 42 84 43 86 44 37 45
REMARK SMILES IDX 89 46 83 47 82 48 38 50 70 51 50 52 69 53 51 54 54 55 68 56
REMARK SMILES IDX 87 57 52 58 53 59 67 61 88 62 55 63 39 64 40 65 48 66 41 67
REMARK SMILES IDX 47 68 49 69 46 70 42 71 43 72 44 73 45 74 71 75 72 76 80 77
REMARK SMILES IDX 73 78 79 79 81 80 78 81 74 82 75 83 76 84 77 85 56 86 57 87
REMARK SMILES IDX 65 88 58 89 64 90 66 91 63 92 59 93 60 94 61 95 62 96
REMARK H PARENT 17 15 17 16 86 49 54 60
REMARK Flexibility Score: inf
ROOT
ATOM      1  C   UNL A   1      36.187  22.519  24.327  1.00  0.00     0.202 C 
ENDROOT
BRANCH   1   2
ATOM      2  O   UNL A   1      34.976  22.094  23.715  1.00  0.00    -0.374 OA
BRANCH   2   3
ATOM      3  C   UNL A   1      34.408  22.980  22.746  1.00  0.00     0.202 C 
BRANCH   3   4
ATOM      4  C   UNL A   1      34.406  24.473  23.104  1.00  0.00     0.261 C 
BRANCH   4   5
ATOM      5  O   UNL A   1      33.558  25.249  22.231  1.00  0.00    -0.459 OA
BRANCH   5   6
ATOM      6  C   UNL A   1      32.257  25.368  22.613  1.00  0.00     0.366 C 
ATOM      7  O   UNL A   1      31.381  25.890  21.931  1.00  0.00    -0.245 OA
BRANCH   6   8
ATOM      8  C   UNL A   1      31.984  24.769  24.000  1.00  0.00     0.310 C 
ATOM      9  C   UNL A   1      30.433  26.731  24.826  1.00  0.00     0.030 C 
ATOM     10  C   UNL A   1      31.543  25.720  25.142  1.00  0.00     0.079 C 
ATOM     11  C   UNL A   1      32.735  26.395  25.829  1.00  0.00     0.030 C 
ATOM     12  S   UNL A   1      30.807  24.555  26.365  1.00  0.00    -0.078 SA
ATOM     13  C   UNL A   1      30.836  23.129  25.236  1.00  0.00     0.311 C 
ATOM     14  N   UNL A   1      30.993  23.666  23.883  1.00  0.00    -0.316 N 
ATOM     15  H   UNL A   1      30.103  24.023  23.537  1.00  0.00     0.348 HD
ATOM     16  H   UNL A   1      31.305  22.949  23.227  1.00  0.00     0.348 HD
BRANCH  13  17
ATOM     17  C   UNL A   1      31.899  22.154  25.665  1.00  0.00     0.172 A 
ATOM     18  C   UNL A   1      32.874  22.244  26.643  1.00  0.00     0.054 A 
ATOM     19  O   UNL A   1      31.989  20.931  25.046  1.00  0.00    -0.454 OA
ATOM     20  C   UNL A   1      33.573  21.018  26.637  1.00  0.00     0.051 A 
ATOM     21  C   UNL A   1      32.998  20.244  25.652  1.00  0.00     0.134 A 
BRANCH  21  22
ATOM     22  C   UNL A   1      33.241  18.882  25.210  1.00  0.00     0.017 A 
ATOM     23  C   UNL A   1      34.253  18.579  24.291  1.00  0.00     0.012 A 
ATOM     24  C   UNL A   1      32.500  17.833  25.774  1.00  0.00     0.012 A 
ATOM     25  C   UNL A   1      34.535  17.247  23.967  1.00  0.00     0.001 A 
ATOM     26  C   UNL A   1      32.774  16.505  25.440  1.00  0.00     0.001 A 
ATOM     27  C   UNL A   1      33.800  16.213  24.544  1.00  0.00     0.000 A 
ENDBRANCH  21  22
ENDBRANCH  13  17
ENDBRANCH   6   8
ENDBRANCH   5   6
ENDBRANCH   4   5
ENDBRANCH   3   4
ENDBRANCH   2   3
ENDBRANCH   1   2
BRANCH   1  28
ATOM     28  C   UNL A   1      37.261  21.447  24.555  1.00  0.00     0.261 C 
BRANCH  28  29
ATOM     29  O   UNL A   1      37.659  21.378  25.935  1.00  0.00    -0.460 OA
BRANCH  29  30
ATOM     30  C   UNL A   1      38.995  21.243  26.117  1.00  0.00     0.338 C 
ATOM     31  O   UNL A   1      39.690  20.314  25.731  1.00  0.00    -0.246 OA
BRANCH  30  32
ATOM     32  C   UNL A   1      39.561  22.480  26.687  1.00  0.00     0.060 A 
ATOM     33  C   UNL A   1      38.984  23.687  26.273  1.00  0.00     0.016 A 
ATOM     34  C   UNL A   1      40.650  22.482  27.565  1.00  0.00     0.016 A 
ATOM     35  C   UNL A   1      39.542  24.899  26.664  1.00  0.00     0.010 A 
ATOM     36  C   UNL A   1      41.208  23.703  27.960  1.00  0.00     0.010 A 
ATOM     37  C   UNL A   1      40.686  24.915  27.472  1.00  0.00    -0.014 A 
BRANCH  37  38
ATOM     38  C   UNL A   1      41.422  26.194  27.643  1.00  0.00     0.031 A 
ATOM     39  C   UNL A   1      40.781  27.296  28.446  1.00  0.00     0.074 A 
ATOM     40  C   UNL A   1      42.668  26.341  27.160  1.00  0.00     0.049 A 
ATOM     41  N   UNL A   1      41.241  28.484  28.744  1.00  0.00    -0.248 NA
ATOM     42  C   UNL A   1      39.439  27.019  28.982  1.00  0.00     0.031 C 
ATOM     43  C   UNL A   1      43.407  25.324  26.413  1.00  0.00     0.029 A 
ATOM     44  N   UNL A   1      43.538  27.400  27.235  1.00  0.00    -0.354 N 
ATOM     45  C   UNL A   1      40.247  29.097  29.499  1.00  0.00     0.074 A 
ATOM     46  C   UNL A   1      39.140  28.167  29.570  1.00  0.00     0.031 C 
ATOM     47  C   UNL A   1      44.621  25.809  26.101  1.00  0.00     0.029 A 
ATOM     48  C   UNL A   1      44.732  27.181  26.591  1.00  0.00     0.049 A 
ATOM     49  H   UNL A   1      43.325  28.239  27.705  1.00  0.00     0.167 HD
ATOM     50  C   UNL A   1      40.261  30.317  30.090  1.00  0.00     0.034 A 
ATOM     51  C   UNL A   1      45.786  28.002  26.402  1.00  0.00     0.034 A 
ATOM     52  C   UNL A   1      41.371  31.235  30.002  1.00  0.00     0.049 A 
ATOM     53  C   UNL A   1      45.744  29.390  26.995  1.00  0.00     0.074 A 
ATOM     54  C   UNL A   1      41.499  32.490  30.570  1.00  0.00     0.029 A 
ATOM     55  N   UNL A   1      42.542  31.002  29.290  1.00  0.00    -0.354 N 
ATOM     56  N   UNL A   1      44.801  29.955  27.715  1.00  0.00    -0.248 NA
ATOM     57  C   UNL A   1      46.914  30.246  26.762  1.00  0.00     0.031 C 
ATOM     58  C   UNL A   1      42.706  33.049  30.133  1.00  0.00     0.029 A 
ATOM     59  C   UNL A   1      43.378  32.107  29.371  1.00  0.00     0.049 A 
ATOM     60  H   UNL A   1      42.748  30.176  28.798  1.00  0.00     0.167 HD
ATOM     61  C   UNL A   1      45.283  31.220  28.048  1.00  0.00     0.074 A 
ATOM     62  C   UNL A   1      46.604  31.324  27.465  1.00  0.00     0.031 C 
ATOM     63  C   UNL A   1      44.689  32.204  28.774  1.00  0.00     0.034 A 
BRANCH  50  64
ATOM     64  C   UNL A   1      39.017  30.746  30.834  1.00  0.00     0.023 A 
ATOM     65  C   UNL A   1      37.883  31.240  30.166  1.00  0.00     0.031 A 
ATOM     66  C   UNL A   1      38.977  30.687  32.239  1.00  0.00     0.131 A 
ATOM     67  C   UNL A   1      36.788  31.719  30.903  1.00  0.00     0.055 A 
ATOM     68  C   UNL A   1      37.852  31.087  32.963  1.00  0.00     0.041 A 
ATOM     69  F   UNL A   1      40.038  30.251  32.935  1.00  0.00    -0.206 F 
ATOM     70  C   UNL A   1      36.754  31.621  32.296  1.00  0.00     0.022 A 
BRANCH  67  71
ATOM     71  S   UNL A   1      35.476  32.614  30.026  1.00  0.00     0.124 S 
ATOM     72  O   UNL A   1      36.129  33.890  29.741  1.00  0.00    -0.237 OA
ATOM     73  O   UNL A   1      35.223  31.754  28.876  1.00  0.00    -0.237 OA
ATOM     74  O   UNL A   1      34.394  32.682  31.006  1.00  0.00    -0.744 OA
ENDBRANCH  67  71
ENDBRANCH  50  64
BRANCH  51  75
ATOM     75  C   UNL A   1      46.956  27.557  25.589  1.00  0.00     0.023 A 
ATOM     76  C   UNL A   1      47.111  27.955  24.252  1.00  0.00     0.031 A 
ATOM     77  C   UNL A   1      47.911  26.673  26.127  1.00  0.00     0.131 A 
ATOM     78  C   UNL A   1      48.163  27.434  23.483  1.00  0.00     0.055 A 
ATOM     79  C   UNL A   1      48.990  26.205  25.375  1.00  0.00     0.041 A 
ATOM     80  F   UNL A   1      47.810  26.256  27.399  1.00  0.00    -0.206 F 
ATOM     81  C   UNL A   1      49.113  26.574  24.041  1.00  0.00     0.022 A 
BRANCH  78  82
ATOM     82  S   UNL A   1      48.219  27.817  21.711  1.00  0.00     0.124 S 
ATOM     83  O   UNL A   1      49.325  28.767  21.649  1.00  0.00    -0.237 OA
ATOM     84  O   UNL A   1      48.466  26.504  21.125  1.00  0.00    -0.237 OA
ATOM     85  O   UNL A   1      46.897  28.378  21.443  1.00  0.00    -0.744 OA
ENDBRANCH  78  82
ENDBRANCH  51  75
BRANCH  63  86
ATOM     86  C   UNL A   1      45.494  33.461  29.016  1.00  0.00     0.023 A 
ATOM     87  C   UNL A   1      45.390  34.584  28.176  1.00  0.00     0.031 A 
ATOM     88  C   UNL A   1      46.395  33.527  30.095  1.00  0.00     0.131 A 
ATOM     89  C   UNL A   1      46.221  35.695  28.387  1.00  0.00     0.055 A 
ATOM     90  C   UNL A   1      47.165  34.664  30.343  1.00  0.00     0.041 A 
ATOM     91  F   UNL A   1      46.541  32.485  30.928  1.00  0.00    -0.206 F 
ATOM     92  C   UNL A   1      47.094  35.750  29.476  1.00  0.00     0.022 A 
BRANCH  89  93
ATOM     93  S   UNL A   1      46.232  37.020  27.149  1.00  0.00     0.124 S 
ATOM     94  O   UNL A   1      46.849  36.360  26.003  1.00  0.00    -0.237 OA
ATOM     95  O   UNL A   1      44.813  37.334  27.015  1.00  0.00    -0.237 OA
ATOM     96  O   UNL A   1      47.041  38.066  27.772  1.00  0.00    -0.744 OA
ENDBRANCH  89  93
ENDBRANCH  63  86
ENDBRANCH  37  38
ENDBRANCH  30  32
ENDBRANCH  29  30
ENDBRANCH  28  29
ENDBRANCH   1  28
TORSDOF 19
ENDMDL
