MODEL 1
REMARK VINA RESULT:     -10.7      0.000      0.000
REMARK SMILES [NH3+][C@H](CS[C@@H]1CC(=O)N(c2ccc3ccccc3c2)C1=O)C(=O)OCCOCCOC(=O)c1ccc(-c2c3nc(c(-c4cc(S(=O)(=O)[O-])ccc4F)c4ccc([nH]4)c(-c4cc(S(=O)(=O)[O-])ccc4F)c4nc(c(-c5cc(S(=O)(=O)[O-])ccc5F)c5ccc2[nH]5)C=C4)C=C3)cc1
REMARK SMILES IDX 26 1 25 2 24 3 22 4 23 5 2 6 1 7 3 11 4 12 5 13 6 14 20 15
REMARK SMILES IDX 7 16 9 17 21 18 8 19 10 20 11 21 19 22 12 23 18 24 13 25
REMARK SMILES IDX 17 26 14 27 16 28 15 29 27 30 28 31 29 32 30 33 31 34 32 35
REMARK SMILES IDX 33 36 34 37 95 38 35 39 94 40 36 41 37 42 38 43 88 44 39 45
REMARK SMILES IDX 93 46 87 47 89 48 40 49 92 50 86 51 85 52 41 54 73 55 53 56
REMARK SMILES IDX 72 57 54 58 57 59 71 60 90 61 55 62 56 63 70 65 91 66 58 67
REMARK SMILES IDX 42 68 43 69 51 70 44 71 50 72 52 73 49 74 45 75 46 76 47 77
REMARK SMILES IDX 48 78 74 79 75 80 83 81 76 82 82 83 84 84 81 85 77 86 78 87
REMARK SMILES IDX 79 88 80 89 59 90 60 91 68 92 61 93 67 94 69 95 66 96 62 97
REMARK SMILES IDX 63 98 64 99 65 100
REMARK H PARENT 1 8 1 9 1 10 89 53 57 64
REMARK Flexibility Score: inf
ROOT
ATOM      1  C   UNL A   1      32.737  29.842  25.592  1.00  0.00     0.202 C 
ENDROOT
BRANCH   1   2
ATOM      2  C   UNL A   1      32.884  28.319  25.574  1.00  0.00     0.261 C 
BRANCH   2   3
ATOM      3  O   UNL A   1      31.735  27.655  25.016  1.00  0.00    -0.459 OA
BRANCH   3   4
ATOM      4  C   UNL A   1      31.119  26.762  25.843  1.00  0.00     0.365 C 
ATOM      5  O   UNL A   1      30.882  26.943  27.030  1.00  0.00    -0.245 OA
BRANCH   4   6
ATOM      6  C   UNL A   1      30.749  25.478  25.094  1.00  0.00     0.301 C 
BRANCH   6   7
ATOM      7  N   UNL A   1      30.081  24.521  26.016  1.00  0.00    -0.345 N 
ATOM      8  H   UNL A   1      29.362  24.007  25.508  1.00  0.00     0.345 HD
ATOM      9  H   UNL A   1      29.653  25.034  26.786  1.00  0.00     0.345 HD
ATOM     10  H   UNL A   1      30.771  23.867  26.385  1.00  0.00     0.345 HD
ENDBRANCH   6   7
BRANCH   6  11
ATOM     11  C   UNL A   1      31.962  24.846  24.383  1.00  0.00     0.147 C 
BRANCH  11  12
ATOM     12  S   UNL A   1      31.609  23.280  23.491  1.00  0.00    -0.141 SA
BRANCH  12  13
ATOM     13  C   UNL A   1      32.760  22.133  24.304  1.00  0.00     0.146 C 
ATOM     14  C   UNL A   1      32.517  21.991  25.786  1.00  0.00     0.125 C 
ATOM     15  C   UNL A   1      34.190  22.605  24.217  1.00  0.00     0.247 C 
ATOM     16  C   UNL A   1      33.901  21.786  26.325  1.00  0.00     0.235 C 
ATOM     17  N   UNL A   1      34.814  22.234  25.393  1.00  0.00    -0.250 N 
ATOM     18  O   UNL A   1      34.688  23.080  23.203  1.00  0.00    -0.273 OA
ATOM     19  O   UNL A   1      34.099  21.364  27.456  1.00  0.00    -0.274 OA
BRANCH  17  20
ATOM     20  C   UNL A   1      36.226  22.247  25.575  1.00  0.00     0.052 A 
ATOM     21  C   UNL A   1      36.903  23.428  25.903  1.00  0.00     0.027 A 
ATOM     22  C   UNL A   1      36.980  21.066  25.483  1.00  0.00     0.035 A 
ATOM     23  C   UNL A   1      38.276  23.423  26.173  1.00  0.00     0.011 A 
ATOM     24  C   UNL A   1      38.362  21.044  25.733  1.00  0.00    -0.016 A 
ATOM     25  C   UNL A   1      39.017  22.237  26.097  1.00  0.00    -0.018 A 
ATOM     26  C   UNL A   1      39.101  19.855  25.633  1.00  0.00     0.009 A 
ATOM     27  C   UNL A   1      40.393  22.209  26.376  1.00  0.00     0.009 A 
ATOM     28  C   UNL A   1      40.470  19.842  25.904  1.00  0.00     0.001 A 
ATOM     29  C   UNL A   1      41.113  21.017  26.282  1.00  0.00     0.001 A 
ENDBRANCH  17  20
ENDBRANCH  12  13
ENDBRANCH  11  12
ENDBRANCH   6  11
ENDBRANCH   4   6
ENDBRANCH   3   4
ENDBRANCH   2   3
ENDBRANCH   1   2
BRANCH   1  30
ATOM     30  O   UNL A   1      32.152  30.417  26.757  1.00  0.00    -0.374 OA
BRANCH  30  31
ATOM     31  C   UNL A   1      31.362  31.590  26.585  1.00  0.00     0.202 C 
BRANCH  31  32
ATOM     32  C   UNL A   1      32.050  32.936  26.849  1.00  0.00     0.261 C 
BRANCH  32  33
ATOM     33  O   UNL A   1      33.159  32.819  27.760  1.00  0.00    -0.460 OA
BRANCH  33  34
ATOM     34  C   UNL A   1      33.433  33.944  28.467  1.00  0.00     0.338 C 
ATOM     35  O   UNL A   1      32.779  34.978  28.482  1.00  0.00    -0.246 OA
BRANCH  34  36
ATOM     36  C   UNL A   1      34.546  33.693  29.400  1.00  0.00     0.060 A 
ATOM     37  C   UNL A   1      35.784  34.285  29.117  1.00  0.00     0.016 A 
ATOM     38  C   UNL A   1      34.402  32.830  30.488  1.00  0.00     0.016 A 
ATOM     39  C   UNL A   1      36.900  33.984  29.896  1.00  0.00     0.010 A 
ATOM     40  C   UNL A   1      35.526  32.518  31.260  1.00  0.00     0.010 A 
ATOM     41  C   UNL A   1      36.785  33.067  30.947  1.00  0.00    -0.014 A 
BRANCH  41  42
ATOM     42  C   UNL A   1      37.999  32.532  31.610  1.00  0.00     0.031 A 
ATOM     43  C   UNL A   1      38.738  31.403  30.947  1.00  0.00     0.074 A 
ATOM     44  C   UNL A   1      38.421  33.020  32.788  1.00  0.00     0.049 A 
ATOM     45  N   UNL A   1      39.718  30.668  31.401  1.00  0.00    -0.248 NA
ATOM     46  C   UNL A   1      38.293  31.052  29.591  1.00  0.00     0.031 C 
ATOM     47  C   UNL A   1      37.820  34.148  33.497  1.00  0.00     0.029 A 
ATOM     48  N   UNL A   1      39.440  32.606  33.610  1.00  0.00    -0.354 N 
ATOM     49  C   UNL A   1      39.995  29.748  30.395  1.00  0.00     0.074 A 
ATOM     50  C   UNL A   1      39.055  30.004  29.324  1.00  0.00     0.031 C 
ATOM     51  C   UNL A   1      38.458  34.313  34.667  1.00  0.00     0.029 A 
ATOM     52  C   UNL A   1      39.477  33.275  34.810  1.00  0.00     0.049 A 
ATOM     53  H   UNL A   1      40.080  31.901  33.362  1.00  0.00     0.167 HD
ATOM     54  C   UNL A   1      40.946  28.780  30.371  1.00  0.00     0.034 A 
ATOM     55  C   UNL A   1      40.214  33.042  35.914  1.00  0.00     0.034 A 
ATOM     56  C   UNL A   1      41.861  28.535  31.460  1.00  0.00     0.049 A 
ATOM     57  C   UNL A   1      41.209  31.908  35.910  1.00  0.00     0.074 A 
ATOM     58  C   UNL A   1      42.876  27.598  31.541  1.00  0.00     0.029 A 
ATOM     59  N   UNL A   1      41.859  29.221  32.669  1.00  0.00    -0.354 N 
ATOM     60  N   UNL A   1      41.466  31.038  34.959  1.00  0.00    -0.248 NA
ATOM     61  C   UNL A   1      42.016  31.726  37.123  1.00  0.00     0.031 C 
ATOM     62  C   UNL A   1      43.434  27.665  32.823  1.00  0.00     0.029 A 
ATOM     63  C   UNL A   1      42.828  28.703  33.514  1.00  0.00     0.049 A 
ATOM     64  H   UNL A   1      41.256  29.966  32.893  1.00  0.00     0.167 HD
ATOM     65  C   UNL A   1      42.487  30.227  35.449  1.00  0.00     0.074 A 
ATOM     66  C   UNL A   1      42.796  30.710  36.780  1.00  0.00     0.031 C 
ATOM     67  C   UNL A   1      43.120  29.187  34.846  1.00  0.00     0.034 A 
BRANCH  54  68
ATOM     68  C   UNL A   1      40.980  27.880  29.158  1.00  0.00     0.023 A 
ATOM     69  C   UNL A   1      41.889  28.085  28.104  1.00  0.00     0.031 A 
ATOM     70  C   UNL A   1      40.037  26.844  29.017  1.00  0.00     0.131 A 
ATOM     71  C   UNL A   1      41.768  27.340  26.920  1.00  0.00     0.055 A 
ATOM     72  C   UNL A   1      39.986  26.043  27.875  1.00  0.00     0.041 A 
ATOM     73  F   UNL A   1      39.127  26.613  29.977  1.00  0.00    -0.206 F 
ATOM     74  C   UNL A   1      40.840  26.304  26.808  1.00  0.00     0.022 A 
BRANCH  71  75
ATOM     75  S   UNL A   1      42.709  27.877  25.464  1.00  0.00     0.124 S 
ATOM     76  O   UNL A   1      42.677  26.676  24.632  1.00  0.00    -0.237 OA
ATOM     77  O   UNL A   1      41.925  29.008  24.983  1.00  0.00    -0.237 OA
ATOM     78  O   UNL A   1      44.023  28.211  26.010  1.00  0.00    -0.744 OA
ENDBRANCH  71  75
ENDBRANCH  54  68
BRANCH  55  79
ATOM     79  C   UNL A   1      39.990  33.863  37.137  1.00  0.00     0.023 A 
ATOM     80  C   UNL A   1      40.819  34.950  37.451  1.00  0.00     0.031 A 
ATOM     81  C   UNL A   1      38.929  33.565  38.012  1.00  0.00     0.131 A 
ATOM     82  C   UNL A   1      40.587  35.688  38.622  1.00  0.00     0.055 A 
ATOM     83  C   UNL A   1      38.677  34.328  39.153  1.00  0.00     0.041 A 
ATOM     84  F   UNL A   1      38.103  32.539  37.752  1.00  0.00    -0.206 F 
ATOM     85  C   UNL A   1      39.514  35.393  39.467  1.00  0.00     0.022 A 
BRANCH  82  86
ATOM     86  S   UNL A   1      41.735  37.025  39.051  1.00  0.00     0.124 S 
ATOM     87  O   UNL A   1      42.518  37.147  37.827  1.00  0.00    -0.237 OA
ATOM     88  O   UNL A   1      40.822  38.125  39.343  1.00  0.00    -0.237 OA
ATOM     89  O   UNL A   1      42.456  36.495  40.206  1.00  0.00    -0.744 OA
ENDBRANCH  82  86
ENDBRANCH  55  79
BRANCH  67  90
ATOM     90  C   UNL A   1      44.258  28.537  35.596  1.00  0.00     0.023 A 
ATOM     91  C   UNL A   1      44.047  27.515  36.536  1.00  0.00     0.031 A 
ATOM     92  C   UNL A   1      45.582  28.939  35.341  1.00  0.00     0.131 A 
ATOM     93  C   UNL A   1      45.142  26.953  37.214  1.00  0.00     0.055 A 
ATOM     94  C   UNL A   1      46.670  28.339  35.977  1.00  0.00     0.041 A 
ATOM     95  F   UNL A   1      45.841  29.912  34.453  1.00  0.00    -0.206 F 
ATOM     96  C   UNL A   1      46.451  27.346  36.926  1.00  0.00     0.022 A 
BRANCH  93  97
ATOM     97  S   UNL A   1      44.830  25.744  38.530  1.00  0.00     0.124 S 
ATOM     98  O   UNL A   1      44.079  24.712  37.821  1.00  0.00    -0.237 OA
ATOM     99  O   UNL A   1      46.179  25.378  38.947  1.00  0.00    -0.237 OA
ATOM    100  O   UNL A   1      44.061  26.501  39.517  1.00  0.00    -0.744 OA
ENDBRANCH  93  97
ENDBRANCH  67  90
ENDBRANCH  41  42
ENDBRANCH  34  36
ENDBRANCH  33  34
ENDBRANCH  32  33
ENDBRANCH  31  32
ENDBRANCH  30  31
ENDBRANCH   1  30
TORSDOF 22
ENDMDL
MODEL 2
REMARK VINA RESULT:     -10.5      4.290      9.218
REMARK SMILES [NH3+][C@H](CS[C@@H]1CC(=O)N(c2ccc3ccccc3c2)C1=O)C(=O)OCCOCCOC(=O)c1ccc(-c2c3nc(c(-c4cc(S(=O)(=O)[O-])ccc4F)c4ccc([nH]4)c(-c4cc(S(=O)(=O)[O-])ccc4F)c4nc(c(-c5cc(S(=O)(=O)[O-])ccc5F)c5ccc2[nH]5)C=C4)C=C3)cc1
REMARK SMILES IDX 26 1 25 2 24 3 22 4 23 5 2 6 1 7 3 11 4 12 5 13 6 14 20 15
REMARK SMILES IDX 7 16 9 17 21 18 8 19 10 20 11 21 19 22 12 23 18 24 13 25
REMARK SMILES IDX 17 26 14 27 16 28 15 29 27 30 28 31 29 32 30 33 31 34 32 35
REMARK SMILES IDX 33 36 34 37 95 38 35 39 94 40 36 41 37 42 38 43 88 44 39 45
REMARK SMILES IDX 93 46 87 47 89 48 40 49 92 50 86 51 85 52 41 54 73 55 53 56
REMARK SMILES IDX 72 57 54 58 57 59 71 60 90 61 55 62 56 63 70 65 91 66 58 67
REMARK SMILES IDX 42 68 43 69 51 70 44 71 50 72 52 73 49 74 45 75 46 76 47 77
REMARK SMILES IDX 48 78 74 79 75 80 83 81 76 82 82 83 84 84 81 85 77 86 78 87
REMARK SMILES IDX 79 88 80 89 59 90 60 91 68 92 61 93 67 94 69 95 66 96 62 97
REMARK SMILES IDX 63 98 64 99 65 100
REMARK H PARENT 1 8 1 9 1 10 89 53 57 64
REMARK Flexibility Score: inf
ROOT
ATOM      1  C   UNL A   1      32.705  36.102  30.486  1.00  0.00     0.202 C 
ENDROOT
BRANCH   1   2
ATOM      2  C   UNL A   1      32.424  36.026  31.987  1.00  0.00     0.261 C 
BRANCH   2   3
ATOM      3  O   UNL A   1      32.992  34.854  32.602  1.00  0.00    -0.459 OA
BRANCH   3   4
ATOM      4  C   UNL A   1      34.278  34.988  33.037  1.00  0.00     0.365 C 
ATOM      5  O   UNL A   1      34.683  35.866  33.789  1.00  0.00    -0.245 OA
BRANCH   4   6
ATOM      6  C   UNL A   1      35.175  33.887  32.463  1.00  0.00     0.301 C 
BRANCH   6   7
ATOM      7  N   UNL A   1      34.347  32.857  31.781  1.00  0.00    -0.345 N 
ATOM      8  H   UNL A   1      34.896  32.006  31.662  1.00  0.00     0.345 HD
ATOM      9  H   UNL A   1      34.056  33.205  30.868  1.00  0.00     0.345 HD
ATOM     10  H   UNL A   1      33.523  32.654  32.348  1.00  0.00     0.345 HD
ENDBRANCH   6   7
BRANCH   6  11
ATOM     11  C   UNL A   1      36.103  33.273  33.529  1.00  0.00     0.147 C 
BRANCH  11  12
ATOM     12  S   UNL A   1      37.832  33.892  33.502  1.00  0.00    -0.141 SA
BRANCH  12  13
ATOM     13  C   UNL A   1      38.579  32.934  34.853  1.00  0.00     0.146 C 
ATOM     14  C   UNL A   1      38.142  31.491  34.876  1.00  0.00     0.125 C 
ATOM     15  C   UNL A   1      38.179  33.455  36.210  1.00  0.00     0.247 C 
ATOM     16  C   UNL A   1      38.126  31.180  36.344  1.00  0.00     0.235 C 
ATOM     17  N   UNL A   1      38.071  32.363  37.050  1.00  0.00    -0.250 N 
ATOM     18  O   UNL A   1      38.129  34.646  36.493  1.00  0.00    -0.273 OA
ATOM     19  O   UNL A   1      38.082  30.031  36.761  1.00  0.00    -0.274 OA
BRANCH  17  20
ATOM     20  C   UNL A   1      37.991  32.463  38.468  1.00  0.00     0.052 A 
ATOM     21  C   UNL A   1      38.975  33.136  39.203  1.00  0.00     0.027 A 
ATOM     22  C   UNL A   1      36.897  31.936  39.173  1.00  0.00     0.035 A 
ATOM     23  C   UNL A   1      38.849  33.315  40.585  1.00  0.00     0.011 A 
ATOM     24  C   UNL A   1      36.762  32.090  40.562  1.00  0.00    -0.016 A 
ATOM     25  C   UNL A   1      37.746  32.803  41.277  1.00  0.00    -0.018 A 
ATOM     26  C   UNL A   1      35.663  31.554  41.251  1.00  0.00     0.009 A 
ATOM     27  C   UNL A   1      37.595  32.982  42.661  1.00  0.00     0.009 A 
ATOM     28  C   UNL A   1      35.530  31.731  42.628  1.00  0.00     0.001 A 
ATOM     29  C   UNL A   1      36.492  32.451  43.331  1.00  0.00     0.001 A 
ENDBRANCH  17  20
ENDBRANCH  12  13
ENDBRANCH  11  12
ENDBRANCH   6  11
ENDBRANCH   4   6
ENDBRANCH   3   4
ENDBRANCH   2   3
ENDBRANCH   1   2
BRANCH   1  30
ATOM     30  O   UNL A   1      32.673  34.873  29.763  1.00  0.00    -0.374 OA
BRANCH  30  31
ATOM     31  C   UNL A   1      33.635  34.695  28.728  1.00  0.00     0.202 C 
BRANCH  31  32
ATOM     32  C   UNL A   1      33.644  33.336  28.013  1.00  0.00     0.261 C 
BRANCH  32  33
ATOM     33  O   UNL A   1      34.533  32.391  28.637  1.00  0.00    -0.460 OA
BRANCH  33  34
ATOM     34  C   UNL A   1      34.517  31.151  28.088  1.00  0.00     0.338 C 
ATOM     35  O   UNL A   1      33.673  30.695  27.328  1.00  0.00    -0.246 OA
BRANCH  34  36
ATOM     36  C   UNL A   1      35.787  30.458  28.372  1.00  0.00     0.060 A 
ATOM     37  C   UNL A   1      35.901  29.769  29.586  1.00  0.00     0.016 A 
ATOM     38  C   UNL A   1      36.875  30.550  27.501  1.00  0.00     0.016 A 
ATOM     39  C   UNL A   1      37.117  29.202  29.960  1.00  0.00     0.010 A 
ATOM     40  C   UNL A   1      38.099  29.991  27.883  1.00  0.00     0.010 A 
ATOM     41  C   UNL A   1      38.234  29.345  29.128  1.00  0.00    -0.014 A 
BRANCH  41  42
ATOM     42  C   UNL A   1      39.586  28.989  29.621  1.00  0.00     0.031 A 
ATOM     43  C   UNL A   1      40.298  27.827  28.985  1.00  0.00     0.074 A 
ATOM     44  C   UNL A   1      40.160  29.666  30.631  1.00  0.00     0.049 A 
ATOM     45  N   UNL A   1      41.402  27.229  29.343  1.00  0.00    -0.248 NA
ATOM     46  C   UNL A   1      39.659  27.259  27.789  1.00  0.00     0.031 C 
ATOM     47  C   UNL A   1      39.592  30.841  31.286  1.00  0.00     0.029 A 
ATOM     48  N   UNL A   1      41.337  29.439  31.298  1.00  0.00    -0.354 N 
ATOM     49  C   UNL A   1      41.582  26.195  28.429  1.00  0.00     0.074 A 
ATOM     50  C   UNL A   1      40.453  26.236  27.524  1.00  0.00     0.031 C 
ATOM     51  C   UNL A   1      40.405  31.212  32.290  1.00  0.00     0.029 A 
ATOM     52  C   UNL A   1      41.521  30.272  32.376  1.00  0.00     0.049 A 
ATOM     53  H   UNL A   1      41.985  28.748  31.030  1.00  0.00     0.167 HD
ATOM     54  C   UNL A   1      42.597  25.297  28.356  1.00  0.00     0.034 A 
ATOM     55  C   UNL A   1      42.455  30.246  33.348  1.00  0.00     0.034 A 
ATOM     56  C   UNL A   1      43.704  25.268  29.282  1.00  0.00     0.049 A 
ATOM     57  C   UNL A   1      43.530  29.189  33.308  1.00  0.00     0.074 A 
ATOM     58  C   UNL A   1      44.797  24.419  29.296  1.00  0.00     0.029 A 
ATOM     59  N   UNL A   1      43.849  26.118  30.374  1.00  0.00    -0.354 N 
ATOM     60  N   UNL A   1      43.696  28.212  32.445  1.00  0.00    -0.248 NA
ATOM     61  C   UNL A   1      44.548  29.234  34.366  1.00  0.00     0.031 C 
ATOM     62  C   UNL A   1      45.558  24.704  30.436  1.00  0.00     0.029 A 
ATOM     63  C   UNL A   1      44.990  25.787  31.087  1.00  0.00     0.049 A 
ATOM     64  H   UNL A   1      43.230  26.846  30.606  1.00  0.00     0.167 HD
ATOM     65  C   UNL A   1      44.854  27.546  32.840  1.00  0.00     0.074 A 
ATOM     66  C   UNL A   1      45.344  28.231  34.019  1.00  0.00     0.031 C 
ATOM     67  C   UNL A   1      45.463  26.474  32.270  1.00  0.00     0.034 A 
BRANCH  54  68
ATOM     68  C   UNL A   1      42.501  24.238  27.283  1.00  0.00     0.023 A 
ATOM     69  C   UNL A   1      41.771  23.050  27.473  1.00  0.00     0.031 A 
ATOM     70  C   UNL A   1      43.213  24.383  26.077  1.00  0.00     0.131 A 
ATOM     71  C   UNL A   1      41.854  22.018  26.525  1.00  0.00     0.055 A 
ATOM     72  C   UNL A   1      43.212  23.390  25.096  1.00  0.00     0.041 A 
ATOM     73  F   UNL A   1      43.947  25.482  25.845  1.00  0.00    -0.206 F 
ATOM     74  C   UNL A   1      42.549  22.189  25.327  1.00  0.00     0.022 A 
BRANCH  71  75
ATOM     75  S   UNL A   1      41.205  20.383  26.973  1.00  0.00     0.124 S 
ATOM     76  O   UNL A   1      40.751  20.610  28.343  1.00  0.00    -0.237 OA
ATOM     77  O   UNL A   1      40.158  20.178  25.979  1.00  0.00    -0.237 OA
ATOM     78  O   UNL A   1      42.368  19.507  26.848  1.00  0.00    -0.744 OA
ENDBRANCH  71  75
ENDBRANCH  54  68
BRANCH  55  79
ATOM     79  C   UNL A   1      42.373  31.216  34.475  1.00  0.00     0.023 A 
ATOM     80  C   UNL A   1      42.884  32.517  34.360  1.00  0.00     0.031 A 
ATOM     81  C   UNL A   1      41.771  30.845  35.693  1.00  0.00     0.131 A 
ATOM     82  C   UNL A   1      42.805  33.396  35.452  1.00  0.00     0.055 A 
ATOM     83  C   UNL A   1      41.657  31.737  36.761  1.00  0.00     0.041 A 
ATOM     84  F   UNL A   1      41.260  29.614  35.850  1.00  0.00    -0.206 F 
ATOM     85  C   UNL A   1      42.182  33.020  36.645  1.00  0.00     0.022 A 
BRANCH  82  86
ATOM     86  S   UNL A   1      43.563  35.037  35.306  1.00  0.00     0.124 S 
ATOM     87  O   UNL A   1      43.755  35.400  36.705  1.00  0.00    -0.237 OA
ATOM     88  O   UNL A   1      44.774  34.744  34.546  1.00  0.00    -0.237 OA
ATOM     89  O   UNL A   1      42.554  35.814  34.589  1.00  0.00    -0.744 OA
ENDBRANCH  82  86
ENDBRANCH  55  79
BRANCH  67  90
ATOM     90  C   UNL A   1      46.766  26.011  32.877  1.00  0.00     0.023 A 
ATOM     91  C   UNL A   1      46.816  25.050  33.900  1.00  0.00     0.031 A 
ATOM     92  C   UNL A   1      47.983  26.531  32.397  1.00  0.00     0.131 A 
ATOM     93  C   UNL A   1      48.055  24.665  34.437  1.00  0.00     0.055 A 
ATOM     94  C   UNL A   1      49.214  26.104  32.896  1.00  0.00     0.041 A 
ATOM     95  F   UNL A   1      47.995  27.453  31.421  1.00  0.00    -0.206 F 
ATOM     96  C   UNL A   1      49.254  25.172  33.928  1.00  0.00     0.022 A 
BRANCH  93  97
ATOM     97  S   UNL A   1      48.082  23.537  35.858  1.00  0.00     0.124 S 
ATOM     98  O   UNL A   1      48.032  22.231  35.209  1.00  0.00    -0.237 OA
ATOM     99  O   UNL A   1      49.342  23.880  36.507  1.00  0.00    -0.237 OA
ATOM    100  O   UNL A   1      46.880  23.902  36.607  1.00  0.00    -0.744 OA
ENDBRANCH  93  97
ENDBRANCH  67  90
ENDBRANCH  41  42
ENDBRANCH  34  36
ENDBRANCH  33  34
ENDBRANCH  32  33
ENDBRANCH  31  32
ENDBRANCH  30  31
ENDBRANCH   1  30
TORSDOF 22
ENDMDL
MODEL 3
REMARK VINA RESULT:     -10.3      6.630      9.737
REMARK SMILES [NH3+][C@H](CS[C@@H]1CC(=O)N(c2ccc3ccccc3c2)C1=O)C(=O)OCCOCCOC(=O)c1ccc(-c2c3nc(c(-c4cc(S(=O)(=O)[O-])ccc4F)c4ccc([nH]4)c(-c4cc(S(=O)(=O)[O-])ccc4F)c4nc(c(-c5cc(S(=O)(=O)[O-])ccc5F)c5ccc2[nH]5)C=C4)C=C3)cc1
REMARK SMILES IDX 26 1 25 2 24 3 22 4 23 5 2 6 1 7 3 11 4 12 5 13 6 14 20 15
REMARK SMILES IDX 7 16 9 17 21 18 8 19 10 20 11 21 19 22 12 23 18 24 13 25
REMARK SMILES IDX 17 26 14 27 16 28 15 29 27 30 28 31 29 32 30 33 31 34 32 35
REMARK SMILES IDX 33 36 34 37 95 38 35 39 94 40 36 41 37 42 38 43 88 44 39 45
REMARK SMILES IDX 93 46 87 47 89 48 40 49 92 50 86 51 85 52 41 54 73 55 53 56
REMARK SMILES IDX 72 57 54 58 57 59 71 60 90 61 55 62 56 63 70 65 91 66 58 67
REMARK SMILES IDX 42 68 43 69 51 70 44 71 50 72 52 73 49 74 45 75 46 76 47 77
REMARK SMILES IDX 48 78 74 79 75 80 83 81 76 82 82 83 84 84 81 85 77 86 78 87
REMARK SMILES IDX 79 88 80 89 59 90 60 91 68 92 61 93 67 94 69 95 66 96 62 97
REMARK SMILES IDX 63 98 64 99 65 100
REMARK H PARENT 1 8 1 9 1 10 89 53 57 64
REMARK Flexibility Score: inf
ROOT
ATOM      1  C   UNL A   1      35.739  34.764  32.597  1.00  0.00     0.202 C 
ENDROOT
BRANCH   1   2
ATOM      2  C   UNL A   1      34.408  35.323  33.105  1.00  0.00     0.261 C 
BRANCH   2   3
ATOM      3  O   UNL A   1      33.284  34.889  32.316  1.00  0.00    -0.459 OA
BRANCH   3   4
ATOM      4  C   UNL A   1      32.664  35.868  31.596  1.00  0.00     0.365 C 
ATOM      5  O   UNL A   1      31.646  36.458  31.934  1.00  0.00    -0.245 OA
BRANCH   4   6
ATOM      6  C   UNL A   1      33.407  36.146  30.286  1.00  0.00     0.301 C 
BRANCH   6   7
ATOM      7  N   UNL A   1      33.292  37.585  29.928  1.00  0.00    -0.345 N 
ATOM      8  H   UNL A   1      32.485  37.719  29.319  1.00  0.00     0.345 HD
ATOM      9  H   UNL A   1      34.138  37.884  29.443  1.00  0.00     0.345 HD
ATOM     10  H   UNL A   1      33.173  38.138  30.777  1.00  0.00     0.345 HD
ENDBRANCH   6   7
BRANCH   6  11
ATOM     11  C   UNL A   1      32.942  35.225  29.141  1.00  0.00     0.147 C 
BRANCH  11  12
ATOM     12  S   UNL A   1      34.285  34.588  28.063  1.00  0.00    -0.141 SA
BRANCH  12  13
ATOM     13  C   UNL A   1      34.195  32.803  28.392  1.00  0.00     0.146 C 
ATOM     14  C   UNL A   1      35.486  32.077  28.110  1.00  0.00     0.125 C 
ATOM     15  C   UNL A   1      33.191  32.111  27.506  1.00  0.00     0.247 C 
ATOM     16  C   UNL A   1      35.008  30.741  27.624  1.00  0.00     0.235 C 
ATOM     17  N   UNL A   1      33.695  30.856  27.220  1.00  0.00    -0.250 N 
ATOM     18  O   UNL A   1      32.082  32.566  27.252  1.00  0.00    -0.273 OA
ATOM     19  O   UNL A   1      35.755  29.775  27.548  1.00  0.00    -0.274 OA
BRANCH  17  20
ATOM     20  C   UNL A   1      32.920  29.805  26.653  1.00  0.00     0.052 A 
ATOM     21  C   UNL A   1      32.244  28.885  27.464  1.00  0.00     0.027 A 
ATOM     22  C   UNL A   1      32.766  29.686  25.262  1.00  0.00     0.035 A 
ATOM     23  C   UNL A   1      31.408  27.910  26.909  1.00  0.00     0.011 A 
ATOM     24  C   UNL A   1      31.946  28.702  24.686  1.00  0.00    -0.016 A 
ATOM     25  C   UNL A   1      31.245  27.810  25.522  1.00  0.00    -0.018 A 
ATOM     26  C   UNL A   1      31.806  28.595  23.294  1.00  0.00     0.009 A 
ATOM     27  C   UNL A   1      30.402  26.846  24.946  1.00  0.00     0.009 A 
ATOM     28  C   UNL A   1      30.973  27.627  22.734  1.00  0.00     0.001 A 
ATOM     29  C   UNL A   1      30.266  26.758  23.560  1.00  0.00     0.001 A 
ENDBRANCH  17  20
ENDBRANCH  12  13
ENDBRANCH  11  12
ENDBRANCH   6  11
ENDBRANCH   4   6
ENDBRANCH   3   4
ENDBRANCH   2   3
ENDBRANCH   1   2
BRANCH   1  30
ATOM     30  O   UNL A   1      36.876  34.951  33.436  1.00  0.00    -0.374 OA
BRANCH  30  31
ATOM     31  C   UNL A   1      37.369  33.813  34.137  1.00  0.00     0.202 C 
BRANCH  31  32
ATOM     32  C   UNL A   1      36.549  32.520  34.030  1.00  0.00     0.261 C 
BRANCH  32  33
ATOM     33  O   UNL A   1      37.378  31.348  33.930  1.00  0.00    -0.460 OA
BRANCH  33  34
ATOM     34  C   UNL A   1      37.283  30.685  32.750  1.00  0.00     0.338 C 
ATOM     35  O   UNL A   1      36.283  30.154  32.285  1.00  0.00    -0.246 OA
BRANCH  34  36
ATOM     36  C   UNL A   1      38.525  30.856  31.975  1.00  0.00     0.060 A 
ATOM     37  C   UNL A   1      39.703  31.140  32.678  1.00  0.00     0.016 A 
ATOM     38  C   UNL A   1      38.521  30.820  30.579  1.00  0.00     0.016 A 
ATOM     39  C   UNL A   1      40.878  31.432  31.989  1.00  0.00     0.010 A 
ATOM     40  C   UNL A   1      39.698  31.126  29.889  1.00  0.00     0.010 A 
ATOM     41  C   UNL A   1      40.872  31.466  30.590  1.00  0.00    -0.014 A 
BRANCH  41  42
ATOM     42  C   UNL A   1      42.026  32.031  29.850  1.00  0.00     0.031 A 
ATOM     43  C   UNL A   1      43.150  31.110  29.466  1.00  0.00     0.074 A 
ATOM     44  C   UNL A   1      42.086  33.339  29.547  1.00  0.00     0.049 A 
ATOM     45  N   UNL A   1      44.324  31.391  28.965  1.00  0.00    -0.248 NA
ATOM     46  C   UNL A   1      42.915  29.678  29.697  1.00  0.00     0.031 C 
ATOM     47  C   UNL A   1      41.034  34.316  29.818  1.00  0.00     0.029 A 
ATOM     48  N   UNL A   1      43.093  34.074  28.971  1.00  0.00    -0.354 N 
ATOM     49  C   UNL A   1      44.981  30.171  28.841  1.00  0.00     0.074 A 
ATOM     50  C   UNL A   1      44.081  29.158  29.350  1.00  0.00     0.031 C 
ATOM     51  C   UNL A   1      41.465  35.532  29.441  1.00  0.00     0.029 A 
ATOM     52  C   UNL A   1      42.838  35.424  28.951  1.00  0.00     0.049 A 
ATOM     53  H   UNL A   1      43.915  33.672  28.608  1.00  0.00     0.167 HD
ATOM     54  C   UNL A   1      46.220  29.923  28.347  1.00  0.00     0.034 A 
ATOM     55  C   UNL A   1      43.640  36.457  28.623  1.00  0.00     0.034 A 
ATOM     56  C   UNL A   1      47.105  30.954  27.860  1.00  0.00     0.049 A 
ATOM     57  C   UNL A   1      45.047  36.178  28.158  1.00  0.00     0.074 A 
ATOM     58  C   UNL A   1      48.372  30.821  27.321  1.00  0.00     0.029 A 
ATOM     59  N   UNL A   1      46.820  32.315  27.871  1.00  0.00    -0.354 N 
ATOM     60  N   UNL A   1      45.666  35.025  28.045  1.00  0.00    -0.248 NA
ATOM     61  C   UNL A   1      45.863  37.336  27.770  1.00  0.00     0.031 C 
ATOM     62  C   UNL A   1      48.883  32.103  27.080  1.00  0.00     0.029 A 
ATOM     63  C   UNL A   1      47.902  33.033  27.385  1.00  0.00     0.049 A 
ATOM     64  H   UNL A   1      45.974  32.711  28.180  1.00  0.00     0.167 HD
ATOM     65  C   UNL A   1      46.932  35.317  27.544  1.00  0.00     0.074 A 
ATOM     66  C   UNL A   1      46.989  36.756  27.378  1.00  0.00     0.031 C 
ATOM     67  C   UNL A   1      47.949  34.472  27.234  1.00  0.00     0.034 A 
BRANCH  54  68
ATOM     68  C   UNL A   1      46.703  28.491  28.389  1.00  0.00     0.023 A 
ATOM     69  C   UNL A   1      46.521  27.613  27.305  1.00  0.00     0.031 A 
ATOM     70  C   UNL A   1      47.287  27.974  29.559  1.00  0.00     0.131 A 
ATOM     71  C   UNL A   1      46.821  26.250  27.450  1.00  0.00     0.055 A 
ATOM     72  C   UNL A   1      47.673  26.636  29.663  1.00  0.00     0.041 A 
ATOM     73  F   UNL A   1      47.467  28.755  30.637  1.00  0.00    -0.206 F 
ATOM     74  C   UNL A   1      47.418  25.760  28.612  1.00  0.00     0.022 A 
BRANCH  71  75
ATOM     75  S   UNL A   1      46.237  25.098  26.175  1.00  0.00     0.124 S 
ATOM     76  O   UNL A   1      47.147  23.970  26.357  1.00  0.00    -0.237 OA
ATOM     77  O   UNL A   1      44.851  24.871  26.568  1.00  0.00    -0.237 OA
ATOM     78  O   UNL A   1      46.422  25.842  24.931  1.00  0.00    -0.744 OA
ENDBRANCH  71  75
ENDBRANCH  54  68
BRANCH  55  79
ATOM     79  C   UNL A   1      43.146  37.853  28.784  1.00  0.00     0.023 A 
ATOM     80  C   UNL A   1      43.414  38.594  29.945  1.00  0.00     0.031 A 
ATOM     81  C   UNL A   1      42.395  38.467  27.764  1.00  0.00     0.131 A 
ATOM     82  C   UNL A   1      42.915  39.901  30.067  1.00  0.00     0.055 A 
ATOM     83  C   UNL A   1      41.939  39.781  27.873  1.00  0.00     0.041 A 
ATOM     84  F   UNL A   1      42.119  37.802  26.632  1.00  0.00    -0.206 F 
ATOM     85  C   UNL A   1      42.193  40.504  29.034  1.00  0.00     0.022 A 
BRANCH  82  86
ATOM     86  S   UNL A   1      43.194  40.798  31.619  1.00  0.00     0.124 S 
ATOM     87  O   UNL A   1      41.878  41.372  31.869  1.00  0.00    -0.237 OA
ATOM     88  O   UNL A   1      43.609  39.725  32.517  1.00  0.00    -0.237 OA
ATOM     89  O   UNL A   1      44.241  41.756  31.274  1.00  0.00    -0.744 OA
ENDBRANCH  82  86
ENDBRANCH  55  79
BRANCH  67  90
ATOM     90  C   UNL A   1      49.193  35.073  26.625  1.00  0.00     0.023 A 
ATOM     91  C   UNL A   1      50.328  35.383  27.393  1.00  0.00     0.031 A 
ATOM     92  C   UNL A   1      49.244  35.317  25.240  1.00  0.00     0.131 A 
ATOM     93  C   UNL A   1      51.454  35.953  26.776  1.00  0.00     0.055 A 
ATOM     94  C   UNL A   1      50.385  35.832  24.624  1.00  0.00     0.041 A 
ATOM     95  F   UNL A   1      48.188  35.041  24.459  1.00  0.00    -0.206 F 
ATOM     96  C   UNL A   1      51.496  36.161  25.395  1.00  0.00     0.022 A 
BRANCH  93  97
ATOM     97  S   UNL A   1      52.846  36.482  27.812  1.00  0.00     0.124 S 
ATOM     98  O   UNL A   1      53.880  35.520  27.444  1.00  0.00    -0.237 OA
ATOM     99  O   UNL A   1      53.064  37.854  27.368  1.00  0.00    -0.237 OA
ATOM    100  O   UNL A   1      52.331  36.346  29.174  1.00  0.00    -0.744 OA
ENDBRANCH  93  97
ENDBRANCH  67  90
ENDBRANCH  41  42
ENDBRANCH  34  36
ENDBRANCH  33  34
ENDBRANCH  32  33
ENDBRANCH  31  32
ENDBRANCH  30  31
ENDBRANCH   1  30
TORSDOF 22
ENDMDL
