MODEL 1
REMARK VINA RESULT:      -9.8      0.000      0.000
REMARK SMILES CC(C)=CCc1cccc2c(C(=O)OCCOCCOC(=O)c3ccc(-c4c5nc(c(-c6cc(S(=O)(=O)[O-])ccc6F)c6ccc([nH]6)c(-c6cc(S(=O)(=O)[O-])ccc6F)c6nc(c(-c7cc(S(=O)(=O)[O-])ccc7F)c7ccc4[nH]7)C=C6)C=C5)cc3)c[nH]c12
REMARK SMILES IDX 18 1 17 2 16 3 15 4 14 5 12 6 13 7 11 8 6 9 7 10 88 11 8 12
REMARK SMILES IDX 10 13 87 14 9 15 86 16 5 18 4 19 1 20 2 21 3 22 19 23 20 24
REMARK SMILES IDX 21 25 22 26 23 27 24 28 85 29 25 30 84 31 26 32 27 33 28 34
REMARK SMILES IDX 78 35 29 36 83 37 77 38 79 39 30 40 82 41 76 42 75 43 31 45
REMARK SMILES IDX 63 46 43 47 62 48 44 49 47 50 61 51 80 52 45 53 46 54 60 56
REMARK SMILES IDX 81 57 48 58 32 59 33 60 41 61 34 62 40 63 42 64 39 65 35 66
REMARK SMILES IDX 36 67 37 68 38 69 64 70 65 71 73 72 66 73 72 74 74 75 71 76
REMARK SMILES IDX 67 77 68 78 69 79 70 80 49 81 50 82 58 83 51 84 57 85 59 86
REMARK SMILES IDX 56 87 52 88 53 89 54 90 55 91
REMARK H PARENT 87 17 79 44 47 55
REMARK Flexibility Score: inf
ROOT
ATOM      1  C   UNL A   1      33.285  35.265  28.835  1.00  0.00     0.202 C 
ENDROOT
BRANCH   1   2
ATOM      2  O   UNL A   1      32.740  35.014  30.133  1.00  0.00    -0.374 OA
BRANCH   2   3
ATOM      3  C   UNL A   1      32.949  36.038  31.110  1.00  0.00     0.202 C 
BRANCH   3   4
ATOM      4  C   UNL A   1      33.349  35.518  32.493  1.00  0.00     0.261 C 
BRANCH   4   5
ATOM      5  O   UNL A   1      33.657  34.115  32.429  1.00  0.00    -0.460 OA
BRANCH   5   6
ATOM      6  C   UNL A   1      34.785  33.739  33.093  1.00  0.00     0.340 C 
ATOM      7  O   UNL A   1      34.795  33.186  34.189  1.00  0.00    -0.246 OA
BRANCH   6   8
ATOM      8  C   UNL A   1      36.003  33.952  32.322  1.00  0.00     0.085 A 
ATOM      9  C   UNL A   1      39.530  34.477  31.569  1.00  0.00    -0.020 A 
ATOM     10  C   UNL A   1      40.130  34.673  32.825  1.00  0.00     0.006 A 
ATOM     11  C   UNL A   1      38.131  34.304  31.571  1.00  0.00     0.050 A 
ATOM     12  C   UNL A   1      39.377  34.687  33.998  1.00  0.00     0.001 A 
ATOM     13  C   UNL A   1      37.348  34.265  32.729  1.00  0.00     0.014 A 
ATOM     14  N   UNL A   1      37.284  34.110  30.506  1.00  0.00    -0.360 N 
ATOM     15  C   UNL A   1      37.993  34.478  33.965  1.00  0.00     0.011 A 
ATOM     16  C   UNL A   1      36.015  33.888  30.938  1.00  0.00     0.099 A 
ATOM     17  H   UNL A   1      37.557  34.129  29.561  1.00  0.00     0.166 HD
BRANCH   9  18
ATOM     18  C   UNL A   1      40.368  34.361  30.314  1.00  0.00     0.065 C 
BRANCH  18  19
ATOM     19  C   UNL A   1      41.129  33.058  30.307  1.00  0.00    -0.024 C 
ATOM     20  C   UNL A   1      43.331  33.902  31.194  1.00  0.00     0.039 C 
ATOM     21  C   UNL A   1      42.417  32.844  30.647  1.00  0.00    -0.080 C 
ATOM     22  C   UNL A   1      43.009  31.472  30.462  1.00  0.00     0.039 C 
ENDBRANCH  18  19
ENDBRANCH   9  18
ENDBRANCH   6   8
ENDBRANCH   5   6
ENDBRANCH   4   5
ENDBRANCH   3   4
ENDBRANCH   2   3
ENDBRANCH   1   2
BRANCH   1  23
ATOM     23  C   UNL A   1      33.244  34.073  27.874  1.00  0.00     0.261 C 
BRANCH  23  24
ATOM     24  O   UNL A   1      34.438  33.280  27.989  1.00  0.00    -0.460 OA
BRANCH  24  25
ATOM     25  C   UNL A   1      34.241  31.940  27.950  1.00  0.00     0.338 C 
ATOM     26  O   UNL A   1      33.236  31.360  27.576  1.00  0.00    -0.246 OA
BRANCH  25  27
ATOM     27  C   UNL A   1      35.509  31.240  28.249  1.00  0.00     0.060 A 
ATOM     28  C   UNL A   1      35.418  29.984  28.863  1.00  0.00     0.016 A 
ATOM     29  C   UNL A   1      36.759  31.803  27.974  1.00  0.00     0.016 A 
ATOM     30  C   UNL A   1      36.573  29.309  29.250  1.00  0.00     0.010 A 
ATOM     31  C   UNL A   1      37.918  31.128  28.372  1.00  0.00     0.010 A 
ATOM     32  C   UNL A   1      37.830  29.894  29.042  1.00  0.00    -0.014 A 
BRANCH  32  33
ATOM     33  C   UNL A   1      39.028  29.285  29.670  1.00  0.00     0.031 A 
ATOM     34  C   UNL A   1      39.466  29.777  31.023  1.00  0.00     0.074 A 
ATOM     35  C   UNL A   1      39.692  28.284  29.064  1.00  0.00     0.049 A 
ATOM     36  N   UNL A   1      40.487  29.408  31.752  1.00  0.00    -0.248 NA
ATOM     37  C   UNL A   1      38.638  30.830  31.632  1.00  0.00     0.031 C 
ATOM     38  C   UNL A   1      39.337  27.695  27.774  1.00  0.00     0.029 A 
ATOM     39  N   UNL A   1      40.808  27.589  29.456  1.00  0.00    -0.354 N 
ATOM     40  C   UNL A   1      40.425  30.180  32.907  1.00  0.00     0.074 A 
ATOM     41  C   UNL A   1      39.289  31.066  32.760  1.00  0.00     0.031 C 
ATOM     42  C   UNL A   1      40.226  26.732  27.476  1.00  0.00     0.029 A 
ATOM     43  C   UNL A   1      41.231  26.659  28.535  1.00  0.00     0.049 A 
ATOM     44  H   UNL A   1      41.264  27.741  30.315  1.00  0.00     0.167 HD
ATOM     45  C   UNL A   1      41.235  30.147  33.995  1.00  0.00     0.034 A 
ATOM     46  C   UNL A   1      42.315  25.859  28.538  1.00  0.00     0.034 A 
ATOM     47  C   UNL A   1      42.373  29.270  34.121  1.00  0.00     0.049 A 
ATOM     48  C   UNL A   1      43.256  25.903  29.718  1.00  0.00     0.074 A 
ATOM     49  C   UNL A   1      43.252  29.144  35.183  1.00  0.00     0.029 A 
ATOM     50  N   UNL A   1      42.801  28.379  33.145  1.00  0.00    -0.354 N 
ATOM     51  N   UNL A   1      43.181  26.630  30.811  1.00  0.00    -0.248 NA
ATOM     52  C   UNL A   1      44.424  25.014  29.669  1.00  0.00     0.031 C 
ATOM     53  C   UNL A   1      44.247  28.229  34.823  1.00  0.00     0.029 A 
ATOM     54  C   UNL A   1      43.951  27.727  33.566  1.00  0.00     0.049 A 
ATOM     55  H   UNL A   1      42.354  28.230  32.282  1.00  0.00     0.167 HD
ATOM     56  C   UNL A   1      44.278  26.264  31.587  1.00  0.00     0.074 A 
ATOM     57  C   UNL A   1      44.990  25.244  30.844  1.00  0.00     0.031 C 
ATOM     58  C   UNL A   1      44.660  26.723  32.806  1.00  0.00     0.034 A 
BRANCH  45  59
ATOM     59  C   UNL A   1      40.941  31.128  35.103  1.00  0.00     0.023 A 
ATOM     60  C   UNL A   1      39.809  30.997  35.928  1.00  0.00     0.031 A 
ATOM     61  C   UNL A   1      41.785  32.232  35.314  1.00  0.00     0.131 A 
ATOM     62  C   UNL A   1      39.515  31.990  36.874  1.00  0.00     0.055 A 
ATOM     63  C   UNL A   1      41.527  33.176  36.309  1.00  0.00     0.041 A 
ATOM     64  F   UNL A   1      42.867  32.422  34.543  1.00  0.00    -0.206 F 
ATOM     65  C   UNL A   1      40.379  33.066  37.087  1.00  0.00     0.022 A 
BRANCH  62  66
ATOM     66  S   UNL A   1      37.916  31.928  37.728  1.00  0.00     0.124 S 
ATOM     67  O   UNL A   1      38.283  32.355  39.076  1.00  0.00    -0.237 OA
ATOM     68  O   UNL A   1      37.110  32.868  36.958  1.00  0.00    -0.237 OA
ATOM     69  O   UNL A   1      37.519  30.526  37.613  1.00  0.00    -0.744 OA
ENDBRANCH  62  66
ENDBRANCH  45  59
BRANCH  46  70
ATOM     70  C   UNL A   1      42.609  24.979  27.371  1.00  0.00     0.023 A 
ATOM     71  C   UNL A   1      42.129  23.661  27.312  1.00  0.00     0.031 A 
ATOM     72  C   UNL A   1      43.426  25.431  26.320  1.00  0.00     0.131 A 
ATOM     73  C   UNL A   1      42.507  22.828  26.247  1.00  0.00     0.055 A 
ATOM     74  C   UNL A   1      43.759  24.614  25.238  1.00  0.00     0.041 A 
ATOM     75  F   UNL A   1      43.912  26.683  26.327  1.00  0.00    -0.206 F 
ATOM     76  C   UNL A   1      43.309  23.299  25.204  1.00  0.00     0.022 A 
BRANCH  73  77
ATOM     77  S   UNL A   1      41.999  21.086  26.284  1.00  0.00     0.124 S 
ATOM     78  O   UNL A   1      40.564  21.190  26.042  1.00  0.00    -0.237 OA
ATOM     79  O   UNL A   1      42.794  20.516  25.201  1.00  0.00    -0.237 OA
ATOM     80  O   UNL A   1      42.376  20.650  27.627  1.00  0.00    -0.744 OA
ENDBRANCH  73  77
ENDBRANCH  46  70
BRANCH  58  81
ATOM     81  C   UNL A   1      45.885  26.094  33.423  1.00  0.00     0.023 A 
ATOM     82  C   UNL A   1      45.816  24.886  34.140  1.00  0.00     0.031 A 
ATOM     83  C   UNL A   1      47.138  26.720  33.301  1.00  0.00     0.131 A 
ATOM     84  C   UNL A   1      46.968  24.369  34.751  1.00  0.00     0.055 A 
ATOM     85  C   UNL A   1      48.291  26.171  33.864  1.00  0.00     0.041 A 
ATOM     86  F   UNL A   1      47.262  27.875  32.629  1.00  0.00    -0.206 F 
ATOM     87  C   UNL A   1      48.208  24.996  34.605  1.00  0.00     0.022 A 
BRANCH  84  88
ATOM     88  S   UNL A   1      46.811  22.907  35.815  1.00  0.00     0.124 S 
ATOM     89  O   UNL A   1      46.676  23.507  37.138  1.00  0.00    -0.237 OA
ATOM     90  O   UNL A   1      45.616  22.262  35.282  1.00  0.00    -0.237 OA
ATOM     91  O   UNL A   1      48.059  22.181  35.587  1.00  0.00    -0.744 OA
ENDBRANCH  84  88
ENDBRANCH  58  81
ENDBRANCH  32  33
ENDBRANCH  25  27
ENDBRANCH  24  25
ENDBRANCH  23  24
ENDBRANCH   1  23
TORSDOF 19
ENDMDL
MODEL 2
REMARK VINA RESULT:      -9.3      4.133     11.824
REMARK SMILES CC(C)=CCc1cccc2c(C(=O)OCCOCCOC(=O)c3ccc(-c4c5nc(c(-c6cc(S(=O)(=O)[O-])ccc6F)c6ccc([nH]6)c(-c6cc(S(=O)(=O)[O-])ccc6F)c6nc(c(-c7cc(S(=O)(=O)[O-])ccc7F)c7ccc4[nH]7)C=C6)C=C5)cc3)c[nH]c12
REMARK SMILES IDX 18 1 17 2 16 3 15 4 14 5 12 6 13 7 11 8 6 9 7 10 88 11 8 12
REMARK SMILES IDX 10 13 87 14 9 15 86 16 5 18 4 19 1 20 2 21 3 22 19 23 20 24
REMARK SMILES IDX 21 25 22 26 23 27 24 28 85 29 25 30 84 31 26 32 27 33 28 34
REMARK SMILES IDX 78 35 29 36 83 37 77 38 79 39 30 40 82 41 76 42 75 43 31 45
REMARK SMILES IDX 63 46 43 47 62 48 44 49 47 50 61 51 80 52 45 53 46 54 60 56
REMARK SMILES IDX 81 57 48 58 32 59 33 60 41 61 34 62 40 63 42 64 39 65 35 66
REMARK SMILES IDX 36 67 37 68 38 69 64 70 65 71 73 72 66 73 72 74 74 75 71 76
REMARK SMILES IDX 67 77 68 78 69 79 70 80 49 81 50 82 58 83 51 84 57 85 59 86
REMARK SMILES IDX 56 87 52 88 53 89 54 90 55 91
REMARK H PARENT 87 17 79 44 47 55
REMARK Flexibility Score: inf
ROOT
ATOM      1  C   UNL A   1      42.194  20.082  26.582  1.00  0.00     0.202 C 
ENDROOT
BRANCH   1   2
ATOM      2  O   UNL A   1      42.897  20.443  25.390  1.00  0.00    -0.374 OA
BRANCH   2   3
ATOM      3  C   UNL A   1      44.293  20.133  25.367  1.00  0.00     0.202 C 
BRANCH   3   4
ATOM      4  C   UNL A   1      45.123  21.028  24.443  1.00  0.00     0.261 C 
BRANCH   4   5
ATOM      5  O   UNL A   1      46.171  21.675  25.184  1.00  0.00    -0.460 OA
BRANCH   5   6
ATOM      6  C   UNL A   1      46.162  23.036  25.132  1.00  0.00     0.340 C 
ATOM      7  O   UNL A   1      46.125  23.693  24.095  1.00  0.00    -0.246 OA
BRANCH   6   8
ATOM      8  C   UNL A   1      46.085  23.660  26.447  1.00  0.00     0.085 A 
ATOM      9  C   UNL A   1      44.793  24.589  29.725  1.00  0.00    -0.020 A 
ATOM     10  C   UNL A   1      43.480  24.087  29.738  1.00  0.00     0.006 A 
ATOM     11  C   UNL A   1      45.512  24.411  28.526  1.00  0.00     0.050 A 
ATOM     12  C   UNL A   1      42.934  23.447  28.627  1.00  0.00     0.001 A 
ATOM     13  C   UNL A   1      45.017  23.734  27.408  1.00  0.00     0.014 A 
ATOM     14  N   UNL A   1      46.794  24.807  28.221  1.00  0.00    -0.360 N 
ATOM     15  C   UNL A   1      43.690  23.257  27.464  1.00  0.00     0.011 A 
ATOM     16  C   UNL A   1      47.152  24.357  26.990  1.00  0.00     0.099 A 
ATOM     17  H   UNL A   1      47.371  25.341  28.812  1.00  0.00     0.166 HD
BRANCH   9  18
ATOM     18  C   UNL A   1      45.410  25.191  30.969  1.00  0.00     0.065 C 
BRANCH  18  19
ATOM     19  C   UNL A   1      44.969  26.625  31.135  1.00  0.00    -0.024 C 
ATOM     20  C   UNL A   1      43.731  26.390  33.316  1.00  0.00     0.039 C 
ATOM     21  C   UNL A   1      44.214  27.155  32.119  1.00  0.00    -0.080 C 
ATOM     22  C   UNL A   1      43.801  28.600  32.031  1.00  0.00     0.039 C 
ENDBRANCH  18  19
ENDBRANCH   9  18
ENDBRANCH   6   8
ENDBRANCH   5   6
ENDBRANCH   4   5
ENDBRANCH   3   4
ENDBRANCH   2   3
ENDBRANCH   1   2
BRANCH   1  23
ATOM     23  C   UNL A   1      40.691  20.376  26.561  1.00  0.00     0.261 C 
BRANCH  23  24
ATOM     24  O   UNL A   1      40.410  21.656  27.155  1.00  0.00    -0.460 OA
BRANCH  24  25
ATOM     25  C   UNL A   1      39.526  22.423  26.471  1.00  0.00     0.338 C 
ATOM     26  O   UNL A   1      38.654  22.033  25.714  1.00  0.00    -0.246 OA
BRANCH  25  27
ATOM     27  C   UNL A   1      39.634  23.828  26.919  1.00  0.00     0.060 A 
ATOM     28  C   UNL A   1      40.238  24.736  26.039  1.00  0.00     0.016 A 
ATOM     29  C   UNL A   1      39.193  24.249  28.177  1.00  0.00     0.016 A 
ATOM     30  C   UNL A   1      40.449  26.055  26.432  1.00  0.00     0.010 A 
ATOM     31  C   UNL A   1      39.414  25.573  28.573  1.00  0.00     0.010 A 
ATOM     32  C   UNL A   1      40.074  26.474  27.715  1.00  0.00    -0.014 A 
BRANCH  32  33
ATOM     33  C   UNL A   1      40.518  27.801  28.207  1.00  0.00     0.031 A 
ATOM     34  C   UNL A   1      41.987  28.125  28.190  1.00  0.00     0.074 A 
ATOM     35  C   UNL A   1      39.625  28.717  28.624  1.00  0.00     0.049 A 
ATOM     36  N   UNL A   1      42.604  29.208  28.585  1.00  0.00    -0.248 NA
ATOM     37  C   UNL A   1      42.877  27.083  27.658  1.00  0.00     0.031 C 
ATOM     38  C   UNL A   1      38.175  28.533  28.645  1.00  0.00     0.029 A 
ATOM     39  N   UNL A   1      39.811  29.985  29.113  1.00  0.00    -0.354 N 
ATOM     40  C   UNL A   1      43.955  28.981  28.347  1.00  0.00     0.074 A 
ATOM     41  C   UNL A   1      44.068  27.640  27.812  1.00  0.00     0.031 C 
ATOM     42  C   UNL A   1      37.602  29.647  29.133  1.00  0.00     0.029 A 
ATOM     43  C   UNL A   1      38.644  30.608  29.490  1.00  0.00     0.049 A 
ATOM     44  H   UNL A   1      40.696  30.410  29.188  1.00  0.00     0.167 HD
ATOM     45  C   UNL A   1      45.005  29.817  28.547  1.00  0.00     0.034 A 
ATOM     46  C   UNL A   1      38.444  31.806  30.075  1.00  0.00     0.034 A 
ATOM     47  C   UNL A   1      44.880  31.145  29.096  1.00  0.00     0.049 A 
ATOM     48  C   UNL A   1      39.635  32.684  30.374  1.00  0.00     0.074 A 
ATOM     49  C   UNL A   1      45.873  32.081  29.328  1.00  0.00     0.029 A 
ATOM     50  N   UNL A   1      43.688  31.722  29.515  1.00  0.00    -0.354 N 
ATOM     51  N   UNL A   1      40.909  32.463  30.134  1.00  0.00    -0.248 NA
ATOM     52  C   UNL A   1      39.362  33.976  31.016  1.00  0.00     0.031 C 
ATOM     53  C   UNL A   1      45.293  33.193  29.947  1.00  0.00     0.029 A 
ATOM     54  C   UNL A   1      43.926  32.985  30.037  1.00  0.00     0.049 A 
ATOM     55  H   UNL A   1      42.802  31.297  29.451  1.00  0.00     0.167 HD
ATOM     56  C   UNL A   1      41.581  33.600  30.572  1.00  0.00     0.074 A 
ATOM     57  C   UNL A   1      40.573  34.509  31.079  1.00  0.00     0.031 C 
ATOM     58  C   UNL A   1      42.911  33.873  30.554  1.00  0.00     0.034 A 
BRANCH  45  59
ATOM     59  C   UNL A   1      46.379  29.289  28.218  1.00  0.00     0.023 A 
ATOM     60  C   UNL A   1      47.076  28.438  29.094  1.00  0.00     0.031 A 
ATOM     61  C   UNL A   1      47.019  29.672  27.025  1.00  0.00     0.131 A 
ATOM     62  C   UNL A   1      48.394  28.057  28.800  1.00  0.00     0.055 A 
ATOM     63  C   UNL A   1      48.302  29.228  26.703  1.00  0.00     0.041 A 
ATOM     64  F   UNL A   1      46.412  30.501  26.162  1.00  0.00    -0.206 F 
ATOM     65  C   UNL A   1      49.003  28.428  27.599  1.00  0.00     0.022 A 
BRANCH  62  66
ATOM     66  S   UNL A   1      49.351  27.187  30.072  1.00  0.00     0.124 S 
ATOM     67  O   UNL A   1      48.623  27.546  31.286  1.00  0.00    -0.237 OA
ATOM     68  O   UNL A   1      49.244  25.795  29.650  1.00  0.00    -0.237 OA
ATOM     69  O   UNL A   1      50.685  27.772  29.957  1.00  0.00    -0.744 OA
ENDBRANCH  62  66
ENDBRANCH  45  59
BRANCH  46  70
ATOM     70  C   UNL A   1      37.072  32.235  30.468  1.00  0.00     0.023 A 
ATOM     71  C   UNL A   1      36.211  32.855  29.549  1.00  0.00     0.031 A 
ATOM     72  C   UNL A   1      36.623  32.081  31.792  1.00  0.00     0.131 A 
ATOM     73  C   UNL A   1      34.964  33.338  29.977  1.00  0.00     0.055 A 
ATOM     74  C   UNL A   1      35.362  32.519  32.201  1.00  0.00     0.041 A 
ATOM     75  F   UNL A   1      37.408  31.495  32.711  1.00  0.00    -0.206 F 
ATOM     76  C   UNL A   1      34.529  33.163  31.293  1.00  0.00     0.022 A 
BRANCH  73  77
ATOM     77  S   UNL A   1      33.944  34.274  28.803  1.00  0.00     0.124 S 
ATOM     78  O   UNL A   1      33.670  33.269  27.781  1.00  0.00    -0.237 OA
ATOM     79  O   UNL A   1      32.812  34.670  29.634  1.00  0.00    -0.237 OA
ATOM     80  O   UNL A   1      34.821  35.366  28.386  1.00  0.00    -0.744 OA
ENDBRANCH  73  77
ENDBRANCH  46  70
BRANCH  58  81
ATOM     81  C   UNL A   1      43.341  35.228  31.064  1.00  0.00     0.023 A 
ATOM     82  C   UNL A   1      43.463  36.337  30.208  1.00  0.00     0.031 A 
ATOM     83  C   UNL A   1      43.643  35.406  32.425  1.00  0.00     0.131 A 
ATOM     84  C   UNL A   1      43.927  37.561  30.713  1.00  0.00     0.055 A 
ATOM     85  C   UNL A   1      44.049  36.641  32.932  1.00  0.00     0.041 A 
ATOM     86  F   UNL A   1      43.543  34.382  33.287  1.00  0.00    -0.206 F 
ATOM     87  C   UNL A   1      44.206  37.724  32.072  1.00  0.00     0.022 A 
BRANCH  84  88
ATOM     88  S   UNL A   1      44.243  38.920  29.552  1.00  0.00     0.124 S 
ATOM     89  O   UNL A   1      43.781  40.079  30.309  1.00  0.00    -0.237 OA
ATOM     90  O   UNL A   1      45.684  38.826  29.347  1.00  0.00    -0.237 OA
ATOM     91  O   UNL A   1      43.429  38.574  28.389  1.00  0.00    -0.744 OA
ENDBRANCH  84  88
ENDBRANCH  58  81
ENDBRANCH  32  33
ENDBRANCH  25  27
ENDBRANCH  24  25
ENDBRANCH  23  24
ENDBRANCH   1  23
TORSDOF 19
ENDMDL
MODEL 3
REMARK VINA RESULT:      -9.2      4.432     11.681
REMARK SMILES CC(C)=CCc1cccc2c(C(=O)OCCOCCOC(=O)c3ccc(-c4c5nc(c(-c6cc(S(=O)(=O)[O-])ccc6F)c6ccc([nH]6)c(-c6cc(S(=O)(=O)[O-])ccc6F)c6nc(c(-c7cc(S(=O)(=O)[O-])ccc7F)c7ccc4[nH]7)C=C6)C=C5)cc3)c[nH]c12
REMARK SMILES IDX 18 1 17 2 16 3 15 4 14 5 12 6 13 7 11 8 6 9 7 10 88 11 8 12
REMARK SMILES IDX 10 13 87 14 9 15 86 16 5 18 4 19 1 20 2 21 3 22 19 23 20 24
REMARK SMILES IDX 21 25 22 26 23 27 24 28 85 29 25 30 84 31 26 32 27 33 28 34
REMARK SMILES IDX 78 35 29 36 83 37 77 38 79 39 30 40 82 41 76 42 75 43 31 45
REMARK SMILES IDX 63 46 43 47 62 48 44 49 47 50 61 51 80 52 45 53 46 54 60 56
REMARK SMILES IDX 81 57 48 58 32 59 33 60 41 61 34 62 40 63 42 64 39 65 35 66
REMARK SMILES IDX 36 67 37 68 38 69 64 70 65 71 73 72 66 73 72 74 74 75 71 76
REMARK SMILES IDX 67 77 68 78 69 79 70 80 49 81 50 82 58 83 51 84 57 85 59 86
REMARK SMILES IDX 56 87 52 88 53 89 54 90 55 91
REMARK H PARENT 87 17 79 44 47 55
REMARK Flexibility Score: inf
ROOT
ATOM      1  C   UNL A   1      43.736  18.125  25.408  1.00  0.00     0.202 C 
ENDROOT
BRANCH   1   2
ATOM      2  O   UNL A   1      44.458  19.072  24.616  1.00  0.00    -0.374 OA
BRANCH   2   3
ATOM      3  C   UNL A   1      45.806  19.331  25.020  1.00  0.00     0.202 C 
BRANCH   3   4
ATOM      4  C   UNL A   1      46.291  20.753  24.724  1.00  0.00     0.261 C 
BRANCH   4   5
ATOM      5  O   UNL A   1      45.442  21.715  25.374  1.00  0.00    -0.460 OA
BRANCH   5   6
ATOM      6  C   UNL A   1      44.871  22.634  24.548  1.00  0.00     0.340 C 
ATOM      7  O   UNL A   1      44.033  22.373  23.689  1.00  0.00    -0.246 OA
BRANCH   6   8
ATOM      8  C   UNL A   1      45.264  24.004  24.854  1.00  0.00     0.085 A 
ATOM      9  C   UNL A   1      44.989  27.529  25.738  1.00  0.00    -0.020 A 
ATOM     10  C   UNL A   1      43.608  27.789  25.709  1.00  0.00     0.006 A 
ATOM     11  C   UNL A   1      45.381  26.225  25.372  1.00  0.00     0.050 A 
ATOM     12  C   UNL A   1      42.689  26.806  25.344  1.00  0.00     0.001 A 
ATOM     13  C   UNL A   1      44.488  25.200  25.045  1.00  0.00     0.014 A 
ATOM     14  N   UNL A   1      46.648  25.694  25.294  1.00  0.00    -0.360 N 
ATOM     15  C   UNL A   1      43.112  25.512  25.020  1.00  0.00     0.011 A 
ATOM     16  C   UNL A   1      46.593  24.369  24.997  1.00  0.00     0.099 A 
ATOM     17  H   UNL A   1      47.478  26.202  25.435  1.00  0.00     0.166 HD
BRANCH   9  18
ATOM     18  C   UNL A   1      45.970  28.570  26.233  1.00  0.00     0.065 C 
BRANCH  18  19
ATOM     19  C   UNL A   1      45.238  29.811  26.680  1.00  0.00    -0.024 C 
ATOM     20  C   UNL A   1      47.230  31.293  27.106  1.00  0.00     0.039 C 
ATOM     21  C   UNL A   1      45.761  30.983  27.096  1.00  0.00    -0.080 C 
ATOM     22  C   UNL A   1      44.841  32.062  27.603  1.00  0.00     0.039 C 
ENDBRANCH  18  19
ENDBRANCH   9  18
ENDBRANCH   6   8
ENDBRANCH   5   6
ENDBRANCH   4   5
ENDBRANCH   3   4
ENDBRANCH   2   3
ENDBRANCH   1   2
BRANCH   1  23
ATOM     23  C   UNL A   1      42.614  18.719  26.265  1.00  0.00     0.261 C 
BRANCH  23  24
ATOM     24  O   UNL A   1      42.151  19.964  25.713  1.00  0.00    -0.460 OA
BRANCH  24  25
ATOM     25  C   UNL A   1      40.967  20.402  26.204  1.00  0.00     0.338 C 
ATOM     26  O   UNL A   1      39.902  19.808  26.183  1.00  0.00    -0.246 OA
BRANCH  25  27
ATOM     27  C   UNL A   1      41.174  21.655  26.962  1.00  0.00     0.060 A 
ATOM     28  C   UNL A   1      40.641  22.830  26.416  1.00  0.00     0.016 A 
ATOM     29  C   UNL A   1      41.899  21.697  28.157  1.00  0.00     0.016 A 
ATOM     30  C   UNL A   1      40.873  24.057  27.033  1.00  0.00     0.010 A 
ATOM     31  C   UNL A   1      42.138  22.932  28.771  1.00  0.00     0.010 A 
ATOM     32  C   UNL A   1      41.655  24.121  28.193  1.00  0.00    -0.014 A 
BRANCH  32  33
ATOM     33  C   UNL A   1      42.095  25.443  28.703  1.00  0.00     0.031 A 
ATOM     34  C   UNL A   1      43.568  25.702  28.867  1.00  0.00     0.074 A 
ATOM     35  C   UNL A   1      41.201  26.410  28.976  1.00  0.00     0.049 A 
ATOM     36  N   UNL A   1      44.181  26.770  29.309  1.00  0.00    -0.248 NA
ATOM     37  C   UNL A   1      44.469  24.605  28.482  1.00  0.00     0.031 C 
ATOM     38  C   UNL A   1      39.753  26.291  28.814  1.00  0.00     0.029 A 
ATOM     39  N   UNL A   1      41.383  27.685  29.451  1.00  0.00    -0.354 N 
ATOM     40  C   UNL A   1      45.539  26.476  29.254  1.00  0.00     0.074 A 
ATOM     41  C   UNL A   1      45.656  25.115  28.774  1.00  0.00     0.031 C 
ATOM     42  C   UNL A   1      39.177  27.444  29.194  1.00  0.00     0.029 A 
ATOM     43  C   UNL A   1      40.208  28.370  29.656  1.00  0.00     0.049 A 
ATOM     44  H   UNL A   1      42.271  28.073  29.627  1.00  0.00     0.167 HD
ATOM     45  C   UNL A   1      46.593  27.272  29.565  1.00  0.00     0.034 A 
ATOM     46  C   UNL A   1      39.993  29.594  30.178  1.00  0.00     0.034 A 
ATOM     47  C   UNL A   1      46.462  28.621  30.057  1.00  0.00     0.049 A 
ATOM     48  C   UNL A   1      41.176  30.429  30.605  1.00  0.00     0.074 A 
ATOM     49  C   UNL A   1      47.461  29.520  30.390  1.00  0.00     0.029 A 
ATOM     50  N   UNL A   1      45.255  29.263  30.303  1.00  0.00    -0.354 N 
ATOM     51  N   UNL A   1      42.458  30.144  30.537  1.00  0.00    -0.248 NA
ATOM     52  C   UNL A   1      40.885  31.752  31.171  1.00  0.00     0.031 C 
ATOM     53  C   UNL A   1      46.860  30.676  30.899  1.00  0.00     0.029 A 
ATOM     54  C   UNL A   1      45.484  30.531  30.817  1.00  0.00     0.049 A 
ATOM     55  H   UNL A   1      44.365  28.876  30.136  1.00  0.00     0.167 HD
ATOM     56  C   UNL A   1      43.122  31.265  31.028  1.00  0.00     0.074 A 
ATOM     57  C   UNL A   1      42.102  32.233  31.375  1.00  0.00     0.031 C 
ATOM     58  C   UNL A   1      44.455  31.479  31.174  1.00  0.00     0.034 A 
BRANCH  45  59
ATOM     59  C   UNL A   1      47.971  26.673  29.430  1.00  0.00     0.023 A 
ATOM     60  C   UNL A   1      48.714  26.785  28.241  1.00  0.00     0.031 A 
ATOM     61  C   UNL A   1      48.536  25.948  30.494  1.00  0.00     0.131 A 
ATOM     62  C   UNL A   1      49.945  26.122  28.120  1.00  0.00     0.055 A 
ATOM     63  C   UNL A   1      49.795  25.354  30.393  1.00  0.00     0.041 A 
ATOM     64  F   UNL A   1      47.864  25.788  31.644  1.00  0.00    -0.206 F 
ATOM     65  C   UNL A   1      50.502  25.427  29.196  1.00  0.00     0.022 A 
BRANCH  62  66
ATOM     66  S   UNL A   1      50.744  26.064  26.493  1.00  0.00     0.124 S 
ATOM     67  O   UNL A   1      51.506  24.821  26.582  1.00  0.00    -0.237 OA
ATOM     68  O   UNL A   1      49.605  26.052  25.582  1.00  0.00    -0.237 OA
ATOM     69  O   UNL A   1      51.553  27.281  26.464  1.00  0.00    -0.744 OA
ENDBRANCH  62  66
ENDBRANCH  45  59
BRANCH  46  70
ATOM     70  C   UNL A   1      38.603  30.095  30.379  1.00  0.00     0.023 A 
ATOM     71  C   UNL A   1      38.034  31.035  29.506  1.00  0.00     0.031 A 
ATOM     72  C   UNL A   1      37.844  29.680  31.488  1.00  0.00     0.131 A 
ATOM     73  C   UNL A   1      36.762  31.562  29.780  1.00  0.00     0.055 A 
ATOM     74  C   UNL A   1      36.559  30.171  31.729  1.00  0.00     0.041 A 
ATOM     75  F   UNL A   1      38.341  28.783  32.355  1.00  0.00    -0.206 F 
ATOM     76  C   UNL A   1      36.016  31.127  30.878  1.00  0.00     0.022 A 
BRANCH  73  77
ATOM     77  S   UNL A   1      36.123  32.889  28.719  1.00  0.00     0.124 S 
ATOM     78  O   UNL A   1      35.085  33.470  29.564  1.00  0.00    -0.237 OA
ATOM     79  O   UNL A   1      37.313  33.708  28.509  1.00  0.00    -0.237 OA
ATOM     80  O   UNL A   1      35.642  32.178  27.537  1.00  0.00    -0.744 OA
ENDBRANCH  73  77
ENDBRANCH  46  70
BRANCH  58  81
ATOM     81  C   UNL A   1      44.879  32.830  31.699  1.00  0.00     0.023 A 
ATOM     82  C   UNL A   1      45.233  33.881  30.835  1.00  0.00     0.031 A 
ATOM     83  C   UNL A   1      44.941  33.061  33.084  1.00  0.00     0.131 A 
ATOM     84  C   UNL A   1      45.683  35.100  31.366  1.00  0.00     0.055 A 
ATOM     85  C   UNL A   1      45.335  34.294  33.606  1.00  0.00     0.041 A 
ATOM     86  F   UNL A   1      44.615  32.092  33.954  1.00  0.00    -0.206 F 
ATOM     87  C   UNL A   1      45.722  35.318  32.745  1.00  0.00     0.022 A 
BRANCH  84  88
ATOM     88  S   UNL A   1      46.299  36.373  30.229  1.00  0.00     0.124 S 
ATOM     89  O   UNL A   1      46.743  37.414  31.150  1.00  0.00    -0.237 OA
ATOM     90  O   UNL A   1      47.355  35.666  29.511  1.00  0.00    -0.237 OA
ATOM     91  O   UNL A   1      45.126  36.713  29.426  1.00  0.00    -0.744 OA
ENDBRANCH  84  88
ENDBRANCH  58  81
ENDBRANCH  32  33
ENDBRANCH  25  27
ENDBRANCH  24  25
ENDBRANCH  23  24
ENDBRANCH   1  23
TORSDOF 19
ENDMDL
