MODEL 1
REMARK VINA RESULT:     -10.1      0.000      0.000
REMARK SMILES O=C(CCn1cc(/C=C2/[NH+]=C(S)N(c3ccccc3)C2=O)c(-c2ccc(Br)cc2)n1)OCCOCCOC(=O)c1ccc(-c2c3nc(c(-c4cc(S(=O)(=O)[O-])ccc4F)c4ccc([nH]4)c(-c4cc(S(=O)(=O)[O-])ccc4F)c4nc(c(-c5cc(S(=O)(=O)[O-])ccc5F)c5ccc2[nH]5)C=C4)C=C3)cc1
REMARK SMILES IDX 33 1 32 2 31 3 2 4 1 5 3 6 4 7 5 8 6 9 30 10 7 11 22 12 8 13
REMARK SMILES IDX 9 14 10 15 20 16 11 17 13 19 21 20 12 21 14 23 15 24 19 25
REMARK SMILES IDX 16 26 18 27 17 28 23 29 24 30 29 31 25 32 28 33 26 34 27 35
REMARK SMILES IDX 34 36 35 37 36 38 37 39 38 40 39 41 40 42 41 43 102 44 42 45
REMARK SMILES IDX 101 46 43 47 44 48 45 49 95 50 46 51 100 52 94 53 96 54
REMARK SMILES IDX 47 55 99 56 93 57 92 58 48 60 80 61 60 62 79 63 61 64 64 65
REMARK SMILES IDX 78 66 97 67 62 68 63 69 77 71 98 72 65 73 49 74 50 75 58 76
REMARK SMILES IDX 51 77 57 78 59 79 56 80 52 81 53 82 54 83 55 84 81 85 82 86
REMARK SMILES IDX 90 87 83 88 89 89 91 90 88 91 84 92 85 93 86 94 87 95 66 96
REMARK SMILES IDX 67 97 75 98 68 99 74 100 76 101 73 102 69 103 70 104 71 105
REMARK SMILES IDX 72 106
REMARK H PARENT 10 18 12 22 96 59 64 70
REMARK Flexibility Score: inf
ROOT
ATOM      1  C   UNL A   1      34.004  33.958  28.637  1.00  0.00     0.202 C 
ENDROOT
BRANCH   1   2
ATOM      2  C   UNL A   1      34.636  34.377  29.969  1.00  0.00     0.261 C 
BRANCH   2   3
ATOM      3  O   UNL A   1      33.981  35.421  30.693  1.00  0.00    -0.463 OA
BRANCH   3   4
ATOM      4  C   UNL A   1      33.322  35.183  31.841  1.00  0.00     0.307 C 
ATOM      5  O   UNL A   1      32.099  35.327  31.884  1.00  0.00    -0.252 OA
BRANCH   4   6
ATOM      6  C   UNL A   1      34.096  34.904  33.102  1.00  0.00     0.146 C 
BRANCH   6   7
ATOM      7  C   UNL A   1      34.775  33.537  33.139  1.00  0.00     0.156 C 
BRANCH   7   8
ATOM      8  N   UNL A   1      36.163  33.478  33.576  1.00  0.00    -0.271 N 
ATOM      9  C   UNL A   1      36.678  32.764  34.626  1.00  0.00     0.117 A 
ATOM     10  N   UNL A   1      37.112  34.121  32.899  1.00  0.00    -0.172 NA
ATOM     11  C   UNL A   1      38.053  32.864  34.518  1.00  0.00     0.025 A 
ATOM     12  C   UNL A   1      38.269  33.603  33.321  1.00  0.00     0.100 A 
BRANCH  11  13
ATOM     13  C   UNL A   1      39.019  32.159  35.299  1.00  0.00     0.072 C 
ATOM     14  C   UNL A   1      39.489  32.488  36.515  1.00  0.00     0.217 C 
ATOM     15  N   UNL A   1      40.653  31.978  37.031  1.00  0.00    -0.228 N 
ATOM     16  C   UNL A   1      38.989  33.553  37.448  1.00  0.00     0.386 C 
ATOM     17  C   UNL A   1      40.962  32.809  37.983  1.00  0.00     0.321 C 
ATOM     18  H   UNL A   1      41.140  31.170  36.748  1.00  0.00     0.313 HD
ATOM     19  N   UNL A   1      40.100  33.849  38.211  1.00  0.00    -0.149 N 
ATOM     20  O   UNL A   1      37.834  33.918  37.532  1.00  0.00    -0.236 OA
BRANCH  17  21
ATOM     21  S   UNL A   1      42.350  32.450  38.959  1.00  0.00    -0.055 SA
ATOM     22  H   UNL A   1      43.271  33.441  38.818  1.00  0.00     0.116 HD
ENDBRANCH  17  21
BRANCH  19  23
ATOM     23  C   UNL A   1      40.235  35.031  39.012  1.00  0.00     0.137 A 
ATOM     24  C   UNL A   1      40.184  36.323  38.459  1.00  0.00     0.052 A 
ATOM     25  C   UNL A   1      40.308  34.962  40.416  1.00  0.00     0.052 A 
ATOM     26  C   UNL A   1      40.258  37.478  39.253  1.00  0.00     0.004 A 
ATOM     27  C   UNL A   1      40.352  36.114  41.217  1.00  0.00     0.004 A 
ATOM     28  C   UNL A   1      40.339  37.374  40.635  1.00  0.00     0.000 A 
ENDBRANCH  19  23
ENDBRANCH  11  13
BRANCH  12  29
ATOM     29  C   UNL A   1      39.478  33.647  32.489  1.00  0.00     0.003 A 
ATOM     30  C   UNL A   1      40.496  34.549  32.848  1.00  0.00     0.011 A 
ATOM     31  C   UNL A   1      39.645  32.859  31.345  1.00  0.00     0.011 A 
ATOM     32  C   UNL A   1      41.630  34.706  32.052  1.00  0.00     0.016 A 
ATOM     33  C   UNL A   1      40.783  33.020  30.542  1.00  0.00     0.016 A 
ATOM     34  C   UNL A   1      41.764  33.946  30.895  1.00  0.00     0.018 A 
ATOM     35  Br  UNL A   1      43.283  34.191  29.797  1.00  0.00    -0.051 Br
ENDBRANCH  12  29
ENDBRANCH   7   8
ENDBRANCH   6   7
ENDBRANCH   4   6
ENDBRANCH   3   4
ENDBRANCH   2   3
ENDBRANCH   1   2
BRANCH   1  36
ATOM     36  O   UNL A   1      34.552  32.874  27.897  1.00  0.00    -0.374 OA
BRANCH  36  37
ATOM     37  C   UNL A   1      34.528  31.556  28.419  1.00  0.00     0.202 C 
BRANCH  37  38
ATOM     38  C   UNL A   1      35.469  30.581  27.734  1.00  0.00     0.261 C 
BRANCH  38  39
ATOM     39  O   UNL A   1      36.795  31.014  27.957  1.00  0.00    -0.460 OA
BRANCH  39  40
ATOM     40  C   UNL A   1      37.484  30.236  28.821  1.00  0.00     0.338 C 
ATOM     41  O   UNL A   1      37.604  30.375  30.022  1.00  0.00    -0.246 OA
BRANCH  40  42
ATOM     42  C   UNL A   1      38.035  29.105  28.054  1.00  0.00     0.060 A 
ATOM     43  C   UNL A   1      38.198  27.954  28.817  1.00  0.00     0.016 A 
ATOM     44  C   UNL A   1      38.804  29.394  26.919  1.00  0.00     0.016 A 
ATOM     45  C   UNL A   1      39.434  27.386  28.774  1.00  0.00     0.010 A 
ATOM     46  C   UNL A   1      40.045  28.840  26.884  1.00  0.00     0.010 A 
ATOM     47  C   UNL A   1      40.371  27.968  27.918  1.00  0.00    -0.014 A 
BRANCH  47  48
ATOM     48  C   UNL A   1      41.751  27.619  28.115  1.00  0.00     0.031 A 
ATOM     49  C   UNL A   1      42.025  26.301  27.519  1.00  0.00     0.074 A 
ATOM     50  C   UNL A   1      42.586  28.496  28.703  1.00  0.00     0.049 A 
ATOM     51  N   UNL A   1      42.303  25.201  28.131  1.00  0.00    -0.248 NA
ATOM     52  C   UNL A   1      41.633  26.118  26.106  1.00  0.00     0.031 C 
ATOM     53  C   UNL A   1      42.329  29.882  29.113  1.00  0.00     0.029 A 
ATOM     54  N   UNL A   1      43.911  28.363  28.937  1.00  0.00    -0.354 N 
ATOM     55  C   UNL A   1      42.407  24.256  27.120  1.00  0.00     0.074 A 
ATOM     56  C   UNL A   1      41.699  24.794  25.998  1.00  0.00     0.031 C 
ATOM     57  C   UNL A   1      43.508  30.523  29.288  1.00  0.00     0.029 A 
ATOM     58  C   UNL A   1      44.588  29.567  29.122  1.00  0.00     0.049 A 
ATOM     59  H   UNL A   1      44.362  27.487  28.974  1.00  0.00     0.167 HD
ATOM     60  C   UNL A   1      43.374  23.304  27.175  1.00  0.00     0.034 A 
ATOM     61  C   UNL A   1      45.932  29.729  28.977  1.00  0.00     0.034 A 
ATOM     62  C   UNL A   1      43.802  23.102  28.545  1.00  0.00     0.049 A 
ATOM     63  C   UNL A   1      46.522  28.360  29.105  1.00  0.00     0.074 A 
ATOM     64  C   UNL A   1      43.139  22.737  29.702  1.00  0.00     0.029 A 
ATOM     65  N   UNL A   1      44.972  23.707  28.964  1.00  0.00    -0.354 N 
ATOM     66  N   UNL A   1      46.448  27.661  30.211  1.00  0.00    -0.248 NA
ATOM     67  C   UNL A   1      46.662  27.564  27.889  1.00  0.00     0.031 C 
ATOM     68  C   UNL A   1      43.681  23.578  30.719  1.00  0.00     0.029 A 
ATOM     69  C   UNL A   1      44.716  24.334  30.162  1.00  0.00     0.049 A 
ATOM     70  H   UNL A   1      45.834  23.693  28.489  1.00  0.00     0.167 HD
ATOM     71  C   UNL A   1      46.119  26.371  29.812  1.00  0.00     0.074 A 
ATOM     72  C   UNL A   1      46.324  26.359  28.363  1.00  0.00     0.031 C 
ATOM     73  C   UNL A   1      45.408  25.527  30.624  1.00  0.00     0.034 A 
BRANCH  60  74
ATOM     74  C   UNL A   1      44.216  22.925  25.973  1.00  0.00     0.023 A 
ATOM     75  C   UNL A   1      44.343  21.550  25.720  1.00  0.00     0.031 A 
ATOM     76  C   UNL A   1      45.115  23.761  25.262  1.00  0.00     0.131 A 
ATOM     77  C   UNL A   1      45.396  21.058  24.934  1.00  0.00     0.055 A 
ATOM     78  C   UNL A   1      46.128  23.267  24.438  1.00  0.00     0.041 A 
ATOM     79  F   UNL A   1      45.129  25.093  25.360  1.00  0.00    -0.206 F 
ATOM     80  C   UNL A   1      46.299  21.905  24.300  1.00  0.00     0.022 A 
BRANCH  77  81
ATOM     81  S   UNL A   1      45.667  19.272  24.912  1.00  0.00     0.124 S 
ATOM     82  O   UNL A   1      45.663  18.996  23.479  1.00  0.00    -0.237 OA
ATOM     83  O   UNL A   1      46.954  19.161  25.588  1.00  0.00    -0.237 OA
ATOM     84  O   UNL A   1      44.522  18.750  25.654  1.00  0.00    -0.744 OA
ENDBRANCH  77  81
ENDBRANCH  60  74
BRANCH  61  85
ATOM     85  C   UNL A   1      46.591  30.875  28.275  1.00  0.00     0.023 A 
ATOM     86  C   UNL A   1      45.922  31.728  27.369  1.00  0.00     0.031 A 
ATOM     87  C   UNL A   1      47.895  31.273  28.660  1.00  0.00     0.131 A 
ATOM     88  C   UNL A   1      46.564  32.896  26.878  1.00  0.00     0.055 A 
ATOM     89  C   UNL A   1      48.522  32.421  28.171  1.00  0.00     0.041 A 
ATOM     90  F   UNL A   1      48.583  30.598  29.594  1.00  0.00    -0.206 F 
ATOM     91  C   UNL A   1      47.856  33.242  27.280  1.00  0.00     0.022 A 
BRANCH  88  92
ATOM     92  S   UNL A   1      45.699  34.036  25.745  1.00  0.00     0.124 S 
ATOM     93  O   UNL A   1      44.961  34.891  26.668  1.00  0.00    -0.237 OA
ATOM     94  O   UNL A   1      46.801  34.659  25.021  1.00  0.00    -0.237 OA
ATOM     95  O   UNL A   1      44.863  33.146  24.936  1.00  0.00    -0.744 OA
ENDBRANCH  88  92
ENDBRANCH  61  85
BRANCH  73  96
ATOM     96  C   UNL A   1      45.158  25.947  32.065  1.00  0.00     0.023 A 
ATOM     97  C   UNL A   1      43.975  26.562  32.548  1.00  0.00     0.031 A 
ATOM     98  C   UNL A   1      46.120  25.565  33.015  1.00  0.00     0.131 A 
ATOM     99  C   UNL A   1      43.803  26.774  33.934  1.00  0.00     0.055 A 
ATOM    100  C   UNL A   1      45.936  25.756  34.384  1.00  0.00     0.041 A 
ATOM    101  F   UNL A   1      47.249  24.950  32.627  1.00  0.00    -0.206 F 
ATOM    102  C   UNL A   1      44.777  26.367  34.849  1.00  0.00     0.022 A 
BRANCH  99 103
ATOM    103  S   UNL A   1      42.310  27.602  34.581  1.00  0.00     0.124 S 
ATOM    104  O   UNL A   1      41.380  26.500  34.801  1.00  0.00    -0.237 OA
ATOM    105  O   UNL A   1      42.812  28.266  35.780  1.00  0.00    -0.237 OA
ATOM    106  O   UNL A   1      41.929  28.512  33.497  1.00  0.00    -0.744 OA
ENDBRANCH  99 103
ENDBRANCH  73  96
ENDBRANCH  47  48
ENDBRANCH  40  42
ENDBRANCH  39  40
ENDBRANCH  38  39
ENDBRANCH  37  38
ENDBRANCH  36  37
ENDBRANCH   1  36
TORSDOF 23
ENDMDL
MODEL 2
REMARK VINA RESULT:     -10.1      5.520     12.912
REMARK SMILES O=C(CCn1cc(/C=C2/[NH+]=C(S)N(c3ccccc3)C2=O)c(-c2ccc(Br)cc2)n1)OCCOCCOC(=O)c1ccc(-c2c3nc(c(-c4cc(S(=O)(=O)[O-])ccc4F)c4ccc([nH]4)c(-c4cc(S(=O)(=O)[O-])ccc4F)c4nc(c(-c5cc(S(=O)(=O)[O-])ccc5F)c5ccc2[nH]5)C=C4)C=C3)cc1
REMARK SMILES IDX 33 1 32 2 31 3 2 4 1 5 3 6 4 7 5 8 6 9 30 10 7 11 22 12 8 13
REMARK SMILES IDX 9 14 10 15 20 16 11 17 13 19 21 20 12 21 14 23 15 24 19 25
REMARK SMILES IDX 16 26 18 27 17 28 23 29 24 30 29 31 25 32 28 33 26 34 27 35
REMARK SMILES IDX 34 36 35 37 36 38 37 39 38 40 39 41 40 42 41 43 102 44 42 45
REMARK SMILES IDX 101 46 43 47 44 48 45 49 95 50 46 51 100 52 94 53 96 54
REMARK SMILES IDX 47 55 99 56 93 57 92 58 48 60 80 61 60 62 79 63 61 64 64 65
REMARK SMILES IDX 78 66 97 67 62 68 63 69 77 71 98 72 65 73 49 74 50 75 58 76
REMARK SMILES IDX 51 77 57 78 59 79 56 80 52 81 53 82 54 83 55 84 81 85 82 86
REMARK SMILES IDX 90 87 83 88 89 89 91 90 88 91 84 92 85 93 86 94 87 95 66 96
REMARK SMILES IDX 67 97 75 98 68 99 74 100 76 101 73 102 69 103 70 104 71 105
REMARK SMILES IDX 72 106
REMARK H PARENT 10 18 12 22 96 59 64 70
REMARK Flexibility Score: inf
ROOT
ATOM      1  C   UNL A   1      45.942  26.004  30.414  1.00  0.00     0.202 C 
ENDROOT
BRANCH   1   2
ATOM      2  C   UNL A   1      45.091  25.946  31.687  1.00  0.00     0.261 C 
BRANCH   2   3
ATOM      3  O   UNL A   1      45.304  24.829  32.554  1.00  0.00    -0.463 OA
BRANCH   3   4
ATOM      4  C   UNL A   1      44.540  23.724  32.488  1.00  0.00     0.307 C 
ATOM      5  O   UNL A   1      44.259  23.242  31.390  1.00  0.00    -0.252 OA
BRANCH   4   6
ATOM      6  C   UNL A   1      43.903  23.180  33.739  1.00  0.00     0.146 C 
BRANCH   6   7
ATOM      7  C   UNL A   1      44.519  21.881  34.252  1.00  0.00     0.156 C 
BRANCH   7   8
ATOM      8  N   UNL A   1      45.128  21.892  35.575  1.00  0.00    -0.271 N 
ATOM      9  C   UNL A   1      46.070  21.026  36.068  1.00  0.00     0.117 A 
ATOM     10  N   UNL A   1      44.829  22.851  36.448  1.00  0.00    -0.172 NA
ATOM     11  C   UNL A   1      46.479  21.557  37.278  1.00  0.00     0.025 A 
ATOM     12  C   UNL A   1      45.774  22.788  37.391  1.00  0.00     0.100 A 
BRANCH  11  13
ATOM     13  C   UNL A   1      47.557  21.086  38.088  1.00  0.00     0.072 C 
ATOM     14  C   UNL A   1      47.524  20.110  39.011  1.00  0.00     0.217 C 
ATOM     15  N   UNL A   1      48.480  19.966  39.984  1.00  0.00    -0.228 N 
ATOM     16  C   UNL A   1      46.418  19.133  39.293  1.00  0.00     0.386 C 
ATOM     17  C   UNL A   1      47.904  19.217  40.879  1.00  0.00     0.321 C 
ATOM     18  H   UNL A   1      49.390  20.340  40.000  1.00  0.00     0.313 HD
ATOM     19  N   UNL A   1      46.630  18.789  40.611  1.00  0.00    -0.149 N 
ATOM     20  O   UNL A   1      45.641  18.704  38.463  1.00  0.00    -0.236 OA
BRANCH  17  21
ATOM     21  S   UNL A   1      48.840  18.721  42.252  1.00  0.00    -0.055 SA
ATOM     22  H   UNL A   1      49.857  19.601  42.449  1.00  0.00     0.116 HD
ENDBRANCH  17  21
BRANCH  19  23
ATOM     23  C   UNL A   1      45.654  18.149  41.444  1.00  0.00     0.137 A 
ATOM     24  C   UNL A   1      45.316  16.791  41.298  1.00  0.00     0.052 A 
ATOM     25  C   UNL A   1      45.066  18.817  42.534  1.00  0.00     0.052 A 
ATOM     26  C   UNL A   1      44.404  16.153  42.153  1.00  0.00     0.004 A 
ATOM     27  C   UNL A   1      44.176  18.176  43.410  1.00  0.00     0.004 A 
ATOM     28  C   UNL A   1      43.835  16.845  43.213  1.00  0.00     0.000 A 
ENDBRANCH  19  23
ENDBRANCH  11  13
BRANCH  12  29
ATOM     29  C   UNL A   1      46.112  23.953  38.218  1.00  0.00     0.003 A 
ATOM     30  C   UNL A   1      45.192  24.355  39.203  1.00  0.00     0.011 A 
ATOM     31  C   UNL A   1      47.287  24.694  38.046  1.00  0.00     0.011 A 
ATOM     32  C   UNL A   1      45.409  25.505  39.961  1.00  0.00     0.016 A 
ATOM     33  C   UNL A   1      47.503  25.852  38.806  1.00  0.00     0.016 A 
ATOM     34  C   UNL A   1      46.561  26.255  39.752  1.00  0.00     0.018 A 
ATOM     35  Br  UNL A   1      46.832  27.835  40.753  1.00  0.00    -0.051 Br
ENDBRANCH  12  29
ENDBRANCH   7   8
ENDBRANCH   6   7
ENDBRANCH   4   6
ENDBRANCH   3   4
ENDBRANCH   2   3
ENDBRANCH   1   2
BRANCH   1  36
ATOM     36  O   UNL A   1      45.409  25.541  29.179  1.00  0.00    -0.374 OA
BRANCH  36  37
ATOM     37  C   UNL A   1      44.018  25.614  28.918  1.00  0.00     0.202 C 
BRANCH  37  38
ATOM     38  C   UNL A   1      43.641  25.580  27.448  1.00  0.00     0.261 C 
BRANCH  38  39
ATOM     39  O   UNL A   1      42.543  26.448  27.252  1.00  0.00    -0.460 OA
BRANCH  39  40
ATOM     40  C   UNL A   1      41.449  25.837  26.746  1.00  0.00     0.338 C 
ATOM     41  O   UNL A   1      41.390  24.782  26.148  1.00  0.00    -0.246 OA
BRANCH  40  42
ATOM     42  C   UNL A   1      40.280  26.658  27.105  1.00  0.00     0.060 A 
ATOM     43  C   UNL A   1      40.362  27.964  26.634  1.00  0.00     0.016 A 
ATOM     44  C   UNL A   1      39.545  26.292  28.241  1.00  0.00     0.016 A 
ATOM     45  C   UNL A   1      40.174  28.941  27.564  1.00  0.00     0.010 A 
ATOM     46  C   UNL A   1      39.371  27.264  29.176  1.00  0.00     0.010 A 
ATOM     47  C   UNL A   1      39.845  28.532  28.857  1.00  0.00    -0.014 A 
BRANCH  47  48
ATOM     48  C   UNL A   1      39.989  29.498  29.911  1.00  0.00     0.031 A 
ATOM     49  C   UNL A   1      38.785  30.342  29.985  1.00  0.00     0.074 A 
ATOM     50  C   UNL A   1      41.081  29.474  30.697  1.00  0.00     0.049 A 
ATOM     51  N   UNL A   1      38.681  31.595  29.695  1.00  0.00    -0.248 NA
ATOM     52  C   UNL A   1      37.488  29.642  30.089  1.00  0.00     0.031 C 
ATOM     53  C   UNL A   1      42.176  28.496  30.724  1.00  0.00     0.029 A 
ATOM     54  N   UNL A   1      41.372  30.269  31.752  1.00  0.00    -0.354 N 
ATOM     55  C   UNL A   1      37.335  31.883  29.874  1.00  0.00     0.074 A 
ATOM     56  C   UNL A   1      36.646  30.630  29.802  1.00  0.00     0.031 C 
ATOM     57  C   UNL A   1      42.846  28.608  31.895  1.00  0.00     0.029 A 
ATOM     58  C   UNL A   1      42.308  29.734  32.636  1.00  0.00     0.049 A 
ATOM     59  H   UNL A   1      40.957  31.152  31.885  1.00  0.00     0.167 HD
ATOM     60  C   UNL A   1      36.961  33.061  30.437  1.00  0.00     0.034 A 
ATOM     61  C   UNL A   1      42.466  30.132  33.929  1.00  0.00     0.034 A 
ATOM     62  C   UNL A   1      38.006  34.052  30.270  1.00  0.00     0.049 A 
ATOM     63  C   UNL A   1      41.859  31.497  34.009  1.00  0.00     0.074 A 
ATOM     64  C   UNL A   1      38.638  34.586  29.162  1.00  0.00     0.029 A 
ATOM     65  N   UNL A   1      38.851  34.302  31.334  1.00  0.00    -0.354 N 
ATOM     66  N   UNL A   1      42.336  32.522  33.347  1.00  0.00    -0.248 NA
ATOM     67  C   UNL A   1      40.439  31.591  34.337  1.00  0.00     0.031 C 
ATOM     68  C   UNL A   1      40.015  34.664  29.524  1.00  0.00     0.029 A 
ATOM     69  C   UNL A   1      40.143  34.278  30.861  1.00  0.00     0.049 A 
ATOM     70  H   UNL A   1      38.576  34.467  32.265  1.00  0.00     0.167 HD
ATOM     71  C   UNL A   1      41.226  33.174  32.823  1.00  0.00     0.074 A 
ATOM     72  C   UNL A   1      40.079  32.587  33.519  1.00  0.00     0.031 C 
ATOM     73  C   UNL A   1      41.297  33.890  31.657  1.00  0.00     0.034 A 
BRANCH  60  74
ATOM     74  C   UNL A   1      35.888  33.152  31.504  1.00  0.00     0.023 A 
ATOM     75  C   UNL A   1      34.861  34.079  31.266  1.00  0.00     0.031 A 
ATOM     76  C   UNL A   1      35.950  32.637  32.824  1.00  0.00     0.131 A 
ATOM     77  C   UNL A   1      34.068  34.559  32.319  1.00  0.00     0.055 A 
ATOM     78  C   UNL A   1      35.123  33.081  33.857  1.00  0.00     0.041 A 
ATOM     79  F   UNL A   1      36.846  31.733  33.229  1.00  0.00    -0.206 F 
ATOM     80  C   UNL A   1      34.199  34.077  33.617  1.00  0.00     0.022 A 
BRANCH  77  81
ATOM     81  S   UNL A   1      32.986  35.967  31.984  1.00  0.00     0.124 S 
ATOM     82  O   UNL A   1      33.491  36.953  32.934  1.00  0.00    -0.237 OA
ATOM     83  O   UNL A   1      33.265  36.224  30.577  1.00  0.00    -0.237 OA
ATOM     84  O   UNL A   1      31.654  35.443  32.274  1.00  0.00    -0.744 OA
ENDBRANCH  77  81
ENDBRANCH  60  74
BRANCH  61  85
ATOM     85  C   UNL A   1      42.651  29.215  35.096  1.00  0.00     0.023 A 
ATOM     86  C   UNL A   1      41.855  28.071  35.328  1.00  0.00     0.031 A 
ATOM     87  C   UNL A   1      43.792  29.359  35.923  1.00  0.00     0.131 A 
ATOM     88  C   UNL A   1      42.201  27.154  36.357  1.00  0.00     0.055 A 
ATOM     89  C   UNL A   1      44.124  28.456  36.936  1.00  0.00     0.041 A 
ATOM     90  F   UNL A   1      44.676  30.349  35.725  1.00  0.00    -0.206 F 
ATOM     91  C   UNL A   1      43.332  27.345  37.153  1.00  0.00     0.022 A 
BRANCH  88  92
ATOM     92  S   UNL A   1      41.213  25.645  36.639  1.00  0.00     0.124 S 
ATOM     93  O   UNL A   1      40.471  25.521  35.390  1.00  0.00    -0.237 OA
ATOM     94  O   UNL A   1      42.239  24.639  36.888  1.00  0.00    -0.237 OA
ATOM     95  O   UNL A   1      40.395  25.984  37.805  1.00  0.00    -0.744 OA
ENDBRANCH  88  92
ENDBRANCH  61  85
BRANCH  73  96
ATOM     96  C   UNL A   1      42.666  34.141  31.042  1.00  0.00     0.023 A 
ATOM     97  C   UNL A   1      43.258  33.369  30.012  1.00  0.00     0.031 A 
ATOM     98  C   UNL A   1      43.332  35.316  31.431  1.00  0.00     0.131 A 
ATOM     99  C   UNL A   1      44.473  33.786  29.422  1.00  0.00     0.055 A 
ATOM    100  C   UNL A   1      44.518  35.735  30.831  1.00  0.00     0.041 A 
ATOM    101  F   UNL A   1      42.809  36.109  32.381  1.00  0.00    -0.206 F 
ATOM    102  C   UNL A   1      45.097  34.969  29.827  1.00  0.00     0.022 A 
BRANCH  99 103
ATOM    103  S   UNL A   1      45.280  32.789  28.123  1.00  0.00     0.124 S 
ATOM    104  O   UNL A   1      44.987  31.417  28.518  1.00  0.00    -0.237 OA
ATOM    105  O   UNL A   1      44.620  33.260  26.909  1.00  0.00    -0.237 OA
ATOM    106  O   UNL A   1      46.691  33.166  28.233  1.00  0.00    -0.744 OA
ENDBRANCH  99 103
ENDBRANCH  73  96
ENDBRANCH  47  48
ENDBRANCH  40  42
ENDBRANCH  39  40
ENDBRANCH  38  39
ENDBRANCH  37  38
ENDBRANCH  36  37
ENDBRANCH   1  36
TORSDOF 23
ENDMDL
MODEL 3
REMARK VINA RESULT:      -9.3      1.863      2.253
REMARK SMILES O=C(CCn1cc(/C=C2/[NH+]=C(S)N(c3ccccc3)C2=O)c(-c2ccc(Br)cc2)n1)OCCOCCOC(=O)c1ccc(-c2c3nc(c(-c4cc(S(=O)(=O)[O-])ccc4F)c4ccc([nH]4)c(-c4cc(S(=O)(=O)[O-])ccc4F)c4nc(c(-c5cc(S(=O)(=O)[O-])ccc5F)c5ccc2[nH]5)C=C4)C=C3)cc1
REMARK SMILES IDX 33 1 32 2 31 3 2 4 1 5 3 6 4 7 5 8 6 9 30 10 7 11 22 12 8 13
REMARK SMILES IDX 9 14 10 15 20 16 11 17 13 19 21 20 12 21 14 23 15 24 19 25
REMARK SMILES IDX 16 26 18 27 17 28 23 29 24 30 29 31 25 32 28 33 26 34 27 35
REMARK SMILES IDX 34 36 35 37 36 38 37 39 38 40 39 41 40 42 41 43 102 44 42 45
REMARK SMILES IDX 101 46 43 47 44 48 45 49 95 50 46 51 100 52 94 53 96 54
REMARK SMILES IDX 47 55 99 56 93 57 92 58 48 60 80 61 60 62 79 63 61 64 64 65
REMARK SMILES IDX 78 66 97 67 62 68 63 69 77 71 98 72 65 73 49 74 50 75 58 76
REMARK SMILES IDX 51 77 57 78 59 79 56 80 52 81 53 82 54 83 55 84 81 85 82 86
REMARK SMILES IDX 90 87 83 88 89 89 91 90 88 91 84 92 85 93 86 94 87 95 66 96
REMARK SMILES IDX 67 97 75 98 68 99 74 100 76 101 73 102 69 103 70 104 71 105
REMARK SMILES IDX 72 106
REMARK H PARENT 10 18 12 22 96 59 64 70
REMARK Flexibility Score: inf
ROOT
ATOM      1  C   UNL A   1      34.063  34.310  28.663  1.00  0.00     0.202 C 
ENDROOT
BRANCH   1   2
ATOM      2  C   UNL A   1      34.333  34.901  30.051  1.00  0.00     0.261 C 
BRANCH   2   3
ATOM      3  O   UNL A   1      33.467  35.952  30.484  1.00  0.00    -0.463 OA
BRANCH   3   4
ATOM      4  C   UNL A   1      33.113  36.094  31.774  1.00  0.00     0.307 C 
ATOM      5  O   UNL A   1      31.994  36.525  32.056  1.00  0.00    -0.252 OA
BRANCH   4   6
ATOM      6  C   UNL A   1      34.137  35.881  32.857  1.00  0.00     0.146 C 
BRANCH   6   7
ATOM      7  C   UNL A   1      34.882  34.551  32.773  1.00  0.00     0.156 C 
BRANCH   7   8
ATOM      8  N   UNL A   1      36.277  34.524  33.189  1.00  0.00    -0.271 N 
ATOM      9  C   UNL A   1      36.788  34.041  34.366  1.00  0.00     0.117 A 
ATOM     10  N   UNL A   1      37.235  34.951  32.370  1.00  0.00    -0.172 NA
ATOM     11  C   UNL A   1      38.163  34.048  34.216  1.00  0.00     0.025 A 
ATOM     12  C   UNL A   1      38.379  34.486  32.879  1.00  0.00     0.100 A 
BRANCH  11  13
ATOM     13  C   UNL A   1      39.116  33.491  35.121  1.00  0.00     0.072 C 
ATOM     14  C   UNL A   1      40.147  34.117  35.715  1.00  0.00     0.217 C 
ATOM     15  N   UNL A   1      41.210  33.451  36.269  1.00  0.00    -0.228 N 
ATOM     16  C   UNL A   1      40.449  35.588  35.744  1.00  0.00     0.386 C 
ATOM     17  C   UNL A   1      42.137  34.360  36.356  1.00  0.00     0.321 C 
ATOM     18  H   UNL A   1      41.260  32.505  36.538  1.00  0.00     0.313 HD
ATOM     19  N   UNL A   1      41.814  35.626  35.942  1.00  0.00    -0.149 N 
ATOM     20  O   UNL A   1      39.614  36.470  35.723  1.00  0.00    -0.236 OA
BRANCH  17  21
ATOM     21  S   UNL A   1      43.638  33.925  37.109  1.00  0.00    -0.055 SA
ATOM     22  H   UNL A   1      44.010  34.905  37.975  1.00  0.00     0.116 HD
ENDBRANCH  17  21
BRANCH  19  23
ATOM     23  C   UNL A   1      42.631  36.781  35.708  1.00  0.00     0.137 A 
ATOM     24  C   UNL A   1      43.630  37.189  36.610  1.00  0.00     0.052 A 
ATOM     25  C   UNL A   1      42.556  37.501  34.501  1.00  0.00     0.052 A 
ATOM     26  C   UNL A   1      44.467  38.285  36.350  1.00  0.00     0.004 A 
ATOM     27  C   UNL A   1      43.411  38.580  34.223  1.00  0.00     0.004 A 
ATOM     28  C   UNL A   1      44.360  38.980  35.153  1.00  0.00     0.000 A 
ENDBRANCH  19  23
ENDBRANCH  11  13
BRANCH  12  29
ATOM     29  C   UNL A   1      39.567  34.282  32.040  1.00  0.00     0.003 A 
ATOM     30  C   UNL A   1      40.742  33.816  32.657  1.00  0.00     0.011 A 
ATOM     31  C   UNL A   1      39.588  34.561  30.669  1.00  0.00     0.011 A 
ATOM     32  C   UNL A   1      41.929  33.686  31.938  1.00  0.00     0.016 A 
ATOM     33  C   UNL A   1      40.782  34.434  29.946  1.00  0.00     0.016 A 
ATOM     34  C   UNL A   1      41.946  34.005  30.584  1.00  0.00     0.018 A 
ATOM     35  Br  UNL A   1      43.566  33.867  29.621  1.00  0.00    -0.051 Br
ENDBRANCH  12  29
ENDBRANCH   7   8
ENDBRANCH   6   7
ENDBRANCH   4   6
ENDBRANCH   3   4
ENDBRANCH   2   3
ENDBRANCH   1   2
BRANCH   1  36
ATOM     36  O   UNL A   1      34.772  33.155  28.230  1.00  0.00    -0.374 OA
BRANCH  36  37
ATOM     37  C   UNL A   1      34.578  31.905  28.868  1.00  0.00     0.202 C 
BRANCH  37  38
ATOM     38  C   UNL A   1      35.485  30.791  28.378  1.00  0.00     0.261 C 
BRANCH  38  39
ATOM     39  O   UNL A   1      36.825  31.221  28.505  1.00  0.00    -0.460 OA
BRANCH  39  40
ATOM     40  C   UNL A   1      37.540  30.516  29.409  1.00  0.00     0.338 C 
ATOM     41  O   UNL A   1      37.738  30.779  30.578  1.00  0.00    -0.246 OA
BRANCH  40  42
ATOM     42  C   UNL A   1      38.009  29.290  28.740  1.00  0.00     0.060 A 
ATOM     43  C   UNL A   1      38.265  28.247  29.624  1.00  0.00     0.016 A 
ATOM     44  C   UNL A   1      38.645  29.421  27.497  1.00  0.00     0.016 A 
ATOM     45  C   UNL A   1      39.492  27.669  29.518  1.00  0.00     0.010 A 
ATOM     46  C   UNL A   1      39.878  28.857  27.397  1.00  0.00     0.010 A 
ATOM     47  C   UNL A   1      40.323  28.126  28.493  1.00  0.00    -0.014 A 
BRANCH  47  48
ATOM     48  C   UNL A   1      41.719  27.794  28.579  1.00  0.00     0.031 A 
ATOM     49  C   UNL A   1      41.975  26.521  27.885  1.00  0.00     0.074 A 
ATOM     50  C   UNL A   1      42.576  28.651  29.164  1.00  0.00     0.049 A 
ATOM     51  N   UNL A   1      42.312  25.392  28.409  1.00  0.00    -0.248 NA
ATOM     52  C   UNL A   1      41.494  26.415  26.492  1.00  0.00     0.031 C 
ATOM     53  C   UNL A   1      42.323  30.004  29.674  1.00  0.00     0.029 A 
ATOM     54  N   UNL A   1      43.916  28.532  29.303  1.00  0.00    -0.354 N 
ATOM     55  C   UNL A   1      42.364  24.512  27.337  1.00  0.00     0.074 A 
ATOM     56  C   UNL A   1      41.575  25.102  26.299  1.00  0.00     0.031 C 
ATOM     57  C   UNL A   1      43.501  30.658  29.811  1.00  0.00     0.029 A 
ATOM     58  C   UNL A   1      44.583  29.737  29.518  1.00  0.00     0.049 A 
ATOM     59  H   UNL A   1      44.383  27.666  29.256  1.00  0.00     0.167 HD
ATOM     60  C   UNL A   1      43.349  23.579  27.271  1.00  0.00     0.034 A 
ATOM     61  C   UNL A   1      45.912  29.936  29.295  1.00  0.00     0.034 A 
ATOM     62  C   UNL A   1      43.871  23.303  28.595  1.00  0.00     0.049 A 
ATOM     63  C   UNL A   1      46.531  28.574  29.301  1.00  0.00     0.074 A 
ATOM     64  C   UNL A   1      43.291  22.856  29.768  1.00  0.00     0.029 A 
ATOM     65  N   UNL A   1      45.054  23.907  28.974  1.00  0.00    -0.354 N 
ATOM     66  N   UNL A   1      46.543  27.808  30.364  1.00  0.00    -0.248 NA
ATOM     67  C   UNL A   1      46.605  27.856  28.031  1.00  0.00     0.031 C 
ATOM     68  C   UNL A   1      43.885  23.645  30.797  1.00  0.00     0.029 A 
ATOM     69  C   UNL A   1      44.868  24.455  30.223  1.00  0.00     0.049 A 
ATOM     70  H   UNL A   1      45.883  23.939  28.443  1.00  0.00     0.167 HD
ATOM     71  C   UNL A   1      46.210  26.538  29.908  1.00  0.00     0.074 A 
ATOM     72  C   UNL A   1      46.319  26.617  28.451  1.00  0.00     0.031 C 
ATOM     73  C   UNL A   1      45.569  25.632  30.711  1.00  0.00     0.034 A 
BRANCH  60  74
ATOM     74  C   UNL A   1      44.116  23.291  25.995  1.00  0.00     0.023 A 
ATOM     75  C   UNL A   1      44.063  21.967  25.531  1.00  0.00     0.031 A 
ATOM     76  C   UNL A   1      45.102  24.110  25.388  1.00  0.00     0.131 A 
ATOM     77  C   UNL A   1      45.032  21.478  24.642  1.00  0.00     0.055 A 
ATOM     78  C   UNL A   1      46.030  23.630  24.463  1.00  0.00     0.041 A 
ATOM     79  F   UNL A   1      45.287  25.399  25.687  1.00  0.00    -0.206 F 
ATOM     80  C   UNL A   1      46.025  22.296  24.113  1.00  0.00     0.022 A 
BRANCH  77  81
ATOM     81  S   UNL A   1      45.073  19.697  24.339  1.00  0.00     0.124 S 
ATOM     82  O   UNL A   1      46.490  19.404  24.527  1.00  0.00    -0.237 OA
ATOM     83  O   UNL A   1      44.169  19.202  25.370  1.00  0.00    -0.237 OA
ATOM     84  O   UNL A   1      44.585  19.579  22.968  1.00  0.00    -0.744 OA
ENDBRANCH  77  81
ENDBRANCH  60  74
BRANCH  61  85
ATOM     85  C   UNL A   1      46.503  31.135  28.625  1.00  0.00     0.023 A 
ATOM     86  C   UNL A   1      47.583  31.877  29.155  1.00  0.00     0.031 A 
ATOM     87  C   UNL A   1      46.115  31.458  27.301  1.00  0.00     0.131 A 
ATOM     88  C   UNL A   1      48.202  32.893  28.379  1.00  0.00     0.055 A 
ATOM     89  C   UNL A   1      46.725  32.462  26.546  1.00  0.00     0.041 A 
ATOM     90  F   UNL A   1      45.172  30.750  26.659  1.00  0.00    -0.206 F 
ATOM     91  C   UNL A   1      47.777  33.181  27.080  1.00  0.00     0.022 A 
BRANCH  88  92
ATOM     92  S   UNL A   1      49.630  33.827  29.027  1.00  0.00     0.124 S 
ATOM     93  O   UNL A   1      49.534  33.587  30.463  1.00  0.00    -0.237 OA
ATOM     94  O   UNL A   1      50.754  33.204  28.338  1.00  0.00    -0.237 OA
ATOM     95  O   UNL A   1      49.353  35.206  28.618  1.00  0.00    -0.744 OA
ENDBRANCH  88  92
ENDBRANCH  61  85
BRANCH  73  96
ATOM     96  C   UNL A   1      45.407  25.958  32.188  1.00  0.00     0.023 A 
ATOM     97  C   UNL A   1      44.253  26.529  32.782  1.00  0.00     0.031 A 
ATOM     98  C   UNL A   1      46.430  25.529  33.050  1.00  0.00     0.131 A 
ATOM     99  C   UNL A   1      44.167  26.653  34.187  1.00  0.00     0.055 A 
ATOM    100  C   UNL A   1      46.331  25.632  34.437  1.00  0.00     0.041 A 
ATOM    101  F   UNL A   1      47.537  24.952  32.554  1.00  0.00    -0.206 F 
ATOM    102  C   UNL A   1      45.200  26.200  35.011  1.00  0.00     0.022 A 
BRANCH  99 103
ATOM    103  S   UNL A   1      42.712  27.422  34.976  1.00  0.00     0.124 S 
ATOM    104  O   UNL A   1      42.085  28.159  33.886  1.00  0.00    -0.237 OA
ATOM    105  O   UNL A   1      41.974  26.264  35.474  1.00  0.00    -0.237 OA
ATOM    106  O   UNL A   1      43.298  28.264  36.022  1.00  0.00    -0.744 OA
ENDBRANCH  99 103
ENDBRANCH  73  96
ENDBRANCH  47  48
ENDBRANCH  40  42
ENDBRANCH  39  40
ENDBRANCH  38  39
ENDBRANCH  37  38
ENDBRANCH  36  37
ENDBRANCH   1  36
TORSDOF 23
ENDMDL
