MODEL 1
REMARK VINA RESULT:     -12.3      0.000      0.000
REMARK SMILES CC1=C[C@H](C)[C@H](CN2C[C@]34C=C[C@H](O3)[C@H](C(=O)OCCOCCOC(=O)c3ccc(-c5c6nc(c(-c7cc(S(=O)(=O)[O-])ccc7F)c7ccc([nH]7)c(-c7cc(S(=O)(=O)[O-])ccc7F)c7nc(c(-c8cc(S(=O)(=O)[O-])ccc8F)c8ccc5[nH]8)C=C7)C=C6)cc3)[C@@H]4C2=O)[C@H](C)C1
REMARK SMILES IDX 22 1 21 2 20 3 19 4 18 5 16 6 17 7 15 8 8 9 9 10 91 11 10 12
REMARK SMILES IDX 90 13 92 14 11 15 14 16 12 17 13 18 7 19 6 20 1 21 2 22 3 23
REMARK SMILES IDX 95 24 4 25 93 26 5 27 94 28 23 29 24 30 25 31 26 32 27 33
REMARK SMILES IDX 28 34 89 35 29 36 88 37 30 38 31 39 32 40 82 41 33 42 87 43
REMARK SMILES IDX 81 44 83 45 34 46 86 47 80 48 79 49 35 51 67 52 47 53 66 54
REMARK SMILES IDX 48 55 51 56 65 57 84 58 49 59 50 60 64 62 85 63 52 64 36 65
REMARK SMILES IDX 37 66 45 67 38 68 44 69 46 70 43 71 39 72 40 73 41 74 42 75
REMARK SMILES IDX 68 76 69 77 77 78 70 79 76 80 78 81 75 82 71 83 72 84 73 85
REMARK SMILES IDX 74 86 53 87 54 88 62 89 55 90 61 91 63 92 60 93 56 94 57 95
REMARK SMILES IDX 58 96 59 97
REMARK H PARENT 83 50 51 61
REMARK Flexibility Score: inf
ROOT
ATOM      1  C   UNL A   1      37.732  19.738  25.011  1.00  0.00     0.202 C 
ENDROOT
BRANCH   1   2
ATOM      2  O   UNL A   1      37.750  21.116  24.637  1.00  0.00    -0.374 OA
BRANCH   2   3
ATOM      3  C   UNL A   1      37.054  22.033  25.486  1.00  0.00     0.202 C 
BRANCH   3   4
ATOM      4  C   UNL A   1      37.197  23.512  25.109  1.00  0.00     0.261 C 
BRANCH   4   5
ATOM      5  O   UNL A   1      35.902  24.061  24.807  1.00  0.00    -0.463 OA
BRANCH   5   6
ATOM      6  C   UNL A   1      35.234  23.453  23.797  1.00  0.00     0.312 C 
ATOM      7  O   UNL A   1      35.744  23.044  22.760  1.00  0.00    -0.252 OA
BRANCH   6   8
ATOM      8  C   UNL A   1      33.856  23.030  24.220  1.00  0.00     0.148 C 
ATOM      9  N   UNL A   1      31.408  25.169  22.504  1.00  0.00    -0.339 N 
ATOM     10  C   UNL A   1      30.581  24.236  23.231  1.00  0.00     0.160 C 
ATOM     11  C   UNL A   1      32.717  24.586  22.394  1.00  0.00     0.230 C 
ATOM     12  C   UNL A   1      31.582  23.592  24.143  1.00  0.00     0.117 C 
ATOM     13  C   UNL A   1      32.737  23.272  23.198  1.00  0.00     0.133 C 
ATOM     14  O   UNL A   1      33.675  25.094  21.836  1.00  0.00    -0.274 OA
ATOM     15  C   UNL A   1      31.246  22.568  25.179  1.00  0.00     0.009 C 
ATOM     16  O   UNL A   1      32.279  24.540  25.011  1.00  0.00    -0.360 OA
ATOM     17  C   UNL A   1      32.261  22.611  26.061  1.00  0.00     0.004 C 
ATOM     18  C   UNL A   1      33.254  23.612  25.520  1.00  0.00     0.157 C 
BRANCH   9  19
ATOM     19  C   UNL A   1      31.364  26.639  22.612  1.00  0.00     0.124 C 
BRANCH  19  20
ATOM     20  C   UNL A   1      31.346  27.423  23.977  1.00  0.00     0.018 C 
ATOM     21  C   UNL A   1      32.231  30.768  26.856  1.00  0.00     0.039 C 
ATOM     22  C   UNL A   1      31.944  29.678  25.869  1.00  0.00    -0.077 C 
ATOM     23  C   UNL A   1      32.657  28.548  25.883  1.00  0.00    -0.025 C 
ATOM     24  C   UNL A   1      31.019  29.976  24.730  1.00  0.00     0.034 C 
ATOM     25  C   UNL A   1      32.709  27.660  24.678  1.00  0.00     0.014 C 
ATOM     26  C   UNL A   1      30.509  28.767  23.887  1.00  0.00    -0.005 C 
ATOM     27  C   UNL A   1      33.814  28.202  23.766  1.00  0.00     0.012 C 
ATOM     28  C   UNL A   1      30.240  29.289  22.466  1.00  0.00     0.008 C 
ENDBRANCH  19  20
ENDBRANCH   9  19
ENDBRANCH   6   8
ENDBRANCH   5   6
ENDBRANCH   4   5
ENDBRANCH   3   4
ENDBRANCH   2   3
ENDBRANCH   1   2
BRANCH   1  29
ATOM     29  C   UNL A   1      38.965  19.215  25.756  1.00  0.00     0.261 C 
BRANCH  29  30
ATOM     30  O   UNL A   1      40.092  20.102  25.622  1.00  0.00    -0.460 OA
BRANCH  30  31
ATOM     31  C   UNL A   1      40.885  20.179  26.719  1.00  0.00     0.338 C 
ATOM     32  O   UNL A   1      41.547  19.273  27.209  1.00  0.00    -0.246 OA
BRANCH  31  33
ATOM     33  C   UNL A   1      41.002  21.576  27.169  1.00  0.00     0.060 A 
ATOM     34  C   UNL A   1      40.474  22.571  26.336  1.00  0.00     0.016 A 
ATOM     35  C   UNL A   1      41.699  21.918  28.330  1.00  0.00     0.016 A 
ATOM     36  C   UNL A   1      40.677  23.916  26.639  1.00  0.00     0.010 A 
ATOM     37  C   UNL A   1      41.913  23.270  28.626  1.00  0.00     0.010 A 
ATOM     38  C   UNL A   1      41.433  24.274  27.764  1.00  0.00    -0.014 A 
BRANCH  38  39
ATOM     39  C   UNL A   1      41.838  25.690  27.947  1.00  0.00     0.031 A 
ATOM     40  C   UNL A   1      43.153  26.151  27.378  1.00  0.00     0.074 A 
ATOM     41  C   UNL A   1      41.029  26.562  28.574  1.00  0.00     0.049 A 
ATOM     42  N   UNL A   1      43.718  27.329  27.434  1.00  0.00    -0.248 NA
ATOM     43  C   UNL A   1      43.936  25.142  26.648  1.00  0.00     0.031 C 
ATOM     44  C   UNL A   1      39.711  26.244  29.123  1.00  0.00     0.029 A 
ATOM     45  N   UNL A   1      41.198  27.895  28.855  1.00  0.00    -0.354 N 
ATOM     46  C   UNL A   1      44.922  27.206  26.750  1.00  0.00     0.074 A 
ATOM     47  C   UNL A   1      45.021  25.827  26.319  1.00  0.00     0.031 C 
ATOM     48  C   UNL A   1      39.197  27.350  29.687  1.00  0.00     0.029 A 
ATOM     49  C   UNL A   1      40.160  28.444  29.569  1.00  0.00     0.049 A 
ATOM     50  H   UNL A   1      41.989  28.409  28.573  1.00  0.00     0.167 HD
ATOM     51  C   UNL A   1      45.855  28.158  26.496  1.00  0.00     0.034 A 
ATOM     52  C   UNL A   1      40.016  29.679  30.090  1.00  0.00     0.034 A 
ATOM     53  C   UNL A   1      45.750  29.526  26.945  1.00  0.00     0.049 A 
ATOM     54  C   UNL A   1      41.107  30.699  29.871  1.00  0.00     0.074 A 
ATOM     55  C   UNL A   1      46.630  30.574  26.733  1.00  0.00     0.029 A 
ATOM     56  N   UNL A   1      44.707  30.034  27.709  1.00  0.00    -0.354 N 
ATOM     57  N   UNL A   1      42.238  30.573  29.215  1.00  0.00    -0.248 NA
ATOM     58  C   UNL A   1      40.899  32.029  30.459  1.00  0.00     0.031 C 
ATOM     59  C   UNL A   1      46.154  31.693  27.426  1.00  0.00     0.029 A 
ATOM     60  C   UNL A   1      44.939  31.368  28.008  1.00  0.00     0.049 A 
ATOM     61  H   UNL A   1      43.918  29.521  27.998  1.00  0.00     0.167 HD
ATOM     62  C   UNL A   1      42.860  31.817  29.289  1.00  0.00     0.074 A 
ATOM     63  C   UNL A   1      41.974  32.680  30.042  1.00  0.00     0.031 C 
ATOM     64  C   UNL A   1      44.053  32.214  28.773  1.00  0.00     0.034 A 
BRANCH  51  65
ATOM     65  C   UNL A   1      47.094  27.730  25.746  1.00  0.00     0.023 A 
ATOM     66  C   UNL A   1      47.273  28.022  24.382  1.00  0.00     0.031 A 
ATOM     67  C   UNL A   1      48.094  26.987  26.397  1.00  0.00     0.131 A 
ATOM     68  C   UNL A   1      48.390  27.515  23.699  1.00  0.00     0.055 A 
ATOM     69  C   UNL A   1      49.240  26.551  25.730  1.00  0.00     0.041 A 
ATOM     70  F   UNL A   1      47.966  26.660  27.693  1.00  0.00    -0.206 F 
ATOM     71  C   UNL A   1      49.387  26.802  24.370  1.00  0.00     0.022 A 
BRANCH  68  72
ATOM     72  S   UNL A   1      48.453  27.682  21.893  1.00  0.00     0.124 S 
ATOM     73  O   UNL A   1      47.123  28.209  21.599  1.00  0.00    -0.237 OA
ATOM     74  O   UNL A   1      49.565  28.605  21.701  1.00  0.00    -0.237 OA
ATOM     75  O   UNL A   1      48.689  26.315  21.431  1.00  0.00    -0.744 OA
ENDBRANCH  68  72
ENDBRANCH  51  65
BRANCH  52  76
ATOM     76  C   UNL A   1      38.816  30.017  30.909  1.00  0.00     0.023 A 
ATOM     77  C   UNL A   1      37.768  30.788  30.384  1.00  0.00     0.031 A 
ATOM     78  C   UNL A   1      38.730  29.613  32.253  1.00  0.00     0.131 A 
ATOM     79  C   UNL A   1      36.699  31.168  31.211  1.00  0.00     0.055 A 
ATOM     80  C   UNL A   1      37.639  29.950  33.057  1.00  0.00     0.041 A 
ATOM     81  F   UNL A   1      39.707  28.875  32.805  1.00  0.00    -0.206 F 
ATOM     82  C   UNL A   1      36.621  30.743  32.540  1.00  0.00     0.022 A 
BRANCH  79  83
ATOM     83  S   UNL A   1      35.445  32.300  30.548  1.00  0.00     0.124 S 
ATOM     84  O   UNL A   1      36.233  33.499  30.291  1.00  0.00    -0.237 OA
ATOM     85  O   UNL A   1      34.977  31.575  29.370  1.00  0.00    -0.237 OA
ATOM     86  O   UNL A   1      34.476  32.410  31.635  1.00  0.00    -0.744 OA
ENDBRANCH  79  83
ENDBRANCH  52  76
BRANCH  64  87
ATOM     87  C   UNL A   1      44.441  33.658  28.975  1.00  0.00     0.023 A 
ATOM     88  C   UNL A   1      43.753  34.707  28.338  1.00  0.00     0.031 A 
ATOM     89  C   UNL A   1      45.522  33.988  29.811  1.00  0.00     0.131 A 
ATOM     90  C   UNL A   1      44.187  36.031  28.507  1.00  0.00     0.055 A 
ATOM     91  C   UNL A   1      45.916  35.311  30.018  1.00  0.00     0.041 A 
ATOM     92  F   UNL A   1      46.215  33.027  30.443  1.00  0.00    -0.206 F 
ATOM     93  C   UNL A   1      45.255  36.340  29.354  1.00  0.00     0.022 A 
BRANCH  90  94
ATOM     94  S   UNL A   1      43.392  37.340  27.536  1.00  0.00     0.124 S 
ATOM     95  O   UNL A   1      42.240  37.679  28.366  1.00  0.00    -0.237 OA
ATOM     96  O   UNL A   1      44.440  38.352  27.458  1.00  0.00    -0.237 OA
ATOM     97  O   UNL A   1      43.072  36.684  26.269  1.00  0.00    -0.744 OA
ENDBRANCH  90  94
ENDBRANCH  64  87
ENDBRANCH  38  39
ENDBRANCH  31  33
ENDBRANCH  30  31
ENDBRANCH  29  30
ENDBRANCH   1  29
TORSDOF 19
ENDMDL
MODEL 2
REMARK VINA RESULT:     -11.9      2.101      7.702
REMARK SMILES CC1=C[C@H](C)[C@H](CN2C[C@]34C=C[C@H](O3)[C@H](C(=O)OCCOCCOC(=O)c3ccc(-c5c6nc(c(-c7cc(S(=O)(=O)[O-])ccc7F)c7ccc([nH]7)c(-c7cc(S(=O)(=O)[O-])ccc7F)c7nc(c(-c8cc(S(=O)(=O)[O-])ccc8F)c8ccc5[nH]8)C=C7)C=C6)cc3)[C@@H]4C2=O)[C@H](C)C1
REMARK SMILES IDX 22 1 21 2 20 3 19 4 18 5 16 6 17 7 15 8 8 9 9 10 91 11 10 12
REMARK SMILES IDX 90 13 92 14 11 15 14 16 12 17 13 18 7 19 6 20 1 21 2 22 3 23
REMARK SMILES IDX 95 24 4 25 93 26 5 27 94 28 23 29 24 30 25 31 26 32 27 33
REMARK SMILES IDX 28 34 89 35 29 36 88 37 30 38 31 39 32 40 82 41 33 42 87 43
REMARK SMILES IDX 81 44 83 45 34 46 86 47 80 48 79 49 35 51 67 52 47 53 66 54
REMARK SMILES IDX 48 55 51 56 65 57 84 58 49 59 50 60 64 62 85 63 52 64 36 65
REMARK SMILES IDX 37 66 45 67 38 68 44 69 46 70 43 71 39 72 40 73 41 74 42 75
REMARK SMILES IDX 68 76 69 77 77 78 70 79 76 80 78 81 75 82 71 83 72 84 73 85
REMARK SMILES IDX 74 86 53 87 54 88 62 89 55 90 61 91 63 92 60 93 56 94 57 95
REMARK SMILES IDX 58 96 59 97
REMARK H PARENT 83 50 51 61
REMARK Flexibility Score: inf
ROOT
ATOM      1  C   UNL A   1      38.442  20.196  25.269  1.00  0.00     0.202 C 
ENDROOT
BRANCH   1   2
ATOM      2  O   UNL A   1      37.328  21.015  24.916  1.00  0.00    -0.374 OA
BRANCH   2   3
ATOM      3  C   UNL A   1      37.086  22.174  25.720  1.00  0.00     0.202 C 
BRANCH   3   4
ATOM      4  C   UNL A   1      37.230  23.516  24.993  1.00  0.00     0.261 C 
BRANCH   4   5
ATOM      5  O   UNL A   1      35.926  24.036  24.678  1.00  0.00    -0.463 OA
BRANCH   5   6
ATOM      6  C   UNL A   1      35.285  23.418  23.656  1.00  0.00     0.312 C 
ATOM      7  O   UNL A   1      35.821  23.012  22.631  1.00  0.00    -0.252 OA
BRANCH   6   8
ATOM      8  C   UNL A   1      33.904  22.982  24.053  1.00  0.00     0.148 C 
ATOM      9  N   UNL A   1      31.483  25.351  22.626  1.00  0.00    -0.339 N 
ATOM     10  C   UNL A   1      30.644  24.361  23.260  1.00  0.00     0.160 C 
ATOM     11  C   UNL A   1      32.776  24.755  22.430  1.00  0.00     0.230 C 
ATOM     12  C   UNL A   1      31.643  23.599  24.077  1.00  0.00     0.117 C 
ATOM     13  C   UNL A   1      32.777  23.360  23.083  1.00  0.00     0.133 C 
ATOM     14  O   UNL A   1      33.738  25.301  21.916  1.00  0.00    -0.274 OA
ATOM     15  C   UNL A   1      31.298  22.473  24.999  1.00  0.00     0.009 C 
ATOM     16  O   UNL A   1      32.375  24.428  25.033  1.00  0.00    -0.360 OA
ATOM     17  C   UNL A   1      32.326  22.395  25.863  1.00  0.00     0.004 C 
ATOM     18  C   UNL A   1      33.334  23.428  25.419  1.00  0.00     0.157 C 
BRANCH   9  19
ATOM     19  C   UNL A   1      31.475  26.801  22.897  1.00  0.00     0.124 C 
BRANCH  19  20
ATOM     20  C   UNL A   1      31.915  27.445  24.265  1.00  0.00     0.018 C 
ATOM     21  C   UNL A   1      33.579  30.579  27.034  1.00  0.00     0.039 C 
ATOM     22  C   UNL A   1      33.019  29.563  26.086  1.00  0.00    -0.077 C 
ATOM     23  C   UNL A   1      33.762  28.523  25.694  1.00  0.00    -0.025 C 
ATOM     24  C   UNL A   1      31.717  29.862  25.409  1.00  0.00     0.034 C 
ATOM     25  C   UNL A   1      33.421  27.766  24.448  1.00  0.00     0.014 C 
ATOM     26  C   UNL A   1      31.014  28.689  24.660  1.00  0.00    -0.005 C 
ATOM     27  C   UNL A   1      34.065  28.512  23.275  1.00  0.00     0.012 C 
ATOM     28  C   UNL A   1      30.198  29.310  23.514  1.00  0.00     0.008 C 
ENDBRANCH  19  20
ENDBRANCH   9  19
ENDBRANCH   6   8
ENDBRANCH   5   6
ENDBRANCH   4   5
ENDBRANCH   3   4
ENDBRANCH   2   3
ENDBRANCH   1   2
BRANCH   1  29
ATOM     29  C   UNL A   1      39.530  20.854  26.125  1.00  0.00     0.261 C 
BRANCH  29  30
ATOM     30  O   UNL A   1      40.387  19.879  26.751  1.00  0.00    -0.460 OA
BRANCH  30  31
ATOM     31  C   UNL A   1      41.601  19.734  26.165  1.00  0.00     0.338 C 
ATOM     32  O   UNL A   1      41.958  18.816  25.438  1.00  0.00    -0.246 OA
BRANCH  31  33
ATOM     33  C   UNL A   1      42.416  20.943  26.370  1.00  0.00     0.060 A 
ATOM     34  C   UNL A   1      42.537  21.429  27.678  1.00  0.00     0.016 A 
ATOM     35  C   UNL A   1      42.969  21.645  25.297  1.00  0.00     0.016 A 
ATOM     36  C   UNL A   1      43.176  22.644  27.915  1.00  0.00     0.010 A 
ATOM     37  C   UNL A   1      43.600  22.873  25.537  1.00  0.00     0.010 A 
ATOM     38  C   UNL A   1      43.677  23.393  26.842  1.00  0.00    -0.014 A 
BRANCH  38  39
ATOM     39  C   UNL A   1      44.143  24.782  27.080  1.00  0.00     0.031 A 
ATOM     40  C   UNL A   1      43.159  25.805  27.581  1.00  0.00     0.074 A 
ATOM     41  C   UNL A   1      45.432  25.118  26.892  1.00  0.00     0.049 A 
ATOM     42  N   UNL A   1      43.336  27.075  27.838  1.00  0.00    -0.248 NA
ATOM     43  C   UNL A   1      41.790  25.327  27.825  1.00  0.00     0.031 C 
ATOM     44  C   UNL A   1      46.485  24.202  26.456  1.00  0.00     0.029 A 
ATOM     45  N   UNL A   1      46.073  26.322  27.043  1.00  0.00    -0.354 N 
ATOM     46  C   UNL A   1      42.104  27.551  28.271  1.00  0.00     0.074 A 
ATOM     47  C   UNL A   1      41.179  26.438  28.208  1.00  0.00     0.031 C 
ATOM     48  C   UNL A   1      47.641  24.882  26.363  1.00  0.00     0.029 A 
ATOM     49  C   UNL A   1      47.403  26.285  26.699  1.00  0.00     0.049 A 
ATOM     50  H   UNL A   1      45.622  27.136  27.366  1.00  0.00     0.167 HD
ATOM     51  C   UNL A   1      41.775  28.798  28.692  1.00  0.00     0.034 A 
ATOM     52  C   UNL A   1      48.316  27.275  26.638  1.00  0.00     0.034 A 
ATOM     53  C   UNL A   1      42.705  29.902  28.736  1.00  0.00     0.049 A 
ATOM     54  C   UNL A   1      47.907  28.676  27.026  1.00  0.00     0.074 A 
ATOM     55  C   UNL A   1      42.482  31.202  29.157  1.00  0.00     0.029 A 
ATOM     56  N   UNL A   1      44.032  29.840  28.332  1.00  0.00    -0.354 N 
ATOM     57  N   UNL A   1      46.740  29.111  27.442  1.00  0.00    -0.248 NA
ATOM     58  C   UNL A   1      48.941  29.716  26.942  1.00  0.00     0.031 C 
ATOM     59  C   UNL A   1      43.652  31.940  28.942  1.00  0.00     0.029 A 
ATOM     60  C   UNL A   1      44.629  31.085  28.459  1.00  0.00     0.049 A 
ATOM     61  H   UNL A   1      44.484  29.029  28.002  1.00  0.00     0.167 HD
ATOM     62  C   UNL A   1      46.910  30.470  27.696  1.00  0.00     0.074 A 
ATOM     63  C   UNL A   1      48.294  30.778  27.398  1.00  0.00     0.031 C 
ATOM     64  C   UNL A   1      46.007  31.381  28.143  1.00  0.00     0.034 A 
BRANCH  51  65
ATOM     65  C   UNL A   1      40.337  29.040  29.082  1.00  0.00     0.023 A 
ATOM     66  C   UNL A   1      39.922  29.037  30.426  1.00  0.00     0.031 A 
ATOM     67  C   UNL A   1      39.359  29.242  28.091  1.00  0.00     0.131 A 
ATOM     68  C   UNL A   1      38.559  29.162  30.737  1.00  0.00     0.055 A 
ATOM     69  C   UNL A   1      38.016  29.442  28.412  1.00  0.00     0.041 A 
ATOM     70  F   UNL A   1      39.694  29.233  26.791  1.00  0.00    -0.206 F 
ATOM     71  C   UNL A   1      37.606  29.389  29.740  1.00  0.00     0.022 A 
BRANCH  68  72
ATOM     72  S   UNL A   1      38.030  28.887  32.451  1.00  0.00     0.124 S 
ATOM     73  O   UNL A   1      36.660  29.394  32.422  1.00  0.00    -0.237 OA
ATOM     74  O   UNL A   1      38.175  27.443  32.597  1.00  0.00    -0.237 OA
ATOM     75  O   UNL A   1      38.967  29.691  33.232  1.00  0.00    -0.744 OA
ENDBRANCH  68  72
ENDBRANCH  51  65
BRANCH  52  76
ATOM     76  C   UNL A   1      49.697  26.998  26.148  1.00  0.00     0.023 A 
ATOM     77  C   UNL A   1      50.074  27.287  24.827  1.00  0.00     0.031 A 
ATOM     78  C   UNL A   1      50.646  26.387  26.986  1.00  0.00     0.131 A 
ATOM     79  C   UNL A   1      51.352  26.926  24.371  1.00  0.00     0.055 A 
ATOM     80  C   UNL A   1      51.933  26.076  26.542  1.00  0.00     0.041 A 
ATOM     81  F   UNL A   1      50.336  26.086  28.258  1.00  0.00    -0.206 F 
ATOM     82  C   UNL A   1      52.288  26.335  25.223  1.00  0.00     0.022 A 
BRANCH  79  83
ATOM     83  S   UNL A   1      51.749  27.166  22.617  1.00  0.00     0.124 S 
ATOM     84  O   UNL A   1      52.150  28.568  22.591  1.00  0.00    -0.237 OA
ATOM     85  O   UNL A   1      52.814  26.190  22.411  1.00  0.00    -0.237 OA
ATOM     86  O   UNL A   1      50.490  26.865  21.938  1.00  0.00    -0.744 OA
ENDBRANCH  79  83
ENDBRANCH  52  76
BRANCH  64  87
ATOM     87  C   UNL A   1      46.508  32.786  28.375  1.00  0.00     0.023 A 
ATOM     88  C   UNL A   1      46.677  33.697  27.318  1.00  0.00     0.031 A 
ATOM     89  C   UNL A   1      46.829  33.214  29.676  1.00  0.00     0.131 A 
ATOM     90  C   UNL A   1      47.204  34.973  27.573  1.00  0.00     0.055 A 
ATOM     91  C   UNL A   1      47.301  34.503  29.930  1.00  0.00     0.041 A 
ATOM     92  F   UNL A   1      46.688  32.385  30.722  1.00  0.00    -0.206 F 
ATOM     93  C   UNL A   1      47.503  35.386  28.874  1.00  0.00     0.022 A 
BRANCH  90  94
ATOM     94  S   UNL A   1      47.575  36.060  26.169  1.00  0.00     0.124 S 
ATOM     95  O   UNL A   1      47.687  35.109  25.068  1.00  0.00    -0.237 OA
ATOM     96  O   UNL A   1      46.409  36.938  26.137  1.00  0.00    -0.237 OA
ATOM     97  O   UNL A   1      48.825  36.709  26.558  1.00  0.00    -0.744 OA
ENDBRANCH  90  94
ENDBRANCH  64  87
ENDBRANCH  38  39
ENDBRANCH  31  33
ENDBRANCH  30  31
ENDBRANCH  29  30
ENDBRANCH   1  29
TORSDOF 19
ENDMDL
MODEL 3
REMARK VINA RESULT:     -11.8      1.856      2.148
REMARK SMILES CC1=C[C@H](C)[C@H](CN2C[C@]34C=C[C@H](O3)[C@H](C(=O)OCCOCCOC(=O)c3ccc(-c5c6nc(c(-c7cc(S(=O)(=O)[O-])ccc7F)c7ccc([nH]7)c(-c7cc(S(=O)(=O)[O-])ccc7F)c7nc(c(-c8cc(S(=O)(=O)[O-])ccc8F)c8ccc5[nH]8)C=C7)C=C6)cc3)[C@@H]4C2=O)[C@H](C)C1
REMARK SMILES IDX 22 1 21 2 20 3 19 4 18 5 16 6 17 7 15 8 8 9 9 10 91 11 10 12
REMARK SMILES IDX 90 13 92 14 11 15 14 16 12 17 13 18 7 19 6 20 1 21 2 22 3 23
REMARK SMILES IDX 95 24 4 25 93 26 5 27 94 28 23 29 24 30 25 31 26 32 27 33
REMARK SMILES IDX 28 34 89 35 29 36 88 37 30 38 31 39 32 40 82 41 33 42 87 43
REMARK SMILES IDX 81 44 83 45 34 46 86 47 80 48 79 49 35 51 67 52 47 53 66 54
REMARK SMILES IDX 48 55 51 56 65 57 84 58 49 59 50 60 64 62 85 63 52 64 36 65
REMARK SMILES IDX 37 66 45 67 38 68 44 69 46 70 43 71 39 72 40 73 41 74 42 75
REMARK SMILES IDX 68 76 69 77 77 78 70 79 76 80 78 81 75 82 71 83 72 84 73 85
REMARK SMILES IDX 74 86 53 87 54 88 62 89 55 90 61 91 63 92 60 93 56 94 57 95
REMARK SMILES IDX 58 96 59 97
REMARK H PARENT 83 50 51 61
REMARK Flexibility Score: inf
ROOT
ATOM      1  C   UNL A   1      37.628  19.625  25.007  1.00  0.00     0.202 C 
ENDROOT
BRANCH   1   2
ATOM      2  O   UNL A   1      37.563  20.998  24.622  1.00  0.00    -0.374 OA
BRANCH   2   3
ATOM      3  C   UNL A   1      36.914  21.901  25.524  1.00  0.00     0.202 C 
BRANCH   3   4
ATOM      4  C   UNL A   1      37.178  23.388  25.264  1.00  0.00     0.261 C 
BRANCH   4   5
ATOM      5  O   UNL A   1      35.966  24.022  24.819  1.00  0.00    -0.463 OA
BRANCH   5   6
ATOM      6  C   UNL A   1      35.347  23.423  23.772  1.00  0.00     0.312 C 
ATOM      7  O   UNL A   1      35.900  23.056  22.741  1.00  0.00    -0.252 OA
BRANCH   6   8
ATOM      8  C   UNL A   1      33.970  22.950  24.142  1.00  0.00     0.148 C 
ATOM      9  N   UNL A   1      31.515  25.189  22.568  1.00  0.00    -0.339 N 
ATOM     10  C   UNL A   1      30.691  24.190  23.207  1.00  0.00     0.160 C 
ATOM     11  C   UNL A   1      32.833  24.633  22.430  1.00  0.00     0.230 C 
ATOM     12  C   UNL A   1      31.689  23.488  24.078  1.00  0.00     0.117 C 
ATOM     13  C   UNL A   1      32.861  23.259  23.127  1.00  0.00     0.133 C 
ATOM     14  O   UNL A   1      33.791  25.196  21.928  1.00  0.00    -0.274 OA
ATOM     15  C   UNL A   1      31.354  22.380  25.025  1.00  0.00     0.009 C 
ATOM     16  O   UNL A   1      32.363  24.371  25.029  1.00  0.00    -0.360 OA
ATOM     17  C   UNL A   1      32.357  22.365  25.921  1.00  0.00     0.004 C 
ATOM     18  C   UNL A   1      33.343  23.418  25.475  1.00  0.00     0.157 C 
BRANCH   9  19
ATOM     19  C   UNL A   1      31.449  26.645  22.793  1.00  0.00     0.124 C 
BRANCH  19  20
ATOM     20  C   UNL A   1      31.828  27.346  24.151  1.00  0.00     0.018 C 
ATOM     21  C   UNL A   1      33.257  30.637  26.867  1.00  0.00     0.039 C 
ATOM     22  C   UNL A   1      32.775  29.568  25.936  1.00  0.00    -0.077 C 
ATOM     23  C   UNL A   1      33.584  28.565  25.581  1.00  0.00    -0.025 C 
ATOM     24  C   UNL A   1      31.469  29.773  25.233  1.00  0.00     0.034 C 
ATOM     25  C   UNL A   1      33.309  27.760  24.349  1.00  0.00     0.014 C 
ATOM     26  C   UNL A   1      30.849  28.543  24.502  1.00  0.00    -0.005 C 
ATOM     27  C   UNL A   1      33.927  28.515  23.169  1.00  0.00     0.012 C 
ATOM     28  C   UNL A   1      30.016  29.088  23.329  1.00  0.00     0.008 C 
ENDBRANCH  19  20
ENDBRANCH   9  19
ENDBRANCH   6   8
ENDBRANCH   5   6
ENDBRANCH   4   5
ENDBRANCH   3   4
ENDBRANCH   2   3
ENDBRANCH   1   2
BRANCH   1  29
ATOM     29  C   UNL A   1      38.937  19.158  25.655  1.00  0.00     0.261 C 
BRANCH  29  30
ATOM     30  O   UNL A   1      39.921  20.209  25.700  1.00  0.00    -0.460 OA
BRANCH  30  31
ATOM     31  C   UNL A   1      40.676  20.230  26.826  1.00  0.00     0.338 C 
ATOM     32  O   UNL A   1      41.244  19.277  27.345  1.00  0.00    -0.246 OA
BRANCH  31  33
ATOM     33  C   UNL A   1      40.887  21.616  27.275  1.00  0.00     0.060 A 
ATOM     34  C   UNL A   1      40.313  22.639  26.510  1.00  0.00     0.016 A 
ATOM     35  C   UNL A   1      41.711  21.918  28.361  1.00  0.00     0.016 A 
ATOM     36  C   UNL A   1      40.594  23.972  26.802  1.00  0.00     0.010 A 
ATOM     37  C   UNL A   1      42.002  23.259  28.646  1.00  0.00     0.010 A 
ATOM     38  C   UNL A   1      41.472  24.289  27.848  1.00  0.00    -0.014 A 
BRANCH  38  39
ATOM     39  C   UNL A   1      41.944  25.689  28.001  1.00  0.00     0.031 A 
ATOM     40  C   UNL A   1      43.274  26.077  27.413  1.00  0.00     0.074 A 
ATOM     41  C   UNL A   1      41.182  26.608  28.619  1.00  0.00     0.049 A 
ATOM     42  N   UNL A   1      43.893  27.229  27.442  1.00  0.00    -0.248 NA
ATOM     43  C   UNL A   1      44.002  25.021  26.694  1.00  0.00     0.031 C 
ATOM     44  C   UNL A   1      39.857  26.361  29.186  1.00  0.00     0.029 A 
ATOM     45  N   UNL A   1      41.416  27.936  28.875  1.00  0.00    -0.354 N 
ATOM     46  C   UNL A   1      45.083  27.039  26.749  1.00  0.00     0.074 A 
ATOM     47  C   UNL A   1      45.114  25.649  26.343  1.00  0.00     0.031 C 
ATOM     48  C   UNL A   1      39.400  27.500  29.734  1.00  0.00     0.029 A 
ATOM     49  C   UNL A   1      40.411  28.545  29.588  1.00  0.00     0.049 A 
ATOM     50  H   UNL A   1      42.227  28.408  28.577  1.00  0.00     0.167 HD
ATOM     51  C   UNL A   1      46.057  27.942  26.470  1.00  0.00     0.034 A 
ATOM     52  C   UNL A   1      40.329  29.795  30.087  1.00  0.00     0.034 A 
ATOM     53  C   UNL A   1      46.019  29.321  26.895  1.00  0.00     0.049 A 
ATOM     54  C   UNL A   1      41.464  30.759  29.841  1.00  0.00     0.074 A 
ATOM     55  C   UNL A   1      46.944  30.323  26.657  1.00  0.00     0.029 A 
ATOM     56  N   UNL A   1      45.009  29.890  27.659  1.00  0.00    -0.354 N 
ATOM     57  N   UNL A   1      42.582  30.569  29.177  1.00  0.00    -0.248 NA
ATOM     58  C   UNL A   1      41.323  32.107  30.407  1.00  0.00     0.031 C 
ATOM     59  C   UNL A   1      46.527  31.475  27.333  1.00  0.00     0.029 A 
ATOM     60  C   UNL A   1      45.305  31.217  27.932  1.00  0.00     0.049 A 
ATOM     61  H   UNL A   1      44.199  29.419  27.964  1.00  0.00     0.167 HD
ATOM     62  C   UNL A   1      43.261  31.784  29.223  1.00  0.00     0.074 A 
ATOM     63  C   UNL A   1      42.423  32.701  29.968  1.00  0.00     0.031 C 
ATOM     64  C   UNL A   1      44.466  32.116  28.690  1.00  0.00     0.034 A 
BRANCH  51  65
ATOM     65  C   UNL A   1      47.267  27.443  25.717  1.00  0.00     0.023 A 
ATOM     66  C   UNL A   1      48.344  26.820  26.373  1.00  0.00     0.031 A 
ATOM     67  C   UNL A   1      47.360  27.626  24.326  1.00  0.00     0.131 A 
ATOM     68  C   UNL A   1      49.493  26.466  25.649  1.00  0.00     0.055 A 
ATOM     69  C   UNL A   1      48.475  27.202  23.600  1.00  0.00     0.041 A 
ATOM     70  F   UNL A   1      46.373  28.235  23.650  1.00  0.00    -0.206 F 
ATOM     71  C   UNL A   1      49.556  26.631  24.263  1.00  0.00     0.022 A 
BRANCH  68  72
ATOM     72  S   UNL A   1      50.960  25.914  26.564  1.00  0.00     0.124 S 
ATOM     73  O   UNL A   1      50.454  24.722  27.241  1.00  0.00    -0.237 OA
ATOM     74  O   UNL A   1      51.928  25.683  25.498  1.00  0.00    -0.237 OA
ATOM     75  O   UNL A   1      51.259  27.042  27.445  1.00  0.00    -0.744 OA
ENDBRANCH  68  72
ENDBRANCH  51  65
BRANCH  52  76
ATOM     76  C   UNL A   1      39.155  30.202  30.912  1.00  0.00     0.023 A 
ATOM     77  C   UNL A   1      38.070  30.891  30.345  1.00  0.00     0.031 A 
ATOM     78  C   UNL A   1      39.128  29.951  32.295  1.00  0.00     0.131 A 
ATOM     79  C   UNL A   1      37.025  31.343  31.167  1.00  0.00     0.055 A 
ATOM     80  C   UNL A   1      38.061  30.357  33.099  1.00  0.00     0.041 A 
ATOM     81  F   UNL A   1      40.141  29.297  32.886  1.00  0.00    -0.206 F 
ATOM     82  C   UNL A   1      37.007  31.069  32.537  1.00  0.00     0.022 A 
BRANCH  79  83
ATOM     83  S   UNL A   1      35.723  32.370  30.432  1.00  0.00     0.124 S 
ATOM     84  O   UNL A   1      35.278  31.537  29.321  1.00  0.00    -0.237 OA
ATOM     85  O   UNL A   1      34.788  32.514  31.542  1.00  0.00    -0.237 OA
ATOM     86  O   UNL A   1      36.428  33.593  30.051  1.00  0.00    -0.744 OA
ENDBRANCH  79  83
ENDBRANCH  52  76
BRANCH  64  87
ATOM     87  C   UNL A   1      44.922  33.544  28.862  1.00  0.00     0.023 A 
ATOM     88  C   UNL A   1      45.715  33.944  29.952  1.00  0.00     0.031 A 
ATOM     89  C   UNL A   1      44.547  34.522  27.923  1.00  0.00     0.131 A 
ATOM     90  C   UNL A   1      46.064  35.295  30.104  1.00  0.00     0.055 A 
ATOM     91  C   UNL A   1      44.943  35.855  28.050  1.00  0.00     0.041 A 
ATOM     92  F   UNL A   1      43.789  34.197  26.863  1.00  0.00    -0.206 F 
ATOM     93  C   UNL A   1      45.695  36.249  29.152  1.00  0.00     0.022 A 
BRANCH  90  94
ATOM     94  S   UNL A   1      46.936  35.806  31.610  1.00  0.00     0.124 S 
ATOM     95  O   UNL A   1      47.975  36.683  31.078  1.00  0.00    -0.237 OA
ATOM     96  O   UNL A   1      45.881  36.461  32.376  1.00  0.00    -0.237 OA
ATOM     97  O   UNL A   1      47.418  34.547  32.173  1.00  0.00    -0.744 OA
ENDBRANCH  90  94
ENDBRANCH  64  87
ENDBRANCH  38  39
ENDBRANCH  31  33
ENDBRANCH  30  31
ENDBRANCH  29  30
ENDBRANCH   1  29
TORSDOF 19
ENDMDL
