MODEL 1
REMARK VINA RESULT:     -10.5      0.000      0.000
REMARK SMILES O=C(CNS(=O)(=O)c1ccc(F)c(F)c1)OCCOCCOC(=O)c1ccc(-c2c3nc(c(-c4cc(S(=O)(=O)[O-])ccc4F)c4ccc([nH]4)c(-c4cc(S(=O)(=O)[O-])ccc4F)c4nc(c(-c5cc(S(=O)(=O)[O-])ccc5F)c5ccc2[nH]5)C=C4)C=C3)cc1
REMARK SMILES IDX 19 1 18 2 17 3 16 4 2 5 1 6 3 7 4 8 5 10 6 11 7 12 8 13 9 14
REMARK SMILES IDX 15 15 10 16 13 17 11 18 14 19 12 20 20 21 21 22 22 23 23 24
REMARK SMILES IDX 24 25 25 26 26 27 87 28 27 29 86 30 28 31 29 32 30 33 80 34
REMARK SMILES IDX 31 35 85 36 79 37 81 38 32 39 84 40 78 41 77 42 33 44 65 45
REMARK SMILES IDX 45 46 64 47 46 48 49 49 63 50 82 51 47 52 48 53 62 55 83 56
REMARK SMILES IDX 50 57 34 58 35 59 43 60 36 61 42 62 44 63 41 64 37 65 38 66
REMARK SMILES IDX 39 67 40 68 66 69 67 70 75 71 68 72 74 73 76 74 73 75 69 76
REMARK SMILES IDX 70 77 71 78 72 79 51 80 52 81 60 82 53 83 59 84 61 85 58 86
REMARK SMILES IDX 54 87 55 88 56 89 57 90
REMARK H PARENT 4 9 81 43 49 54
REMARK Flexibility Score: inf
ROOT
ATOM      1  O   UNL A   1      34.467  21.051  25.875  1.00  0.00    -0.374 OA
ENDROOT
BRANCH   1   2
ATOM      2  C   UNL A   1      34.054  21.517  27.160  1.00  0.00     0.202 C 
BRANCH   2   3
ATOM      3  C   UNL A   1      33.334  22.858  27.116  1.00  0.00     0.261 C 
BRANCH   3   4
ATOM      4  O   UNL A   1      31.990  22.774  27.628  1.00  0.00    -0.462 OA
BRANCH   4   5
ATOM      5  C   UNL A   1      30.868  23.184  26.997  1.00  0.00     0.321 C 
ATOM      6  O   UNL A   1      29.782  23.066  27.568  1.00  0.00    -0.251 OA
BRANCH   5   7
ATOM      7  C   UNL A   1      30.924  23.753  25.598  1.00  0.00     0.221 C 
BRANCH   7   8
ATOM      8  N   UNL A   1      30.140  24.957  25.325  1.00  0.00    -0.200 NA
ATOM      9  H   UNL A   1      30.239  25.572  26.132  1.00  0.00     0.142 HD
BRANCH   8  10
ATOM     10  S   UNL A   1      30.522  25.853  23.968  1.00  0.00     0.241 S 
ATOM     11  O   UNL A   1      31.273  25.009  23.075  1.00  0.00    -0.207 OA
ATOM     12  O   UNL A   1      29.287  26.490  23.554  1.00  0.00    -0.207 OA
BRANCH  10  13
ATOM     13  C   UNL A   1      31.590  27.134  24.582  1.00  0.00     0.085 A 
ATOM     14  C   UNL A   1      32.892  26.823  24.996  1.00  0.00     0.025 A 
ATOM     15  C   UNL A   1      31.077  28.425  24.753  1.00  0.00     0.064 A 
ATOM     16  C   UNL A   1      33.687  27.816  25.579  1.00  0.00     0.044 A 
ATOM     17  C   UNL A   1      31.878  29.398  25.340  1.00  0.00     0.160 A 
ATOM     18  C   UNL A   1      33.171  29.097  25.753  1.00  0.00     0.158 A 
ATOM     19  F   UNL A   1      31.376  30.626  25.532  1.00  0.00    -0.204 F 
ATOM     20  F   UNL A   1      33.918  30.032  26.356  1.00  0.00    -0.204 F 
ENDBRANCH  10  13
ENDBRANCH   8  10
ENDBRANCH   7   8
ENDBRANCH   5   7
ENDBRANCH   4   5
ENDBRANCH   3   4
ENDBRANCH   2   3
ENDBRANCH   1   2
BRANCH   1  21
ATOM     21  C   UNL A   1      35.574  21.774  25.318  1.00  0.00     0.202 C 
BRANCH  21  22
ATOM     22  C   UNL A   1      36.938  21.083  25.455  1.00  0.00     0.261 C 
BRANCH  22  23
ATOM     23  O   UNL A   1      38.016  22.033  25.430  1.00  0.00    -0.460 OA
BRANCH  23  24
ATOM     24  C   UNL A   1      39.125  21.679  26.127  1.00  0.00     0.338 C 
ATOM     25  O   UNL A   1      39.664  20.585  26.134  1.00  0.00    -0.246 OA
BRANCH  24  26
ATOM     26  C   UNL A   1      39.741  22.898  26.693  1.00  0.00     0.060 A 
ATOM     27  C   UNL A   1      39.322  24.138  26.187  1.00  0.00     0.016 A 
ATOM     28  C   UNL A   1      40.680  22.840  27.726  1.00  0.00     0.016 A 
ATOM     29  C   UNL A   1      39.848  25.321  26.703  1.00  0.00     0.010 A 
ATOM     30  C   UNL A   1      41.215  24.026  28.233  1.00  0.00     0.010 A 
ATOM     31  C   UNL A   1      40.812  25.271  27.715  1.00  0.00    -0.014 A 
BRANCH  31  32
ATOM     32  C   UNL A   1      41.500  26.504  28.168  1.00  0.00     0.031 A 
ATOM     33  C   UNL A   1      40.686  27.574  28.836  1.00  0.00     0.074 A 
ATOM     34  C   UNL A   1      42.816  26.677  27.943  1.00  0.00     0.049 A 
ATOM     35  N   UNL A   1      41.030  28.788  29.173  1.00  0.00    -0.248 NA
ATOM     36  C   UNL A   1      39.290  27.231  29.158  1.00  0.00     0.031 C 
ATOM     37  C   UNL A   1      43.706  25.685  27.341  1.00  0.00     0.029 A 
ATOM     38  N   UNL A   1      43.627  27.762  28.166  1.00  0.00    -0.354 N 
ATOM     39  C   UNL A   1      39.889  29.365  29.720  1.00  0.00     0.074 A 
ATOM     40  C   UNL A   1      38.840  28.370  29.662  1.00  0.00     0.031 C 
ATOM     41  C   UNL A   1      44.933  26.220  27.210  1.00  0.00     0.029 A 
ATOM     42  C   UNL A   1      44.902  27.608  27.669  1.00  0.00     0.049 A 
ATOM     43  H   UNL A   1      43.325  28.572  28.637  1.00  0.00     0.167 HD
ATOM     44  C   UNL A   1      39.737  30.616  30.217  1.00  0.00     0.034 A 
ATOM     45  C   UNL A   1      45.906  28.501  27.550  1.00  0.00     0.034 A 
ATOM     46  C   UNL A   1      40.800  31.588  30.267  1.00  0.00     0.049 A 
ATOM     47  C   UNL A   1      45.682  29.916  28.039  1.00  0.00     0.074 A 
ATOM     48  C   UNL A   1      40.774  32.860  30.809  1.00  0.00     0.029 A 
ATOM     49  N   UNL A   1      42.070  31.406  29.737  1.00  0.00    -0.354 N 
ATOM     50  N   UNL A   1      44.613  30.436  28.599  1.00  0.00    -0.248 NA
ATOM     51  C   UNL A   1      46.795  30.861  27.880  1.00  0.00     0.031 C 
ATOM     52  C   UNL A   1      41.995  33.478  30.527  1.00  0.00     0.029 A 
ATOM     53  C   UNL A   1      42.817  32.562  29.889  1.00  0.00     0.049 A 
ATOM     54  H   UNL A   1      42.392  30.576  29.315  1.00  0.00     0.167 HD
ATOM     55  C   UNL A   1      44.939  31.761  28.880  1.00  0.00     0.074 A 
ATOM     56  C   UNL A   1      46.307  31.953  28.449  1.00  0.00     0.031 C 
ATOM     57  C   UNL A   1      44.178  32.734  29.443  1.00  0.00     0.034 A 
BRANCH  44  58
ATOM     58  C   UNL A   1      38.365  31.030  30.685  1.00  0.00     0.023 A 
ATOM     59  C   UNL A   1      37.464  31.713  29.852  1.00  0.00     0.031 A 
ATOM     60  C   UNL A   1      37.948  30.712  31.991  1.00  0.00     0.131 A 
ATOM     61  C   UNL A   1      36.207  32.091  30.348  1.00  0.00     0.055 A 
ATOM     62  C   UNL A   1      36.671  31.031  32.455  1.00  0.00     0.041 A 
ATOM     63  F   UNL A   1      38.778  30.083  32.838  1.00  0.00    -0.206 F 
ATOM     64  C   UNL A   1      35.795  31.731  31.634  1.00  0.00     0.022 A 
BRANCH  61  65
ATOM     65  S   UNL A   1      35.149  33.149  29.321  1.00  0.00     0.124 S 
ATOM     66  O   UNL A   1      33.966  33.293  30.167  1.00  0.00    -0.237 OA
ATOM     67  O   UNL A   1      35.966  34.347  29.157  1.00  0.00    -0.237 OA
ATOM     68  O   UNL A   1      34.948  32.360  28.109  1.00  0.00    -0.744 OA
ENDBRANCH  61  65
ENDBRANCH  44  58
BRANCH  45  69
ATOM     69  C   UNL A   1      47.184  28.131  26.872  1.00  0.00     0.023 A 
ATOM     70  C   UNL A   1      47.292  28.133  25.472  1.00  0.00     0.031 A 
ATOM     71  C   UNL A   1      48.294  27.681  27.613  1.00  0.00     0.131 A 
ATOM     72  C   UNL A   1      48.453  27.635  24.857  1.00  0.00     0.055 A 
ATOM     73  C   UNL A   1      49.471  27.250  26.998  1.00  0.00     0.041 A 
ATOM     74  F   UNL A   1      48.247  27.649  28.954  1.00  0.00    -0.206 F 
ATOM     75  C   UNL A   1      49.548  27.208  25.610  1.00  0.00     0.022 A 
BRANCH  72  76
ATOM     76  S   UNL A   1      48.459  27.432  23.054  1.00  0.00     0.124 S 
ATOM     77  O   UNL A   1      49.784  27.933  22.705  1.00  0.00    -0.237 OA
ATOM     78  O   UNL A   1      48.259  25.994  22.912  1.00  0.00    -0.237 OA
ATOM     79  O   UNL A   1      47.340  28.263  22.615  1.00  0.00    -0.744 OA
ENDBRANCH  72  76
ENDBRANCH  45  69
BRANCH  57  80
ATOM     80  C   UNL A   1      44.826  34.081  29.658  1.00  0.00     0.023 A 
ATOM     81  C   UNL A   1      44.728  35.108  28.704  1.00  0.00     0.031 A 
ATOM     82  C   UNL A   1      45.536  34.342  30.843  1.00  0.00     0.131 A 
ATOM     83  C   UNL A   1      45.368  36.335  28.932  1.00  0.00     0.055 A 
ATOM     84  C   UNL A   1      46.119  35.586  31.092  1.00  0.00     0.041 A 
ATOM     85  F   UNL A   1      45.663  33.396  31.788  1.00  0.00    -0.206 F 
ATOM     86  C   UNL A   1      46.044  36.587  30.128  1.00  0.00     0.022 A 
BRANCH  83  87
ATOM     87  S   UNL A   1      45.366  37.577  27.611  1.00  0.00     0.124 S 
ATOM     88  O   UNL A   1      46.343  37.026  26.676  1.00  0.00    -0.237 OA
ATOM     89  O   UNL A   1      43.978  37.559  27.165  1.00  0.00    -0.237 OA
ATOM     90  O   UNL A   1      45.783  38.802  28.292  1.00  0.00    -0.744 OA
ENDBRANCH  83  87
ENDBRANCH  57  80
ENDBRANCH  31  32
ENDBRANCH  24  26
ENDBRANCH  23  24
ENDBRANCH  22  23
ENDBRANCH  21  22
ENDBRANCH   1  21
TORSDOF 20
ENDMDL
MODEL 2
REMARK VINA RESULT:     -10.5      5.266      9.986
REMARK SMILES O=C(CNS(=O)(=O)c1ccc(F)c(F)c1)OCCOCCOC(=O)c1ccc(-c2c3nc(c(-c4cc(S(=O)(=O)[O-])ccc4F)c4ccc([nH]4)c(-c4cc(S(=O)(=O)[O-])ccc4F)c4nc(c(-c5cc(S(=O)(=O)[O-])ccc5F)c5ccc2[nH]5)C=C4)C=C3)cc1
REMARK SMILES IDX 19 1 18 2 17 3 16 4 2 5 1 6 3 7 4 8 5 10 6 11 7 12 8 13 9 14
REMARK SMILES IDX 15 15 10 16 13 17 11 18 14 19 12 20 20 21 21 22 22 23 23 24
REMARK SMILES IDX 24 25 25 26 26 27 87 28 27 29 86 30 28 31 29 32 30 33 80 34
REMARK SMILES IDX 31 35 85 36 79 37 81 38 32 39 84 40 78 41 77 42 33 44 65 45
REMARK SMILES IDX 45 46 64 47 46 48 49 49 63 50 82 51 47 52 48 53 62 55 83 56
REMARK SMILES IDX 50 57 34 58 35 59 43 60 36 61 42 62 44 63 41 64 37 65 38 66
REMARK SMILES IDX 39 67 40 68 66 69 67 70 75 71 68 72 74 73 76 74 73 75 69 76
REMARK SMILES IDX 70 77 71 78 72 79 51 80 52 81 60 82 53 83 59 84 61 85 58 86
REMARK SMILES IDX 54 87 55 88 56 89 57 90
REMARK H PARENT 4 9 81 43 49 54
REMARK Flexibility Score: inf
ROOT
ATOM      1  O   UNL A   1      32.848  27.808  25.004  1.00  0.00    -0.374 OA
ENDROOT
BRANCH   1   2
ATOM      2  C   UNL A   1      33.030  26.982  26.154  1.00  0.00     0.202 C 
BRANCH   2   3
ATOM      3  C   UNL A   1      31.805  26.146  26.500  1.00  0.00     0.261 C 
BRANCH   3   4
ATOM      4  O   UNL A   1      31.960  24.765  26.118  1.00  0.00    -0.462 OA
BRANCH   4   5
ATOM      5  C   UNL A   1      31.133  24.060  25.316  1.00  0.00     0.321 C 
ATOM      6  O   UNL A   1      30.391  24.665  24.540  1.00  0.00    -0.251 OA
BRANCH   5   7
ATOM      7  C   UNL A   1      31.083  22.550  25.380  1.00  0.00     0.221 C 
BRANCH   7   8
ATOM      8  N   UNL A   1      32.155  21.868  26.103  1.00  0.00    -0.200 NA
ATOM      9  H   UNL A   1      31.715  21.211  26.747  1.00  0.00     0.142 HD
BRANCH   8  10
ATOM     10  S   UNL A   1      33.282  21.012  25.215  1.00  0.00     0.241 S 
ATOM     11  O   UNL A   1      33.401  19.700  25.798  1.00  0.00    -0.207 OA
ATOM     12  O   UNL A   1      32.913  21.195  23.825  1.00  0.00    -0.207 OA
BRANCH  10  13
ATOM     13  C   UNL A   1      34.800  21.897  25.475  1.00  0.00     0.085 A 
ATOM     14  C   UNL A   1      34.771  23.264  25.780  1.00  0.00     0.025 A 
ATOM     15  C   UNL A   1      36.017  21.240  25.258  1.00  0.00     0.064 A 
ATOM     16  C   UNL A   1      35.972  23.976  25.875  1.00  0.00     0.044 A 
ATOM     17  C   UNL A   1      37.201  21.964  25.350  1.00  0.00     0.160 A 
ATOM     18  C   UNL A   1      37.180  23.321  25.653  1.00  0.00     0.158 A 
ATOM     19  F   UNL A   1      38.364  21.343  25.111  1.00  0.00    -0.204 F 
ATOM     20  F   UNL A   1      38.324  24.017  25.696  1.00  0.00    -0.204 F 
ENDBRANCH  10  13
ENDBRANCH   8  10
ENDBRANCH   7   8
ENDBRANCH   5   7
ENDBRANCH   4   5
ENDBRANCH   3   4
ENDBRANCH   2   3
ENDBRANCH   1   2
BRANCH   1  21
ATOM     21  C   UNL A   1      31.601  28.517  24.983  1.00  0.00     0.202 C 
BRANCH  21  22
ATOM     22  C   UNL A   1      31.628  29.902  25.647  1.00  0.00     0.261 C 
BRANCH  22  23
ATOM     23  O   UNL A   1      32.974  30.340  25.897  1.00  0.00    -0.460 OA
BRANCH  23  24
ATOM     24  C   UNL A   1      33.112  31.281  26.865  1.00  0.00     0.338 C 
ATOM     25  O   UNL A   1      32.252  32.045  27.269  1.00  0.00    -0.246 OA
BRANCH  24  26
ATOM     26  C   UNL A   1      34.408  31.074  27.547  1.00  0.00     0.060 A 
ATOM     27  C   UNL A   1      34.727  29.774  27.965  1.00  0.00     0.016 A 
ATOM     28  C   UNL A   1      35.314  32.119  27.742  1.00  0.00     0.016 A 
ATOM     29  C   UNL A   1      35.948  29.516  28.588  1.00  0.00     0.010 A 
ATOM     30  C   UNL A   1      36.531  31.861  28.378  1.00  0.00     0.010 A 
ATOM     31  C   UNL A   1      36.848  30.562  28.815  1.00  0.00    -0.014 A 
BRANCH  31  32
ATOM     32  C   UNL A   1      38.077  30.343  29.614  1.00  0.00     0.031 A 
ATOM     33  C   UNL A   1      39.089  29.352  29.115  1.00  0.00     0.074 A 
ATOM     34  C   UNL A   1      38.259  30.986  30.783  1.00  0.00     0.049 A 
ATOM     35  N   UNL A   1      40.152  28.882  29.710  1.00  0.00    -0.248 NA
ATOM     36  C   UNL A   1      38.863  28.808  27.765  1.00  0.00     0.031 C 
ATOM     37  C   UNL A   1      37.361  31.998  31.338  1.00  0.00     0.029 A 
ATOM     38  N   UNL A   1      39.245  30.860  31.730  1.00  0.00    -0.354 N 
ATOM     39  C   UNL A   1      40.708  27.968  28.822  1.00  0.00     0.074 A 
ATOM     40  C   UNL A   1      39.859  27.943  27.651  1.00  0.00     0.031 C 
ATOM     41  C   UNL A   1      37.819  32.376  32.544  1.00  0.00     0.029 A 
ATOM     42  C   UNL A   1      39.011  31.594  32.871  1.00  0.00     0.049 A 
ATOM     43  H   UNL A   1      40.044  30.298  31.604  1.00  0.00     0.167 HD
ATOM     44  C   UNL A   1      41.824  27.216  28.980  1.00  0.00     0.034 A 
ATOM     45  C   UNL A   1      39.653  31.594  34.057  1.00  0.00     0.034 A 
ATOM     46  C   UNL A   1      42.655  27.263  30.157  1.00  0.00     0.049 A 
ATOM     47  C   UNL A   1      40.849  30.682  34.235  1.00  0.00     0.074 A 
ATOM     48  C   UNL A   1      43.842  26.593  30.395  1.00  0.00     0.029 A 
ATOM     49  N   UNL A   1      42.377  28.001  31.299  1.00  0.00    -0.354 N 
ATOM     50  N   UNL A   1      41.394  29.857  33.370  1.00  0.00    -0.248 NA
ATOM     51  C   UNL A   1      41.512  30.700  35.546  1.00  0.00     0.031 C 
ATOM     52  C   UNL A   1      44.233  26.855  31.711  1.00  0.00     0.029 A 
ATOM     53  C   UNL A   1      43.339  27.759  32.265  1.00  0.00     0.049 A 
ATOM     54  H   UNL A   1      41.609  28.607  31.406  1.00  0.00     0.167 HD
ATOM     55  C   UNL A   1      42.478  29.280  34.027  1.00  0.00     0.074 A 
ATOM     56  C   UNL A   1      42.522  29.866  35.349  1.00  0.00     0.031 C 
ATOM     57  C   UNL A   1      43.359  28.349  33.582  1.00  0.00     0.034 A 
BRANCH  44  58
ATOM     58  C   UNL A   1      42.176  26.234  27.893  1.00  0.00     0.023 A 
ATOM     59  C   UNL A   1      41.731  24.902  27.914  1.00  0.00     0.031 A 
ATOM     60  C   UNL A   1      42.959  26.653  26.801  1.00  0.00     0.131 A 
ATOM     61  C   UNL A   1      42.106  24.026  26.883  1.00  0.00     0.055 A 
ATOM     62  C   UNL A   1      43.271  25.795  25.746  1.00  0.00     0.041 A 
ATOM     63  F   UNL A   1      43.433  27.907  26.743  1.00  0.00    -0.206 F 
ATOM     64  C   UNL A   1      42.850  24.470  25.787  1.00  0.00     0.022 A 
BRANCH  61  65
ATOM     65  S   UNL A   1      41.691  22.267  27.042  1.00  0.00     0.124 S 
ATOM     66  O   UNL A   1      40.294  22.330  27.469  1.00  0.00    -0.237 OA
ATOM     67  O   UNL A   1      41.923  21.764  25.692  1.00  0.00    -0.237 OA
ATOM     68  O   UNL A   1      42.624  21.784  28.057  1.00  0.00    -0.744 OA
ENDBRANCH  61  65
ENDBRANCH  44  58
BRANCH  45  69
ATOM     69  C   UNL A   1      39.148  32.408  35.202  1.00  0.00     0.023 A 
ATOM     70  C   UNL A   1      39.597  33.721  35.414  1.00  0.00     0.031 A 
ATOM     71  C   UNL A   1      38.275  31.853  36.157  1.00  0.00     0.131 A 
ATOM     72  C   UNL A   1      39.226  34.410  36.581  1.00  0.00     0.055 A 
ATOM     73  C   UNL A   1      37.855  32.567  37.281  1.00  0.00     0.041 A 
ATOM     74  F   UNL A   1      37.818  30.599  36.012  1.00  0.00    -0.206 F 
ATOM     75  C   UNL A   1      38.346  33.848  37.508  1.00  0.00     0.022 A 
BRANCH  72  76
ATOM     76  S   UNL A   1      40.015  36.006  36.933  1.00  0.00     0.124 S 
ATOM     77  O   UNL A   1      41.365  35.592  37.301  1.00  0.00    -0.237 OA
ATOM     78  O   UNL A   1      39.883  36.696  35.654  1.00  0.00    -0.237 OA
ATOM     79  O   UNL A   1      39.209  36.551  38.022  1.00  0.00    -0.744 OA
ENDBRANCH  72  76
ENDBRANCH  45  69
BRANCH  57  80
ATOM     80  C   UNL A   1      44.468  27.940  34.521  1.00  0.00     0.023 A 
ATOM     81  C   UNL A   1      44.237  27.068  35.599  1.00  0.00     0.031 A 
ATOM     82  C   UNL A   1      45.775  28.418  34.323  1.00  0.00     0.131 A 
ATOM     83  C   UNL A   1      45.290  26.735  36.464  1.00  0.00     0.055 A 
ATOM     84  C   UNL A   1      46.831  28.034  35.151  1.00  0.00     0.041 A 
ATOM     85  F   UNL A   1      46.051  29.256  33.311  1.00  0.00    -0.206 F 
ATOM     86  C   UNL A   1      46.589  27.195  36.234  1.00  0.00     0.022 A 
BRANCH  83  87
ATOM     87  S   UNL A   1      44.925  25.746  37.939  1.00  0.00     0.124 S 
ATOM     88  O   UNL A   1      46.128  25.946  38.742  1.00  0.00    -0.237 OA
ATOM     89  O   UNL A   1      43.710  26.373  38.447  1.00  0.00    -0.237 OA
ATOM     90  O   UNL A   1      44.750  24.394  37.411  1.00  0.00    -0.744 OA
ENDBRANCH  83  87
ENDBRANCH  57  80
ENDBRANCH  31  32
ENDBRANCH  24  26
ENDBRANCH  23  24
ENDBRANCH  22  23
ENDBRANCH  21  22
ENDBRANCH   1  21
TORSDOF 20
ENDMDL
MODEL 3
REMARK VINA RESULT:     -10.3      2.271      2.737
REMARK SMILES O=C(CNS(=O)(=O)c1ccc(F)c(F)c1)OCCOCCOC(=O)c1ccc(-c2c3nc(c(-c4cc(S(=O)(=O)[O-])ccc4F)c4ccc([nH]4)c(-c4cc(S(=O)(=O)[O-])ccc4F)c4nc(c(-c5cc(S(=O)(=O)[O-])ccc5F)c5ccc2[nH]5)C=C4)C=C3)cc1
REMARK SMILES IDX 19 1 18 2 17 3 16 4 2 5 1 6 3 7 4 8 5 10 6 11 7 12 8 13 9 14
REMARK SMILES IDX 15 15 10 16 13 17 11 18 14 19 12 20 20 21 21 22 22 23 23 24
REMARK SMILES IDX 24 25 25 26 26 27 87 28 27 29 86 30 28 31 29 32 30 33 80 34
REMARK SMILES IDX 31 35 85 36 79 37 81 38 32 39 84 40 78 41 77 42 33 44 65 45
REMARK SMILES IDX 45 46 64 47 46 48 49 49 63 50 82 51 47 52 48 53 62 55 83 56
REMARK SMILES IDX 50 57 34 58 35 59 43 60 36 61 42 62 44 63 41 64 37 65 38 66
REMARK SMILES IDX 39 67 40 68 66 69 67 70 75 71 68 72 74 73 76 74 73 75 69 76
REMARK SMILES IDX 70 77 71 78 72 79 51 80 52 81 60 82 53 83 59 84 61 85 58 86
REMARK SMILES IDX 54 87 55 88 56 89 57 90
REMARK H PARENT 4 9 81 43 49 54
REMARK Flexibility Score: inf
ROOT
ATOM      1  O   UNL A   1      33.872  21.654  24.754  1.00  0.00    -0.374 OA
ENDROOT
BRANCH   1   2
ATOM      2  C   UNL A   1      32.710  21.129  24.111  1.00  0.00     0.202 C 
BRANCH   2   3
ATOM      3  C   UNL A   1      32.128  22.059  23.057  1.00  0.00     0.261 C 
BRANCH   3   4
ATOM      4  O   UNL A   1      32.301  23.449  23.397  1.00  0.00    -0.462 OA
BRANCH   4   5
ATOM      5  C   UNL A   1      31.501  24.469  23.020  1.00  0.00     0.321 C 
ATOM      6  O   UNL A   1      30.292  24.400  23.248  1.00  0.00    -0.251 OA
BRANCH   5   7
ATOM      7  C   UNL A   1      32.061  25.674  22.299  1.00  0.00     0.221 C 
BRANCH   7   8
ATOM      8  N   UNL A   1      31.264  26.900  22.308  1.00  0.00    -0.200 NA
ATOM      9  H   UNL A   1      30.302  26.634  22.514  1.00  0.00     0.142 HD
BRANCH   8  10
ATOM     10  S   UNL A   1      31.688  28.105  23.385  1.00  0.00     0.241 S 
ATOM     11  O   UNL A   1      31.544  27.579  24.718  1.00  0.00    -0.207 OA
ATOM     12  O   UNL A   1      32.951  28.635  22.909  1.00  0.00    -0.207 OA
BRANCH  10  13
ATOM     13  C   UNL A   1      30.462  29.365  23.128  1.00  0.00     0.085 A 
ATOM     14  C   UNL A   1      30.212  30.315  24.128  1.00  0.00     0.025 A 
ATOM     15  C   UNL A   1      29.677  29.326  21.971  1.00  0.00     0.064 A 
ATOM     16  C   UNL A   1      29.172  31.235  23.963  1.00  0.00     0.044 A 
ATOM     17  C   UNL A   1      28.642  30.244  21.824  1.00  0.00     0.160 A 
ATOM     18  C   UNL A   1      28.389  31.189  22.812  1.00  0.00     0.158 A 
ATOM     19  F   UNL A   1      27.870  30.186  20.731  1.00  0.00    -0.204 F 
ATOM     20  F   UNL A   1      27.362  32.040  22.680  1.00  0.00    -0.204 F 
ENDBRANCH  10  13
ENDBRANCH   8  10
ENDBRANCH   7   8
ENDBRANCH   5   7
ENDBRANCH   4   5
ENDBRANCH   3   4
ENDBRANCH   2   3
ENDBRANCH   1   2
BRANCH   1  21
ATOM     21  C   UNL A   1      34.914  20.690  24.959  1.00  0.00     0.202 C 
BRANCH  21  22
ATOM     22  C   UNL A   1      36.329  21.175  24.610  1.00  0.00     0.261 C 
BRANCH  22  23
ATOM     23  O   UNL A   1      37.039  21.613  25.780  1.00  0.00    -0.460 OA
BRANCH  23  24
ATOM     24  C   UNL A   1      38.353  21.277  25.827  1.00  0.00     0.338 C 
ATOM     25  O   UNL A   1      38.875  20.300  25.316  1.00  0.00    -0.246 OA
BRANCH  24  26
ATOM     26  C   UNL A   1      39.116  22.414  26.383  1.00  0.00     0.060 A 
ATOM     27  C   UNL A   1      38.688  23.710  26.060  1.00  0.00     0.016 A 
ATOM     28  C   UNL A   1      40.205  22.225  27.238  1.00  0.00     0.016 A 
ATOM     29  C   UNL A   1      39.352  24.820  26.580  1.00  0.00     0.010 A 
ATOM     30  C   UNL A   1      40.877  23.339  27.748  1.00  0.00     0.010 A 
ATOM     31  C   UNL A   1      40.463  24.640  27.411  1.00  0.00    -0.014 A 
BRANCH  31  32
ATOM     32  C   UNL A   1      41.279  25.799  27.845  1.00  0.00     0.031 A 
ATOM     33  C   UNL A   1      40.599  26.920  28.578  1.00  0.00     0.074 A 
ATOM     34  C   UNL A   1      42.591  25.864  27.550  1.00  0.00     0.049 A 
ATOM     35  N   UNL A   1      41.065  28.092  28.916  1.00  0.00    -0.248 NA
ATOM     36  C   UNL A   1      39.198  26.691  28.971  1.00  0.00     0.031 C 
ATOM     37  C   UNL A   1      43.357  24.812  26.881  1.00  0.00     0.029 A 
ATOM     38  N   UNL A   1      43.504  26.869  27.746  1.00  0.00    -0.354 N 
ATOM     39  C   UNL A   1      40.010  28.752  29.536  1.00  0.00     0.074 A 
ATOM     40  C   UNL A   1      38.877  27.852  29.520  1.00  0.00     0.031 C 
ATOM     41  C   UNL A   1      44.617  25.243  26.691  1.00  0.00     0.029 A 
ATOM     42  C   UNL A   1      44.732  26.618  27.175  1.00  0.00     0.049 A 
ATOM     43  H   UNL A   1      43.300  27.692  28.248  1.00  0.00     0.167 HD
ATOM     44  C   UNL A   1      39.995  30.000  30.064  1.00  0.00     0.034 A 
ATOM     45  C   UNL A   1      45.802  27.424  27.015  1.00  0.00     0.034 A 
ATOM     46  C   UNL A   1      41.140  30.875  30.070  1.00  0.00     0.049 A 
ATOM     47  C   UNL A   1      45.729  28.841  27.542  1.00  0.00     0.074 A 
ATOM     48  C   UNL A   1      41.254  32.133  30.635  1.00  0.00     0.029 A 
ATOM     49  N   UNL A   1      42.358  30.597  29.467  1.00  0.00    -0.354 N 
ATOM     50  N   UNL A   1      44.741  29.439  28.170  1.00  0.00    -0.248 NA
ATOM     51  C   UNL A   1      46.909  29.691  27.336  1.00  0.00     0.031 C 
ATOM     52  C   UNL A   1      42.507  32.650  30.296  1.00  0.00     0.029 A 
ATOM     53  C   UNL A   1      43.210  31.681  29.596  1.00  0.00     0.049 A 
ATOM     54  H   UNL A   1      42.583  29.753  29.013  1.00  0.00     0.167 HD
ATOM     55  C   UNL A   1      45.196  30.724  28.456  1.00  0.00     0.074 A 
ATOM     56  C   UNL A   1      46.550  30.808  27.951  1.00  0.00     0.031 C 
ATOM     57  C   UNL A   1      44.555  31.746  29.078  1.00  0.00     0.034 A 
BRANCH  44  58
ATOM     58  C   UNL A   1      38.692  30.520  30.615  1.00  0.00     0.023 A 
ATOM     59  C   UNL A   1      37.777  31.235  29.826  1.00  0.00     0.031 A 
ATOM     60  C   UNL A   1      38.356  30.272  31.959  1.00  0.00     0.131 A 
ATOM     61  C   UNL A   1      36.587  31.712  30.398  1.00  0.00     0.055 A 
ATOM     62  C   UNL A   1      37.140  30.690  32.503  1.00  0.00     0.041 A 
ATOM     63  F   UNL A   1      39.205  29.616  32.766  1.00  0.00    -0.206 F 
ATOM     64  C   UNL A   1      36.251  31.421  31.724  1.00  0.00     0.022 A 
BRANCH  61  65
ATOM     65  S   UNL A   1      35.526  32.805  29.414  1.00  0.00     0.124 S 
ATOM     66  O   UNL A   1      36.295  34.047  29.419  1.00  0.00    -0.237 OA
ATOM     67  O   UNL A   1      35.451  32.106  28.136  1.00  0.00    -0.237 OA
ATOM     68  O   UNL A   1      34.279  32.849  30.175  1.00  0.00    -0.744 OA
ENDBRANCH  61  65
ENDBRANCH  44  58
BRANCH  45  69
ATOM     69  C   UNL A   1      47.004  26.961  26.260  1.00  0.00     0.023 A 
ATOM     70  C   UNL A   1      48.052  26.284  26.905  1.00  0.00     0.031 A 
ATOM     71  C   UNL A   1      47.165  27.268  24.896  1.00  0.00     0.131 A 
ATOM     72  C   UNL A   1      49.236  25.996  26.206  1.00  0.00     0.055 A 
ATOM     73  C   UNL A   1      48.317  26.919  24.188  1.00  0.00     0.041 A 
ATOM     74  F   UNL A   1      46.201  27.920  24.228  1.00  0.00    -0.206 F 
ATOM     75  C   UNL A   1      49.370  26.294  24.849  1.00  0.00     0.022 A 
BRANCH  72  76
ATOM     76  S   UNL A   1      50.650  25.339  27.133  1.00  0.00     0.124 S 
ATOM     77  O   UNL A   1      51.073  26.510  27.894  1.00  0.00    -0.237 OA
ATOM     78  O   UNL A   1      50.034  24.264  27.903  1.00  0.00    -0.237 OA
ATOM     79  O   UNL A   1      51.572  24.907  26.086  1.00  0.00    -0.744 OA
ENDBRANCH  72  76
ENDBRANCH  45  69
BRANCH  57  80
ATOM     80  C   UNL A   1      45.327  33.027  29.280  1.00  0.00     0.023 A 
ATOM     81  C   UNL A   1      45.373  34.025  28.292  1.00  0.00     0.031 A 
ATOM     82  C   UNL A   1      46.015  33.255  30.485  1.00  0.00     0.131 A 
ATOM     83  C   UNL A   1      46.126  35.188  28.510  1.00  0.00     0.055 A 
ATOM     84  C   UNL A   1      46.711  34.441  30.721  1.00  0.00     0.041 A 
ATOM     85  F   UNL A   1      46.007  32.334  31.463  1.00  0.00    -0.206 F 
ATOM     86  C   UNL A   1      46.777  35.411  29.726  1.00  0.00     0.022 A 
BRANCH  83  87
ATOM     87  S   UNL A   1      46.303  36.379  27.154  1.00  0.00     0.124 S 
ATOM     88  O   UNL A   1      47.745  36.608  27.139  1.00  0.00    -0.237 OA
ATOM     89  O   UNL A   1      45.764  35.642  26.017  1.00  0.00    -0.237 OA
ATOM     90  O   UNL A   1      45.499  37.519  27.592  1.00  0.00    -0.744 OA
ENDBRANCH  83  87
ENDBRANCH  57  80
ENDBRANCH  31  32
ENDBRANCH  24  26
ENDBRANCH  23  24
ENDBRANCH  22  23
ENDBRANCH  21  22
ENDBRANCH   1  21
TORSDOF 20
ENDMDL
