MODEL 1
REMARK VINA RESULT:     -12.3      0.000      0.000
REMARK SMILES Cc1ccc(S(=O)(=O)n2cc(C(=O)C(=O)N[C@@H](Cc3c[nH]c4ccccc34)C(=O)NCC(=O)OCCOCCOC(=O)c3ccc(-c4c5nc(c(-c6cc(S(=O)(=O)[O-])ccc6F)c6ccc([nH]6)c(-c6cc(S(=O)(=O)[O-])ccc6F)c6nc(c(-c7cc(S(=O)(=O)[O-])ccc7F)c7ccc4[nH]7)C=C6)C=C5)cc3)c3ccccc32)cc1
REMARK SMILES IDX 35 1 34 2 32 3 33 4 31 5 30 6 28 7 29 8 17 10 16 11 14 12
REMARK SMILES IDX 15 13 12 15 13 16 11 17 9 18 10 19 111 20 106 21 110 22
REMARK SMILES IDX 107 23 109 24 108 25 6 26 7 27 8 28 5 29 1 30 2 31 3 32
REMARK SMILES IDX 113 33 4 34 112 35 18 36 19 37 20 38 27 39 21 40 22 41 26 42
REMARK SMILES IDX 23 44 25 45 24 46 36 47 37 48 38 49 39 50 40 51 41 52 42 53
REMARK SMILES IDX 43 54 44 55 105 56 45 57 104 58 46 59 47 60 48 61 98 62
REMARK SMILES IDX 49 63 103 64 97 65 99 66 50 67 102 68 96 69 95 70 51 72
REMARK SMILES IDX 83 73 63 74 82 75 64 76 67 77 81 78 100 79 65 80 66 81 80 83
REMARK SMILES IDX 101 84 68 85 52 86 53 87 61 88 54 89 60 90 62 91 59 92 55 93
REMARK SMILES IDX 56 94 57 95 58 96 84 97 85 98 93 99 86 100 92 101 94 102
REMARK SMILES IDX 91 103 87 104 88 105 89 106 90 107 69 108 70 109 78 110
REMARK SMILES IDX 71 111 77 112 79 113 76 114 72 115 73 116 74 117 75 118
REMARK H PARENT 30 9 16 14 21 43 99 71 67 82
REMARK Flexibility Score: inf
ROOT
ATOM      1  C   UNL A   1      39.452  21.586  25.846  1.00  0.00     0.261 C 
ENDROOT
BRANCH   1   2
ATOM      2  O   UNL A   1      38.887  22.879  26.103  1.00  0.00    -0.462 OA
BRANCH   2   3
ATOM      3  C   UNL A   1      37.611  23.009  25.674  1.00  0.00     0.325 C 
ATOM      4  O   UNL A   1      36.755  23.704  26.204  1.00  0.00    -0.250 OA
BRANCH   3   5
ATOM      5  C   UNL A   1      37.398  22.240  24.398  1.00  0.00     0.238 C 
BRANCH   5   6
ATOM      6  N   UNL A   1      36.347  22.640  23.479  1.00  0.00    -0.343 N 
ATOM      7  C   UNL A   1      34.996  22.671  23.627  1.00  0.00     0.243 C 
ATOM      8  O   UNL A   1      34.433  23.568  22.980  1.00  0.00    -0.273 OA
ATOM      9  H   UNL A   1      36.668  22.939  22.598  1.00  0.00     0.164 HD
BRANCH   7  10
ATOM     10  C   UNL A   1      34.176  21.803  24.629  1.00  0.00     0.176 C 
BRANCH  10  11
ATOM     11  N   UNL A   1      32.697  21.861  24.543  1.00  0.00    -0.337 N 
ATOM     12  C   UNL A   1      31.772  22.587  25.327  1.00  0.00     0.293 C 
ATOM     13  O   UNL A   1      30.593  22.231  25.336  1.00  0.00    -0.265 OA
ATOM     14  H   UNL A   1      32.298  21.309  23.832  1.00  0.00     0.164 HD
BRANCH  12  15
ATOM     15  C   UNL A   1      32.202  23.746  26.266  1.00  0.00     0.252 C 
ATOM     16  O   UNL A   1      32.323  23.454  27.459  1.00  0.00    -0.283 OA
BRANCH  15  17
ATOM     17  C   UNL A   1      32.223  25.201  25.878  1.00  0.00     0.054 A 
ATOM     18  N   UNL A   1      32.643  27.412  25.564  1.00  0.00    -0.240 N 
ATOM     19  C   UNL A   1      32.384  26.441  26.541  1.00  0.00     0.117 A 
ATOM     20  C   UNL A   1      32.737  26.737  24.330  1.00  0.00     0.065 A 
ATOM     21  C   UNL A   1      32.005  25.576  24.515  1.00  0.00     0.012 A 
ATOM     22  C   UNL A   1      33.072  27.200  23.040  1.00  0.00     0.028 A 
ATOM     23  C   UNL A   1      31.369  25.003  23.395  1.00  0.00     0.011 A 
ATOM     24  C   UNL A   1      32.377  26.662  21.960  1.00  0.00     0.002 A 
ATOM     25  C   UNL A   1      31.491  25.611  22.143  1.00  0.00     0.001 A 
BRANCH  18  26
ATOM     26  S   UNL A   1      32.074  29.030  25.291  1.00  0.00     0.268 S 
ATOM     27  O   UNL A   1      33.210  29.631  24.601  1.00  0.00    -0.201 OA
ATOM     28  O   UNL A   1      31.775  29.408  26.674  1.00  0.00    -0.201 OA
BRANCH  26  29
ATOM     29  C   UNL A   1      30.719  29.852  24.534  1.00  0.00     0.088 A 
ATOM     30  C   UNL A   1      27.891  31.167  21.512  1.00  0.00     0.044 C 
ATOM     31  C   UNL A   1      28.808  30.725  22.618  1.00  0.00    -0.051 A 
ATOM     32  C   UNL A   1      29.324  29.446  22.522  1.00  0.00     0.005 A 
ATOM     33  C   UNL A   1      29.218  31.543  23.699  1.00  0.00     0.005 A 
ATOM     34  C   UNL A   1      30.240  29.027  23.469  1.00  0.00     0.022 A 
ATOM     35  C   UNL A   1      30.183  31.118  24.665  1.00  0.00     0.022 A 
ENDBRANCH  26  29
ENDBRANCH  18  26
ENDBRANCH  15  17
ENDBRANCH  12  15
ENDBRANCH  10  11
BRANCH  10  36
ATOM     36  C   UNL A   1      34.748  20.369  24.888  1.00  0.00     0.072 C 
BRANCH  36  37
ATOM     37  C   UNL A   1      33.912  19.157  24.578  1.00  0.00    -0.020 A 
ATOM     38  C   UNL A   1      32.616  19.152  24.079  1.00  0.00     0.087 A 
ATOM     39  C   UNL A   1      34.270  17.779  24.748  1.00  0.00     0.003 A 
ATOM     40  N   UNL A   1      32.141  17.865  24.110  1.00  0.00    -0.361 N 
ATOM     41  C   UNL A   1      33.104  17.019  24.599  1.00  0.00     0.046 A 
ATOM     42  C   UNL A   1      35.450  17.118  25.113  1.00  0.00     0.010 A 
ATOM     43  H   UNL A   1      31.240  17.588  23.824  1.00  0.00     0.166 HD
ATOM     44  C   UNL A   1      33.020  15.667  24.956  1.00  0.00     0.026 A 
ATOM     45  C   UNL A   1      35.397  15.745  25.354  1.00  0.00     0.001 A 
ATOM     46  C   UNL A   1      34.195  15.045  25.360  1.00  0.00     0.002 A 
ENDBRANCH  36  37
ENDBRANCH  10  36
ENDBRANCH   7  10
ENDBRANCH   5   6
ENDBRANCH   3   5
ENDBRANCH   2   3
ENDBRANCH   1   2
BRANCH   1  47
ATOM     47  C   UNL A   1      40.707  21.296  26.628  1.00  0.00     0.202 C 
BRANCH  47  48
ATOM     48  O   UNL A   1      41.020  19.929  26.358  1.00  0.00    -0.374 OA
BRANCH  48  49
ATOM     49  C   UNL A   1      42.357  19.527  26.563  1.00  0.00     0.202 C 
BRANCH  49  50
ATOM     50  C   UNL A   1      43.326  20.128  25.545  1.00  0.00     0.261 C 
BRANCH  50  51
ATOM     51  O   UNL A   1      44.191  21.083  26.195  1.00  0.00    -0.460 OA
BRANCH  51  52
ATOM     52  C   UNL A   1      44.671  22.073  25.395  1.00  0.00     0.338 C 
ATOM     53  O   UNL A   1      45.609  21.950  24.616  1.00  0.00    -0.246 OA
BRANCH  52  54
ATOM     54  C   UNL A   1      44.009  23.364  25.722  1.00  0.00     0.060 A 
ATOM     55  C   UNL A   1      44.036  24.431  24.803  1.00  0.00     0.016 A 
ATOM     56  C   UNL A   1      43.612  23.588  27.038  1.00  0.00     0.016 A 
ATOM     57  C   UNL A   1      43.819  25.743  25.245  1.00  0.00     0.010 A 
ATOM     58  C   UNL A   1      43.514  24.884  27.486  1.00  0.00     0.010 A 
ATOM     59  C   UNL A   1      43.656  25.970  26.607  1.00  0.00    -0.014 A 
BRANCH  59  60
ATOM     60  C   UNL A   1      43.657  27.266  27.287  1.00  0.00     0.031 A 
ATOM     61  C   UNL A   1      42.322  27.866  27.509  1.00  0.00     0.074 A 
ATOM     62  C   UNL A   1      44.747  27.725  27.949  1.00  0.00     0.049 A 
ATOM     63  N   UNL A   1      42.061  28.742  28.403  1.00  0.00    -0.248 NA
ATOM     64  C   UNL A   1      41.126  27.449  26.775  1.00  0.00     0.031 C 
ATOM     65  C   UNL A   1      44.808  28.760  28.974  1.00  0.00     0.029 A 
ATOM     66  N   UNL A   1      46.093  27.377  27.802  1.00  0.00    -0.354 N 
ATOM     67  C   UNL A   1      40.715  28.976  28.430  1.00  0.00     0.074 A 
ATOM     68  C   UNL A   1      40.160  28.093  27.440  1.00  0.00     0.031 C 
ATOM     69  C   UNL A   1      46.080  29.143  29.184  1.00  0.00     0.029 A 
ATOM     70  C   UNL A   1      46.855  28.508  28.140  1.00  0.00     0.049 A 
ATOM     71  H   UNL A   1      46.442  26.503  27.515  1.00  0.00     0.167 HD
ATOM     72  C   UNL A   1      40.273  29.910  29.312  1.00  0.00     0.034 A 
ATOM     73  C   UNL A   1      47.545  29.168  27.172  1.00  0.00     0.034 A 
ATOM     74  C   UNL A   1      41.388  30.823  29.636  1.00  0.00     0.049 A 
ATOM     75  C   UNL A   1      46.862  30.520  27.035  1.00  0.00     0.074 A 
ATOM     76  C   UNL A   1      42.105  31.158  30.767  1.00  0.00     0.029 A 
ATOM     77  N   UNL A   1      42.102  31.379  28.559  1.00  0.00    -0.354 N 
ATOM     78  N   UNL A   1      45.558  30.722  27.096  1.00  0.00    -0.248 NA
ATOM     79  C   UNL A   1      47.643  31.741  27.224  1.00  0.00     0.031 C 
ATOM     80  C   UNL A   1      43.324  31.781  30.338  1.00  0.00     0.029 A 
ATOM     81  C   UNL A   1      43.334  31.863  28.949  1.00  0.00     0.049 A 
ATOM     82  H   UNL A   1      41.763  31.417  27.635  1.00  0.00     0.167 HD
ATOM     83  C   UNL A   1      45.341  32.021  27.506  1.00  0.00     0.074 A 
ATOM     84  C   UNL A   1      46.677  32.619  27.534  1.00  0.00     0.031 C 
ATOM     85  C   UNL A   1      44.192  32.581  28.010  1.00  0.00     0.034 A 
BRANCH  72  86
ATOM     86  C   UNL A   1      38.892  29.948  29.933  1.00  0.00     0.023 A 
ATOM     87  C   UNL A   1      37.922  30.819  29.390  1.00  0.00     0.031 A 
ATOM     88  C   UNL A   1      38.493  29.285  31.118  1.00  0.00     0.131 A 
ATOM     89  C   UNL A   1      36.664  31.003  30.006  1.00  0.00     0.055 A 
ATOM     90  C   UNL A   1      37.227  29.433  31.703  1.00  0.00     0.041 A 
ATOM     91  F   UNL A   1      39.312  28.489  31.811  1.00  0.00    -0.206 F 
ATOM     92  C   UNL A   1      36.304  30.301  31.151  1.00  0.00     0.022 A 
BRANCH  89  93
ATOM     93  S   UNL A   1      35.509  32.223  29.320  1.00  0.00     0.124 S 
ATOM     94  O   UNL A   1      34.592  32.434  30.434  1.00  0.00    -0.237 OA
ATOM     95  O   UNL A   1      36.391  33.335  28.987  1.00  0.00    -0.237 OA
ATOM     96  O   UNL A   1      34.929  31.532  28.169  1.00  0.00    -0.744 OA
ENDBRANCH  89  93
ENDBRANCH  72  86
BRANCH  73  97
ATOM     97  C   UNL A   1      48.139  28.199  26.189  1.00  0.00     0.023 A 
ATOM     98  C   UNL A   1      49.324  27.526  26.610  1.00  0.00     0.031 A 
ATOM     99  C   UNL A   1      47.386  27.571  25.193  1.00  0.00     0.131 A 
ATOM    100  C   UNL A   1      49.613  26.212  26.191  1.00  0.00     0.055 A 
ATOM    101  C   UNL A   1      47.708  26.276  24.737  1.00  0.00     0.041 A 
ATOM    102  F   UNL A   1      46.243  28.116  24.753  1.00  0.00    -0.206 F 
ATOM    103  C   UNL A   1      48.787  25.571  25.273  1.00  0.00     0.022 A 
BRANCH 100 104
ATOM    104  S   UNL A   1      50.859  25.230  27.108  1.00  0.00     0.124 S 
ATOM    105  O   UNL A   1      50.031  24.243  27.785  1.00  0.00    -0.237 OA
ATOM    106  O   UNL A   1      51.704  24.720  26.035  1.00  0.00    -0.237 OA
ATOM    107  O   UNL A   1      51.514  26.220  27.962  1.00  0.00    -0.744 OA
ENDBRANCH 100 104
ENDBRANCH  73  97
BRANCH  85 108
ATOM    108  C   UNL A   1      43.852  34.023  27.702  1.00  0.00     0.023 A 
ATOM    109  C   UNL A   1      44.118  35.045  28.618  1.00  0.00     0.031 A 
ATOM    110  C   UNL A   1      43.378  34.440  26.437  1.00  0.00     0.131 A 
ATOM    111  C   UNL A   1      43.802  36.375  28.339  1.00  0.00     0.055 A 
ATOM    112  C   UNL A   1      43.158  35.782  26.120  1.00  0.00     0.041 A 
ATOM    113  F   UNL A   1      43.140  33.578  25.439  1.00  0.00    -0.206 F 
ATOM    114  C   UNL A   1      43.349  36.762  27.083  1.00  0.00     0.022 A 
BRANCH 111 115
ATOM    115  S   UNL A   1      43.920  37.543  29.708  1.00  0.00     0.124 S 
ATOM    116  O   UNL A   1      43.487  36.719  30.834  1.00  0.00    -0.237 OA
ATOM    117  O   UNL A   1      45.335  37.902  29.698  1.00  0.00    -0.237 OA
ATOM    118  O   UNL A   1      43.002  38.612  29.325  1.00  0.00    -0.744 OA
ENDBRANCH 111 115
ENDBRANCH  85 108
ENDBRANCH  59  60
ENDBRANCH  52  54
ENDBRANCH  51  52
ENDBRANCH  50  51
ENDBRANCH  49  50
ENDBRANCH  48  49
ENDBRANCH  47  48
ENDBRANCH   1  47
TORSDOF 26
ENDMDL
MODEL 2
REMARK VINA RESULT:     -11.9      1.511      2.454
REMARK SMILES Cc1ccc(S(=O)(=O)n2cc(C(=O)C(=O)N[C@@H](Cc3c[nH]c4ccccc34)C(=O)NCC(=O)OCCOCCOC(=O)c3ccc(-c4c5nc(c(-c6cc(S(=O)(=O)[O-])ccc6F)c6ccc([nH]6)c(-c6cc(S(=O)(=O)[O-])ccc6F)c6nc(c(-c7cc(S(=O)(=O)[O-])ccc7F)c7ccc4[nH]7)C=C6)C=C5)cc3)c3ccccc32)cc1
REMARK SMILES IDX 35 1 34 2 32 3 33 4 31 5 30 6 28 7 29 8 17 10 16 11 14 12
REMARK SMILES IDX 15 13 12 15 13 16 11 17 9 18 10 19 111 20 106 21 110 22
REMARK SMILES IDX 107 23 109 24 108 25 6 26 7 27 8 28 5 29 1 30 2 31 3 32
REMARK SMILES IDX 113 33 4 34 112 35 18 36 19 37 20 38 27 39 21 40 22 41 26 42
REMARK SMILES IDX 23 44 25 45 24 46 36 47 37 48 38 49 39 50 40 51 41 52 42 53
REMARK SMILES IDX 43 54 44 55 105 56 45 57 104 58 46 59 47 60 48 61 98 62
REMARK SMILES IDX 49 63 103 64 97 65 99 66 50 67 102 68 96 69 95 70 51 72
REMARK SMILES IDX 83 73 63 74 82 75 64 76 67 77 81 78 100 79 65 80 66 81 80 83
REMARK SMILES IDX 101 84 68 85 52 86 53 87 61 88 54 89 60 90 62 91 59 92 55 93
REMARK SMILES IDX 56 94 57 95 58 96 84 97 85 98 93 99 86 100 92 101 94 102
REMARK SMILES IDX 91 103 87 104 88 105 89 106 90 107 69 108 70 109 78 110
REMARK SMILES IDX 71 111 77 112 79 113 76 114 72 115 73 116 74 117 75 118
REMARK H PARENT 30 9 16 14 21 43 99 71 67 82
REMARK Flexibility Score: inf
ROOT
ATOM      1  C   UNL A   1      38.814  22.343  26.132  1.00  0.00     0.261 C 
ENDROOT
BRANCH   1   2
ATOM      2  O   UNL A   1      38.200  23.636  26.053  1.00  0.00    -0.462 OA
BRANCH   2   3
ATOM      3  C   UNL A   1      36.999  23.631  25.432  1.00  0.00     0.325 C 
ATOM      4  O   UNL A   1      36.033  24.308  25.755  1.00  0.00    -0.250 OA
BRANCH   3   5
ATOM      5  C   UNL A   1      37.028  22.730  24.227  1.00  0.00     0.238 C 
BRANCH   5   6
ATOM      6  N   UNL A   1      35.971  22.813  23.235  1.00  0.00    -0.343 N 
ATOM      7  C   UNL A   1      34.625  22.664  23.350  1.00  0.00     0.243 C 
ATOM      8  O   UNL A   1      33.966  23.350  22.553  1.00  0.00    -0.273 OA
ATOM      9  H   UNL A   1      36.282  23.010  22.323  1.00  0.00     0.164 HD
BRANCH   7  10
ATOM     10  C   UNL A   1      33.896  21.857  24.468  1.00  0.00     0.176 C 
BRANCH  10  11
ATOM     11  N   UNL A   1      32.414  21.895  24.493  1.00  0.00    -0.337 N 
ATOM     12  C   UNL A   1      31.539  22.503  25.420  1.00  0.00     0.293 C 
ATOM     13  O   UNL A   1      30.369  22.125  25.469  1.00  0.00    -0.265 OA
ATOM     14  H   UNL A   1      31.972  21.423  23.750  1.00  0.00     0.164 HD
BRANCH  12  15
ATOM     15  C   UNL A   1      32.021  23.551  26.459  1.00  0.00     0.252 C 
ATOM     16  O   UNL A   1      32.073  23.163  27.629  1.00  0.00    -0.283 OA
BRANCH  15  17
ATOM     17  C   UNL A   1      32.170  25.025  26.185  1.00  0.00     0.054 A 
ATOM     18  N   UNL A   1      32.835  27.129  25.642  1.00  0.00    -0.240 N 
ATOM     19  C   UNL A   1      33.123  26.033  26.467  1.00  0.00     0.117 A 
ATOM     20  C   UNL A   1      31.775  26.739  24.797  1.00  0.00     0.065 A 
ATOM     21  C   UNL A   1      31.134  25.727  25.493  1.00  0.00     0.012 A 
ATOM     22  C   UNL A   1      31.151  27.404  23.720  1.00  0.00     0.028 A 
ATOM     23  C   UNL A   1      29.751  25.548  25.286  1.00  0.00     0.011 A 
ATOM     24  C   UNL A   1      29.773  27.261  23.585  1.00  0.00     0.002 A 
ATOM     25  C   UNL A   1      29.070  26.384  24.398  1.00  0.00     0.001 A 
BRANCH  18  26
ATOM     26  S   UNL A   1      32.762  28.845  25.897  1.00  0.00     0.268 S 
ATOM     27  O   UNL A   1      31.462  28.995  26.542  1.00  0.00    -0.201 OA
ATOM     28  O   UNL A   1      32.949  29.293  24.514  1.00  0.00    -0.201 OA
BRANCH  26  29
ATOM     29  C   UNL A   1      33.697  30.114  26.673  1.00  0.00     0.088 A 
ATOM     30  C   UNL A   1      36.687  32.083  29.131  1.00  0.00     0.044 C 
ATOM     31  C   UNL A   1      35.651  31.472  28.230  1.00  0.00    -0.051 A 
ATOM     32  C   UNL A   1      35.983  30.274  27.625  1.00  0.00     0.005 A 
ATOM     33  C   UNL A   1      34.356  32.005  28.013  1.00  0.00     0.005 A 
ATOM     34  C   UNL A   1      35.030  29.630  26.857  1.00  0.00     0.022 A 
ATOM     35  C   UNL A   1      33.363  31.328  27.239  1.00  0.00     0.022 A 
ENDBRANCH  26  29
ENDBRANCH  18  26
ENDBRANCH  15  17
ENDBRANCH  12  15
ENDBRANCH  10  11
BRANCH  10  36
ATOM     36  C   UNL A   1      34.508  20.450  24.776  1.00  0.00     0.072 C 
BRANCH  36  37
ATOM     37  C   UNL A   1      33.763  19.203  24.384  1.00  0.00    -0.020 A 
ATOM     38  C   UNL A   1      32.527  19.141  23.753  1.00  0.00     0.087 A 
ATOM     39  C   UNL A   1      34.161  17.841  24.597  1.00  0.00     0.003 A 
ATOM     40  N   UNL A   1      32.109  17.834  23.739  1.00  0.00    -0.361 N 
ATOM     41  C   UNL A   1      33.052  17.031  24.329  1.00  0.00     0.046 A 
ATOM     42  C   UNL A   1      35.324  17.232  25.085  1.00  0.00     0.010 A 
ATOM     43  H   UNL A   1      31.256  17.518  23.362  1.00  0.00     0.166 HD
ATOM     44  C   UNL A   1      32.990  15.677  24.680  1.00  0.00     0.026 A 
ATOM     45  C   UNL A   1      35.307  15.858  25.324  1.00  0.00     0.001 A 
ATOM     46  C   UNL A   1      34.142  15.106  25.207  1.00  0.00     0.002 A 
ENDBRANCH  36  37
ENDBRANCH  10  36
ENDBRANCH   7  10
ENDBRANCH   5   6
ENDBRANCH   3   5
ENDBRANCH   2   3
ENDBRANCH   1   2
BRANCH   1  47
ATOM     47  C   UNL A   1      40.016  22.286  27.039  1.00  0.00     0.202 C 
BRANCH  47  48
ATOM     48  O   UNL A   1      40.333  20.899  27.170  1.00  0.00    -0.374 OA
BRANCH  48  49
ATOM     49  C   UNL A   1      41.690  20.570  27.374  1.00  0.00     0.202 C 
BRANCH  49  50
ATOM     50  C   UNL A   1      42.564  20.850  26.152  1.00  0.00     0.261 C 
BRANCH  50  51
ATOM     51  O   UNL A   1      43.618  21.771  26.503  1.00  0.00    -0.460 OA
BRANCH  51  52
ATOM     52  C   UNL A   1      43.840  22.772  25.608  1.00  0.00     0.338 C 
ATOM     53  O   UNL A   1      44.509  22.660  24.587  1.00  0.00    -0.246 OA
BRANCH  52  54
ATOM     54  C   UNL A   1      43.301  24.056  26.129  1.00  0.00     0.060 A 
ATOM     55  C   UNL A   1      43.220  25.185  25.292  1.00  0.00     0.016 A 
ATOM     56  C   UNL A   1      43.143  24.196  27.506  1.00  0.00     0.016 A 
ATOM     57  C   UNL A   1      43.139  26.468  25.851  1.00  0.00     0.010 A 
ATOM     58  C   UNL A   1      43.179  25.459  28.049  1.00  0.00     0.010 A 
ATOM     59  C   UNL A   1      43.219  26.601  27.233  1.00  0.00    -0.014 A 
BRANCH  59  60
ATOM     60  C   UNL A   1      43.393  27.843  27.987  1.00  0.00     0.031 A 
ATOM     61  C   UNL A   1      42.139  28.528  28.376  1.00  0.00     0.074 A 
ATOM     62  C   UNL A   1      44.574  28.169  28.564  1.00  0.00     0.049 A 
ATOM     63  N   UNL A   1      42.038  29.358  29.343  1.00  0.00    -0.248 NA
ATOM     64  C   UNL A   1      40.849  28.256  27.740  1.00  0.00     0.031 C 
ATOM     65  C   UNL A   1      44.818  29.124  29.639  1.00  0.00     0.029 A 
ATOM     66  N   UNL A   1      45.867  27.729  28.264  1.00  0.00    -0.354 N 
ATOM     67  C   UNL A   1      40.724  29.693  29.517  1.00  0.00     0.074 A 
ATOM     68  C   UNL A   1      40.006  28.926  28.535  1.00  0.00     0.031 C 
ATOM     69  C   UNL A   1      46.131  29.391  29.745  1.00  0.00     0.029 A 
ATOM     70  C   UNL A   1      46.749  28.772  28.592  1.00  0.00     0.049 A 
ATOM     71  H   UNL A   1      46.113  26.852  27.890  1.00  0.00     0.167 HD
ATOM     72  C   UNL A   1      40.447  30.596  30.494  1.00  0.00     0.034 A 
ATOM     73  C   UNL A   1      47.398  29.441  27.602  1.00  0.00     0.034 A 
ATOM     74  C   UNL A   1      41.660  31.396  30.761  1.00  0.00     0.049 A 
ATOM     75  C   UNL A   1      46.821  30.848  27.617  1.00  0.00     0.074 A 
ATOM     76  C   UNL A   1      42.506  31.595  31.834  1.00  0.00     0.029 A 
ATOM     77  N   UNL A   1      42.314  31.967  29.654  1.00  0.00    -0.354 N 
ATOM     78  N   UNL A   1      45.550  31.145  27.819  1.00  0.00    -0.248 NA
ATOM     79  C   UNL A   1      47.716  31.989  27.801  1.00  0.00     0.031 C 
ATOM     80  C   UNL A   1      43.727  32.150  31.324  1.00  0.00     0.029 A 
ATOM     81  C   UNL A   1      43.613  32.327  29.949  1.00  0.00     0.049 A 
ATOM     82  H   UNL A   1      41.894  32.094  28.772  1.00  0.00     0.167 HD
ATOM     83  C   UNL A   1      45.483  32.427  28.326  1.00  0.00     0.074 A 
ATOM     84  C   UNL A   1      46.860  32.915  28.258  1.00  0.00     0.031 C 
ATOM     85  C   UNL A   1      44.437  33.038  28.975  1.00  0.00     0.034 A 
BRANCH  72  86
ATOM     86  C   UNL A   1      39.138  30.699  31.250  1.00  0.00     0.023 A 
ATOM     87  C   UNL A   1      38.749  31.950  31.775  1.00  0.00     0.031 A 
ATOM     88  C   UNL A   1      38.301  29.619  31.615  1.00  0.00     0.131 A 
ATOM     89  C   UNL A   1      37.613  32.084  32.605  1.00  0.00     0.055 A 
ATOM     90  C   UNL A   1      37.148  29.760  32.402  1.00  0.00     0.041 A 
ATOM     91  F   UNL A   1      38.564  28.353  31.277  1.00  0.00    -0.206 F 
ATOM     92  C   UNL A   1      36.800  30.998  32.908  1.00  0.00     0.022 A 
BRANCH  89  93
ATOM     93  S   UNL A   1      37.235  33.700  33.339  1.00  0.00     0.124 S 
ATOM     94  O   UNL A   1      36.162  33.369  34.270  1.00  0.00    -0.237 OA
ATOM     95  O   UNL A   1      38.513  34.080  33.931  1.00  0.00    -0.237 OA
ATOM     96  O   UNL A   1      36.826  34.508  32.191  1.00  0.00    -0.744 OA
ENDBRANCH  89  93
ENDBRANCH  72  86
BRANCH  73  97
ATOM     97  C   UNL A   1      47.814  28.499  26.508  1.00  0.00     0.023 A 
ATOM     98  C   UNL A   1      49.033  27.790  26.721  1.00  0.00     0.031 A 
ATOM     99  C   UNL A   1      46.904  27.920  25.618  1.00  0.00     0.131 A 
ATOM    100  C   UNL A   1      49.226  26.487  26.219  1.00  0.00     0.055 A 
ATOM    101  C   UNL A   1      47.124  26.637  25.076  1.00  0.00     0.041 A 
ATOM    102  F   UNL A   1      45.721  28.501  25.376  1.00  0.00    -0.206 F 
ATOM    103  C   UNL A   1      48.255  25.895  25.417  1.00  0.00     0.022 A 
BRANCH 100 104
ATOM    104  S   UNL A   1      50.573  25.451  26.902  1.00  0.00     0.124 S 
ATOM    105  O   UNL A   1      51.374  25.171  25.720  1.00  0.00    -0.237 OA
ATOM    106  O   UNL A   1      51.182  26.341  27.884  1.00  0.00    -0.237 OA
ATOM    107  O   UNL A   1      49.866  24.313  27.488  1.00  0.00    -0.744 OA
ENDBRANCH 100 104
ENDBRANCH  73  97
BRANCH  85 108
ATOM    108  C   UNL A   1      44.192  34.519  28.790  1.00  0.00     0.023 A 
ATOM    109  C   UNL A   1      44.505  35.440  29.795  1.00  0.00     0.031 A 
ATOM    110  C   UNL A   1      43.765  35.074  27.561  1.00  0.00     0.131 A 
ATOM    111  C   UNL A   1      44.276  36.806  29.629  1.00  0.00     0.055 A 
ATOM    112  C   UNL A   1      43.634  36.450  27.360  1.00  0.00     0.041 A 
ATOM    113  F   UNL A   1      43.490  34.317  26.489  1.00  0.00    -0.206 F 
ATOM    114  C   UNL A   1      43.869  37.328  28.407  1.00  0.00     0.022 A 
BRANCH 111 115
ATOM    115  S   UNL A   1      44.444  37.842  31.097  1.00  0.00     0.124 S 
ATOM    116  O   UNL A   1      45.887  38.070  31.131  1.00  0.00    -0.237 OA
ATOM    117  O   UNL A   1      43.631  39.006  30.759  1.00  0.00    -0.237 OA
ATOM    118  O   UNL A   1      43.918  37.002  32.169  1.00  0.00    -0.744 OA
ENDBRANCH 111 115
ENDBRANCH  85 108
ENDBRANCH  59  60
ENDBRANCH  52  54
ENDBRANCH  51  52
ENDBRANCH  50  51
ENDBRANCH  49  50
ENDBRANCH  48  49
ENDBRANCH  47  48
ENDBRANCH   1  47
TORSDOF 26
ENDMDL
MODEL 3
REMARK VINA RESULT:     -11.7      4.970     11.241
REMARK SMILES Cc1ccc(S(=O)(=O)n2cc(C(=O)C(=O)N[C@@H](Cc3c[nH]c4ccccc34)C(=O)NCC(=O)OCCOCCOC(=O)c3ccc(-c4c5nc(c(-c6cc(S(=O)(=O)[O-])ccc6F)c6ccc([nH]6)c(-c6cc(S(=O)(=O)[O-])ccc6F)c6nc(c(-c7cc(S(=O)(=O)[O-])ccc7F)c7ccc4[nH]7)C=C6)C=C5)cc3)c3ccccc32)cc1
REMARK SMILES IDX 35 1 34 2 32 3 33 4 31 5 30 6 28 7 29 8 17 10 16 11 14 12
REMARK SMILES IDX 15 13 12 15 13 16 11 17 9 18 10 19 111 20 106 21 110 22
REMARK SMILES IDX 107 23 109 24 108 25 6 26 7 27 8 28 5 29 1 30 2 31 3 32
REMARK SMILES IDX 113 33 4 34 112 35 18 36 19 37 20 38 27 39 21 40 22 41 26 42
REMARK SMILES IDX 23 44 25 45 24 46 36 47 37 48 38 49 39 50 40 51 41 52 42 53
REMARK SMILES IDX 43 54 44 55 105 56 45 57 104 58 46 59 47 60 48 61 98 62
REMARK SMILES IDX 49 63 103 64 97 65 99 66 50 67 102 68 96 69 95 70 51 72
REMARK SMILES IDX 83 73 63 74 82 75 64 76 67 77 81 78 100 79 65 80 66 81 80 83
REMARK SMILES IDX 101 84 68 85 52 86 53 87 61 88 54 89 60 90 62 91 59 92 55 93
REMARK SMILES IDX 56 94 57 95 58 96 84 97 85 98 93 99 86 100 92 101 94 102
REMARK SMILES IDX 91 103 87 104 88 105 89 106 90 107 69 108 70 109 78 110
REMARK SMILES IDX 71 111 77 112 79 113 76 114 72 115 73 116 74 117 75 118
REMARK H PARENT 30 9 16 14 21 43 99 71 67 82
REMARK Flexibility Score: inf
ROOT
ATOM      1  C   UNL A   1      33.984  32.312  27.912  1.00  0.00     0.261 C 
ENDROOT
BRANCH   1   2
ATOM      2  O   UNL A   1      34.327  31.224  27.043  1.00  0.00    -0.462 OA
BRANCH   2   3
ATOM      3  C   UNL A   1      35.156  30.318  27.609  1.00  0.00     0.325 C 
ATOM      4  O   UNL A   1      36.338  30.504  27.864  1.00  0.00    -0.250 OA
BRANCH   3   5
ATOM      5  C   UNL A   1      34.408  29.061  27.961  1.00  0.00     0.238 C 
BRANCH   5   6
ATOM      6  N   UNL A   1      32.956  29.058  27.954  1.00  0.00    -0.343 N 
ATOM      7  C   UNL A   1      32.066  28.146  27.480  1.00  0.00     0.243 C 
ATOM      8  O   UNL A   1      31.000  28.097  28.113  1.00  0.00    -0.273 OA
ATOM      9  H   UNL A   1      32.545  29.853  28.364  1.00  0.00     0.164 HD
BRANCH   7  10
ATOM     10  C   UNL A   1      32.352  27.104  26.356  1.00  0.00     0.176 C 
BRANCH  10  11
ATOM     11  N   UNL A   1      31.192  26.548  25.618  1.00  0.00    -0.337 N 
ATOM     12  C   UNL A   1      30.803  25.204  25.422  1.00  0.00     0.293 C 
ATOM     13  O   UNL A   1      30.034  24.937  24.499  1.00  0.00    -0.265 OA
ATOM     14  H   UNL A   1      30.604  27.218  25.199  1.00  0.00     0.164 HD
BRANCH  12  15
ATOM     15  C   UNL A   1      31.393  24.035  26.254  1.00  0.00     0.252 C 
ATOM     16  O   UNL A   1      30.750  23.710  27.256  1.00  0.00    -0.283 OA
BRANCH  15  17
ATOM     17  C   UNL A   1      32.778  23.468  26.076  1.00  0.00     0.054 A 
ATOM     18  N   UNL A   1      34.909  22.705  26.269  1.00  0.00    -0.240 N 
ATOM     19  C   UNL A   1      34.094  23.832  26.447  1.00  0.00     0.117 A 
ATOM     20  C   UNL A   1      34.064  21.643  25.891  1.00  0.00     0.065 A 
ATOM     21  C   UNL A   1      32.962  22.264  25.327  1.00  0.00     0.012 A 
ATOM     22  C   UNL A   1      34.330  20.274  25.675  1.00  0.00     0.028 A 
ATOM     23  C   UNL A   1      32.252  21.578  24.319  1.00  0.00     0.011 A 
ATOM     24  C   UNL A   1      33.663  19.644  24.629  1.00  0.00     0.002 A 
ATOM     25  C   UNL A   1      32.673  20.308  23.920  1.00  0.00     0.001 A 
BRANCH  18  26
ATOM     26  S   UNL A   1      36.487  22.452  25.589  1.00  0.00     0.268 S 
ATOM     27  O   UNL A   1      37.124  23.743  25.829  1.00  0.00    -0.201 OA
ATOM     28  O   UNL A   1      36.095  22.072  24.230  1.00  0.00    -0.201 OA
BRANCH  26  29
ATOM     29  C   UNL A   1      37.843  21.347  25.751  1.00  0.00     0.088 A 
ATOM     30  C   UNL A   1      41.917  19.874  26.044  1.00  0.00     0.044 C 
ATOM     31  C   UNL A   1      40.482  20.315  25.988  1.00  0.00    -0.051 A 
ATOM     32  C   UNL A   1      40.193  21.558  26.519  1.00  0.00     0.005 A 
ATOM     33  C   UNL A   1      39.436  19.577  25.382  1.00  0.00     0.005 A 
ATOM     34  C   UNL A   1      38.903  22.043  26.412  1.00  0.00     0.022 A 
ATOM     35  C   UNL A   1      38.107  20.088  25.249  1.00  0.00     0.022 A 
ENDBRANCH  26  29
ENDBRANCH  18  26
ENDBRANCH  15  17
ENDBRANCH  12  15
ENDBRANCH  10  11
BRANCH  10  36
ATOM     36  C   UNL A   1      33.593  27.422  25.457  1.00  0.00     0.072 C 
BRANCH  36  37
ATOM     37  C   UNL A   1      33.449  27.458  23.959  1.00  0.00    -0.020 A 
ATOM     38  C   UNL A   1      33.242  28.585  23.175  1.00  0.00     0.087 A 
ATOM     39  C   UNL A   1      33.476  26.349  23.050  1.00  0.00     0.003 A 
ATOM     40  N   UNL A   1      32.980  28.181  21.890  1.00  0.00    -0.361 N 
ATOM     41  C   UNL A   1      33.030  26.812  21.807  1.00  0.00     0.046 A 
ATOM     42  C   UNL A   1      33.742  24.981  23.190  1.00  0.00     0.010 A 
ATOM     43  H   UNL A   1      32.783  28.784  21.137  1.00  0.00     0.166 HD
ATOM     44  C   UNL A   1      32.677  25.960  20.753  1.00  0.00     0.026 A 
ATOM     45  C   UNL A   1      33.506  24.141  22.103  1.00  0.00     0.001 A 
ATOM     46  C   UNL A   1      32.906  24.601  20.934  1.00  0.00     0.002 A 
ENDBRANCH  36  37
ENDBRANCH  10  36
ENDBRANCH   7  10
ENDBRANCH   5   6
ENDBRANCH   3   5
ENDBRANCH   2   3
ENDBRANCH   1   2
BRANCH   1  47
ATOM     47  C   UNL A   1      34.887  33.512  27.784  1.00  0.00     0.202 C 
BRANCH  47  48
ATOM     48  O   UNL A   1      35.176  33.920  29.122  1.00  0.00    -0.374 OA
BRANCH  48  49
ATOM     49  C   UNL A   1      34.501  35.062  29.602  1.00  0.00     0.202 C 
BRANCH  49  50
ATOM     50  C   UNL A   1      33.373  34.725  30.576  1.00  0.00     0.261 C 
BRANCH  50  51
ATOM     51  O   UNL A   1      33.753  35.099  31.917  1.00  0.00    -0.460 OA
BRANCH  51  52
ATOM     52  C   UNL A   1      34.028  34.064  32.755  1.00  0.00     0.338 C 
ATOM     53  O   UNL A   1      33.188  33.316  33.242  1.00  0.00    -0.246 OA
BRANCH  52  54
ATOM     54  C   UNL A   1      35.468  34.074  33.129  1.00  0.00     0.060 A 
ATOM     55  C   UNL A   1      36.398  34.797  32.357  1.00  0.00     0.016 A 
ATOM     56  C   UNL A   1      35.913  33.149  34.070  1.00  0.00     0.016 A 
ATOM     57  C   UNL A   1      37.761  34.476  32.420  1.00  0.00     0.010 A 
ATOM     58  C   UNL A   1      37.232  32.762  34.043  1.00  0.00     0.010 A 
ATOM     59  C   UNL A   1      38.156  33.390  33.193  1.00  0.00    -0.014 A 
BRANCH  59  60
ATOM     60  C   UNL A   1      39.474  32.753  33.204  1.00  0.00     0.031 A 
ATOM     61  C   UNL A   1      39.665  31.677  32.205  1.00  0.00     0.074 A 
ATOM     62  C   UNL A   1      40.533  33.311  33.840  1.00  0.00     0.049 A 
ATOM     63  N   UNL A   1      40.802  31.285  31.772  1.00  0.00    -0.248 NA
ATOM     64  C   UNL A   1      38.552  30.999  31.537  1.00  0.00     0.031 C 
ATOM     65  C   UNL A   1      41.951  33.040  33.635  1.00  0.00     0.029 A 
ATOM     66  N   UNL A   1      40.559  34.245  34.880  1.00  0.00    -0.354 N 
ATOM     67  C   UNL A   1      40.615  30.382  30.762  1.00  0.00     0.074 A 
ATOM     68  C   UNL A   1      39.190  30.284  30.603  1.00  0.00     0.031 C 
ATOM     69  C   UNL A   1      42.681  33.562  34.636  1.00  0.00     0.029 A 
ATOM     70  C   UNL A   1      41.724  34.002  35.628  1.00  0.00     0.049 A 
ATOM     71  H   UNL A   1      39.887  34.942  35.056  1.00  0.00     0.167 HD
ATOM     72  C   UNL A   1      41.733  29.843  30.209  1.00  0.00     0.034 A 
ATOM     73  C   UNL A   1      41.621  33.502  36.888  1.00  0.00     0.034 A 
ATOM     74  C   UNL A   1      42.842  29.946  31.179  1.00  0.00     0.049 A 
ATOM     75  C   UNL A   1      42.202  32.099  36.817  1.00  0.00     0.074 A 
ATOM     76  C   UNL A   1      44.065  30.586  31.231  1.00  0.00     0.029 A 
ATOM     77  N   UNL A   1      42.601  29.488  32.487  1.00  0.00    -0.354 N 
ATOM     78  N   UNL A   1      42.031  31.257  35.814  1.00  0.00    -0.248 NA
ATOM     79  C   UNL A   1      43.320  31.739  37.686  1.00  0.00     0.031 C 
ATOM     80  C   UNL A   1      44.470  30.635  32.606  1.00  0.00     0.029 A 
ATOM     81  C   UNL A   1      43.516  29.992  33.390  1.00  0.00     0.049 A 
ATOM     82  H   UNL A   1      41.865  28.881  32.731  1.00  0.00     0.167 HD
ATOM     83  C   UNL A   1      43.098  30.381  35.800  1.00  0.00     0.074 A 
ATOM     84  C   UNL A   1      43.849  30.707  37.012  1.00  0.00     0.031 C 
ATOM     85  C   UNL A   1      43.517  29.557  34.783  1.00  0.00     0.034 A 
BRANCH  72  86
ATOM     86  C   UNL A   1      41.845  29.313  28.794  1.00  0.00     0.023 A 
ATOM     87  C   UNL A   1      41.384  28.008  28.515  1.00  0.00     0.031 A 
ATOM     88  C   UNL A   1      42.503  29.950  27.716  1.00  0.00     0.131 A 
ATOM     89  C   UNL A   1      41.585  27.405  27.253  1.00  0.00     0.055 A 
ATOM     90  C   UNL A   1      42.661  29.368  26.449  1.00  0.00     0.041 A 
ATOM     91  F   UNL A   1      43.074  31.153  27.827  1.00  0.00    -0.206 F 
ATOM     92  C   UNL A   1      42.206  28.085  26.212  1.00  0.00     0.022 A 
BRANCH  89  93
ATOM     93  S   UNL A   1      41.069  25.684  26.998  1.00  0.00     0.124 S 
ATOM     94  O   UNL A   1      41.745  25.345  25.751  1.00  0.00    -0.237 OA
ATOM     95  O   UNL A   1      41.564  25.029  28.203  1.00  0.00    -0.237 OA
ATOM     96  O   UNL A   1      39.613  25.776  26.903  1.00  0.00    -0.744 OA
ENDBRANCH  89  93
ENDBRANCH  72  86
BRANCH  73  97
ATOM     97  C   UNL A   1      40.449  34.108  37.606  1.00  0.00     0.023 A 
ATOM     98  C   UNL A   1      39.329  33.249  37.813  1.00  0.00     0.031 A 
ATOM     99  C   UNL A   1      40.572  35.193  38.479  1.00  0.00     0.131 A 
ATOM    100  C   UNL A   1      38.506  33.373  38.951  1.00  0.00     0.055 A 
ATOM    101  C   UNL A   1      39.714  35.343  39.588  1.00  0.00     0.041 A 
ATOM    102  F   UNL A   1      41.606  36.039  38.377  1.00  0.00    -0.206 F 
ATOM    103  C   UNL A   1      38.717  34.405  39.860  1.00  0.00     0.022 A 
BRANCH 100 104
ATOM    104  S   UNL A   1      37.403  31.986  39.416  1.00  0.00     0.124 S 
ATOM    105  O   UNL A   1      37.348  31.212  38.185  1.00  0.00    -0.237 OA
ATOM    106  O   UNL A   1      38.128  31.369  40.521  1.00  0.00    -0.237 OA
ATOM    107  O   UNL A   1      36.165  32.653  39.817  1.00  0.00    -0.744 OA
ENDBRANCH 100 104
ENDBRANCH  73  97
BRANCH  85 108
ATOM    108  C   UNL A   1      44.120  28.206  35.102  1.00  0.00     0.023 A 
ATOM    109  C   UNL A   1      43.324  27.062  35.215  1.00  0.00     0.031 A 
ATOM    110  C   UNL A   1      45.516  27.992  35.170  1.00  0.00     0.131 A 
ATOM    111  C   UNL A   1      43.877  25.816  35.513  1.00  0.00     0.055 A 
ATOM    112  C   UNL A   1      46.076  26.728  35.365  1.00  0.00     0.041 A 
ATOM    113  F   UNL A   1      46.403  28.985  35.014  1.00  0.00    -0.206 F 
ATOM    114  C   UNL A   1      45.253  25.629  35.562  1.00  0.00     0.022 A 
BRANCH 111 115
ATOM    115  S   UNL A   1      42.723  24.491  35.922  1.00  0.00     0.124 S 
ATOM    116  O   UNL A   1      42.581  24.662  37.366  1.00  0.00    -0.237 OA
ATOM    117  O   UNL A   1      41.548  24.838  35.129  1.00  0.00    -0.237 OA
ATOM    118  O   UNL A   1      43.426  23.284  35.501  1.00  0.00    -0.744 OA
ENDBRANCH 111 115
ENDBRANCH  85 108
ENDBRANCH  59  60
ENDBRANCH  52  54
ENDBRANCH  51  52
ENDBRANCH  50  51
ENDBRANCH  49  50
ENDBRANCH  48  49
ENDBRANCH  47  48
ENDBRANCH   1  47
TORSDOF 26
ENDMDL
