MODEL 1
REMARK VINA RESULT:     -10.3      0.000      0.000
REMARK SMILES O=C(OCCOCCOC(=O)c1cc(-c2ccc(Cl)cc2)nc2c3c(C4CC4)cc(C(F)(F)F)nc3nn12)c1ccc(-c2c3nc(c(-c4cc(S(=O)(=O)[O-])ccc4F)c4ccc([nH]4)c(-c4cc(S(=O)(=O)[O-])ccc4F)c4nc(c(-c5cc(S(=O)(=O)[O-])ccc5F)c5ccc2[nH]5)C=C4)C=C3)cc1
REMARK SMILES IDX 5 1 4 2 3 3 2 4 1 5 39 6 40 7 101 8 41 9 100 10 42 11 43 12
REMARK SMILES IDX 44 13 94 14 45 15 99 16 93 17 95 18 46 19 98 20 92 21 91 22
REMARK SMILES IDX 47 24 79 25 59 26 78 27 60 28 63 29 77 30 96 31 61 32 62 33
REMARK SMILES IDX 76 35 97 36 64 37 48 38 49 39 57 40 50 41 56 42 58 43 55 44
REMARK SMILES IDX 51 45 52 46 53 47 54 48 80 49 81 50 89 51 82 52 88 53 90 54
REMARK SMILES IDX 87 55 83 56 84 57 85 58 86 59 65 60 66 61 74 62 67 63 73 64
REMARK SMILES IDX 75 65 72 66 68 67 69 68 70 69 71 70 6 71 7 72 8 73 9 74
REMARK SMILES IDX 10 75 11 76 12 77 13 78 38 79 14 80 23 81 37 82 22 83 24 84
REMARK SMILES IDX 36 85 25 86 35 87 29 88 30 89 15 90 16 91 21 92 17 93 20 94
REMARK SMILES IDX 18 95 19 96 26 97 27 98 28 99 31 100 32 101 33 102 34 103
REMARK H PARENT 95 23 63 34
REMARK Flexibility Score: inf
ROOT
ATOM      1  C   UNL A   1      49.222  30.462  27.432  1.00  0.00     0.202 C 
ENDROOT
BRANCH   1   2
ATOM      2  C   UNL A   1      48.675  31.872  27.159  1.00  0.00     0.261 C 
BRANCH   2   3
ATOM      3  O   UNL A   1      47.367  32.078  27.716  1.00  0.00    -0.460 OA
BRANCH   3   4
ATOM      4  C   UNL A   1      46.253  31.666  27.058  1.00  0.00     0.338 C 
ATOM      5  O   UNL A   1      46.243  31.362  25.881  1.00  0.00    -0.246 OA
BRANCH   4   6
ATOM      6  C   UNL A   1      45.056  31.483  27.895  1.00  0.00     0.060 A 
ATOM      7  C   UNL A   1      44.816  32.323  28.985  1.00  0.00     0.016 A 
ATOM      8  C   UNL A   1      44.135  30.504  27.538  1.00  0.00     0.016 A 
ATOM      9  C   UNL A   1      43.670  32.181  29.747  1.00  0.00     0.010 A 
ATOM     10  C   UNL A   1      42.965  30.380  28.279  1.00  0.00     0.010 A 
ATOM     11  C   UNL A   1      42.727  31.233  29.369  1.00  0.00    -0.014 A 
BRANCH  11  12
ATOM     12  C   UNL A   1      41.425  31.293  30.044  1.00  0.00     0.031 A 
ATOM     13  C   UNL A   1      41.287  30.296  31.140  1.00  0.00     0.074 A 
ATOM     14  C   UNL A   1      40.684  32.418  30.032  1.00  0.00     0.049 A 
ATOM     15  N   UNL A   1      41.852  30.512  32.289  1.00  0.00    -0.248 NA
ATOM     16  C   UNL A   1      40.857  28.914  30.944  1.00  0.00     0.031 C 
ATOM     17  C   UNL A   1      41.254  33.754  29.812  1.00  0.00     0.029 A 
ATOM     18  N   UNL A   1      39.400  32.653  30.452  1.00  0.00    -0.354 N 
ATOM     19  C   UNL A   1      41.989  29.292  32.912  1.00  0.00     0.074 A 
ATOM     20  C   UNL A   1      41.300  28.335  32.074  1.00  0.00     0.031 C 
ATOM     21  C   UNL A   1      40.401  34.667  30.319  1.00  0.00     0.029 A 
ATOM     22  C   UNL A   1      39.173  33.999  30.735  1.00  0.00     0.049 A 
ATOM     23  H   UNL A   1      38.716  31.951  30.544  1.00  0.00     0.167 HD
ATOM     24  C   UNL A   1      42.727  29.148  34.044  1.00  0.00     0.034 A 
ATOM     25  C   UNL A   1      38.351  34.439  31.725  1.00  0.00     0.034 A 
ATOM     26  C   UNL A   1      43.363  30.347  34.512  1.00  0.00     0.049 A 
ATOM     27  C   UNL A   1      39.111  33.996  32.958  1.00  0.00     0.074 A 
ATOM     28  C   UNL A   1      44.621  30.904  34.441  1.00  0.00     0.029 A 
ATOM     29  N   UNL A   1      42.581  31.309  35.108  1.00  0.00    -0.354 N 
ATOM     30  N   UNL A   1      40.160  34.592  33.471  1.00  0.00    -0.248 NA
ATOM     31  C   UNL A   1      38.894  32.635  33.451  1.00  0.00     0.031 C 
ATOM     32  C   UNL A   1      44.431  32.311  34.607  1.00  0.00     0.029 A 
ATOM     33  C   UNL A   1      43.059  32.539  34.721  1.00  0.00     0.049 A 
ATOM     34  H   UNL A   1      41.816  31.146  35.707  1.00  0.00     0.167 HD
ATOM     35  C   UNL A   1      40.885  33.584  34.121  1.00  0.00     0.074 A 
ATOM     36  C   UNL A   1      40.027  32.420  34.105  1.00  0.00     0.031 C 
ATOM     37  C   UNL A   1      42.203  33.687  34.468  1.00  0.00     0.034 A 
BRANCH  24  38
ATOM     38  C   UNL A   1      42.814  27.903  34.831  1.00  0.00     0.023 A 
ATOM     39  C   UNL A   1      43.759  26.896  34.589  1.00  0.00     0.031 A 
ATOM     40  C   UNL A   1      42.002  27.817  35.974  1.00  0.00     0.131 A 
ATOM     41  C   UNL A   1      43.876  25.843  35.510  1.00  0.00     0.055 A 
ATOM     42  C   UNL A   1      42.129  26.776  36.887  1.00  0.00     0.041 A 
ATOM     43  F   UNL A   1      41.099  28.780  36.233  1.00  0.00    -0.206 F 
ATOM     44  C   UNL A   1      43.075  25.786  36.660  1.00  0.00     0.022 A 
BRANCH  41  45
ATOM     45  S   UNL A   1      45.100  24.521  35.293  1.00  0.00     0.124 S 
ATOM     46  O   UNL A   1      45.407  24.154  36.674  1.00  0.00    -0.237 OA
ATOM     47  O   UNL A   1      44.338  23.528  34.540  1.00  0.00    -0.237 OA
ATOM     48  O   UNL A   1      46.184  25.164  34.560  1.00  0.00    -0.744 OA
ENDBRANCH  41  45
ENDBRANCH  24  38
BRANCH  25  49
ATOM     49  C   UNL A   1      36.907  34.128  31.446  1.00  0.00     0.023 A 
ATOM     50  C   UNL A   1      36.412  33.567  30.262  1.00  0.00     0.031 A 
ATOM     51  C   UNL A   1      35.948  34.493  32.423  1.00  0.00     0.131 A 
ATOM     52  C   UNL A   1      35.031  33.561  30.007  1.00  0.00     0.055 A 
ATOM     53  C   UNL A   1      34.572  34.427  32.191  1.00  0.00     0.041 A 
ATOM     54  F   UNL A   1      36.341  34.951  33.624  1.00  0.00    -0.206 F 
ATOM     55  C   UNL A   1      34.106  33.990  30.961  1.00  0.00     0.022 A 
BRANCH  52  56
ATOM     56  S   UNL A   1      34.404  33.069  28.377  1.00  0.00     0.124 S 
ATOM     57  O   UNL A   1      33.195  33.880  28.249  1.00  0.00    -0.237 OA
ATOM     58  O   UNL A   1      35.517  33.451  27.513  1.00  0.00    -0.237 OA
ATOM     59  O   UNL A   1      34.183  31.634  28.521  1.00  0.00    -0.744 OA
ENDBRANCH  52  56
ENDBRANCH  25  49
BRANCH  37  60
ATOM     60  C   UNL A   1      42.820  35.047  34.371  1.00  0.00     0.023 A 
ATOM     61  C   UNL A   1      43.381  35.518  33.168  1.00  0.00     0.031 A 
ATOM     62  C   UNL A   1      42.963  35.833  35.524  1.00  0.00     0.131 A 
ATOM     63  C   UNL A   1      44.122  36.708  33.163  1.00  0.00     0.055 A 
ATOM     64  C   UNL A   1      43.657  37.043  35.503  1.00  0.00     0.041 A 
ATOM     65  F   UNL A   1      42.477  35.410  36.704  1.00  0.00    -0.206 F 
ATOM     66  C   UNL A   1      44.253  37.479  34.322  1.00  0.00     0.022 A 
BRANCH  63  67
ATOM     67  S   UNL A   1      44.980  37.262  31.664  1.00  0.00     0.124 S 
ATOM     68  O   UNL A   1      46.083  38.059  32.200  1.00  0.00    -0.237 OA
ATOM     69  O   UNL A   1      45.371  35.993  31.054  1.00  0.00    -0.237 OA
ATOM     70  O   UNL A   1      43.968  38.025  30.938  1.00  0.00    -0.744 OA
ENDBRANCH  63  67
ENDBRANCH  37  60
ENDBRANCH  11  12
ENDBRANCH   4   6
ENDBRANCH   3   4
ENDBRANCH   2   3
ENDBRANCH   1   2
BRANCH   1  71
ATOM     71  O   UNL A   1      49.182  29.621  26.280  1.00  0.00    -0.374 OA
BRANCH  71  72
ATOM     72  C   UNL A   1      48.831  28.254  26.516  1.00  0.00     0.202 C 
BRANCH  72  73
ATOM     73  C   UNL A   1      47.353  28.116  26.848  1.00  0.00     0.261 C 
BRANCH  73  74
ATOM     74  O   UNL A   1      46.758  27.047  26.102  1.00  0.00    -0.459 OA
BRANCH  74  75
ATOM     75  C   UNL A   1      45.737  27.330  25.266  1.00  0.00     0.357 C 
ATOM     76  O   UNL A   1      45.793  28.002  24.247  1.00  0.00    -0.244 OA
BRANCH  75  77
ATOM     77  C   UNL A   1      44.567  26.527  25.667  1.00  0.00     0.154 A 
ATOM     78  C   UNL A   1      43.522  27.182  26.201  1.00  0.00     0.065 A 
ATOM     79  N   UNL A   1      44.507  25.155  25.445  1.00  0.00    -0.205 N 
ATOM     80  C   UNL A   1      42.326  26.339  26.489  1.00  0.00     0.075 A 
ATOM     81  C   UNL A   1      43.363  24.421  25.818  1.00  0.00     0.166 A 
ATOM     82  N   UNL A   1      45.475  24.367  24.924  1.00  0.00    -0.145 NA
ATOM     83  N   UNL A   1      42.254  25.048  26.337  1.00  0.00    -0.228 NA
ATOM     84  C   UNL A   1      43.678  23.105  25.532  1.00  0.00     0.069 A 
ATOM     85  C   UNL A   1      44.970  23.148  24.940  1.00  0.00     0.184 A 
ATOM     86  C   UNL A   1      42.918  21.953  25.772  1.00  0.00    -0.028 A 
ATOM     87  N   UNL A   1      45.620  22.049  24.503  1.00  0.00    -0.222 NA
ATOM     88  C   UNL A   1      43.626  20.823  25.304  1.00  0.00     0.038 A 
ATOM     89  C   UNL A   1      44.918  20.894  24.705  1.00  0.00     0.147 A 
BRANCH  80  90
ATOM     90  C   UNL A   1      41.164  27.102  26.990  1.00  0.00     0.000 A 
ATOM     91  C   UNL A   1      40.908  28.369  26.462  1.00  0.00     0.012 A 
ATOM     92  C   UNL A   1      40.305  26.535  27.940  1.00  0.00     0.012 A 
ATOM     93  C   UNL A   1      39.775  29.072  26.882  1.00  0.00     0.021 A 
ATOM     94  C   UNL A   1      39.176  27.246  28.360  1.00  0.00     0.021 A 
ATOM     95  C   UNL A   1      38.916  28.510  27.827  1.00  0.00     0.041 A 
ATOM     96  Cl  UNL A   1      37.530  29.389  28.341  1.00  0.00    -0.084 Cl
ENDBRANCH  80  90
BRANCH  86  97
ATOM     97  C   UNL A   1      41.614  21.975  26.499  1.00  0.00     0.020 C 
ATOM     98  C   UNL A   1      41.093  20.793  27.280  1.00  0.00     0.009 C 
ATOM     99  C   UNL A   1      41.655  21.975  28.011  1.00  0.00     0.009 C 
ENDBRANCH  86  97
BRANCH  89 100
ATOM    100  C   UNL A   1      45.609  19.606  24.275  1.00  0.00     0.433 C 
ATOM    101  F   UNL A   1      45.479  18.599  25.184  1.00  0.00    -0.165 F 
ATOM    102  F   UNL A   1      45.139  19.113  23.093  1.00  0.00    -0.165 F 
ATOM    103  F   UNL A   1      46.956  19.752  24.088  1.00  0.00    -0.165 F 
ENDBRANCH  89 100
ENDBRANCH  75  77
ENDBRANCH  74  75
ENDBRANCH  73  74
ENDBRANCH  72  73
ENDBRANCH  71  72
ENDBRANCH   1  71
TORSDOF 20
ENDMDL
MODEL 2
REMARK VINA RESULT:      -9.9      2.495      2.902
REMARK SMILES O=C(OCCOCCOC(=O)c1cc(-c2ccc(Cl)cc2)nc2c3c(C4CC4)cc(C(F)(F)F)nc3nn12)c1ccc(-c2c3nc(c(-c4cc(S(=O)(=O)[O-])ccc4F)c4ccc([nH]4)c(-c4cc(S(=O)(=O)[O-])ccc4F)c4nc(c(-c5cc(S(=O)(=O)[O-])ccc5F)c5ccc2[nH]5)C=C4)C=C3)cc1
REMARK SMILES IDX 5 1 4 2 3 3 2 4 1 5 39 6 40 7 101 8 41 9 100 10 42 11 43 12
REMARK SMILES IDX 44 13 94 14 45 15 99 16 93 17 95 18 46 19 98 20 92 21 91 22
REMARK SMILES IDX 47 24 79 25 59 26 78 27 60 28 63 29 77 30 96 31 61 32 62 33
REMARK SMILES IDX 76 35 97 36 64 37 48 38 49 39 57 40 50 41 56 42 58 43 55 44
REMARK SMILES IDX 51 45 52 46 53 47 54 48 80 49 81 50 89 51 82 52 88 53 90 54
REMARK SMILES IDX 87 55 83 56 84 57 85 58 86 59 65 60 66 61 74 62 67 63 73 64
REMARK SMILES IDX 75 65 72 66 68 67 69 68 70 69 71 70 6 71 7 72 8 73 9 74
REMARK SMILES IDX 10 75 11 76 12 77 13 78 38 79 14 80 23 81 37 82 22 83 24 84
REMARK SMILES IDX 36 85 25 86 35 87 29 88 30 89 15 90 16 91 21 92 17 93 20 94
REMARK SMILES IDX 18 95 19 96 26 97 27 98 28 99 31 100 32 101 33 102 34 103
REMARK H PARENT 95 23 63 34
REMARK Flexibility Score: inf
ROOT
ATOM      1  C   UNL A   1      48.263  30.758  28.048  1.00  0.00     0.202 C 
ENDROOT
BRANCH   1   2
ATOM      2  C   UNL A   1      47.150  31.682  28.568  1.00  0.00     0.261 C 
BRANCH   2   3
ATOM      3  O   UNL A   1      47.561  32.462  29.703  1.00  0.00    -0.460 OA
BRANCH   3   4
ATOM      4  C   UNL A   1      46.710  33.334  30.300  1.00  0.00     0.338 C 
ATOM      5  O   UNL A   1      46.985  34.498  30.517  1.00  0.00    -0.246 OA
BRANCH   4   6
ATOM      6  C   UNL A   1      45.356  32.817  30.561  1.00  0.00     0.060 A 
ATOM      7  C   UNL A   1      45.051  32.211  31.783  1.00  0.00     0.016 A 
ATOM      8  C   UNL A   1      44.371  33.007  29.598  1.00  0.00     0.016 A 
ATOM      9  C   UNL A   1      43.770  31.764  32.049  1.00  0.00     0.010 A 
ATOM     10  C   UNL A   1      43.073  32.592  29.874  1.00  0.00     0.010 A 
ATOM     11  C   UNL A   1      42.772  31.990  31.107  1.00  0.00    -0.014 A 
BRANCH  11  12
ATOM     12  C   UNL A   1      41.392  31.734  31.536  1.00  0.00     0.031 A 
ATOM     13  C   UNL A   1      41.195  30.368  32.091  1.00  0.00     0.074 A 
ATOM     14  C   UNL A   1      40.566  32.743  31.869  1.00  0.00     0.049 A 
ATOM     15  N   UNL A   1      41.582  30.097  33.300  1.00  0.00    -0.248 NA
ATOM     16  C   UNL A   1      40.915  29.184  31.282  1.00  0.00     0.031 C 
ATOM     17  C   UNL A   1      41.044  34.062  32.307  1.00  0.00     0.029 A 
ATOM     18  N   UNL A   1      39.222  32.754  32.141  1.00  0.00    -0.354 N 
ATOM     19  C   UNL A   1      41.738  28.731  33.383  1.00  0.00     0.074 A 
ATOM     20  C   UNL A   1      41.251  28.196  32.130  1.00  0.00     0.031 C 
ATOM     21  C   UNL A   1      40.056  34.661  33.002  1.00  0.00     0.029 A 
ATOM     22  C   UNL A   1      38.845  33.854  32.910  1.00  0.00     0.049 A 
ATOM     23  H   UNL A   1      38.594  32.062  31.830  1.00  0.00     0.167 HD
ATOM     24  C   UNL A   1      42.329  28.145  34.457  1.00  0.00     0.034 A 
ATOM     25  C   UNL A   1      37.864  33.822  33.852  1.00  0.00     0.034 A 
ATOM     26  C   UNL A   1      42.792  29.053  35.468  1.00  0.00     0.049 A 
ATOM     27  C   UNL A   1      38.489  32.922  34.898  1.00  0.00     0.074 A 
ATOM     28  C   UNL A   1      43.996  29.617  35.829  1.00  0.00     0.029 A 
ATOM     29  N   UNL A   1      41.859  29.661  36.275  1.00  0.00    -0.354 N 
ATOM     30  N   UNL A   1      39.405  33.272  35.767  1.00  0.00    -0.248 NA
ATOM     31  C   UNL A   1      38.325  31.474  34.751  1.00  0.00     0.031 C 
ATOM     32  C   UNL A   1      43.666  30.822  36.524  1.00  0.00     0.029 A 
ATOM     33  C   UNL A   1      42.276  30.951  36.505  1.00  0.00     0.049 A 
ATOM     34  H   UNL A   1      41.038  29.246  36.627  1.00  0.00     0.167 HD
ATOM     35  C   UNL A   1      40.120  32.102  36.053  1.00  0.00     0.074 A 
ATOM     36  C   UNL A   1      39.375  31.031  35.428  1.00  0.00     0.031 C 
ATOM     37  C   UNL A   1      41.367  32.080  36.613  1.00  0.00     0.034 A 
BRANCH  24  38
ATOM     38  C   UNL A   1      42.417  26.688  34.669  1.00  0.00     0.023 A 
ATOM     39  C   UNL A   1      43.332  25.860  34.004  1.00  0.00     0.031 A 
ATOM     40  C   UNL A   1      41.641  26.150  35.710  1.00  0.00     0.131 A 
ATOM     41  C   UNL A   1      43.459  24.524  34.416  1.00  0.00     0.055 A 
ATOM     42  C   UNL A   1      41.777  24.828  36.118  1.00  0.00     0.041 A 
ATOM     43  F   UNL A   1      40.767  26.930  36.371  1.00  0.00    -0.206 F 
ATOM     44  C   UNL A   1      42.695  24.009  35.473  1.00  0.00     0.022 A 
BRANCH  41  45
ATOM     45  S   UNL A   1      44.647  23.396  33.635  1.00  0.00     0.124 S 
ATOM     46  O   UNL A   1      44.480  22.177  34.423  1.00  0.00    -0.237 OA
ATOM     47  O   UNL A   1      44.142  23.328  32.266  1.00  0.00    -0.237 OA
ATOM     48  O   UNL A   1      45.929  24.073  33.794  1.00  0.00    -0.744 OA
ENDBRANCH  41  45
ENDBRANCH  24  38
BRANCH  25  49
ATOM     49  C   UNL A   1      36.502  33.622  33.248  1.00  0.00     0.023 A 
ATOM     50  C   UNL A   1      36.242  33.392  31.892  1.00  0.00     0.031 A 
ATOM     51  C   UNL A   1      35.375  33.749  34.096  1.00  0.00     0.131 A 
ATOM     52  C   UNL A   1      34.930  33.480  31.399  1.00  0.00     0.055 A 
ATOM     53  C   UNL A   1      34.064  33.774  33.612  1.00  0.00     0.041 A 
ATOM     54  F   UNL A   1      35.533  33.878  35.424  1.00  0.00    -0.206 F 
ATOM     55  C   UNL A   1      33.838  33.673  32.247  1.00  0.00     0.022 A 
BRANCH  52  56
ATOM     56  S   UNL A   1      34.618  33.432  29.612  1.00  0.00     0.124 S 
ATOM     57  O   UNL A   1      35.813  34.072  29.069  1.00  0.00    -0.237 OA
ATOM     58  O   UNL A   1      34.507  31.995  29.378  1.00  0.00    -0.237 OA
ATOM     59  O   UNL A   1      33.381  34.191  29.466  1.00  0.00    -0.744 OA
ENDBRANCH  52  56
ENDBRANCH  25  49
BRANCH  37  60
ATOM     60  C   UNL A   1      41.873  33.370  37.179  1.00  0.00     0.023 A 
ATOM     61  C   UNL A   1      41.551  33.777  38.489  1.00  0.00     0.031 A 
ATOM     62  C   UNL A   1      42.579  34.263  36.359  1.00  0.00     0.131 A 
ATOM     63  C   UNL A   1      41.874  35.072  38.915  1.00  0.00     0.055 A 
ATOM     64  C   UNL A   1      42.944  35.533  36.807  1.00  0.00     0.041 A 
ATOM     65  F   UNL A   1      42.878  33.935  35.091  1.00  0.00    -0.206 F 
ATOM     66  C   UNL A   1      42.580  35.949  38.085  1.00  0.00     0.022 A 
BRANCH  63  67
ATOM     67  S   UNL A   1      41.342  35.675  40.542  1.00  0.00     0.124 S 
ATOM     68  O   UNL A   1      42.036  36.957  40.653  1.00  0.00    -0.237 OA
ATOM     69  O   UNL A   1      39.894  35.766  40.369  1.00  0.00    -0.237 OA
ATOM     70  O   UNL A   1      41.803  34.645  41.469  1.00  0.00    -0.744 OA
ENDBRANCH  63  67
ENDBRANCH  37  60
ENDBRANCH  11  12
ENDBRANCH   4   6
ENDBRANCH   3   4
ENDBRANCH   2   3
ENDBRANCH   1   2
BRANCH   1  71
ATOM     71  O   UNL A   1      47.956  30.185  26.778  1.00  0.00    -0.374 OA
BRANCH  71  72
ATOM     72  C   UNL A   1      48.264  28.795  26.629  1.00  0.00     0.202 C 
BRANCH  72  73
ATOM     73  C   UNL A   1      47.130  27.923  27.147  1.00  0.00     0.261 C 
BRANCH  73  74
ATOM     74  O   UNL A   1      46.783  26.914  26.191  1.00  0.00    -0.459 OA
BRANCH  74  75
ATOM     75  C   UNL A   1      45.796  27.172  25.307  1.00  0.00     0.357 C 
ATOM     76  O   UNL A   1      45.901  27.780  24.253  1.00  0.00    -0.244 OA
BRANCH  75  77
ATOM     77  C   UNL A   1      44.593  26.424  25.715  1.00  0.00     0.154 A 
ATOM     78  C   UNL A   1      43.581  27.126  26.252  1.00  0.00     0.065 A 
ATOM     79  N   UNL A   1      44.469  25.056  25.498  1.00  0.00    -0.205 N 
ATOM     80  C   UNL A   1      42.349  26.340  26.548  1.00  0.00     0.075 A 
ATOM     81  C   UNL A   1      43.296  24.375  25.878  1.00  0.00     0.166 A 
ATOM     82  N   UNL A   1      45.399  24.223  24.974  1.00  0.00    -0.145 NA
ATOM     83  N   UNL A   1      42.219  25.052  26.401  1.00  0.00    -0.228 NA
ATOM     84  C   UNL A   1      43.550  23.045  25.595  1.00  0.00     0.069 A 
ATOM     85  C   UNL A   1      44.839  23.028  24.996  1.00  0.00     0.184 A 
ATOM     86  C   UNL A   1      42.740  21.929  25.841  1.00  0.00    -0.028 A 
ATOM     87  N   UNL A   1      45.436  21.899  24.559  1.00  0.00    -0.222 NA
ATOM     88  C   UNL A   1      43.393  20.767  25.373  1.00  0.00     0.038 A 
ATOM     89  C   UNL A   1      44.685  20.778  24.768  1.00  0.00     0.147 A 
BRANCH  80  90
ATOM     90  C   UNL A   1      41.225  27.156  27.053  1.00  0.00     0.000 A 
ATOM     91  C   UNL A   1      41.000  28.415  26.495  1.00  0.00     0.012 A 
ATOM     92  C   UNL A   1      40.370  26.645  28.038  1.00  0.00     0.012 A 
ATOM     93  C   UNL A   1      39.902  29.167  26.919  1.00  0.00     0.021 A 
ATOM     94  C   UNL A   1      39.276  27.405  28.462  1.00  0.00     0.021 A 
ATOM     95  C   UNL A   1      39.046  28.662  27.899  1.00  0.00     0.041 A 
ATOM     96  Cl  UNL A   1      37.702  29.603  28.417  1.00  0.00    -0.084 Cl
ENDBRANCH  80  90
BRANCH  86  97
ATOM     97  C   UNL A   1      41.441  22.012  26.574  1.00  0.00     0.020 C 
ATOM     98  C   UNL A   1      40.789  20.814  27.222  1.00  0.00     0.009 C 
ATOM     99  C   UNL A   1      41.472  21.838  28.077  1.00  0.00     0.009 C 
ENDBRANCH  86  97
BRANCH  89 100
ATOM    100  C   UNL A   1      45.314  19.459  24.338  1.00  0.00     0.433 C 
ATOM    101  F   UNL A   1      46.601  19.594  23.910  1.00  0.00    -0.165 F 
ATOM    102  F   UNL A   1      45.341  18.527  25.333  1.00  0.00    -0.165 F 
ATOM    103  F   UNL A   1      44.650  18.857  23.304  1.00  0.00    -0.165 F 
ENDBRANCH  89 100
ENDBRANCH  75  77
ENDBRANCH  74  75
ENDBRANCH  73  74
ENDBRANCH  72  73
ENDBRANCH  71  72
ENDBRANCH   1  71
TORSDOF 20
ENDMDL
MODEL 3
REMARK VINA RESULT:      -9.8      6.107     12.009
REMARK SMILES O=C(OCCOCCOC(=O)c1cc(-c2ccc(Cl)cc2)nc2c3c(C4CC4)cc(C(F)(F)F)nc3nn12)c1ccc(-c2c3nc(c(-c4cc(S(=O)(=O)[O-])ccc4F)c4ccc([nH]4)c(-c4cc(S(=O)(=O)[O-])ccc4F)c4nc(c(-c5cc(S(=O)(=O)[O-])ccc5F)c5ccc2[nH]5)C=C4)C=C3)cc1
REMARK SMILES IDX 5 1 4 2 3 3 2 4 1 5 39 6 40 7 101 8 41 9 100 10 42 11 43 12
REMARK SMILES IDX 44 13 94 14 45 15 99 16 93 17 95 18 46 19 98 20 92 21 91 22
REMARK SMILES IDX 47 24 79 25 59 26 78 27 60 28 63 29 77 30 96 31 61 32 62 33
REMARK SMILES IDX 76 35 97 36 64 37 48 38 49 39 57 40 50 41 56 42 58 43 55 44
REMARK SMILES IDX 51 45 52 46 53 47 54 48 80 49 81 50 89 51 82 52 88 53 90 54
REMARK SMILES IDX 87 55 83 56 84 57 85 58 86 59 65 60 66 61 74 62 67 63 73 64
REMARK SMILES IDX 75 65 72 66 68 67 69 68 70 69 71 70 6 71 7 72 8 73 9 74
REMARK SMILES IDX 10 75 11 76 12 77 13 78 38 79 14 80 23 81 37 82 22 83 24 84
REMARK SMILES IDX 36 85 25 86 35 87 29 88 30 89 15 90 16 91 21 92 17 93 20 94
REMARK SMILES IDX 18 95 19 96 26 97 27 98 28 99 31 100 32 101 33 102 34 103
REMARK H PARENT 95 23 63 34
REMARK Flexibility Score: inf
ROOT
ATOM      1  C   UNL A   1      43.712  22.549  24.591  1.00  0.00     0.202 C 
ENDROOT
BRANCH   1   2
ATOM      2  C   UNL A   1      44.440  23.903  24.627  1.00  0.00     0.261 C 
BRANCH   2   3
ATOM      3  O   UNL A   1      43.739  24.889  25.400  1.00  0.00    -0.460 OA
BRANCH   3   4
ATOM      4  C   UNL A   1      44.323  26.071  25.723  1.00  0.00     0.338 C 
ATOM      5  O   UNL A   1      43.841  27.154  25.450  1.00  0.00    -0.246 OA
BRANCH   4   6
ATOM      6  C   UNL A   1      45.536  25.971  26.552  1.00  0.00     0.060 A 
ATOM      7  C   UNL A   1      45.983  24.729  27.009  1.00  0.00     0.016 A 
ATOM      8  C   UNL A   1      46.266  27.127  26.808  1.00  0.00     0.016 A 
ATOM      9  C   UNL A   1      47.146  24.627  27.750  1.00  0.00     0.010 A 
ATOM     10  C   UNL A   1      47.454  27.025  27.522  1.00  0.00     0.010 A 
ATOM     11  C   UNL A   1      47.902  25.772  27.974  1.00  0.00    -0.014 A 
BRANCH  11  12
ATOM     12  C   UNL A   1      49.243  25.577  28.536  1.00  0.00     0.031 A 
ATOM     13  C   UNL A   1      50.327  26.105  27.664  1.00  0.00     0.074 A 
ATOM     14  C   UNL A   1      49.430  25.429  29.861  1.00  0.00     0.049 A 
ATOM     15  N   UNL A   1      50.567  27.381  27.629  1.00  0.00    -0.248 NA
ATOM     16  C   UNL A   1      50.934  25.360  26.564  1.00  0.00     0.031 C 
ATOM     17  C   UNL A   1      48.476  25.917  30.867  1.00  0.00     0.029 A 
ATOM     18  N   UNL A   1      50.547  25.086  30.580  1.00  0.00    -0.354 N 
ATOM     19  C   UNL A   1      51.227  27.640  26.448  1.00  0.00     0.074 A 
ATOM     20  C   UNL A   1      51.493  26.351  25.847  1.00  0.00     0.031 C 
ATOM     21  C   UNL A   1      49.130  26.059  32.037  1.00  0.00     0.029 A 
ATOM     22  C   UNL A   1      50.478  25.518  31.904  1.00  0.00     0.049 A 
ATOM     23  H   UNL A   1      51.311  24.593  30.203  1.00  0.00     0.167 HD
ATOM     24  C   UNL A   1      51.441  28.909  26.014  1.00  0.00     0.034 A 
ATOM     25  C   UNL A   1      51.554  25.936  32.623  1.00  0.00     0.034 A 
ATOM     26  C   UNL A   1      50.908  29.940  26.861  1.00  0.00     0.049 A 
ATOM     27  C   UNL A   1      51.906  27.223  31.904  1.00  0.00     0.074 A 
ATOM     28  C   UNL A   1      49.787  30.739  26.878  1.00  0.00     0.029 A 
ATOM     29  N   UNL A   1      51.552  30.204  28.048  1.00  0.00    -0.354 N 
ATOM     30  N   UNL A   1      51.287  28.371  32.034  1.00  0.00    -0.248 NA
ATOM     31  C   UNL A   1      52.782  27.143  30.735  1.00  0.00     0.031 C 
ATOM     32  C   UNL A   1      49.601  31.115  28.245  1.00  0.00     0.029 A 
ATOM     33  C   UNL A   1      50.593  30.482  28.994  1.00  0.00     0.049 A 
ATOM     34  H   UNL A   1      52.526  30.197  28.194  1.00  0.00     0.167 HD
ATOM     35  C   UNL A   1      51.473  29.039  30.817  1.00  0.00     0.074 A 
ATOM     36  C   UNL A   1      52.436  28.245  30.084  1.00  0.00     0.031 C 
ATOM     37  C   UNL A   1      50.706  30.086  30.388  1.00  0.00     0.034 A 
BRANCH  24  38
ATOM     38  C   UNL A   1      52.244  29.262  24.828  1.00  0.00     0.023 A 
ATOM     39  C   UNL A   1      51.691  29.552  23.574  1.00  0.00     0.031 A 
ATOM     40  C   UNL A   1      53.619  29.467  25.032  1.00  0.00     0.131 A 
ATOM     41  C   UNL A   1      52.528  30.057  22.565  1.00  0.00     0.055 A 
ATOM     42  C   UNL A   1      54.441  29.975  24.032  1.00  0.00     0.041 A 
ATOM     43  F   UNL A   1      54.168  29.209  26.233  1.00  0.00    -0.206 F 
ATOM     44  C   UNL A   1      53.894  30.278  22.793  1.00  0.00     0.022 A 
BRANCH  41  45
ATOM     45  S   UNL A   1      51.886  30.494  20.926  1.00  0.00     0.124 S 
ATOM     46  O   UNL A   1      50.481  30.104  21.030  1.00  0.00    -0.237 OA
ATOM     47  O   UNL A   1      52.131  31.934  20.882  1.00  0.00    -0.237 OA
ATOM     48  O   UNL A   1      52.692  29.696  20.009  1.00  0.00    -0.744 OA
ENDBRANCH  41  45
ENDBRANCH  24  38
BRANCH  25  49
ATOM     49  C   UNL A   1      52.518  24.819  32.908  1.00  0.00     0.023 A 
ATOM     50  C   UNL A   1      52.251  23.455  32.739  1.00  0.00     0.031 A 
ATOM     51  C   UNL A   1      53.777  25.154  33.463  1.00  0.00     0.131 A 
ATOM     52  C   UNL A   1      53.121  22.493  33.278  1.00  0.00     0.055 A 
ATOM     53  C   UNL A   1      54.671  24.192  33.943  1.00  0.00     0.041 A 
ATOM     54  F   UNL A   1      54.152  26.440  33.573  1.00  0.00    -0.206 F 
ATOM     55  C   UNL A   1      54.327  22.850  33.882  1.00  0.00     0.022 A 
BRANCH  52  56
ATOM     56  S   UNL A   1      52.656  20.739  33.283  1.00  0.00     0.124 S 
ATOM     57  O   UNL A   1      52.264  20.522  34.673  1.00  0.00    -0.237 OA
ATOM     58  O   UNL A   1      51.568  20.727  32.309  1.00  0.00    -0.237 OA
ATOM     59  O   UNL A   1      53.881  20.065  32.865  1.00  0.00    -0.744 OA
ENDBRANCH  52  56
ENDBRANCH  25  49
BRANCH  37  60
ATOM     60  C   UNL A   1      49.787  30.703  31.396  1.00  0.00     0.023 A 
ATOM     61  C   UNL A   1      48.482  30.213  31.602  1.00  0.00     0.031 A 
ATOM     62  C   UNL A   1      50.173  31.872  32.069  1.00  0.00     0.131 A 
ATOM     63  C   UNL A   1      47.587  30.932  32.405  1.00  0.00     0.055 A 
ATOM     64  C   UNL A   1      49.293  32.556  32.909  1.00  0.00     0.041 A 
ATOM     65  F   UNL A   1      51.395  32.398  31.877  1.00  0.00    -0.206 F 
ATOM     66  C   UNL A   1      47.989  32.095  33.069  1.00  0.00     0.022 A 
BRANCH  63  67
ATOM     67  S   UNL A   1      45.858  30.407  32.569  1.00  0.00     0.124 S 
ATOM     68  O   UNL A   1      45.678  30.337  34.018  1.00  0.00    -0.237 OA
ATOM     69  O   UNL A   1      45.148  31.498  31.907  1.00  0.00    -0.237 OA
ATOM     70  O   UNL A   1      45.813  29.119  31.882  1.00  0.00    -0.744 OA
ENDBRANCH  63  67
ENDBRANCH  37  60
ENDBRANCH  11  12
ENDBRANCH   4   6
ENDBRANCH   3   4
ENDBRANCH   2   3
ENDBRANCH   1   2
BRANCH   1  71
ATOM     71  O   UNL A   1      44.419  21.524  25.288  1.00  0.00    -0.374 OA
BRANCH  71  72
ATOM     72  C   UNL A   1      44.480  20.252  24.635  1.00  0.00     0.202 C 
BRANCH  72  73
ATOM     73  C   UNL A   1      43.693  19.202  25.406  1.00  0.00     0.261 C 
BRANCH  73  74
ATOM     74  O   UNL A   1      42.303  19.542  25.461  1.00  0.00    -0.459 OA
BRANCH  74  75
ATOM     75  C   UNL A   1      41.721  19.698  26.669  1.00  0.00     0.357 C 
ATOM     76  O   UNL A   1      41.886  18.996  27.655  1.00  0.00    -0.244 OA
BRANCH  75  77
ATOM     77  C   UNL A   1      40.997  20.983  26.679  1.00  0.00     0.154 A 
ATOM     78  C   UNL A   1      39.820  21.034  26.032  1.00  0.00     0.065 A 
ATOM     79  N   UNL A   1      41.469  22.087  27.381  1.00  0.00    -0.205 N 
ATOM     80  C   UNL A   1      39.080  22.322  26.163  1.00  0.00     0.075 A 
ATOM     81  C   UNL A   1      40.741  23.293  27.390  1.00  0.00     0.166 A 
ATOM     82  N   UNL A   1      42.630  22.184  28.069  1.00  0.00    -0.145 NA
ATOM     83  N   UNL A   1      39.515  23.388  26.772  1.00  0.00    -0.228 NA
ATOM     84  C   UNL A   1      41.530  24.178  28.101  1.00  0.00     0.069 A 
ATOM     85  C   UNL A   1      42.653  23.419  28.532  1.00  0.00     0.184 A 
ATOM     86  C   UNL A   1      41.309  25.539  28.353  1.00  0.00    -0.028 A 
ATOM     87  N   UNL A   1      43.651  23.935  29.280  1.00  0.00    -0.222 NA
ATOM     88  C   UNL A   1      42.370  26.046  29.135  1.00  0.00     0.038 A 
ATOM     89  C   UNL A   1      43.481  25.261  29.561  1.00  0.00     0.147 A 
BRANCH  80  90
ATOM     90  C   UNL A   1      37.751  22.316  25.518  1.00  0.00     0.000 A 
ATOM     91  C   UNL A   1      37.170  21.093  25.176  1.00  0.00     0.012 A 
ATOM     92  C   UNL A   1      37.065  23.519  25.306  1.00  0.00     0.012 A 
ATOM     93  C   UNL A   1      35.887  21.072  24.625  1.00  0.00     0.021 A 
ATOM     94  C   UNL A   1      35.782  23.491  24.749  1.00  0.00     0.021 A 
ATOM     95  C   UNL A   1      35.199  22.268  24.413  1.00  0.00     0.041 A 
ATOM     96  Cl  UNL A   1      33.622  22.228  23.726  1.00  0.00    -0.084 Cl
ENDBRANCH  80  90
BRANCH  86  97
ATOM     97  C   UNL A   1      40.158  26.296  27.774  1.00  0.00     0.020 C 
ATOM     98  C   UNL A   1      39.961  27.777  27.994  1.00  0.00     0.009 C 
ATOM     99  C   UNL A   1      40.456  27.285  26.668  1.00  0.00     0.009 C 
ENDBRANCH  86  97
BRANCH  89 100
ATOM    100  C   UNL A   1      44.592  25.923  30.367  1.00  0.00     0.433 C 
ATOM    101  F   UNL A   1      45.660  25.103  30.580  1.00  0.00    -0.165 F 
ATOM    102  F   UNL A   1      45.088  27.047  29.775  1.00  0.00    -0.165 F 
ATOM    103  F   UNL A   1      44.190  26.324  31.611  1.00  0.00    -0.165 F 
ENDBRANCH  89 100
ENDBRANCH  75  77
ENDBRANCH  74  75
ENDBRANCH  73  74
ENDBRANCH  72  73
ENDBRANCH  71  72
ENDBRANCH   1  71
TORSDOF 20
ENDMDL
