MODEL 1
REMARK VINA RESULT:     -12.4      0.000      0.000
REMARK SMILES O=C(Cn1nc(C(=O)OCCOCCOC(=O)c2ccc(-c3c4nc(c(-c5cc(S(=O)(=O)[O-])ccc5F)c5ccc([nH]5)c(-c5cc(S(=O)(=O)[O-])ccc5F)c5nc(c(-c6cc(S(=O)(=O)[O-])ccc6F)c6ccc3[nH]6)C=C5)C=C4)cc2)c2ccccc2c1=O)Nc1ccc2c(c1)C(=O)c1ccccc1C2=O
REMARK SMILES IDX 12 1 11 2 10 3 9 4 7 5 8 6 6 7 4 8 5 9 87 10 86 11 88 12
REMARK SMILES IDX 81 13 85 14 82 15 84 16 83 17 3 18 2 19 1 20 89 21 90 23
REMARK SMILES IDX 91 24 95 25 92 26 94 27 93 28 96 29 104 30 97 31 98 32
REMARK SMILES IDX 103 33 105 34 99 35 102 36 100 37 101 38 13 39 14 40 15 41
REMARK SMILES IDX 16 42 17 43 18 44 19 45 80 46 20 47 79 48 21 49 22 50 23 51
REMARK SMILES IDX 73 52 24 53 78 54 72 55 74 56 25 57 77 58 71 59 70 60 26 62
REMARK SMILES IDX 58 63 38 64 57 65 39 66 42 67 56 68 75 69 40 70 41 71 55 73
REMARK SMILES IDX 76 74 43 75 27 76 28 77 36 78 29 79 35 80 37 81 34 82 30 83
REMARK SMILES IDX 31 84 32 85 33 86 59 87 60 88 68 89 61 90 67 91 69 92 66 93
REMARK SMILES IDX 62 94 63 95 64 96 65 97 44 98 45 99 53 100 46 101 52 102
REMARK SMILES IDX 54 103 51 104 47 105 48 106 49 107 50 108
REMARK H PARENT 89 22 74 61 42 72
REMARK Flexibility Score: inf
ROOT
ATOM      1  O   UNL A   1      45.973  20.028  25.257  1.00  0.00    -0.374 OA
ENDROOT
BRANCH   1   2
ATOM      2  C   UNL A   1      44.895  19.404  24.557  1.00  0.00     0.202 C 
BRANCH   2   3
ATOM      3  C   UNL A   1      43.731  18.900  25.418  1.00  0.00     0.261 C 
BRANCH   3   4
ATOM      4  O   UNL A   1      42.689  19.882  25.514  1.00  0.00    -0.458 OA
BRANCH   4   5
ATOM      5  C   UNL A   1      41.951  19.846  26.642  1.00  0.00     0.359 C 
ATOM      6  O   UNL A   1      42.183  19.261  27.685  1.00  0.00    -0.244 OA
BRANCH   5   7
ATOM      7  C   UNL A   1      40.809  20.844  26.530  1.00  0.00     0.176 A 
ATOM      8  N   UNL A   1      38.709  21.400  25.706  1.00  0.00    -0.219 N 
ATOM      9  N   UNL A   1      39.736  20.482  25.882  1.00  0.00    -0.161 NA
ATOM     10  C   UNL A   1      38.818  22.725  26.123  1.00  0.00     0.275 A 
ATOM     11  C   UNL A   1      39.921  23.054  27.038  1.00  0.00     0.051 A 
ATOM     12  O   UNL A   1      38.047  23.616  25.788  1.00  0.00    -0.267 OA
ATOM     13  C   UNL A   1      40.976  22.163  27.169  1.00  0.00     0.022 A 
ATOM     14  C   UNL A   1      39.934  24.281  27.717  1.00  0.00     0.014 A 
ATOM     15  C   UNL A   1      42.112  22.546  27.895  1.00  0.00     0.011 A 
ATOM     16  C   UNL A   1      41.045  24.640  28.479  1.00  0.00     0.001 A 
ATOM     17  C   UNL A   1      42.146  23.788  28.540  1.00  0.00     0.001 A 
BRANCH   8  18
ATOM     18  C   UNL A   1      37.702  21.055  24.680  1.00  0.00     0.248 C 
BRANCH  18  19
ATOM     19  C   UNL A   1      36.291  20.688  25.184  1.00  0.00     0.246 C 
ATOM     20  O   UNL A   1      35.773  19.598  24.940  1.00  0.00    -0.273 OA
ATOM     21  N   UNL A   1      35.728  21.612  26.040  1.00  0.00    -0.324 N 
ATOM     22  H   UNL A   1      36.317  22.195  26.571  1.00  0.00     0.169 HD
BRANCH  21  23
ATOM     23  C   UNL A   1      34.333  21.742  26.172  1.00  0.00     0.042 A 
ATOM     24  C   UNL A   1      33.786  22.124  27.401  1.00  0.00     0.027 A 
ATOM     25  C   UNL A   1      33.600  21.899  24.998  1.00  0.00     0.039 A 
ATOM     26  C   UNL A   1      32.615  22.894  27.423  1.00  0.00     0.015 A 
ATOM     27  C   UNL A   1      32.415  22.619  25.030  1.00  0.00     0.036 A 
ATOM     28  C   UNL A   1      32.043  23.267  26.204  1.00  0.00     0.034 A 
ATOM     29  C   UNL A   1      31.912  23.134  23.750  1.00  0.00     0.194 C 
ATOM     30  C   UNL A   1      31.539  24.664  26.048  1.00  0.00     0.194 C 
ATOM     31  O   UNL A   1      31.524  22.426  22.839  1.00  0.00    -0.289 OA
ATOM     32  C   UNL A   1      32.106  24.580  23.624  1.00  0.00     0.034 A 
ATOM     33  C   UNL A   1      31.971  25.345  24.787  1.00  0.00     0.034 A 
ATOM     34  O   UNL A   1      30.980  25.267  26.950  1.00  0.00    -0.289 OA
ATOM     35  C   UNL A   1      32.698  25.082  22.467  1.00  0.00     0.013 A 
ATOM     36  C   UNL A   1      32.460  26.649  24.797  1.00  0.00     0.013 A 
ATOM     37  C   UNL A   1      33.219  26.370  22.495  1.00  0.00     0.001 A 
ATOM     38  C   UNL A   1      33.103  27.148  23.655  1.00  0.00     0.001 A 
ENDBRANCH  21  23
ENDBRANCH  18  19
ENDBRANCH   8  18
ENDBRANCH   5   7
ENDBRANCH   4   5
ENDBRANCH   3   4
ENDBRANCH   2   3
ENDBRANCH   1   2
BRANCH   1  39
ATOM     39  C   UNL A   1      46.009  21.457  25.280  1.00  0.00     0.202 C 
BRANCH  39  40
ATOM     40  C   UNL A   1      45.694  22.212  23.983  1.00  0.00     0.261 C 
BRANCH  40  41
ATOM     41  O   UNL A   1      45.287  23.567  24.224  1.00  0.00    -0.460 OA
BRANCH  41  42
ATOM     42  C   UNL A   1      43.996  23.721  24.613  1.00  0.00     0.338 C 
ATOM     43  O   UNL A   1      43.079  22.935  24.434  1.00  0.00    -0.246 OA
BRANCH  42  44
ATOM     44  C   UNL A   1      43.895  24.899  25.497  1.00  0.00     0.060 A 
ATOM     45  C   UNL A   1      44.648  24.997  26.668  1.00  0.00     0.016 A 
ATOM     46  C   UNL A   1      43.030  25.934  25.117  1.00  0.00     0.016 A 
ATOM     47  C   UNL A   1      44.548  26.151  27.450  1.00  0.00     0.010 A 
ATOM     48  C   UNL A   1      42.934  27.085  25.899  1.00  0.00     0.010 A 
ATOM     49  C   UNL A   1      43.703  27.210  27.063  1.00  0.00    -0.014 A 
BRANCH  49  50
ATOM     50  C   UNL A   1      43.739  28.497  27.800  1.00  0.00     0.031 A 
ATOM     51  C   UNL A   1      45.005  29.283  27.953  1.00  0.00     0.074 A 
ATOM     52  C   UNL A   1      42.596  28.940  28.360  1.00  0.00     0.049 A 
ATOM     53  N   UNL A   1      45.175  30.462  28.490  1.00  0.00    -0.248 NA
ATOM     54  C   UNL A   1      46.241  28.665  27.450  1.00  0.00     0.031 C 
ATOM     55  C   UNL A   1      41.321  28.223  28.318  1.00  0.00     0.029 A 
ATOM     56  N   UNL A   1      42.315  30.084  29.061  1.00  0.00    -0.354 N 
ATOM     57  C   UNL A   1      46.530  30.744  28.375  1.00  0.00     0.074 A 
ATOM     58  C   UNL A   1      47.147  29.584  27.766  1.00  0.00     0.031 C 
ATOM     59  C   UNL A   1      40.387  28.957  28.938  1.00  0.00     0.029 A 
ATOM     60  C   UNL A   1      40.999  30.181  29.451  1.00  0.00     0.049 A 
ATOM     61  H   UNL A   1      42.990  30.771  29.266  1.00  0.00     0.167 HD
ATOM     62  C   UNL A   1      47.187  31.877  28.726  1.00  0.00     0.034 A 
ATOM     63  C   UNL A   1      40.351  31.145  30.138  1.00  0.00     0.034 A 
ATOM     64  C   UNL A   1      46.549  33.013  29.346  1.00  0.00     0.049 A 
ATOM     65  C   UNL A   1      41.106  32.389  30.530  1.00  0.00     0.074 A 
ATOM     66  C   UNL A   1      47.118  34.227  29.687  1.00  0.00     0.029 A 
ATOM     67  N   UNL A   1      45.216  33.079  29.730  1.00  0.00    -0.354 N 
ATOM     68  N   UNL A   1      42.361  32.695  30.303  1.00  0.00    -0.248 NA
ATOM     69  C   UNL A   1      40.360  33.427  31.253  1.00  0.00     0.031 C 
ATOM     70  C   UNL A   1      46.158  34.991  30.349  1.00  0.00     0.029 A 
ATOM     71  C   UNL A   1      44.957  34.297  30.340  1.00  0.00     0.049 A 
ATOM     72  H   UNL A   1      44.553  32.365  29.591  1.00  0.00     0.167 HD
ATOM     73  C   UNL A   1      42.549  33.971  30.828  1.00  0.00     0.074 A 
ATOM     74  C   UNL A   1      41.269  34.388  31.365  1.00  0.00     0.031 C 
ATOM     75  C   UNL A   1      43.678  34.721  30.862  1.00  0.00     0.034 A 
BRANCH  62  76
ATOM     76  C   UNL A   1      48.665  31.981  28.436  1.00  0.00     0.023 A 
ATOM     77  C   UNL A   1      49.117  32.696  27.310  1.00  0.00     0.031 A 
ATOM     78  C   UNL A   1      49.609  31.246  29.176  1.00  0.00     0.131 A 
ATOM     79  C   UNL A   1      50.465  32.625  26.932  1.00  0.00     0.055 A 
ATOM     80  C   UNL A   1      50.959  31.216  28.823  1.00  0.00     0.041 A 
ATOM     81  F   UNL A   1      49.230  30.542  30.255  1.00  0.00    -0.206 F 
ATOM     82  C   UNL A   1      51.389  31.895  27.687  1.00  0.00     0.022 A 
BRANCH  79  83
ATOM     83  S   UNL A   1      51.056  33.406  25.406  1.00  0.00     0.124 S 
ATOM     84  O   UNL A   1      51.393  32.242  24.587  1.00  0.00    -0.237 OA
ATOM     85  O   UNL A   1      49.881  34.155  24.971  1.00  0.00    -0.237 OA
ATOM     86  O   UNL A   1      52.193  34.210  25.840  1.00  0.00    -0.744 OA
ENDBRANCH  79  83
ENDBRANCH  62  76
BRANCH  63  87
ATOM     87  C   UNL A   1      38.894  30.978  30.409  1.00  0.00     0.023 A 
ATOM     88  C   UNL A   1      37.932  31.514  29.532  1.00  0.00     0.031 A 
ATOM     89  C   UNL A   1      38.445  30.406  31.611  1.00  0.00     0.131 A 
ATOM     90  C   UNL A   1      36.583  31.539  29.906  1.00  0.00     0.055 A 
ATOM     91  C   UNL A   1      37.090  30.361  31.944  1.00  0.00     0.041 A 
ATOM     92  F   UNL A   1      39.324  29.897  32.488  1.00  0.00    -0.206 F 
ATOM     93  C   UNL A   1      36.153  30.949  31.098  1.00  0.00     0.022 A 
BRANCH  90  94
ATOM     94  S   UNL A   1      35.367  32.468  28.932  1.00  0.00     0.124 S 
ATOM     95  O   UNL A   1      34.504  31.406  28.427  1.00  0.00    -0.237 OA
ATOM     96  O   UNL A   1      34.774  33.335  29.949  1.00  0.00    -0.237 OA
ATOM     97  O   UNL A   1      36.178  33.153  27.931  1.00  0.00    -0.744 OA
ENDBRANCH  90  94
ENDBRANCH  63  87
BRANCH  75  98
ATOM     98  C   UNL A   1      43.624  36.096  31.492  1.00  0.00     0.023 A 
ATOM     99  C   UNL A   1      43.712  37.244  30.678  1.00  0.00     0.031 A 
ATOM    100  C   UNL A   1      43.661  36.270  32.887  1.00  0.00     0.131 A 
ATOM    101  C   UNL A   1      43.888  38.503  31.264  1.00  0.00     0.055 A 
ATOM    102  C   UNL A   1      43.779  37.535  33.466  1.00  0.00     0.041 A 
ATOM    103  F   UNL A   1      43.594  35.209  33.708  1.00  0.00    -0.206 F 
ATOM    104  C   UNL A   1      43.912  38.656  32.653  1.00  0.00     0.022 A 
BRANCH 101 105
ATOM    105  S   UNL A   1      44.203  39.973  30.246  1.00  0.00     0.124 S 
ATOM    106  O   UNL A   1      45.530  39.686  29.704  1.00  0.00    -0.237 OA
ATOM    107  O   UNL A   1      43.110  39.917  29.279  1.00  0.00    -0.237 OA
ATOM    108  O   UNL A   1      44.146  41.079  31.195  1.00  0.00    -0.744 OA
ENDBRANCH 101 105
ENDBRANCH  75  98
ENDBRANCH  49  50
ENDBRANCH  42  44
ENDBRANCH  41  42
ENDBRANCH  40  41
ENDBRANCH  39  40
ENDBRANCH   1  39
TORSDOF 20
ENDMDL
MODEL 2
REMARK VINA RESULT:     -11.8      7.065     15.581
REMARK SMILES O=C(Cn1nc(C(=O)OCCOCCOC(=O)c2ccc(-c3c4nc(c(-c5cc(S(=O)(=O)[O-])ccc5F)c5ccc([nH]5)c(-c5cc(S(=O)(=O)[O-])ccc5F)c5nc(c(-c6cc(S(=O)(=O)[O-])ccc6F)c6ccc3[nH]6)C=C5)C=C4)cc2)c2ccccc2c1=O)Nc1ccc2c(c1)C(=O)c1ccccc1C2=O
REMARK SMILES IDX 12 1 11 2 10 3 9 4 7 5 8 6 6 7 4 8 5 9 87 10 86 11 88 12
REMARK SMILES IDX 81 13 85 14 82 15 84 16 83 17 3 18 2 19 1 20 89 21 90 23
REMARK SMILES IDX 91 24 95 25 92 26 94 27 93 28 96 29 104 30 97 31 98 32
REMARK SMILES IDX 103 33 105 34 99 35 102 36 100 37 101 38 13 39 14 40 15 41
REMARK SMILES IDX 16 42 17 43 18 44 19 45 80 46 20 47 79 48 21 49 22 50 23 51
REMARK SMILES IDX 73 52 24 53 78 54 72 55 74 56 25 57 77 58 71 59 70 60 26 62
REMARK SMILES IDX 58 63 38 64 57 65 39 66 42 67 56 68 75 69 40 70 41 71 55 73
REMARK SMILES IDX 76 74 43 75 27 76 28 77 36 78 29 79 35 80 37 81 34 82 30 83
REMARK SMILES IDX 31 84 32 85 33 86 59 87 60 88 68 89 61 90 67 91 69 92 66 93
REMARK SMILES IDX 62 94 63 95 64 96 65 97 44 98 45 99 53 100 46 101 52 102
REMARK SMILES IDX 54 103 51 104 47 105 48 106 49 107 50 108
REMARK H PARENT 89 22 74 61 42 72
REMARK Flexibility Score: inf
ROOT
ATOM      1  O   UNL A   1      48.154  39.038  28.435  1.00  0.00    -0.374 OA
ENDROOT
BRANCH   1   2
ATOM      2  C   UNL A   1      47.570  40.330  28.607  1.00  0.00     0.202 C 
BRANCH   2   3
ATOM      3  C   UNL A   1      47.799  41.334  27.471  1.00  0.00     0.261 C 
BRANCH   3   4
ATOM      4  O   UNL A   1      46.566  41.679  26.822  1.00  0.00    -0.458 OA
BRANCH   4   5
ATOM      5  C   UNL A   1      46.247  40.942  25.739  1.00  0.00     0.359 C 
ATOM      6  O   UNL A   1      46.967  40.224  25.068  1.00  0.00    -0.244 OA
BRANCH   5   7
ATOM      7  C   UNL A   1      44.738  40.957  25.546  1.00  0.00     0.176 A 
ATOM      8  N   UNL A   1      42.869  41.775  24.435  1.00  0.00    -0.219 N 
ATOM      9  N   UNL A   1      44.247  41.691  24.587  1.00  0.00    -0.161 NA
ATOM     10  C   UNL A   1      41.987  41.169  25.328  1.00  0.00     0.275 A 
ATOM     11  C   UNL A   1      42.544  40.175  26.255  1.00  0.00     0.051 A 
ATOM     12  O   UNL A   1      40.785  41.404  25.371  1.00  0.00    -0.267 OA
ATOM     13  C   UNL A   1      43.916  40.130  26.450  1.00  0.00     0.022 A 
ATOM     14  C   UNL A   1      41.693  39.327  26.979  1.00  0.00     0.014 A 
ATOM     15  C   UNL A   1      44.441  39.312  27.461  1.00  0.00     0.011 A 
ATOM     16  C   UNL A   1      42.221  38.479  27.951  1.00  0.00     0.001 A 
ATOM     17  C   UNL A   1      43.589  38.496  28.214  1.00  0.00     0.001 A 
BRANCH   8  18
ATOM     18  C   UNL A   1      42.378  42.879  23.583  1.00  0.00     0.248 C 
BRANCH  18  19
ATOM     19  C   UNL A   1      42.224  42.581  22.077  1.00  0.00     0.246 C 
ATOM     20  O   UNL A   1      42.281  41.435  21.630  1.00  0.00    -0.273 OA
ATOM     21  N   UNL A   1      41.876  43.672  21.308  1.00  0.00    -0.324 N 
ATOM     22  H   UNL A   1      41.389  44.418  21.726  1.00  0.00     0.169 HD
BRANCH  21  23
ATOM     23  C   UNL A   1      42.201  43.744  19.940  1.00  0.00     0.042 A 
ATOM     24  C   UNL A   1      41.179  43.806  18.988  1.00  0.00     0.027 A 
ATOM     25  C   UNL A   1      43.487  44.171  19.619  1.00  0.00     0.039 A 
ATOM     26  C   UNL A   1      41.385  44.529  17.805  1.00  0.00     0.015 A 
ATOM     27  C   UNL A   1      43.700  44.842  18.424  1.00  0.00     0.036 A 
ATOM     28  C   UNL A   1      42.609  45.178  17.628  1.00  0.00     0.034 A 
ATOM     29  C   UNL A   1      44.924  45.645  18.318  1.00  0.00     0.194 C 
ATOM     30  C   UNL A   1      42.610  46.563  17.069  1.00  0.00     0.194 C 
ATOM     31  O   UNL A   1      46.047  45.174  18.320  1.00  0.00    -0.289 OA
ATOM     32  C   UNL A   1      44.650  47.081  18.402  1.00  0.00     0.034 A 
ATOM     33  C   UNL A   1      43.463  47.538  17.821  1.00  0.00     0.034 A 
ATOM     34  O   UNL A   1      41.841  46.920  16.192  1.00  0.00    -0.289 OA
ATOM     35  C   UNL A   1      45.394  47.859  19.287  1.00  0.00     0.013 A 
ATOM     36  C   UNL A   1      42.995  48.808  18.151  1.00  0.00     0.013 A 
ATOM     37  C   UNL A   1      44.903  49.109  19.642  1.00  0.00     0.001 A 
ATOM     38  C   UNL A   1      43.709  49.580  19.080  1.00  0.00     0.001 A 
ENDBRANCH  21  23
ENDBRANCH  18  19
ENDBRANCH   8  18
ENDBRANCH   5   7
ENDBRANCH   4   5
ENDBRANCH   3   4
ENDBRANCH   2   3
ENDBRANCH   1   2
BRANCH   1  39
ATOM     39  C   UNL A   1      49.243  38.684  29.290  1.00  0.00     0.202 C 
BRANCH  39  40
ATOM     40  C   UNL A   1      49.255  37.279  29.905  1.00  0.00     0.261 C 
BRANCH  40  41
ATOM     41  O   UNL A   1      48.129  36.491  29.489  1.00  0.00    -0.460 OA
BRANCH  41  42
ATOM     42  C   UNL A   1      47.182  36.292  30.440  1.00  0.00     0.338 C 
ATOM     43  O   UNL A   1      46.910  37.036  31.370  1.00  0.00    -0.246 OA
BRANCH  42  44
ATOM     44  C   UNL A   1      46.357  35.127  30.064  1.00  0.00     0.060 A 
ATOM     45  C   UNL A   1      45.584  35.128  28.901  1.00  0.00     0.016 A 
ATOM     46  C   UNL A   1      46.383  34.003  30.900  1.00  0.00     0.016 A 
ATOM     47  C   UNL A   1      44.852  33.986  28.567  1.00  0.00     0.010 A 
ATOM     48  C   UNL A   1      45.653  32.865  30.563  1.00  0.00     0.010 A 
ATOM     49  C   UNL A   1      44.893  32.841  29.386  1.00  0.00    -0.014 A 
BRANCH  49  50
ATOM     50  C   UNL A   1      44.259  31.578  28.932  1.00  0.00     0.031 A 
ATOM     51  C   UNL A   1      44.966  30.626  28.017  1.00  0.00     0.074 A 
ATOM     52  C   UNL A   1      43.005  31.313  29.346  1.00  0.00     0.049 A 
ATOM     53  N   UNL A   1      44.579  29.447  27.607  1.00  0.00    -0.248 NA
ATOM     54  C   UNL A   1      46.268  31.052  27.484  1.00  0.00     0.031 C 
ATOM     55  C   UNL A   1      42.207  32.201  30.192  1.00  0.00     0.029 A 
ATOM     56  N   UNL A   1      42.186  30.236  29.124  1.00  0.00    -0.354 N 
ATOM     57  C   UNL A   1      45.594  28.975  26.784  1.00  0.00     0.074 A 
ATOM     58  C   UNL A   1      46.590  30.023  26.708  1.00  0.00     0.031 C 
ATOM     59  C   UNL A   1      41.026  31.620  30.443  1.00  0.00     0.029 A 
ATOM     60  C   UNL A   1      40.965  30.334  29.751  1.00  0.00     0.049 A 
ATOM     61  H   UNL A   1      42.446  29.466  28.568  1.00  0.00     0.167 HD
ATOM     62  C   UNL A   1      45.688  27.769  26.172  1.00  0.00     0.034 A 
ATOM     63  C   UNL A   1      39.916  29.487  29.776  1.00  0.00     0.034 A 
ATOM     64  C   UNL A   1      44.671  26.748  26.252  1.00  0.00     0.049 A 
ATOM     65  C   UNL A   1      40.039  28.158  29.075  1.00  0.00     0.074 A 
ATOM     66  C   UNL A   1      44.700  25.474  25.714  1.00  0.00     0.029 A 
ATOM     67  N   UNL A   1      43.446  26.879  26.893  1.00  0.00    -0.354 N 
ATOM     68  N   UNL A   1      41.056  27.674  28.404  1.00  0.00    -0.248 NA
ATOM     69  C   UNL A   1      38.885  27.252  29.147  1.00  0.00     0.031 C 
ATOM     70  C   UNL A   1      43.468  24.868  25.953  1.00  0.00     0.029 A 
ATOM     71  C   UNL A   1      42.698  25.724  26.727  1.00  0.00     0.049 A 
ATOM     72  H   UNL A   1      43.152  27.676  27.390  1.00  0.00     0.167 HD
ATOM     73  C   UNL A   1      40.678  26.396  27.998  1.00  0.00     0.074 A 
ATOM     74  C   UNL A   1      39.345  26.176  28.521  1.00  0.00     0.031 C 
ATOM     75  C   UNL A   1      41.374  25.495  27.260  1.00  0.00     0.034 A 
BRANCH  62  76
ATOM     76  C   UNL A   1      46.932  27.451  25.377  1.00  0.00     0.023 A 
ATOM     77  C   UNL A   1      47.057  27.901  24.048  1.00  0.00     0.031 A 
ATOM     78  C   UNL A   1      47.913  26.574  25.875  1.00  0.00     0.131 A 
ATOM     79  C   UNL A   1      48.114  27.439  23.252  1.00  0.00     0.055 A 
ATOM     80  C   UNL A   1      48.989  26.153  25.092  1.00  0.00     0.041 A 
ATOM     81  F   UNL A   1      47.837  26.110  27.132  1.00  0.00    -0.206 F 
ATOM     82  C   UNL A   1      49.084  26.574  23.768  1.00  0.00     0.022 A 
BRANCH  79  83
ATOM     83  S   UNL A   1      48.227  27.876  21.495  1.00  0.00     0.124 S 
ATOM     84  O   UNL A   1      46.867  28.332  21.214  1.00  0.00    -0.237 OA
ATOM     85  O   UNL A   1      49.245  28.921  21.505  1.00  0.00    -0.237 OA
ATOM     86  O   UNL A   1      48.609  26.626  20.846  1.00  0.00    -0.744 OA
ENDBRANCH  79  83
ENDBRANCH  62  76
BRANCH  63  87
ATOM     87  C   UNL A   1      38.708  29.862  30.565  1.00  0.00     0.023 A 
ATOM     88  C   UNL A   1      37.822  30.852  30.099  1.00  0.00     0.031 A 
ATOM     89  C   UNL A   1      38.496  29.341  31.852  1.00  0.00     0.131 A 
ATOM     90  C   UNL A   1      36.819  31.345  30.943  1.00  0.00     0.055 A 
ATOM     91  C   UNL A   1      37.445  29.779  32.661  1.00  0.00     0.041 A 
ATOM     92  F   UNL A   1      39.323  28.408  32.348  1.00  0.00    -0.206 F 
ATOM     93  C   UNL A   1      36.613  30.802  32.214  1.00  0.00     0.022 A 
BRANCH  90  94
ATOM     94  S   UNL A   1      35.850  32.806  30.477  1.00  0.00     0.124 S 
ATOM     95  O   UNL A   1      36.478  33.856  31.273  1.00  0.00    -0.237 OA
ATOM     96  O   UNL A   1      36.091  32.874  29.038  1.00  0.00    -0.237 OA
ATOM     97  O   UNL A   1      34.487  32.453  30.861  1.00  0.00    -0.744 OA
ENDBRANCH  90  94
ENDBRANCH  63  87
BRANCH  75  98
ATOM     98  C   UNL A   1      40.740  24.157  26.953  1.00  0.00     0.023 A 
ATOM     99  C   UNL A   1      39.510  24.105  26.266  1.00  0.00     0.031 A 
ATOM    100  C   UNL A   1      41.254  22.959  27.480  1.00  0.00     0.131 A 
ATOM    101  C   UNL A   1      38.810  22.895  26.176  1.00  0.00     0.055 A 
ATOM    102  C   UNL A   1      40.579  21.745  27.337  1.00  0.00     0.041 A 
ATOM    103  F   UNL A   1      42.415  22.954  28.154  1.00  0.00    -0.206 F 
ATOM    104  C   UNL A   1      39.343  21.713  26.699  1.00  0.00     0.022 A 
BRANCH 101 105
ATOM    105  S   UNL A   1      37.136  22.832  25.477  1.00  0.00     0.124 S 
ATOM    106  O   UNL A   1      36.447  23.863  26.250  1.00  0.00    -0.237 OA
ATOM    107  O   UNL A   1      37.377  23.160  24.074  1.00  0.00    -0.237 OA
ATOM    108  O   UNL A   1      36.697  21.465  25.735  1.00  0.00    -0.744 OA
ENDBRANCH 101 105
ENDBRANCH  75  98
ENDBRANCH  49  50
ENDBRANCH  42  44
ENDBRANCH  41  42
ENDBRANCH  40  41
ENDBRANCH  39  40
ENDBRANCH   1  39
TORSDOF 20
ENDMDL
MODEL 3
REMARK VINA RESULT:     -11.5      4.024      5.260
REMARK SMILES O=C(Cn1nc(C(=O)OCCOCCOC(=O)c2ccc(-c3c4nc(c(-c5cc(S(=O)(=O)[O-])ccc5F)c5ccc([nH]5)c(-c5cc(S(=O)(=O)[O-])ccc5F)c5nc(c(-c6cc(S(=O)(=O)[O-])ccc6F)c6ccc3[nH]6)C=C5)C=C4)cc2)c2ccccc2c1=O)Nc1ccc2c(c1)C(=O)c1ccccc1C2=O
REMARK SMILES IDX 12 1 11 2 10 3 9 4 7 5 8 6 6 7 4 8 5 9 87 10 86 11 88 12
REMARK SMILES IDX 81 13 85 14 82 15 84 16 83 17 3 18 2 19 1 20 89 21 90 23
REMARK SMILES IDX 91 24 95 25 92 26 94 27 93 28 96 29 104 30 97 31 98 32
REMARK SMILES IDX 103 33 105 34 99 35 102 36 100 37 101 38 13 39 14 40 15 41
REMARK SMILES IDX 16 42 17 43 18 44 19 45 80 46 20 47 79 48 21 49 22 50 23 51
REMARK SMILES IDX 73 52 24 53 78 54 72 55 74 56 25 57 77 58 71 59 70 60 26 62
REMARK SMILES IDX 58 63 38 64 57 65 39 66 42 67 56 68 75 69 40 70 41 71 55 73
REMARK SMILES IDX 76 74 43 75 27 76 28 77 36 78 29 79 35 80 37 81 34 82 30 83
REMARK SMILES IDX 31 84 32 85 33 86 59 87 60 88 68 89 61 90 67 91 69 92 66 93
REMARK SMILES IDX 62 94 63 95 64 96 65 97 44 98 45 99 53 100 46 101 52 102
REMARK SMILES IDX 54 103 51 104 47 105 48 106 49 107 50 108
REMARK H PARENT 89 22 74 61 42 72
REMARK Flexibility Score: inf
ROOT
ATOM      1  O   UNL A   1      45.722  20.164  25.182  1.00  0.00    -0.374 OA
ENDROOT
BRANCH   1   2
ATOM      2  C   UNL A   1      44.582  19.650  24.492  1.00  0.00     0.202 C 
BRANCH   2   3
ATOM      3  C   UNL A   1      43.463  19.076  25.367  1.00  0.00     0.261 C 
BRANCH   3   4
ATOM      4  O   UNL A   1      42.278  19.883  25.297  1.00  0.00    -0.458 OA
BRANCH   4   5
ATOM      5  C   UNL A   1      41.421  19.758  26.330  1.00  0.00     0.359 C 
ATOM      6  O   UNL A   1      41.299  18.829  27.109  1.00  0.00    -0.244 OA
BRANCH   5   7
ATOM      7  C   UNL A   1      40.699  21.079  26.550  1.00  0.00     0.176 A 
ATOM      8  N   UNL A   1      38.841  22.428  26.200  1.00  0.00    -0.219 N 
ATOM      9  N   UNL A   1      39.493  21.208  26.072  1.00  0.00    -0.161 NA
ATOM     10  C   UNL A   1      39.464  23.549  26.746  1.00  0.00     0.275 A 
ATOM     11  C   UNL A   1      40.722  23.331  27.474  1.00  0.00     0.051 A 
ATOM     12  O   UNL A   1      39.020  24.687  26.667  1.00  0.00    -0.267 OA
ATOM     13  C   UNL A   1      41.403  22.135  27.301  1.00  0.00     0.022 A 
ATOM     14  C   UNL A   1      41.257  24.346  28.281  1.00  0.00     0.014 A 
ATOM     15  C   UNL A   1      42.686  21.990  27.847  1.00  0.00     0.011 A 
ATOM     16  C   UNL A   1      42.513  24.181  28.863  1.00  0.00     0.001 A 
ATOM     17  C   UNL A   1      43.240  23.018  28.618  1.00  0.00     0.001 A 
BRANCH   8  18
ATOM     18  C   UNL A   1      37.651  22.618  25.343  1.00  0.00     0.248 C 
BRANCH  18  19
ATOM     19  C   UNL A   1      36.406  21.772  25.681  1.00  0.00     0.246 C 
ATOM     20  O   UNL A   1      36.326  20.581  25.381  1.00  0.00    -0.273 OA
ATOM     21  N   UNL A   1      35.469  22.415  26.463  1.00  0.00    -0.324 N 
ATOM     22  H   UNL A   1      35.759  23.144  27.056  1.00  0.00     0.169 HD
BRANCH  21  23
ATOM     23  C   UNL A   1      34.109  22.054  26.431  1.00  0.00     0.042 A 
ATOM     24  C   UNL A   1      33.374  22.020  27.619  1.00  0.00     0.027 A 
ATOM     25  C   UNL A   1      33.457  22.159  25.205  1.00  0.00     0.039 A 
ATOM     26  C   UNL A   1      32.011  22.346  27.595  1.00  0.00     0.015 A 
ATOM     27  C   UNL A   1      32.097  22.432  25.181  1.00  0.00     0.036 A 
ATOM     28  C   UNL A   1      31.438  22.711  26.374  1.00  0.00     0.034 A 
ATOM     29  C   UNL A   1      31.544  22.963  23.928  1.00  0.00     0.194 C 
ATOM     30  C   UNL A   1      30.495  23.869  26.344  1.00  0.00     0.194 C 
ATOM     31  O   UNL A   1      31.495  22.333  22.888  1.00  0.00    -0.289 OA
ATOM     32  C   UNL A   1      31.237  24.391  24.024  1.00  0.00     0.034 A 
ATOM     33  C   UNL A   1      30.759  24.859  25.252  1.00  0.00     0.034 A 
ATOM     34  O   UNL A   1      29.698  24.092  27.240  1.00  0.00    -0.289 OA
ATOM     35  C   UNL A   1      31.703  25.249  23.030  1.00  0.00     0.013 A 
ATOM     36  C   UNL A   1      30.766  26.230  25.501  1.00  0.00     0.013 A 
ATOM     37  C   UNL A   1      31.744  26.612  23.298  1.00  0.00     0.001 A 
ATOM     38  C   UNL A   1      31.281  27.099  24.528  1.00  0.00     0.001 A 
ENDBRANCH  21  23
ENDBRANCH  18  19
ENDBRANCH   8  18
ENDBRANCH   5   7
ENDBRANCH   4   5
ENDBRANCH   3   4
ENDBRANCH   2   3
ENDBRANCH   1   2
BRANCH   1  39
ATOM     39  C   UNL A   1      45.796  21.578  25.380  1.00  0.00     0.202 C 
BRANCH  39  40
ATOM     40  C   UNL A   1      46.082  22.466  24.163  1.00  0.00     0.261 C 
BRANCH  40  41
ATOM     41  O   UNL A   1      45.707  23.834  24.384  1.00  0.00    -0.460 OA
BRANCH  41  42
ATOM     42  C   UNL A   1      44.426  24.021  24.791  1.00  0.00     0.338 C 
ATOM     43  O   UNL A   1      43.474  23.287  24.574  1.00  0.00    -0.246 OA
BRANCH  42  44
ATOM     44  C   UNL A   1      44.381  25.150  25.741  1.00  0.00     0.060 A 
ATOM     45  C   UNL A   1      43.295  26.026  25.780  1.00  0.00     0.016 A 
ATOM     46  C   UNL A   1      45.458  25.310  26.623  1.00  0.00     0.016 A 
ATOM     47  C   UNL A   1      43.282  27.056  26.725  1.00  0.00     0.010 A 
ATOM     48  C   UNL A   1      45.441  26.337  27.566  1.00  0.00     0.010 A 
ATOM     49  C   UNL A   1      44.346  27.209  27.635  1.00  0.00    -0.014 A 
BRANCH  49  50
ATOM     50  C   UNL A   1      44.240  28.188  28.746  1.00  0.00     0.031 A 
ATOM     51  C   UNL A   1      44.363  29.662  28.511  1.00  0.00     0.074 A 
ATOM     52  C   UNL A   1      44.053  27.715  29.993  1.00  0.00     0.049 A 
ATOM     53  N   UNL A   1      44.205  30.642  29.362  1.00  0.00    -0.248 NA
ATOM     54  C   UNL A   1      44.719  30.096  27.152  1.00  0.00     0.031 C 
ATOM     55  C   UNL A   1      43.978  26.295  30.337  1.00  0.00     0.029 A 
ATOM     56  N   UNL A   1      43.891  28.360  31.192  1.00  0.00    -0.354 N 
ATOM     57  C   UNL A   1      44.420  31.811  28.644  1.00  0.00     0.074 A 
ATOM     58  C   UNL A   1      44.776  31.415  27.298  1.00  0.00     0.031 C 
ATOM     59  C   UNL A   1      43.752  26.176  31.653  1.00  0.00     0.029 A 
ATOM     60  C   UNL A   1      43.700  27.508  32.254  1.00  0.00     0.049 A 
ATOM     61  H   UNL A   1      43.909  29.341  31.284  1.00  0.00     0.167 HD
ATOM     62  C   UNL A   1      44.306  33.093  29.072  1.00  0.00     0.034 A 
ATOM     63  C   UNL A   1      43.499  27.762  33.564  1.00  0.00     0.034 A 
ATOM     64  C   UNL A   1      43.965  33.459  30.425  1.00  0.00     0.049 A 
ATOM     65  C   UNL A   1      43.391  29.195  34.018  1.00  0.00     0.074 A 
ATOM     66  C   UNL A   1      43.770  34.728  30.940  1.00  0.00     0.029 A 
ATOM     67  N   UNL A   1      43.780  32.573  31.478  1.00  0.00    -0.354 N 
ATOM     68  N   UNL A   1      43.472  30.292  33.302  1.00  0.00    -0.248 NA
ATOM     69  C   UNL A   1      43.146  29.430  35.447  1.00  0.00     0.031 C 
ATOM     70  C   UNL A   1      43.553  34.616  32.313  1.00  0.00     0.029 A 
ATOM     71  C   UNL A   1      43.514  33.271  32.646  1.00  0.00     0.049 A 
ATOM     72  H   UNL A   1      43.832  31.592  31.406  1.00  0.00     0.167 HD
ATOM     73  C   UNL A   1      43.260  31.346  34.187  1.00  0.00     0.074 A 
ATOM     74  C   UNL A   1      43.023  30.752  35.487  1.00  0.00     0.031 C 
ATOM     75  C   UNL A   1      43.263  32.680  33.941  1.00  0.00     0.034 A 
BRANCH  62  76
ATOM     76  C   UNL A   1      44.521  34.213  28.081  1.00  0.00     0.023 A 
ATOM     77  C   UNL A   1      45.825  34.641  27.770  1.00  0.00     0.031 A 
ATOM     78  C   UNL A   1      43.440  34.957  27.573  1.00  0.00     0.131 A 
ATOM     79  C   UNL A   1      46.016  35.803  27.010  1.00  0.00     0.055 A 
ATOM     80  C   UNL A   1      43.635  36.087  26.779  1.00  0.00     0.041 A 
ATOM     81  F   UNL A   1      42.176  34.595  27.846  1.00  0.00    -0.206 F 
ATOM     82  C   UNL A   1      44.928  36.524  26.507  1.00  0.00     0.022 A 
BRANCH  79  83
ATOM     83  S   UNL A   1      47.676  36.472  26.714  1.00  0.00     0.124 S 
ATOM     84  O   UNL A   1      47.396  37.556  25.775  1.00  0.00    -0.237 OA
ATOM     85  O   UNL A   1      48.078  36.894  28.052  1.00  0.00    -0.237 OA
ATOM     86  O   UNL A   1      48.415  35.344  26.157  1.00  0.00    -0.744 OA
ENDBRANCH  79  83
ENDBRANCH  62  76
BRANCH  63  87
ATOM     87  C   UNL A   1      43.310  26.614  34.498  1.00  0.00     0.023 A 
ATOM     88  C   UNL A   1      44.410  25.855  34.939  1.00  0.00     0.031 A 
ATOM     89  C   UNL A   1      42.023  26.177  34.851  1.00  0.00     0.131 A 
ATOM     90  C   UNL A   1      44.198  24.659  35.636  1.00  0.00     0.055 A 
ATOM     91  C   UNL A   1      41.819  25.026  35.615  1.00  0.00     0.041 A 
ATOM     92  F   UNL A   1      40.941  26.857  34.441  1.00  0.00    -0.206 F 
ATOM     93  C   UNL A   1      42.911  24.249  35.993  1.00  0.00     0.022 A 
BRANCH  90  94
ATOM     94  S   UNL A   1      45.573  23.523  35.968  1.00  0.00     0.124 S 
ATOM     95  O   UNL A   1      45.536  23.415  37.423  1.00  0.00    -0.237 OA
ATOM     96  O   UNL A   1      45.155  22.330  35.235  1.00  0.00    -0.237 OA
ATOM     97  O   UNL A   1      46.733  24.215  35.416  1.00  0.00    -0.744 OA
ENDBRANCH  90  94
ENDBRANCH  63  87
BRANCH  75  98
ATOM     98  C   UNL A   1      42.998  33.635  35.083  1.00  0.00     0.023 A 
ATOM     99  C   UNL A   1      41.672  33.987  35.410  1.00  0.00     0.031 A 
ATOM    100  C   UNL A   1      44.042  34.323  35.727  1.00  0.00     0.131 A 
ATOM    101  C   UNL A   1      41.427  35.032  36.308  1.00  0.00     0.055 A 
ATOM    102  C   UNL A   1      43.791  35.326  36.665  1.00  0.00     0.041 A 
ATOM    103  F   UNL A   1      45.323  34.037  35.443  1.00  0.00    -0.206 F 
ATOM    104  C   UNL A   1      42.479  35.697  36.945  1.00  0.00     0.022 A 
BRANCH 101 105
ATOM    105  S   UNL A   1      39.743  35.641  36.599  1.00  0.00     0.124 S 
ATOM    106  O   UNL A   1      39.279  35.909  35.239  1.00  0.00    -0.237 OA
ATOM    107  O   UNL A   1      39.114  34.501  37.259  1.00  0.00    -0.237 OA
ATOM    108  O   UNL A   1      39.933  36.823  37.433  1.00  0.00    -0.744 OA
ENDBRANCH 101 105
ENDBRANCH  75  98
ENDBRANCH  49  50
ENDBRANCH  42  44
ENDBRANCH  41  42
ENDBRANCH  40  41
ENDBRANCH  39  40
ENDBRANCH   1  39
TORSDOF 20
ENDMDL
