MODEL 1
REMARK VINA RESULT:     -12.3      0.000      0.000
REMARK SMILES O=C(OCCOCCOC(=O)[C@H]1CC2=c3ccccc3=N[C@H]2[C@@H](c2ccccc2)[NH2+]1)c1ccc(-c2c3nc(c(-c4cc(S(=O)(=O)[O-])ccc4F)c4ccc([nH]4)c(-c4cc(S(=O)(=O)[O-])ccc4F)c4nc(c(-c5cc(S(=O)(=O)[O-])ccc5F)c5ccc2[nH]5)C=C4)C=C3)cc1
REMARK SMILES IDX 5 1 4 2 3 3 2 4 1 5 31 6 32 7 93 8 33 9 92 10 34 11 35 12
REMARK SMILES IDX 36 13 86 14 37 15 91 16 85 17 87 18 38 19 90 20 84 21 83 22
REMARK SMILES IDX 39 24 71 25 51 26 70 27 52 28 55 29 69 30 88 31 53 32 54 33
REMARK SMILES IDX 68 35 89 36 56 37 40 38 41 39 49 40 42 41 48 42 50 43 47 44
REMARK SMILES IDX 43 45 44 46 45 47 46 48 72 49 73 50 81 51 74 52 80 53 82 54
REMARK SMILES IDX 79 55 75 56 76 57 77 58 78 59 57 60 58 61 66 62 59 63 65 64
REMARK SMILES IDX 67 65 64 66 60 67 61 68 62 69 63 70 6 71 7 72 8 73 9 74
REMARK SMILES IDX 10 75 11 76 12 77 13 78 30 79 14 80 23 81 15 84 22 85 16 86
REMARK SMILES IDX 20 87 21 88 17 89 19 90 18 91 24 92 25 93 29 94 26 95 28 96
REMARK SMILES IDX 27 97
REMARK H PARENT 87 23 55 34 30 82 30 83
REMARK Flexibility Score: inf
ROOT
ATOM      1  C   UNL A   1      31.971  31.208  26.466  1.00  0.00     0.202 C 
ENDROOT
BRANCH   1   2
ATOM      2  C   UNL A   1      31.402  32.483  27.089  1.00  0.00     0.261 C 
BRANCH   2   3
ATOM      3  O   UNL A   1      32.411  33.509  27.151  1.00  0.00    -0.460 OA
BRANCH   3   4
ATOM      4  C   UNL A   1      33.078  34.023  28.209  1.00  0.00     0.338 C 
ATOM      5  O   UNL A   1      32.655  35.085  28.672  1.00  0.00    -0.246 OA
BRANCH   4   6
ATOM      6  C   UNL A   1      34.306  33.437  28.852  1.00  0.00     0.060 A 
ATOM      7  C   UNL A   1      35.538  33.729  28.230  1.00  0.00     0.016 A 
ATOM      8  C   UNL A   1      34.338  32.575  29.949  1.00  0.00     0.016 A 
ATOM      9  C   UNL A   1      36.739  33.153  28.666  1.00  0.00     0.010 A 
ATOM     10  C   UNL A   1      35.522  31.975  30.374  1.00  0.00     0.010 A 
ATOM     11  C   UNL A   1      36.727  32.255  29.734  1.00  0.00    -0.014 A 
BRANCH  11  12
ATOM     12  C   UNL A   1      37.956  31.668  30.296  1.00  0.00     0.031 A 
ATOM     13  C   UNL A   1      38.648  30.537  29.602  1.00  0.00     0.074 A 
ATOM     14  C   UNL A   1      38.314  32.061  31.532  1.00  0.00     0.049 A 
ATOM     15  N   UNL A   1      39.687  29.851  29.994  1.00  0.00    -0.248 NA
ATOM     16  C   UNL A   1      38.095  30.104  28.306  1.00  0.00     0.031 C 
ATOM     17  C   UNL A   1      37.614  33.088  32.308  1.00  0.00     0.029 A 
ATOM     18  N   UNL A   1      39.296  31.613  32.374  1.00  0.00    -0.354 N 
ATOM     19  C   UNL A   1      39.928  28.917  28.992  1.00  0.00     0.074 A 
ATOM     20  C   UNL A   1      38.899  29.096  27.992  1.00  0.00     0.031 C 
ATOM     21  C   UNL A   1      38.153  33.151  33.532  1.00  0.00     0.029 A 
ATOM     22  C   UNL A   1      39.232  32.171  33.630  1.00  0.00     0.049 A 
ATOM     23  H   UNL A   1      39.979  30.956  32.109  1.00  0.00     0.167 HD
ATOM     24  C   UNL A   1      40.934  28.014  28.925  1.00  0.00     0.034 A 
ATOM     25  C   UNL A   1      39.951  31.910  34.739  1.00  0.00     0.034 A 
ATOM     26  C   UNL A   1      41.926  27.867  29.961  1.00  0.00     0.049 A 
ATOM     27  C   UNL A   1      41.086  30.928  34.629  1.00  0.00     0.074 A 
ATOM     28  C   UNL A   1      43.050  27.062  29.957  1.00  0.00     0.029 A 
ATOM     29  N   UNL A   1      41.905  28.522  31.184  1.00  0.00    -0.354 N 
ATOM     30  N   UNL A   1      41.416  30.172  33.606  1.00  0.00    -0.248 NA
ATOM     31  C   UNL A   1      41.973  30.784  35.790  1.00  0.00     0.031 C 
ATOM     32  C   UNL A   1      43.667  27.175  31.201  1.00  0.00     0.029 A 
ATOM     33  C   UNL A   1      42.979  28.115  31.956  1.00  0.00     0.049 A 
ATOM     34  H   UNL A   1      41.228  29.180  31.463  1.00  0.00     0.167 HD
ATOM     35  C   UNL A   1      42.565  29.489  33.988  1.00  0.00     0.074 A 
ATOM     36  C   UNL A   1      42.882  29.930  35.331  1.00  0.00     0.031 C 
ATOM     37  C   UNL A   1      43.290  28.582  33.286  1.00  0.00     0.034 A 
BRANCH  24  38
ATOM     38  C   UNL A   1      41.080  27.145  27.700  1.00  0.00     0.023 A 
ATOM     39  C   UNL A   1      40.814  25.764  27.774  1.00  0.00     0.031 A 
ATOM     40  C   UNL A   1      41.678  27.644  26.528  1.00  0.00     0.131 A 
ATOM     41  C   UNL A   1      41.199  24.922  26.722  1.00  0.00     0.055 A 
ATOM     42  C   UNL A   1      42.022  26.805  25.466  1.00  0.00     0.041 A 
ATOM     43  F   UNL A   1      41.961  28.951  26.410  1.00  0.00    -0.206 F 
ATOM     44  C   UNL A   1      41.798  25.436  25.567  1.00  0.00     0.022 A 
BRANCH  41  45
ATOM     45  S   UNL A   1      41.012  23.121  26.841  1.00  0.00     0.124 S 
ATOM     46  O   UNL A   1      41.298  22.879  28.254  1.00  0.00    -0.237 OA
ATOM     47  O   UNL A   1      39.619  22.933  26.447  1.00  0.00    -0.237 OA
ATOM     48  O   UNL A   1      42.010  22.602  25.912  1.00  0.00    -0.744 OA
ENDBRANCH  41  45
ENDBRANCH  24  38
BRANCH  25  49
ATOM     49  C   UNL A   1      39.641  32.668  35.984  1.00  0.00     0.023 A 
ATOM     50  C   UNL A   1      38.798  32.118  36.969  1.00  0.00     0.031 A 
ATOM     51  C   UNL A   1      40.041  34.006  36.129  1.00  0.00     0.131 A 
ATOM     52  C   UNL A   1      38.329  32.923  38.016  1.00  0.00     0.055 A 
ATOM     53  C   UNL A   1      39.624  34.786  37.209  1.00  0.00     0.041 A 
ATOM     54  F   UNL A   1      40.821  34.583  35.201  1.00  0.00    -0.206 F 
ATOM     55  C   UNL A   1      38.747  34.251  38.148  1.00  0.00     0.022 A 
BRANCH  52  56
ATOM     56  S   UNL A   1      37.034  32.329  39.142  1.00  0.00     0.124 S 
ATOM     57  O   UNL A   1      37.359  33.034  40.377  1.00  0.00    -0.237 OA
ATOM     58  O   UNL A   1      35.817  32.771  38.465  1.00  0.00    -0.237 OA
ATOM     59  O   UNL A   1      37.235  30.883  39.166  1.00  0.00    -0.744 OA
ENDBRANCH  52  56
ENDBRANCH  25  49
BRANCH  37  60
ATOM     60  C   UNL A   1      44.517  27.985  33.926  1.00  0.00     0.023 A 
ATOM     61  C   UNL A   1      44.390  26.841  34.738  1.00  0.00     0.031 A 
ATOM     62  C   UNL A   1      45.749  28.658  33.903  1.00  0.00     0.131 A 
ATOM     63  C   UNL A   1      45.460  26.442  35.545  1.00  0.00     0.055 A 
ATOM     64  C   UNL A   1      46.830  28.224  34.673  1.00  0.00     0.041 A 
ATOM     65  F   UNL A   1      45.912  29.758  33.151  1.00  0.00    -0.206 F 
ATOM     66  C   UNL A   1      46.681  27.123  35.513  1.00  0.00     0.022 A 
BRANCH  63  67
ATOM     67  S   UNL A   1      45.272  25.093  36.744  1.00  0.00     0.124 S 
ATOM     68  O   UNL A   1      45.278  25.814  38.015  1.00  0.00    -0.237 OA
ATOM     69  O   UNL A   1      43.987  24.517  36.359  1.00  0.00    -0.237 OA
ATOM     70  O   UNL A   1      46.437  24.246  36.508  1.00  0.00    -0.744 OA
ENDBRANCH  63  67
ENDBRANCH  37  60
ENDBRANCH  11  12
ENDBRANCH   4   6
ENDBRANCH   3   4
ENDBRANCH   2   3
ENDBRANCH   1   2
BRANCH   1  71
ATOM     71  O   UNL A   1      32.613  30.402  27.447  1.00  0.00    -0.374 OA
BRANCH  71  72
ATOM     72  C   UNL A   1      34.003  30.180  27.230  1.00  0.00     0.202 C 
BRANCH  72  73
ATOM     73  C   UNL A   1      34.207  28.763  26.731  1.00  0.00     0.261 C 
BRANCH  73  74
ATOM     74  O   UNL A   1      33.147  27.916  27.192  1.00  0.00    -0.459 OA
BRANCH  74  75
ATOM     75  C   UNL A   1      32.613  27.012  26.316  1.00  0.00     0.365 C 
ATOM     76  O   UNL A   1      32.366  25.830  26.558  1.00  0.00    -0.245 OA
BRANCH  75  77
ATOM     77  C   UNL A   1      32.451  27.660  24.931  1.00  0.00     0.298 C 
ATOM     78  C   UNL A   1      33.072  26.840  23.737  1.00  0.00     0.111 C 
ATOM     79  N   UNL A   1      31.037  28.100  24.812  1.00  0.00    -0.326 N 
ATOM     80  C   UNL A   1      32.099  26.359  22.640  1.00  0.00    -0.024 C 
ATOM     81  C   UNL A   1      30.660  28.159  23.416  1.00  0.00     0.243 C 
ATOM     82  H   UNL A   1      30.933  29.025  25.231  1.00  0.00     0.347 HD
ATOM     83  H   UNL A   1      30.434  27.436  25.298  1.00  0.00     0.347 HD
ATOM     84  C   UNL A   1      32.100  25.091  22.240  1.00  0.00     0.002 A 
ATOM     85  C   UNL A   1      30.648  26.752  22.784  1.00  0.00     0.196 C 
ATOM     86  C   UNL A   1      33.140  24.223  21.804  1.00  0.00     0.010 A 
ATOM     87  C   UNL A   1      30.990  24.638  23.127  1.00  0.00     0.066 A 
ATOM     88  N   UNL A   1      30.140  25.553  23.540  1.00  0.00    -0.270 NA
ATOM     89  C   UNL A   1      33.100  22.930  22.147  1.00  0.00     0.001 A 
ATOM     90  C   UNL A   1      31.095  23.212  23.556  1.00  0.00     0.028 A 
ATOM     91  C   UNL A   1      32.100  22.446  23.083  1.00  0.00     0.002 A 
BRANCH  81  92
ATOM     92  C   UNL A   1      29.611  29.214  23.111  1.00  0.00     0.012 A 
ATOM     93  C   UNL A   1      29.926  30.542  23.454  1.00  0.00     0.010 A 
ATOM     94  C   UNL A   1      28.264  28.876  22.903  1.00  0.00     0.010 A 
ATOM     95  C   UNL A   1      28.915  31.459  23.741  1.00  0.00     0.001 A 
ATOM     96  C   UNL A   1      27.255  29.800  23.179  1.00  0.00     0.001 A 
ATOM     97  C   UNL A   1      27.581  31.076  23.636  1.00  0.00     0.000 A 
ENDBRANCH  81  92
ENDBRANCH  75  77
ENDBRANCH  74  75
ENDBRANCH  73  74
ENDBRANCH  72  73
ENDBRANCH  71  72
ENDBRANCH   1  71
TORSDOF 18
ENDMDL
MODEL 2
REMARK VINA RESULT:     -12.2      5.521     11.079
REMARK SMILES O=C(OCCOCCOC(=O)[C@H]1CC2=c3ccccc3=N[C@H]2[C@@H](c2ccccc2)[NH2+]1)c1ccc(-c2c3nc(c(-c4cc(S(=O)(=O)[O-])ccc4F)c4ccc([nH]4)c(-c4cc(S(=O)(=O)[O-])ccc4F)c4nc(c(-c5cc(S(=O)(=O)[O-])ccc5F)c5ccc2[nH]5)C=C4)C=C3)cc1
REMARK SMILES IDX 5 1 4 2 3 3 2 4 1 5 31 6 32 7 93 8 33 9 92 10 34 11 35 12
REMARK SMILES IDX 36 13 86 14 37 15 91 16 85 17 87 18 38 19 90 20 84 21 83 22
REMARK SMILES IDX 39 24 71 25 51 26 70 27 52 28 55 29 69 30 88 31 53 32 54 33
REMARK SMILES IDX 68 35 89 36 56 37 40 38 41 39 49 40 42 41 48 42 50 43 47 44
REMARK SMILES IDX 43 45 44 46 45 47 46 48 72 49 73 50 81 51 74 52 80 53 82 54
REMARK SMILES IDX 79 55 75 56 76 57 77 58 78 59 57 60 58 61 66 62 59 63 65 64
REMARK SMILES IDX 67 65 64 66 60 67 61 68 62 69 63 70 6 71 7 72 8 73 9 74
REMARK SMILES IDX 10 75 11 76 12 77 13 78 30 79 14 80 23 81 15 84 22 85 16 86
REMARK SMILES IDX 20 87 21 88 17 89 19 90 18 91 24 92 25 93 29 94 26 95 28 96
REMARK SMILES IDX 27 97
REMARK H PARENT 87 23 55 34 30 82 30 83
REMARK Flexibility Score: inf
ROOT
ATOM      1  C   UNL A   1      38.156  19.836  24.970  1.00  0.00     0.202 C 
ENDROOT
BRANCH   1   2
ATOM      2  C   UNL A   1      39.119  19.706  26.151  1.00  0.00     0.261 C 
BRANCH   2   3
ATOM      3  O   UNL A   1      40.372  19.141  25.721  1.00  0.00    -0.460 OA
BRANCH   3   4
ATOM      4  C   UNL A   1      41.640  19.576  25.901  1.00  0.00     0.338 C 
ATOM      5  O   UNL A   1      42.539  18.740  25.783  1.00  0.00    -0.246 OA
BRANCH   4   6
ATOM      6  C   UNL A   1      42.052  20.977  26.266  1.00  0.00     0.060 A 
ATOM      7  C   UNL A   1      42.148  21.262  27.644  1.00  0.00     0.016 A 
ATOM      8  C   UNL A   1      42.271  22.034  25.382  1.00  0.00     0.016 A 
ATOM      9  C   UNL A   1      42.413  22.556  28.112  1.00  0.00     0.010 A 
ATOM     10  C   UNL A   1      42.509  23.331  25.837  1.00  0.00     0.010 A 
ATOM     11  C   UNL A   1      42.576  23.600  27.202  1.00  0.00    -0.014 A 
BRANCH  11  12
ATOM     12  C   UNL A   1      42.932  24.970  27.614  1.00  0.00     0.031 A 
ATOM     13  C   UNL A   1      41.886  25.904  28.141  1.00  0.00     0.074 A 
ATOM     14  C   UNL A   1      44.174  25.395  27.324  1.00  0.00     0.049 A 
ATOM     15  N   UNL A   1      42.005  27.160  28.472  1.00  0.00    -0.248 NA
ATOM     16  C   UNL A   1      40.525  25.364  28.304  1.00  0.00     0.031 C 
ATOM     17  C   UNL A   1      45.210  24.562  26.708  1.00  0.00     0.029 A 
ATOM     18  N   UNL A   1      44.758  26.629  27.439  1.00  0.00    -0.354 N 
ATOM     19  C   UNL A   1      40.746  27.564  28.899  1.00  0.00     0.074 A 
ATOM     20  C   UNL A   1      39.863  26.428  28.745  1.00  0.00     0.031 C 
ATOM     21  C   UNL A   1      46.283  25.321  26.450  1.00  0.00     0.029 A 
ATOM     22  C   UNL A   1      46.011  26.692  26.876  1.00  0.00     0.049 A 
ATOM     23  H   UNL A   1      44.324  27.394  27.880  1.00  0.00     0.167 HD
ATOM     24  C   UNL A   1      40.384  28.773  29.388  1.00  0.00     0.034 A 
ATOM     25  C   UNL A   1      46.840  27.740  26.707  1.00  0.00     0.034 A 
ATOM     26  C   UNL A   1      41.302  29.878  29.505  1.00  0.00     0.049 A 
ATOM     27  C   UNL A   1      46.431  29.066  27.291  1.00  0.00     0.074 A 
ATOM     28  C   UNL A   1      41.079  31.115  30.082  1.00  0.00     0.029 A 
ATOM     29  N   UNL A   1      42.604  29.888  29.026  1.00  0.00    -0.354 N 
ATOM     30  N   UNL A   1      45.291  29.391  27.858  1.00  0.00    -0.248 NA
ATOM     31  C   UNL A   1      47.415  30.154  27.260  1.00  0.00     0.031 C 
ATOM     32  C   UNL A   1      42.217  31.894  29.887  1.00  0.00     0.029 A 
ATOM     33  C   UNL A   1      43.186  31.120  29.264  1.00  0.00     0.049 A 
ATOM     34  H   UNL A   1      43.049  29.130  28.582  1.00  0.00     0.167 HD
ATOM     35  C   UNL A   1      45.432  30.708  28.278  1.00  0.00     0.074 A 
ATOM     36  C   UNL A   1      46.773  31.117  27.913  1.00  0.00     0.031 C 
ATOM     37  C   UNL A   1      44.533  31.502  28.911  1.00  0.00     0.034 A 
BRANCH  24  38
ATOM     38  C   UNL A   1      38.977  28.987  29.891  1.00  0.00     0.023 A 
ATOM     39  C   UNL A   1      38.041  29.687  29.105  1.00  0.00     0.031 A 
ATOM     40  C   UNL A   1      38.631  28.685  31.221  1.00  0.00     0.131 A 
ATOM     41  C   UNL A   1      36.832  30.112  29.672  1.00  0.00     0.055 A 
ATOM     42  C   UNL A   1      37.407  29.075  31.768  1.00  0.00     0.041 A 
ATOM     43  F   UNL A   1      39.490  28.027  32.016  1.00  0.00    -0.206 F 
ATOM     44  C   UNL A   1      36.509  29.807  30.998  1.00  0.00     0.022 A 
BRANCH  41  45
ATOM     45  S   UNL A   1      35.667  31.144  28.739  1.00  0.00     0.124 S 
ATOM     46  O   UNL A   1      35.042  31.930  29.800  1.00  0.00    -0.237 OA
ATOM     47  O   UNL A   1      36.560  31.889  27.856  1.00  0.00    -0.237 OA
ATOM     48  O   UNL A   1      34.789  30.180  28.086  1.00  0.00    -0.744 OA
ENDBRANCH  41  45
ENDBRANCH  24  38
BRANCH  25  49
ATOM     49  C   UNL A   1      48.149  27.512  26.032  1.00  0.00     0.023 A 
ATOM     50  C   UNL A   1      48.280  27.685  24.640  1.00  0.00     0.031 A 
ATOM     51  C   UNL A   1      49.233  26.960  26.733  1.00  0.00     0.131 A 
ATOM     52  C   UNL A   1      49.440  27.247  23.987  1.00  0.00     0.055 A 
ATOM     53  C   UNL A   1      50.413  26.585  26.088  1.00  0.00     0.041 A 
ATOM     54  F   UNL A   1      49.145  26.750  28.056  1.00  0.00    -0.206 F 
ATOM     55  C   UNL A   1      50.512  26.709  24.705  1.00  0.00     0.022 A 
BRANCH  52  56
ATOM     56  S   UNL A   1      49.530  27.204  22.174  1.00  0.00     0.124 S 
ATOM     57  O   UNL A   1      49.268  28.596  21.824  1.00  0.00    -0.237 OA
ATOM     58  O   UNL A   1      50.899  26.745  21.950  1.00  0.00    -0.237 OA
ATOM     59  O   UNL A   1      48.492  26.250  21.799  1.00  0.00    -0.744 OA
ENDBRANCH  52  56
ENDBRANCH  25  49
BRANCH  37  60
ATOM     60  C   UNL A   1      44.937  32.908  29.275  1.00  0.00     0.023 A 
ATOM     61  C   UNL A   1      44.824  33.934  28.315  1.00  0.00     0.031 A 
ATOM     62  C   UNL A   1      45.617  33.182  30.472  1.00  0.00     0.131 A 
ATOM     63  C   UNL A   1      45.441  35.168  28.545  1.00  0.00     0.055 A 
ATOM     64  C   UNL A   1      46.185  34.433  30.717  1.00  0.00     0.041 A 
ATOM     65  F   UNL A   1      45.756  32.231  31.410  1.00  0.00    -0.206 F 
ATOM     66  C   UNL A   1      46.115  35.426  29.742  1.00  0.00     0.022 A 
BRANCH  63  67
ATOM     67  S   UNL A   1      45.482  36.444  27.256  1.00  0.00     0.124 S 
ATOM     68  O   UNL A   1      46.101  35.730  26.142  1.00  0.00    -0.237 OA
ATOM     69  O   UNL A   1      44.065  36.755  27.087  1.00  0.00    -0.237 OA
ATOM     70  O   UNL A   1      46.294  37.508  27.838  1.00  0.00    -0.744 OA
ENDBRANCH  63  67
ENDBRANCH  37  60
ENDBRANCH  11  12
ENDBRANCH   4   6
ENDBRANCH   3   4
ENDBRANCH   2   3
ENDBRANCH   1   2
BRANCH   1  71
ATOM     71  O   UNL A   1      37.776  21.193  24.767  1.00  0.00    -0.374 OA
BRANCH  71  72
ATOM     72  C   UNL A   1      38.240  22.105  25.757  1.00  0.00     0.202 C 
BRANCH  72  73
ATOM     73  C   UNL A   1      37.357  23.338  25.748  1.00  0.00     0.261 C 
BRANCH  73  74
ATOM     74  O   UNL A   1      36.661  23.441  24.498  1.00  0.00    -0.459 OA
BRANCH  74  75
ATOM     75  C   UNL A   1      35.333  23.767  24.523  1.00  0.00     0.365 C 
ATOM     76  O   UNL A   1      34.835  24.799  24.074  1.00  0.00    -0.245 OA
BRANCH  75  77
ATOM     77  C   UNL A   1      34.545  22.692  25.289  1.00  0.00     0.298 C 
ATOM     78  C   UNL A   1      33.320  23.232  26.119  1.00  0.00     0.111 C 
ATOM     79  N   UNL A   1      34.308  21.565  24.350  1.00  0.00    -0.326 N 
ATOM     80  C   UNL A   1      31.924  22.705  25.726  1.00  0.00    -0.024 C 
ATOM     81  C   UNL A   1      33.131  20.829  24.760  1.00  0.00     0.243 C 
ATOM     82  H   UNL A   1      35.116  20.943  24.354  1.00  0.00     0.347 HD
ATOM     83  H   UNL A   1      34.166  21.933  23.409  1.00  0.00     0.347 HD
ATOM     84  C   UNL A   1      30.915  23.545  25.519  1.00  0.00     0.002 A 
ATOM     85  C   UNL A   1      31.859  21.688  24.612  1.00  0.00     0.196 C 
ATOM     86  C   UNL A   1      30.378  24.611  26.295  1.00  0.00     0.010 A 
ATOM     87  C   UNL A   1      31.069  23.625  24.038  1.00  0.00     0.066 A 
ATOM     88  N   UNL A   1      31.666  22.615  23.441  1.00  0.00    -0.270 NA
ATOM     89  C   UNL A   1      29.933  25.711  25.676  1.00  0.00     0.001 A 
ATOM     90  C   UNL A   1      30.659  24.935  23.451  1.00  0.00     0.028 A 
ATOM     91  C   UNL A   1      30.139  25.889  24.250  1.00  0.00     0.002 A 
BRANCH  81  92
ATOM     92  C   UNL A   1      33.180  19.353  24.405  1.00  0.00     0.012 A 
ATOM     93  C   UNL A   1      34.293  18.625  24.867  1.00  0.00     0.010 A 
ATOM     94  C   UNL A   1      32.423  18.823  23.348  1.00  0.00     0.010 A 
ATOM     95  C   UNL A   1      34.728  17.489  24.187  1.00  0.00     0.001 A 
ATOM     96  C   UNL A   1      32.855  17.677  22.677  1.00  0.00     0.001 A 
ATOM     97  C   UNL A   1      34.028  17.036  23.072  1.00  0.00     0.000 A 
ENDBRANCH  81  92
ENDBRANCH  75  77
ENDBRANCH  74  75
ENDBRANCH  73  74
ENDBRANCH  72  73
ENDBRANCH  71  72
ENDBRANCH   1  71
TORSDOF 18
ENDMDL
MODEL 3
REMARK VINA RESULT:     -11.9      1.652      2.166
REMARK SMILES O=C(OCCOCCOC(=O)[C@H]1CC2=c3ccccc3=N[C@H]2[C@@H](c2ccccc2)[NH2+]1)c1ccc(-c2c3nc(c(-c4cc(S(=O)(=O)[O-])ccc4F)c4ccc([nH]4)c(-c4cc(S(=O)(=O)[O-])ccc4F)c4nc(c(-c5cc(S(=O)(=O)[O-])ccc5F)c5ccc2[nH]5)C=C4)C=C3)cc1
REMARK SMILES IDX 5 1 4 2 3 3 2 4 1 5 31 6 32 7 93 8 33 9 92 10 34 11 35 12
REMARK SMILES IDX 36 13 86 14 37 15 91 16 85 17 87 18 38 19 90 20 84 21 83 22
REMARK SMILES IDX 39 24 71 25 51 26 70 27 52 28 55 29 69 30 88 31 53 32 54 33
REMARK SMILES IDX 68 35 89 36 56 37 40 38 41 39 49 40 42 41 48 42 50 43 47 44
REMARK SMILES IDX 43 45 44 46 45 47 46 48 72 49 73 50 81 51 74 52 80 53 82 54
REMARK SMILES IDX 79 55 75 56 76 57 77 58 78 59 57 60 58 61 66 62 59 63 65 64
REMARK SMILES IDX 67 65 64 66 60 67 61 68 62 69 63 70 6 71 7 72 8 73 9 74
REMARK SMILES IDX 10 75 11 76 12 77 13 78 30 79 14 80 23 81 15 84 22 85 16 86
REMARK SMILES IDX 20 87 21 88 17 89 19 90 18 91 24 92 25 93 29 94 26 95 28 96
REMARK SMILES IDX 27 97
REMARK H PARENT 87 23 55 34 30 82 30 83
REMARK Flexibility Score: inf
ROOT
ATOM      1  C   UNL A   1      31.644  31.129  27.039  1.00  0.00     0.202 C 
ENDROOT
BRANCH   1   2
ATOM      2  C   UNL A   1      31.406  32.541  26.502  1.00  0.00     0.261 C 
BRANCH   2   3
ATOM      3  O   UNL A   1      32.560  33.371  26.735  1.00  0.00    -0.460 OA
BRANCH   3   4
ATOM      4  C   UNL A   1      33.169  33.725  27.890  1.00  0.00     0.338 C 
ATOM      5  O   UNL A   1      32.628  34.611  28.557  1.00  0.00    -0.246 OA
BRANCH   4   6
ATOM      6  C   UNL A   1      34.461  33.163  28.419  1.00  0.00     0.060 A 
ATOM      7  C   UNL A   1      34.362  31.995  29.202  1.00  0.00     0.016 A 
ATOM      8  C   UNL A   1      35.730  33.726  28.276  1.00  0.00     0.016 A 
ATOM      9  C   UNL A   1      35.478  31.440  29.843  1.00  0.00     0.010 A 
ATOM     10  C   UNL A   1      36.843  33.198  28.930  1.00  0.00     0.010 A 
ATOM     11  C   UNL A   1      36.723  32.057  29.720  1.00  0.00    -0.014 A 
BRANCH  11  12
ATOM     12  C   UNL A   1      37.954  31.492  30.301  1.00  0.00     0.031 A 
ATOM     13  C   UNL A   1      38.677  30.374  29.616  1.00  0.00     0.074 A 
ATOM     14  C   UNL A   1      38.287  31.891  31.541  1.00  0.00     0.049 A 
ATOM     15  N   UNL A   1      39.722  29.707  30.022  1.00  0.00    -0.248 NA
ATOM     16  C   UNL A   1      38.151  29.933  28.312  1.00  0.00     0.031 C 
ATOM     17  C   UNL A   1      37.556  32.904  32.308  1.00  0.00     0.029 A 
ATOM     18  N   UNL A   1      39.264  31.459  32.398  1.00  0.00    -0.354 N 
ATOM     19  C   UNL A   1      39.996  28.779  29.025  1.00  0.00     0.074 A 
ATOM     20  C   UNL A   1      38.978  28.939  28.009  1.00  0.00     0.031 C 
ATOM     21  C   UNL A   1      38.077  32.976  33.540  1.00  0.00     0.029 A 
ATOM     22  C   UNL A   1      39.172  32.015  33.653  1.00  0.00     0.049 A 
ATOM     23  H   UNL A   1      39.963  30.815  32.142  1.00  0.00     0.167 HD
ATOM     24  C   UNL A   1      41.019  27.894  28.972  1.00  0.00     0.034 A 
ATOM     25  C   UNL A   1      39.879  31.767  34.772  1.00  0.00     0.034 A 
ATOM     26  C   UNL A   1      41.998  27.764  30.022  1.00  0.00     0.049 A 
ATOM     27  C   UNL A   1      41.033  30.806  34.679  1.00  0.00     0.074 A 
ATOM     28  C   UNL A   1      43.136  26.980  30.034  1.00  0.00     0.029 A 
ATOM     29  N   UNL A   1      41.947  28.418  31.245  1.00  0.00    -0.354 N 
ATOM     30  N   UNL A   1      41.392  30.057  33.660  1.00  0.00    -0.248 NA
ATOM     31  C   UNL A   1      41.906  30.677  35.852  1.00  0.00     0.031 C 
ATOM     32  C   UNL A   1      43.732  27.103  31.287  1.00  0.00     0.029 A 
ATOM     33  C   UNL A   1      43.017  28.030  32.032  1.00  0.00     0.049 A 
ATOM     34  H   UNL A   1      41.254  29.063  31.514  1.00  0.00     0.167 HD
ATOM     35  C   UNL A   1      42.547  29.395  34.058  1.00  0.00     0.074 A 
ATOM     36  C   UNL A   1      42.836  29.841  35.406  1.00  0.00     0.031 C 
ATOM     37  C   UNL A   1      43.299  28.502  33.367  1.00  0.00     0.034 A 
BRANCH  24  38
ATOM     38  C   UNL A   1      41.198  27.029  27.748  1.00  0.00     0.023 A 
ATOM     39  C   UNL A   1      40.898  25.654  27.801  1.00  0.00     0.031 A 
ATOM     40  C   UNL A   1      41.859  27.520  26.607  1.00  0.00     0.131 A 
ATOM     41  C   UNL A   1      41.310  24.809  26.762  1.00  0.00     0.055 A 
ATOM     42  C   UNL A   1      42.230  26.679  25.555  1.00  0.00     0.041 A 
ATOM     43  F   UNL A   1      42.177  28.820  26.510  1.00  0.00    -0.206 F 
ATOM     44  C   UNL A   1      41.970  25.315  25.638  1.00  0.00     0.022 A 
BRANCH  41  45
ATOM     45  S   UNL A   1      41.076  23.012  26.861  1.00  0.00     0.124 S 
ATOM     46  O   UNL A   1      41.893  22.538  25.745  1.00  0.00    -0.237 OA
ATOM     47  O   UNL A   1      41.601  22.710  28.190  1.00  0.00    -0.237 OA
ATOM     48  O   UNL A   1      39.638  22.836  26.692  1.00  0.00    -0.744 OA
ENDBRANCH  41  45
ENDBRANCH  24  38
BRANCH  25  49
ATOM     49  C   UNL A   1      39.537  32.518  36.013  1.00  0.00     0.023 A 
ATOM     50  C   UNL A   1      38.677  31.959  36.978  1.00  0.00     0.031 A 
ATOM     51  C   UNL A   1      39.923  33.859  36.171  1.00  0.00     0.131 A 
ATOM     52  C   UNL A   1      38.179  32.757  38.017  1.00  0.00     0.055 A 
ATOM     53  C   UNL A   1      39.478  34.632  37.245  1.00  0.00     0.041 A 
ATOM     54  F   UNL A   1      40.718  34.444  35.262  1.00  0.00    -0.206 F 
ATOM     55  C   UNL A   1      38.585  34.087  38.163  1.00  0.00     0.022 A 
BRANCH  52  56
ATOM     56  S   UNL A   1      36.866  32.149  39.113  1.00  0.00     0.124 S 
ATOM     57  O   UNL A   1      37.020  30.702  38.999  1.00  0.00    -0.237 OA
ATOM     58  O   UNL A   1      37.253  32.725  40.399  1.00  0.00    -0.237 OA
ATOM     59  O   UNL A   1      35.647  32.703  38.533  1.00  0.00    -0.744 OA
ENDBRANCH  52  56
ENDBRANCH  25  49
BRANCH  37  60
ATOM     60  C   UNL A   1      44.528  27.927  34.025  1.00  0.00     0.023 A 
ATOM     61  C   UNL A   1      45.787  28.505  33.771  1.00  0.00     0.031 A 
ATOM     62  C   UNL A   1      44.478  26.706  34.717  1.00  0.00     0.131 A 
ATOM     63  C   UNL A   1      46.950  27.828  34.150  1.00  0.00     0.055 A 
ATOM     64  C   UNL A   1      45.640  26.061  35.138  1.00  0.00     0.041 A 
ATOM     65  F   UNL A   1      43.300  26.115  34.971  1.00  0.00    -0.206 F 
ATOM     66  C   UNL A   1      46.884  26.612  34.838  1.00  0.00     0.022 A 
BRANCH  63  67
ATOM     67  S   UNL A   1      48.588  28.444  33.672  1.00  0.00     0.124 S 
ATOM     68  O   UNL A   1      48.429  29.887  33.838  1.00  0.00    -0.237 OA
ATOM     69  O   UNL A   1      49.457  27.795  34.649  1.00  0.00    -0.237 OA
ATOM     70  O   UNL A   1      48.746  27.994  32.293  1.00  0.00    -0.744 OA
ENDBRANCH  63  67
ENDBRANCH  37  60
ENDBRANCH  11  12
ENDBRANCH   4   6
ENDBRANCH   3   4
ENDBRANCH   2   3
ENDBRANCH   1   2
BRANCH   1  71
ATOM     71  O   UNL A   1      32.268  30.307  26.059  1.00  0.00    -0.374 OA
BRANCH  71  72
ATOM     72  C   UNL A   1      32.923  29.151  26.570  1.00  0.00     0.202 C 
BRANCH  72  73
ATOM     73  C   UNL A   1      34.068  28.782  25.646  1.00  0.00     0.261 C 
BRANCH  73  74
ATOM     74  O   UNL A   1      33.595  27.955  24.575  1.00  0.00    -0.459 OA
BRANCH  74  75
ATOM     75  C   UNL A   1      33.756  28.403  23.293  1.00  0.00     0.365 C 
ATOM     76  O   UNL A   1      34.787  28.883  22.819  1.00  0.00    -0.245 OA
BRANCH  75  77
ATOM     77  C   UNL A   1      32.420  28.317  22.537  1.00  0.00     0.298 C 
ATOM     78  C   UNL A   1      31.866  26.856  22.332  1.00  0.00     0.111 C 
ATOM     79  N   UNL A   1      31.509  29.330  23.132  1.00  0.00    -0.326 N 
ATOM     80  C   UNL A   1      30.502  26.530  22.974  1.00  0.00    -0.024 C 
ATOM     81  C   UNL A   1      30.133  28.933  22.919  1.00  0.00     0.243 C 
ATOM     82  H   UNL A   1      31.674  30.235  22.691  1.00  0.00     0.347 HD
ATOM     83  H   UNL A   1      31.691  29.400  24.134  1.00  0.00     0.347 HD
ATOM     84  C   UNL A   1      30.347  25.444  23.725  1.00  0.00     0.002 A 
ATOM     85  C   UNL A   1      29.798  27.649  23.705  1.00  0.00     0.196 C 
ATOM     86  C   UNL A   1      30.656  24.072  23.504  1.00  0.00     0.010 A 
ATOM     87  C   UNL A   1      30.565  26.118  25.037  1.00  0.00     0.066 A 
ATOM     88  N   UNL A   1      30.332  27.412  25.093  1.00  0.00    -0.270 NA
ATOM     89  C   UNL A   1      31.105  23.330  24.523  1.00  0.00     0.001 A 
ATOM     90  C   UNL A   1      31.182  25.244  26.078  1.00  0.00     0.028 A 
ATOM     91  C   UNL A   1      31.427  23.947  25.798  1.00  0.00     0.002 A 
BRANCH  81  92
ATOM     92  C   UNL A   1      29.174  30.103  22.795  1.00  0.00     0.012 A 
ATOM     93  C   UNL A   1      28.624  30.342  21.521  1.00  0.00     0.010 A 
ATOM     94  C   UNL A   1      29.146  31.139  23.742  1.00  0.00     0.010 A 
ATOM     95  C   UNL A   1      28.213  31.623  21.157  1.00  0.00     0.001 A 
ATOM     96  C   UNL A   1      28.721  32.417  23.378  1.00  0.00     0.001 A 
ATOM     97  C   UNL A   1      28.293  32.667  22.075  1.00  0.00     0.000 A 
ENDBRANCH  81  92
ENDBRANCH  75  77
ENDBRANCH  74  75
ENDBRANCH  73  74
ENDBRANCH  72  73
ENDBRANCH  71  72
ENDBRANCH   1  71
TORSDOF 18
ENDMDL
