MODEL 1
REMARK VINA RESULT:     -11.6      0.000      0.000
REMARK SMILES Cn1c(=O)c(=O)n(C)c2cc(S(=O)(=O)N3CCC[C@H]3C(=O)OCCOCCOC(=O)c3ccc(-c4c5nc(c(-c6cc(S(=O)(=O)[O-])ccc6F)c6ccc([nH]6)c(-c6cc(S(=O)(=O)[O-])ccc6F)c6nc(c(-c7cc(S(=O)(=O)[O-])ccc7F)c7ccc4[nH]7)C=C6)C=C5)cc3)ccc21
REMARK SMILES IDX 26 1 25 2 24 3 23 4 22 5 20 6 21 7 19 8 15 9 16 10 17 11
REMARK SMILES IDX 18 12 12 13 13 14 14 15 11 16 1 17 2 18 3 19 96 20 4 21 5 22
REMARK SMILES IDX 9 23 95 24 6 25 7 26 10 27 94 28 8 29 27 30 28 31 29 32
REMARK SMILES IDX 30 33 31 34 32 35 93 36 33 37 92 38 34 39 35 40 36 41 86 42
REMARK SMILES IDX 37 43 91 44 85 45 87 46 38 47 90 48 84 49 83 50 39 52 71 53
REMARK SMILES IDX 51 54 70 55 52 56 55 57 69 58 88 59 53 60 54 61 68 63 89 64
REMARK SMILES IDX 56 65 40 66 41 67 49 68 42 69 48 70 50 71 47 72 43 73 44 74
REMARK SMILES IDX 45 75 46 76 72 77 73 78 81 79 74 80 80 81 82 82 79 83 75 84
REMARK SMILES IDX 76 85 77 86 78 87 57 88 58 89 66 90 59 91 65 92 67 93 64 94
REMARK SMILES IDX 60 95 61 96 62 97 63 98
REMARK H PARENT 87 51 55 62
REMARK Flexibility Score: inf
ROOT
ATOM      1  C   UNL A   1      38.790  20.376  25.596  1.00  0.00     0.202 C 
ENDROOT
BRANCH   1   2
ATOM      2  O   UNL A   1      37.531  20.121  24.962  1.00  0.00    -0.374 OA
BRANCH   2   3
ATOM      3  C   UNL A   1      36.645  21.237  24.877  1.00  0.00     0.202 C 
BRANCH   3   4
ATOM      4  C   UNL A   1      35.317  21.102  25.628  1.00  0.00     0.261 C 
BRANCH   4   5
ATOM      5  O   UNL A   1      34.405  20.179  25.005  1.00  0.00    -0.462 OA
BRANCH   5   6
ATOM      6  C   UNL A   1      33.115  20.596  24.976  1.00  0.00     0.324 C 
ATOM      7  O   UNL A   1      32.146  19.865  24.777  1.00  0.00    -0.250 OA
BRANCH   6   8
ATOM      8  C   UNL A   1      32.936  22.085  25.159  1.00  0.00     0.183 C 
ATOM      9  N   UNL A   1      32.498  22.946  24.040  1.00  0.00    -0.184 NA
ATOM     10  C   UNL A   1      31.090  23.325  24.196  1.00  0.00     0.103 C 
ATOM     11  C   UNL A   1      30.826  23.250  25.685  1.00  0.00     0.019 C 
ATOM     12  C   UNL A   1      31.856  22.278  26.242  1.00  0.00     0.034 C 
BRANCH   9  13
ATOM     13  S   UNL A   1      33.562  23.908  23.169  1.00  0.00     0.243 S 
ATOM     14  O   UNL A   1      33.659  23.392  21.821  1.00  0.00    -0.207 OA
ATOM     15  O   UNL A   1      34.736  24.118  23.984  1.00  0.00    -0.207 OA
BRANCH  13  16
ATOM     16  C   UNL A   1      32.849  25.541  23.015  1.00  0.00     0.084 A 
ATOM     17  C   UNL A   1      29.528  29.322  22.201  1.00  0.00     0.154 C 
ATOM     18  N   UNL A   1      30.557  29.090  23.202  1.00  0.00    -0.305 N 
ATOM     19  C   UNL A   1      30.636  29.973  24.275  1.00  0.00     0.316 A 
ATOM     20  C   UNL A   1      31.393  27.944  23.117  1.00  0.00     0.068 A 
ATOM     21  O   UNL A   1      29.903  30.951  24.404  1.00  0.00    -0.263 OA
ATOM     22  C   UNL A   1      31.700  29.704  25.347  1.00  0.00     0.316 A 
ATOM     23  C   UNL A   1      32.263  27.617  24.173  1.00  0.00     0.069 A 
ATOM     24  C   UNL A   1      31.344  27.108  21.990  1.00  0.00     0.030 A 
ATOM     25  O   UNL A   1      31.862  30.542  26.231  1.00  0.00    -0.263 OA
ATOM     26  N   UNL A   1      32.420  28.513  25.267  1.00  0.00    -0.305 N 
ATOM     27  C   UNL A   1      32.961  26.395  24.124  1.00  0.00     0.050 A 
ATOM     28  C   UNL A   1      32.088  25.931  21.927  1.00  0.00     0.024 A 
ATOM     29  C   UNL A   1      33.395  28.235  26.311  1.00  0.00     0.154 C 
ENDBRANCH  13  16
ENDBRANCH   9  13
ENDBRANCH   6   8
ENDBRANCH   5   6
ENDBRANCH   4   5
ENDBRANCH   3   4
ENDBRANCH   2   3
ENDBRANCH   1   2
BRANCH   1  30
ATOM     30  C   UNL A   1      39.739  19.177  25.691  1.00  0.00     0.261 C 
BRANCH  30  31
ATOM     31  O   UNL A   1      40.763  19.423  26.674  1.00  0.00    -0.460 OA
BRANCH  31  32
ATOM     32  C   UNL A   1      41.913  19.963  26.204  1.00  0.00     0.338 C 
ATOM     33  O   UNL A   1      42.669  19.473  25.382  1.00  0.00    -0.246 OA
BRANCH  32  34
ATOM     34  C   UNL A   1      42.009  21.367  26.665  1.00  0.00     0.060 A 
ATOM     35  C   UNL A   1      42.272  21.704  27.997  1.00  0.00     0.016 A 
ATOM     36  C   UNL A   1      41.824  22.372  25.707  1.00  0.00     0.016 A 
ATOM     37  C   UNL A   1      42.400  23.051  28.355  1.00  0.00     0.010 A 
ATOM     38  C   UNL A   1      41.941  23.713  26.068  1.00  0.00     0.010 A 
ATOM     39  C   UNL A   1      42.257  24.063  27.388  1.00  0.00    -0.014 A 
BRANCH  39  40
ATOM     40  C   UNL A   1      42.618  25.469  27.695  1.00  0.00     0.031 A 
ATOM     41  C   UNL A   1      41.625  26.439  28.258  1.00  0.00     0.074 A 
ATOM     42  C   UNL A   1      43.856  25.885  27.366  1.00  0.00     0.049 A 
ATOM     43  N   UNL A   1      41.803  27.693  28.586  1.00  0.00    -0.248 NA
ATOM     44  C   UNL A   1      40.256  25.949  28.470  1.00  0.00     0.031 C 
ATOM     45  C   UNL A   1      44.880  25.037  26.752  1.00  0.00     0.029 A 
ATOM     46  N   UNL A   1      44.457  27.113  27.473  1.00  0.00    -0.354 N 
ATOM     47  C   UNL A   1      40.580  28.141  29.064  1.00  0.00     0.074 A 
ATOM     48  C   UNL A   1      39.652  27.037  28.938  1.00  0.00     0.031 C 
ATOM     49  C   UNL A   1      45.980  25.771  26.533  1.00  0.00     0.029 A 
ATOM     50  C   UNL A   1      45.737  27.143  26.969  1.00  0.00     0.049 A 
ATOM     51  H   UNL A   1      44.015  27.897  27.872  1.00  0.00     0.167 HD
ATOM     52  C   UNL A   1      40.273  29.358  29.577  1.00  0.00     0.034 A 
ATOM     53  C   UNL A   1      46.618  28.159  26.867  1.00  0.00     0.034 A 
ATOM     54  C   UNL A   1      41.210  30.451  29.677  1.00  0.00     0.049 A 
ATOM     55  C   UNL A   1      46.247  29.506  27.426  1.00  0.00     0.074 A 
ATOM     56  C   UNL A   1      41.012  31.693  30.255  1.00  0.00     0.029 A 
ATOM     57  N   UNL A   1      42.505  30.447  29.177  1.00  0.00    -0.354 N 
ATOM     58  N   UNL A   1      45.132  29.874  28.013  1.00  0.00    -0.248 NA
ATOM     59  C   UNL A   1      47.253  30.573  27.333  1.00  0.00     0.031 C 
ATOM     60  C   UNL A   1      42.161  32.460  30.050  1.00  0.00     0.029 A 
ATOM     61  C   UNL A   1      43.103  31.677  29.402  1.00  0.00     0.049 A 
ATOM     62  H   UNL A   1      42.935  29.683  28.729  1.00  0.00     0.167 HD
ATOM     63  C   UNL A   1      45.311  31.204  28.380  1.00  0.00     0.074 A 
ATOM     64  C   UNL A   1      46.651  31.570  27.969  1.00  0.00     0.031 C 
ATOM     65  C   UNL A   1      44.442  32.041  29.001  1.00  0.00     0.034 A 
BRANCH  52  66
ATOM     66  C   UNL A   1      38.882  29.591  30.113  1.00  0.00     0.023 A 
ATOM     67  C   UNL A   1      37.946  30.331  29.368  1.00  0.00     0.031 A 
ATOM     68  C   UNL A   1      38.544  29.218  31.427  1.00  0.00     0.131 A 
ATOM     69  C   UNL A   1      36.729  30.704  29.955  1.00  0.00     0.055 A 
ATOM     70  C   UNL A   1      37.319  29.566  31.996  1.00  0.00     0.041 A 
ATOM     71  F   UNL A   1      39.407  28.516  32.179  1.00  0.00    -0.206 F 
ATOM     72  C   UNL A   1      36.410  30.322  31.263  1.00  0.00     0.022 A 
BRANCH  69  73
ATOM     73  S   UNL A   1      35.537  31.747  29.072  1.00  0.00     0.124 S 
ATOM     74  O   UNL A   1      34.842  32.404  30.177  1.00  0.00    -0.237 OA
ATOM     75  O   UNL A   1      36.412  32.611  28.284  1.00  0.00    -0.237 OA
ATOM     76  O   UNL A   1      34.734  30.796  28.311  1.00  0.00    -0.744 OA
ENDBRANCH  69  73
ENDBRANCH  52  66
BRANCH  53  77
ATOM     77  C   UNL A   1      47.959  27.889  26.274  1.00  0.00     0.023 A 
ATOM     78  C   UNL A   1      48.151  27.901  24.880  1.00  0.00     0.031 A 
ATOM     79  C   UNL A   1      49.033  27.492  27.088  1.00  0.00     0.131 A 
ATOM     80  C   UNL A   1      49.369  27.464  24.342  1.00  0.00     0.055 A 
ATOM     81  C   UNL A   1      50.265  27.118  26.550  1.00  0.00     0.041 A 
ATOM     82  F   UNL A   1      48.889  27.450  28.421  1.00  0.00    -0.206 F 
ATOM     83  C   UNL A   1      50.432  27.087  25.169  1.00  0.00     0.022 A 
BRANCH  80  84
ATOM     84  S   UNL A   1      49.569  27.241  22.552  1.00  0.00     0.124 S 
ATOM     85  O   UNL A   1      50.952  26.782  22.457  1.00  0.00    -0.237 OA
ATOM     86  O   UNL A   1      48.549  26.236  22.260  1.00  0.00    -0.237 OA
ATOM     87  O   UNL A   1      49.305  28.568  22.007  1.00  0.00    -0.744 OA
ENDBRANCH  80  84
ENDBRANCH  53  77
BRANCH  65  88
ATOM     88  C   UNL A   1      44.882  33.456  29.288  1.00  0.00     0.023 A 
ATOM     89  C   UNL A   1      44.802  34.439  28.282  1.00  0.00     0.031 A 
ATOM     90  C   UNL A   1      45.517  33.792  30.497  1.00  0.00     0.131 A 
ATOM     91  C   UNL A   1      45.386  35.696  28.487  1.00  0.00     0.055 A 
ATOM     92  C   UNL A   1      46.057  35.062  30.712  1.00  0.00     0.041 A 
ATOM     93  F   UNL A   1      45.626  32.889  31.484  1.00  0.00    -0.206 F 
ATOM     94  C   UNL A   1      46.007  36.014  29.698  1.00  0.00     0.022 A 
BRANCH  91  95
ATOM     95  S   UNL A   1      45.441  36.931  27.157  1.00  0.00     0.124 S 
ATOM     96  O   UNL A   1      44.021  37.193  26.931  1.00  0.00    -0.237 OA
ATOM     97  O   UNL A   1      46.185  38.021  27.782  1.00  0.00    -0.237 OA
ATOM     98  O   UNL A   1      46.127  36.246  26.068  1.00  0.00    -0.744 OA
ENDBRANCH  91  95
ENDBRANCH  65  88
ENDBRANCH  39  40
ENDBRANCH  32  34
ENDBRANCH  31  32
ENDBRANCH  30  31
ENDBRANCH   1  30
TORSDOF 19
ENDMDL
MODEL 2
REMARK VINA RESULT:     -11.5      1.797      7.507
REMARK SMILES Cn1c(=O)c(=O)n(C)c2cc(S(=O)(=O)N3CCC[C@H]3C(=O)OCCOCCOC(=O)c3ccc(-c4c5nc(c(-c6cc(S(=O)(=O)[O-])ccc6F)c6ccc([nH]6)c(-c6cc(S(=O)(=O)[O-])ccc6F)c6nc(c(-c7cc(S(=O)(=O)[O-])ccc7F)c7ccc4[nH]7)C=C6)C=C5)cc3)ccc21
REMARK SMILES IDX 26 1 25 2 24 3 23 4 22 5 20 6 21 7 19 8 15 9 16 10 17 11
REMARK SMILES IDX 18 12 12 13 13 14 14 15 11 16 1 17 2 18 3 19 96 20 4 21 5 22
REMARK SMILES IDX 9 23 95 24 6 25 7 26 10 27 94 28 8 29 27 30 28 31 29 32
REMARK SMILES IDX 30 33 31 34 32 35 93 36 33 37 92 38 34 39 35 40 36 41 86 42
REMARK SMILES IDX 37 43 91 44 85 45 87 46 38 47 90 48 84 49 83 50 39 52 71 53
REMARK SMILES IDX 51 54 70 55 52 56 55 57 69 58 88 59 53 60 54 61 68 63 89 64
REMARK SMILES IDX 56 65 40 66 41 67 49 68 42 69 48 70 50 71 47 72 43 73 44 74
REMARK SMILES IDX 45 75 46 76 72 77 73 78 81 79 74 80 80 81 82 82 79 83 75 84
REMARK SMILES IDX 76 85 77 86 78 87 57 88 58 89 66 90 59 91 65 92 67 93 64 94
REMARK SMILES IDX 60 95 61 96 62 97 63 98
REMARK H PARENT 87 51 55 62
REMARK Flexibility Score: inf
ROOT
ATOM      1  C   UNL A   1      36.315  20.381  24.966  1.00  0.00     0.202 C 
ENDROOT
BRANCH   1   2
ATOM      2  O   UNL A   1      35.667  19.153  24.613  1.00  0.00    -0.374 OA
BRANCH   2   3
ATOM      3  C   UNL A   1      34.325  19.007  25.076  1.00  0.00     0.202 C 
BRANCH   3   4
ATOM      4  C   UNL A   1      33.279  18.657  24.013  1.00  0.00     0.261 C 
BRANCH   4   5
ATOM      5  O   UNL A   1      32.127  19.518  24.048  1.00  0.00    -0.462 OA
BRANCH   5   6
ATOM      6  C   UNL A   1      32.228  20.626  23.272  1.00  0.00     0.324 C 
ATOM      7  O   UNL A   1      32.136  20.634  22.046  1.00  0.00    -0.250 OA
BRANCH   6   8
ATOM      8  C   UNL A   1      32.527  21.896  24.034  1.00  0.00     0.183 C 
ATOM      9  N   UNL A   1      32.145  23.218  23.497  1.00  0.00    -0.184 NA
ATOM     10  C   UNL A   1      30.967  23.743  24.194  1.00  0.00     0.103 C 
ATOM     11  C   UNL A   1      30.991  23.083  25.556  1.00  0.00     0.019 C 
ATOM     12  C   UNL A   1      31.784  21.797  25.382  1.00  0.00     0.034 C 
BRANCH   9  13
ATOM     13  S   UNL A   1      33.248  24.251  22.765  1.00  0.00     0.243 S 
ATOM     14  O   UNL A   1      33.283  23.966  21.348  1.00  0.00    -0.207 OA
ATOM     15  O   UNL A   1      34.451  24.250  23.566  1.00  0.00    -0.207 OA
BRANCH  13  16
ATOM     16  C   UNL A   1      32.636  25.925  22.911  1.00  0.00     0.084 A 
ATOM     17  C   UNL A   1      29.494  29.932  23.153  1.00  0.00     0.154 C 
ATOM     18  N   UNL A   1      30.688  29.547  23.890  1.00  0.00    -0.305 N 
ATOM     19  C   UNL A   1      31.046  30.312  24.997  1.00  0.00     0.316 A 
ATOM     20  C   UNL A   1      31.406  28.376  23.530  1.00  0.00     0.068 A 
ATOM     21  O   UNL A   1      30.426  31.307  25.363  1.00  0.00    -0.263 OA
ATOM     22  C   UNL A   1      32.285  29.882  25.793  1.00  0.00     0.316 A 
ATOM     23  C   UNL A   1      32.447  27.899  24.346  1.00  0.00     0.069 A 
ATOM     24  C   UNL A   1      31.069  27.662  22.369  1.00  0.00     0.030 A 
ATOM     25  O   UNL A   1      32.683  30.616  26.695  1.00  0.00    -0.263 OA
ATOM     26  N   UNL A   1      32.887  28.670  25.458  1.00  0.00    -0.305 N 
ATOM     27  C   UNL A   1      33.032  26.655  24.043  1.00  0.00     0.050 A 
ATOM     28  C   UNL A   1      31.699  26.462  22.046  1.00  0.00     0.024 A 
ATOM     29  C   UNL A   1      34.033  28.239  26.245  1.00  0.00     0.154 C 
ENDBRANCH  13  16
ENDBRANCH   9  13
ENDBRANCH   6   8
ENDBRANCH   5   6
ENDBRANCH   4   5
ENDBRANCH   3   4
ENDBRANCH   2   3
ENDBRANCH   1   2
BRANCH   1  30
ATOM     30  C   UNL A   1      37.834  20.300  25.146  1.00  0.00     0.261 C 
BRANCH  30  31
ATOM     31  O   UNL A   1      38.313  21.436  25.891  1.00  0.00    -0.460 OA
BRANCH  31  32
ATOM     32  C   UNL A   1      39.569  21.330  26.387  1.00  0.00     0.338 C 
ATOM     33  O   UNL A   1      40.327  20.383  26.260  1.00  0.00    -0.246 OA
BRANCH  32  34
ATOM     34  C   UNL A   1      39.990  22.646  26.919  1.00  0.00     0.060 A 
ATOM     35  C   UNL A   1      40.929  22.774  27.948  1.00  0.00     0.016 A 
ATOM     36  C   UNL A   1      39.409  23.786  26.350  1.00  0.00     0.016 A 
ATOM     37  C   UNL A   1      41.319  24.051  28.370  1.00  0.00     0.010 A 
ATOM     38  C   UNL A   1      39.790  25.055  26.779  1.00  0.00     0.010 A 
ATOM     39  C   UNL A   1      40.769  25.199  27.772  1.00  0.00    -0.014 A 
BRANCH  39  40
ATOM     40  C   UNL A   1      41.337  26.544  28.036  1.00  0.00     0.031 A 
ATOM     41  C   UNL A   1      42.755  26.889  27.696  1.00  0.00     0.074 A 
ATOM     42  C   UNL A   1      40.562  27.436  28.683  1.00  0.00     0.049 A 
ATOM     43  N   UNL A   1      43.380  28.025  27.858  1.00  0.00    -0.248 NA
ATOM     44  C   UNL A   1      43.580  25.823  27.110  1.00  0.00     0.031 C 
ATOM     45  C   UNL A   1      39.187  27.179  29.118  1.00  0.00     0.029 A 
ATOM     46  N   UNL A   1      40.815  28.715  29.108  1.00  0.00    -0.354 N 
ATOM     47  C   UNL A   1      44.667  27.826  27.377  1.00  0.00     0.074 A 
ATOM     48  C   UNL A   1      44.747  26.441  26.960  1.00  0.00     0.031 C 
ATOM     49  C   UNL A   1      38.721  28.264  29.752  1.00  0.00     0.029 A 
ATOM     50  C   UNL A   1      39.764  29.285  29.788  1.00  0.00     0.049 A 
ATOM     51  H   UNL A   1      41.667  29.180  28.943  1.00  0.00     0.167 HD
ATOM     52  C   UNL A   1      45.676  28.726  27.279  1.00  0.00     0.034 A 
ATOM     53  C   UNL A   1      39.650  30.493  30.378  1.00  0.00     0.034 A 
ATOM     54  C   UNL A   1      45.580  30.098  27.717  1.00  0.00     0.049 A 
ATOM     55  C   UNL A   1      40.791  31.469  30.271  1.00  0.00     0.074 A 
ATOM     56  C   UNL A   1      46.522  31.103  27.585  1.00  0.00     0.029 A 
ATOM     57  N   UNL A   1      44.496  30.653  28.384  1.00  0.00    -0.354 N 
ATOM     58  N   UNL A   1      41.953  31.314  29.680  1.00  0.00    -0.248 NA
ATOM     59  C   UNL A   1      40.607  32.788  30.890  1.00  0.00     0.031 C 
ATOM     60  C   UNL A   1      46.037  32.245  28.225  1.00  0.00     0.029 A 
ATOM     61  C   UNL A   1      44.764  31.976  28.700  1.00  0.00     0.049 A 
ATOM     62  H   UNL A   1      43.662  30.178  28.600  1.00  0.00     0.167 HD
ATOM     63  C   UNL A   1      42.627  32.521  29.833  1.00  0.00     0.074 A 
ATOM     64  C   UNL A   1      41.734  33.405  30.554  1.00  0.00     0.031 C 
ATOM     65  C   UNL A   1      43.870  32.861  29.412  1.00  0.00     0.034 A 
BRANCH  52  66
ATOM     66  C   UNL A   1      46.974  28.296  26.642  1.00  0.00     0.023 A 
ATOM     67  C   UNL A   1      47.095  28.235  25.242  1.00  0.00     0.031 A 
ATOM     68  C   UNL A   1      48.031  27.796  27.425  1.00  0.00     0.131 A 
ATOM     69  C   UNL A   1      48.233  27.654  24.666  1.00  0.00     0.055 A 
ATOM     70  C   UNL A   1      49.175  27.246  26.847  1.00  0.00     0.041 A 
ATOM     71  F   UNL A   1      47.960  27.827  28.766  1.00  0.00    -0.206 F 
ATOM     72  C   UNL A   1      49.274  27.162  25.462  1.00  0.00     0.022 A 
BRANCH  69  73
ATOM     73  S   UNL A   1      48.385  27.455  22.871  1.00  0.00     0.124 S 
ATOM     74  O   UNL A   1      47.222  28.199  22.390  1.00  0.00    -0.237 OA
ATOM     75  O   UNL A   1      49.678  28.078  22.602  1.00  0.00    -0.237 OA
ATOM     76  O   UNL A   1      48.325  26.012  22.670  1.00  0.00    -0.744 OA
ENDBRANCH  69  73
ENDBRANCH  52  66
BRANCH  53  77
ATOM     77  C   UNL A   1      38.365  30.847  31.045  1.00  0.00     0.023 A 
ATOM     78  C   UNL A   1      37.318  31.454  30.327  1.00  0.00     0.031 A 
ATOM     79  C   UNL A   1      38.216  30.696  32.433  1.00  0.00     0.131 A 
ATOM     80  C   UNL A   1      36.198  31.944  31.011  1.00  0.00     0.055 A 
ATOM     81  C   UNL A   1      37.070  31.128  33.102  1.00  0.00     0.041 A 
ATOM     82  F   UNL A   1      39.195  30.137  33.160  1.00  0.00    -0.206 F 
ATOM     83  C   UNL A   1      36.061  31.772  32.392  1.00  0.00     0.022 A 
BRANCH  80  84
ATOM     84  S   UNL A   1      34.945  32.940  30.155  1.00  0.00     0.124 S 
ATOM     85  O   UNL A   1      34.026  33.270  31.240  1.00  0.00    -0.237 OA
ATOM     86  O   UNL A   1      35.745  34.052  29.645  1.00  0.00    -0.237 OA
ATOM     87  O   UNL A   1      34.422  32.035  29.137  1.00  0.00    -0.744 OA
ENDBRANCH  80  84
ENDBRANCH  53  77
BRANCH  65  88
ATOM     88  C   UNL A   1      44.379  34.251  29.710  1.00  0.00     0.023 A 
ATOM     89  C   UNL A   1      45.005  34.525  30.942  1.00  0.00     0.031 A 
ATOM     90  C   UNL A   1      44.110  35.328  28.847  1.00  0.00     0.131 A 
ATOM     91  C   UNL A   1      45.300  35.849  31.295  1.00  0.00     0.055 A 
ATOM     92  C   UNL A   1      44.449  36.640  29.185  1.00  0.00     0.041 A 
ATOM     93  F   UNL A   1      43.509  35.120  27.665  1.00  0.00    -0.206 F 
ATOM     94  C   UNL A   1      45.032  36.905  30.420  1.00  0.00     0.022 A 
BRANCH  91  95
ATOM     95  S   UNL A   1      45.960  36.255  32.937  1.00  0.00     0.124 S 
ATOM     96  O   UNL A   1      46.836  35.115  33.200  1.00  0.00    -0.237 OA
ATOM     97  O   UNL A   1      46.644  37.522  32.688  1.00  0.00    -0.237 OA
ATOM     98  O   UNL A   1      44.775  36.337  33.783  1.00  0.00    -0.744 OA
ENDBRANCH  91  95
ENDBRANCH  65  88
ENDBRANCH  39  40
ENDBRANCH  32  34
ENDBRANCH  31  32
ENDBRANCH  30  31
ENDBRANCH   1  30
TORSDOF 19
ENDMDL
MODEL 3
REMARK VINA RESULT:     -11.4      2.202      2.691
REMARK SMILES Cn1c(=O)c(=O)n(C)c2cc(S(=O)(=O)N3CCC[C@H]3C(=O)OCCOCCOC(=O)c3ccc(-c4c5nc(c(-c6cc(S(=O)(=O)[O-])ccc6F)c6ccc([nH]6)c(-c6cc(S(=O)(=O)[O-])ccc6F)c6nc(c(-c7cc(S(=O)(=O)[O-])ccc7F)c7ccc4[nH]7)C=C6)C=C5)cc3)ccc21
REMARK SMILES IDX 26 1 25 2 24 3 23 4 22 5 20 6 21 7 19 8 15 9 16 10 17 11
REMARK SMILES IDX 18 12 12 13 13 14 14 15 11 16 1 17 2 18 3 19 96 20 4 21 5 22
REMARK SMILES IDX 9 23 95 24 6 25 7 26 10 27 94 28 8 29 27 30 28 31 29 32
REMARK SMILES IDX 30 33 31 34 32 35 93 36 33 37 92 38 34 39 35 40 36 41 86 42
REMARK SMILES IDX 37 43 91 44 85 45 87 46 38 47 90 48 84 49 83 50 39 52 71 53
REMARK SMILES IDX 51 54 70 55 52 56 55 57 69 58 88 59 53 60 54 61 68 63 89 64
REMARK SMILES IDX 56 65 40 66 41 67 49 68 42 69 48 70 50 71 47 72 43 73 44 74
REMARK SMILES IDX 45 75 46 76 72 77 73 78 81 79 74 80 80 81 82 82 79 83 75 84
REMARK SMILES IDX 76 85 77 86 78 87 57 88 58 89 66 90 59 91 65 92 67 93 64 94
REMARK SMILES IDX 60 95 61 96 62 97 63 98
REMARK H PARENT 87 51 55 62
REMARK Flexibility Score: inf
ROOT
ATOM      1  C   UNL A   1      38.559  21.171  25.538  1.00  0.00     0.202 C 
ENDROOT
BRANCH   1   2
ATOM      2  O   UNL A   1      39.085  22.151  26.441  1.00  0.00    -0.374 OA
BRANCH   2   3
ATOM      3  C   UNL A   1      38.572  23.474  26.284  1.00  0.00     0.202 C 
BRANCH   3   4
ATOM      4  C   UNL A   1      37.201  23.590  25.613  1.00  0.00     0.261 C 
BRANCH   4   5
ATOM      5  O   UNL A   1      36.111  23.622  26.553  1.00  0.00    -0.462 OA
BRANCH   5   6
ATOM      6  C   UNL A   1      35.110  22.748  26.284  1.00  0.00     0.324 C 
ATOM      7  O   UNL A   1      35.147  21.543  26.527  1.00  0.00    -0.250 OA
BRANCH   6   8
ATOM      8  C   UNL A   1      33.916  23.361  25.590  1.00  0.00     0.183 C 
ATOM      9  N   UNL A   1      33.378  22.783  24.341  1.00  0.00    -0.184 NA
ATOM     10  C   UNL A   1      32.139  22.044  24.601  1.00  0.00     0.103 C 
ATOM     11  C   UNL A   1      31.561  22.674  25.852  1.00  0.00     0.019 C 
ATOM     12  C   UNL A   1      32.739  23.300  26.583  1.00  0.00     0.034 C 
BRANCH   9  13
ATOM     13  S   UNL A   1      33.688  23.445  22.830  1.00  0.00     0.243 S 
ATOM     14  O   UNL A   1      32.976  22.680  21.831  1.00  0.00    -0.207 OA
ATOM     15  O   UNL A   1      35.112  23.673  22.732  1.00  0.00    -0.207 OA
BRANCH  13  16
ATOM     16  C   UNL A   1      32.986  25.089  22.779  1.00  0.00     0.084 A 
ATOM     17  C   UNL A   1      29.653  28.924  22.368  1.00  0.00     0.154 C 
ATOM     18  N   UNL A   1      30.773  28.659  23.258  1.00  0.00    -0.305 N 
ATOM     19  C   UNL A   1      30.969  29.520  24.335  1.00  0.00     0.316 A 
ATOM     20  C   UNL A   1      31.581  27.506  23.070  1.00  0.00     0.068 A 
ATOM     21  O   UNL A   1      30.266  30.503  24.553  1.00  0.00    -0.263 OA
ATOM     22  C   UNL A   1      32.130  29.217  25.291  1.00  0.00     0.316 A 
ATOM     23  C   UNL A   1      32.546  27.147  24.028  1.00  0.00     0.069 A 
ATOM     24  C   UNL A   1      31.409  26.693  21.937  1.00  0.00     0.030 A 
ATOM     25  O   UNL A   1      32.389  30.035  26.171  1.00  0.00    -0.263 OA
ATOM     26  N   UNL A   1      32.822  28.019  25.117  1.00  0.00    -0.305 N 
ATOM     27  C   UNL A   1      33.219  25.919  23.887  1.00  0.00     0.050 A 
ATOM     28  C   UNL A   1      32.127  25.509  21.779  1.00  0.00     0.024 A 
ATOM     29  C   UNL A   1      33.891  27.709  26.054  1.00  0.00     0.154 C 
ENDBRANCH  13  16
ENDBRANCH   9  13
ENDBRANCH   6   8
ENDBRANCH   5   6
ENDBRANCH   4   5
ENDBRANCH   3   4
ENDBRANCH   2   3
ENDBRANCH   1   2
BRANCH   1  30
ATOM     30  C   UNL A   1      39.313  19.838  25.494  1.00  0.00     0.261 C 
BRANCH  30  31
ATOM     31  O   UNL A   1      40.277  19.770  26.562  1.00  0.00    -0.460 OA
BRANCH  31  32
ATOM     32  C   UNL A   1      41.572  19.654  26.182  1.00  0.00     0.338 C 
ATOM     33  O   UNL A   1      42.081  18.712  25.600  1.00  0.00    -0.246 OA
BRANCH  32  34
ATOM     34  C   UNL A   1      42.247  20.959  26.367  1.00  0.00     0.060 A 
ATOM     35  C   UNL A   1      42.594  21.784  25.292  1.00  0.00     0.016 A 
ATOM     36  C   UNL A   1      42.536  21.353  27.680  1.00  0.00     0.016 A 
ATOM     37  C   UNL A   1      43.185  23.029  25.541  1.00  0.00     0.010 A 
ATOM     38  C   UNL A   1      43.134  22.587  27.925  1.00  0.00     0.010 A 
ATOM     39  C   UNL A   1      43.439  23.447  26.860  1.00  0.00    -0.014 A 
BRANCH  39  40
ATOM     40  C   UNL A   1      43.842  24.844  27.154  1.00  0.00     0.031 A 
ATOM     41  C   UNL A   1      42.857  25.875  27.615  1.00  0.00     0.074 A 
ATOM     42  C   UNL A   1      45.119  25.194  26.905  1.00  0.00     0.049 A 
ATOM     43  N   UNL A   1      43.070  27.129  27.921  1.00  0.00    -0.248 NA
ATOM     44  C   UNL A   1      41.455  25.453  27.740  1.00  0.00     0.031 C 
ATOM     45  C   UNL A   1      46.144  24.283  26.393  1.00  0.00     0.029 A 
ATOM     46  N   UNL A   1      45.768  26.397  27.022  1.00  0.00    -0.354 N 
ATOM     47  C   UNL A   1      41.837  27.646  28.295  1.00  0.00     0.074 A 
ATOM     48  C   UNL A   1      40.870  26.580  28.132  1.00  0.00     0.031 C 
ATOM     49  C   UNL A   1      47.290  24.960  26.234  1.00  0.00     0.029 A 
ATOM     50  C   UNL A   1      47.080  26.355  26.614  1.00  0.00     0.049 A 
ATOM     51  H   UNL A   1      45.334  27.212  27.366  1.00  0.00     0.167 HD
ATOM     52  C   UNL A   1      41.551  28.890  28.749  1.00  0.00     0.034 A 
ATOM     53  C   UNL A   1      48.013  27.327  26.548  1.00  0.00     0.034 A 
ATOM     54  C   UNL A   1      42.529  29.943  28.888  1.00  0.00     0.049 A 
ATOM     55  C   UNL A   1      47.665  28.706  27.041  1.00  0.00     0.074 A 
ATOM     56  C   UNL A   1      42.347  31.210  29.416  1.00  0.00     0.029 A 
ATOM     57  N   UNL A   1      43.854  29.866  28.486  1.00  0.00    -0.354 N 
ATOM     58  N   UNL A   1      46.529  29.141  27.534  1.00  0.00    -0.248 NA
ATOM     59  C   UNL A   1      48.724  29.723  26.993  1.00  0.00     0.031 C 
ATOM     60  C   UNL A   1      43.542  31.918  29.275  1.00  0.00     0.029 A 
ATOM     61  C   UNL A   1      44.491  31.075  28.720  1.00  0.00     0.049 A 
ATOM     62  H   UNL A   1      44.280  29.070  28.092  1.00  0.00     0.167 HD
ATOM     63  C   UNL A   1      46.743  30.473  27.876  1.00  0.00     0.074 A 
ATOM     64  C   UNL A   1      48.125  30.765  27.555  1.00  0.00     0.031 C 
ATOM     65  C   UNL A   1      45.872  31.365  28.408  1.00  0.00     0.034 A 
BRANCH  52  66
ATOM     66  C   UNL A   1      40.138  29.201  29.176  1.00  0.00     0.023 A 
ATOM     67  C   UNL A   1      39.772  29.134  30.533  1.00  0.00     0.031 A 
ATOM     68  C   UNL A   1      39.125  29.406  28.222  1.00  0.00     0.131 A 
ATOM     69  C   UNL A   1      38.422  29.235  30.895  1.00  0.00     0.055 A 
ATOM     70  C   UNL A   1      37.786  29.536  28.590  1.00  0.00     0.041 A 
ATOM     71  F   UNL A   1      39.424  29.473  26.914  1.00  0.00    -0.206 F 
ATOM     72  C   UNL A   1      37.428  29.439  29.931  1.00  0.00     0.022 A 
BRANCH  69  73
ATOM     73  S   UNL A   1      37.892  29.046  32.618  1.00  0.00     0.124 S 
ATOM     74  O   UNL A   1      38.877  29.863  33.324  1.00  0.00    -0.237 OA
ATOM     75  O   UNL A   1      36.538  29.594  32.584  1.00  0.00    -0.237 OA
ATOM     76  O   UNL A   1      37.987  27.611  32.860  1.00  0.00    -0.744 OA
ENDBRANCH  69  73
ENDBRANCH  52  66
BRANCH  53  77
ATOM     77  C   UNL A   1      49.379  26.979  26.064  1.00  0.00     0.023 A 
ATOM     78  C   UNL A   1      50.429  26.739  26.969  1.00  0.00     0.031 A 
ATOM     79  C   UNL A   1      49.678  27.005  24.692  1.00  0.00     0.131 A 
ATOM     80  C   UNL A   1      51.740  26.598  26.491  1.00  0.00     0.055 A 
ATOM     81  C   UNL A   1      50.974  26.801  24.218  1.00  0.00     0.041 A 
ATOM     82  F   UNL A   1      48.710  27.247  23.794  1.00  0.00    -0.206 F 
ATOM     83  C   UNL A   1      52.016  26.613  25.120  1.00  0.00     0.022 A 
BRANCH  80  84
ATOM     84  S   UNL A   1      53.145  26.526  27.637  1.00  0.00     0.124 S 
ATOM     85  O   UNL A   1      53.748  27.844  27.460  1.00  0.00    -0.237 OA
ATOM     86  O   UNL A   1      52.477  26.305  28.917  1.00  0.00    -0.237 OA
ATOM     87  O   UNL A   1      53.933  25.400  27.146  1.00  0.00    -0.744 OA
ENDBRANCH  80  84
ENDBRANCH  53  77
BRANCH  65  88
ATOM     88  C   UNL A   1      46.355  32.769  28.688  1.00  0.00     0.023 A 
ATOM     89  C   UNL A   1      46.417  33.715  27.647  1.00  0.00     0.031 A 
ATOM     90  C   UNL A   1      46.893  33.120  29.939  1.00  0.00     0.131 A 
ATOM     91  C   UNL A   1      47.044  34.949  27.863  1.00  0.00     0.055 A 
ATOM     92  C   UNL A   1      47.475  34.369  30.161  1.00  0.00     0.041 A 
ATOM     93  F   UNL A   1      46.865  32.250  30.961  1.00  0.00    -0.206 F 
ATOM     94  C   UNL A   1      47.567  35.283  29.116  1.00  0.00     0.022 A 
BRANCH  91  95
ATOM     95  S   UNL A   1      47.283  36.129  26.504  1.00  0.00     0.124 S 
ATOM     96  O   UNL A   1      48.672  36.540  26.703  1.00  0.00    -0.237 OA
ATOM     97  O   UNL A   1      47.042  35.296  25.329  1.00  0.00    -0.237 OA
ATOM     98  O   UNL A   1      46.287  37.164  26.755  1.00  0.00    -0.744 OA
ENDBRANCH  91  95
ENDBRANCH  65  88
ENDBRANCH  39  40
ENDBRANCH  32  34
ENDBRANCH  31  32
ENDBRANCH  30  31
ENDBRANCH   1  30
TORSDOF 19
ENDMDL
