MODEL 1
REMARK VINA RESULT:     -12.0      0.000      0.000
REMARK SMILES O=C(OCCOCCOC(=O)c1ccc2nc(-c3c[nH]nc3-c3ccc(F)cc3F)[nH]c2c1)c1ccc(-c2c3nc(c(-c4cc(S(=O)(=O)[O-])ccc4F)c4ccc([nH]4)c(-c4cc(S(=O)(=O)[O-])ccc4F)c4nc(c(-c5cc(S(=O)(=O)[O-])ccc5F)c5ccc2[nH]5)C=C4)C=C3)cc1
REMARK SMILES IDX 5 1 4 2 3 3 2 4 1 5 34 6 35 7 96 8 36 9 95 10 37 11 38 12
REMARK SMILES IDX 39 13 89 14 40 15 94 16 88 17 90 18 41 19 93 20 87 21 86 22
REMARK SMILES IDX 42 24 74 25 54 26 73 27 55 28 58 29 72 30 91 31 56 32 57 33
REMARK SMILES IDX 71 35 92 36 59 37 43 38 44 39 52 40 45 41 51 42 53 43 50 44
REMARK SMILES IDX 46 45 47 46 48 47 49 48 75 49 76 50 84 51 77 52 83 53 85 54
REMARK SMILES IDX 82 55 78 56 79 57 80 58 81 59 60 60 61 61 69 62 62 63 68 64
REMARK SMILES IDX 70 65 67 66 63 67 64 68 65 69 66 70 6 71 7 72 8 73 9 74
REMARK SMILES IDX 10 75 11 76 12 77 13 78 33 79 14 80 32 81 15 82 31 83 16 84
REMARK SMILES IDX 17 85 18 87 19 88 22 89 20 90 21 91 23 93 24 94 29 95 25 96
REMARK SMILES IDX 28 97 30 98 26 99 27 100
REMARK H PARENT 90 23 58 34 31 86 20 92
REMARK Flexibility Score: inf
ROOT
ATOM      1  C   UNL A   1      37.713  21.040  25.018  1.00  0.00     0.202 C 
ENDROOT
BRANCH   1   2
ATOM      2  C   UNL A   1      38.419  19.736  25.387  1.00  0.00     0.261 C 
BRANCH   2   3
ATOM      3  O   UNL A   1      39.809  19.988  25.640  1.00  0.00    -0.460 OA
BRANCH   3   4
ATOM      4  C   UNL A   1      40.382  20.471  26.765  1.00  0.00     0.338 C 
ATOM      5  O   UNL A   1      40.667  19.675  27.659  1.00  0.00    -0.246 OA
BRANCH   4   6
ATOM      6  C   UNL A   1      40.701  21.914  26.987  1.00  0.00     0.060 A 
ATOM      7  C   UNL A   1      40.208  22.979  26.227  1.00  0.00     0.016 A 
ATOM      8  C   UNL A   1      41.485  22.217  28.112  1.00  0.00     0.016 A 
ATOM      9  C   UNL A   1      40.516  24.298  26.532  1.00  0.00     0.010 A 
ATOM     10  C   UNL A   1      41.782  23.540  28.444  1.00  0.00     0.010 A 
ATOM     11  C   UNL A   1      41.306  24.582  27.638  1.00  0.00    -0.014 A 
BRANCH  11  12
ATOM     12  C   UNL A   1      41.737  25.971  27.852  1.00  0.00     0.031 A 
ATOM     13  C   UNL A   1      43.079  26.373  27.330  1.00  0.00     0.074 A 
ATOM     14  C   UNL A   1      40.897  26.853  28.418  1.00  0.00     0.049 A 
ATOM     15  N   UNL A   1      43.732  27.489  27.488  1.00  0.00    -0.248 NA
ATOM     16  C   UNL A   1      43.776  25.369  26.511  1.00  0.00     0.031 C 
ATOM     17  C   UNL A   1      39.521  26.559  28.825  1.00  0.00     0.029 A 
ATOM     18  N   UNL A   1      41.070  28.170  28.740  1.00  0.00    -0.354 N 
ATOM     19  C   UNL A   1      44.934  27.315  26.812  1.00  0.00     0.074 A 
ATOM     20  C   UNL A   1      44.919  25.981  26.253  1.00  0.00     0.031 C 
ATOM     21  C   UNL A   1      38.978  27.668  29.354  1.00  0.00     0.029 A 
ATOM     22  C   UNL A   1      39.988  28.719  29.386  1.00  0.00     0.049 A 
ATOM     23  H   UNL A   1      41.889  28.675  28.532  1.00  0.00     0.167 HD
ATOM     24  C   UNL A   1      45.956  28.197  26.690  1.00  0.00     0.034 A 
ATOM     25  C   UNL A   1      39.861  29.921  29.982  1.00  0.00     0.034 A 
ATOM     26  C   UNL A   1      45.928  29.500  27.305  1.00  0.00     0.049 A 
ATOM     27  C   UNL A   1      41.050  30.848  29.937  1.00  0.00     0.074 A 
ATOM     28  C   UNL A   1      46.918  30.463  27.355  1.00  0.00     0.029 A 
ATOM     29  N   UNL A   1      44.834  30.015  27.999  1.00  0.00    -0.354 N 
ATOM     30  N   UNL A   1      42.225  30.653  29.378  1.00  0.00    -0.248 NA
ATOM     31  C   UNL A   1      40.907  32.145  30.605  1.00  0.00     0.031 C 
ATOM     32  C   UNL A   1      46.445  31.531  28.129  1.00  0.00     0.029 A 
ATOM     33  C   UNL A   1      45.131  31.271  28.498  1.00  0.00     0.049 A 
ATOM     34  H   UNL A   1      43.973  29.553  28.117  1.00  0.00     0.167 HD
ATOM     35  C   UNL A   1      42.955  31.814  29.607  1.00  0.00     0.074 A 
ATOM     36  C   UNL A   1      42.083  32.704  30.351  1.00  0.00     0.031 C 
ATOM     37  C   UNL A   1      44.226  32.122  29.238  1.00  0.00     0.034 A 
BRANCH  24  38
ATOM     38  C   UNL A   1      47.190  27.701  25.974  1.00  0.00     0.023 A 
ATOM     39  C   UNL A   1      47.457  28.039  24.634  1.00  0.00     0.031 A 
ATOM     40  C   UNL A   1      48.033  26.761  26.593  1.00  0.00     0.131 A 
ATOM     41  C   UNL A   1      48.462  27.358  23.927  1.00  0.00     0.055 A 
ATOM     42  C   UNL A   1      49.091  26.157  25.912  1.00  0.00     0.041 A 
ATOM     43  F   UNL A   1      47.811  26.372  27.858  1.00  0.00    -0.206 F 
ATOM     44  C   UNL A   1      49.296  26.437  24.563  1.00  0.00     0.022 A 
BRANCH  41  45
ATOM     45  S   UNL A   1      48.523  27.537  22.120  1.00  0.00     0.124 S 
ATOM     46  O   UNL A   1      48.725  26.155  21.693  1.00  0.00    -0.237 OA
ATOM     47  O   UNL A   1      47.220  28.116  21.815  1.00  0.00    -0.237 OA
ATOM     48  O   UNL A   1      49.666  28.421  21.900  1.00  0.00    -0.744 OA
ENDBRANCH  41  45
ENDBRANCH  24  38
BRANCH  25  49
ATOM     49  C   UNL A   1      38.613  30.266  30.722  1.00  0.00     0.023 A 
ATOM     50  C   UNL A   1      37.605  31.052  30.144  1.00  0.00     0.031 A 
ATOM     51  C   UNL A   1      38.411  29.801  32.038  1.00  0.00     0.131 A 
ATOM     52  C   UNL A   1      36.451  31.365  30.884  1.00  0.00     0.055 A 
ATOM     53  C   UNL A   1      37.243  30.076  32.751  1.00  0.00     0.041 A 
ATOM     54  F   UNL A   1      39.342  29.047  32.642  1.00  0.00    -0.206 F 
ATOM     55  C   UNL A   1      36.257  30.870  32.176  1.00  0.00     0.022 A 
BRANCH  52  56
ATOM     56  S   UNL A   1      35.220  32.479  30.152  1.00  0.00     0.124 S 
ATOM     57  O   UNL A   1      36.041  33.623  29.773  1.00  0.00    -0.237 OA
ATOM     58  O   UNL A   1      34.694  31.673  29.056  1.00  0.00    -0.237 OA
ATOM     59  O   UNL A   1      34.283  32.719  31.248  1.00  0.00    -0.744 OA
ENDBRANCH  52  56
ENDBRANCH  25  49
BRANCH  37  60
ATOM     60  C   UNL A   1      44.714  33.502  29.589  1.00  0.00     0.023 A 
ATOM     61  C   UNL A   1      44.584  34.582  28.700  1.00  0.00     0.031 A 
ATOM     62  C   UNL A   1      45.292  33.737  30.848  1.00  0.00     0.131 A 
ATOM     63  C   UNL A   1      45.063  35.846  29.071  1.00  0.00     0.055 A 
ATOM     64  C   UNL A   1      45.719  35.007  31.231  1.00  0.00     0.041 A 
ATOM     65  F   UNL A   1      45.435  32.735  31.731  1.00  0.00    -0.206 F 
ATOM     66  C   UNL A   1      45.613  36.068  30.336  1.00  0.00     0.022 A 
BRANCH  63  67
ATOM     67  S   UNL A   1      45.014  37.187  27.853  1.00  0.00     0.124 S 
ATOM     68  O   UNL A   1      43.582  37.449  27.748  1.00  0.00    -0.237 OA
ATOM     69  O   UNL A   1      45.807  38.227  28.499  1.00  0.00    -0.237 OA
ATOM     70  O   UNL A   1      45.625  36.593  26.665  1.00  0.00    -0.744 OA
ENDBRANCH  63  67
ENDBRANCH  37  60
ENDBRANCH  11  12
ENDBRANCH   4   6
ENDBRANCH   3   4
ENDBRANCH   2   3
ENDBRANCH   1   2
BRANCH   1  71
ATOM     71  O   UNL A   1      36.642  21.404  25.888  1.00  0.00    -0.374 OA
BRANCH  71  72
ATOM     72  C   UNL A   1      35.715  22.370  25.383  1.00  0.00     0.202 C 
BRANCH  72  73
ATOM     73  C   UNL A   1      34.957  21.770  24.196  1.00  0.00     0.261 C 
BRANCH  73  74
ATOM     74  O   UNL A   1      33.855  21.001  24.705  1.00  0.00    -0.460 OA
BRANCH  74  75
ATOM     75  C   UNL A   1      32.720  21.069  23.964  1.00  0.00     0.338 C 
ATOM     76  O   UNL A   1      32.228  20.209  23.256  1.00  0.00    -0.246 OA
BRANCH  75  77
ATOM     77  C   UNL A   1      32.029  22.316  24.346  1.00  0.00     0.062 A 
ATOM     78  C   UNL A   1      31.382  22.415  25.583  1.00  0.00     0.018 A 
ATOM     79  C   UNL A   1      31.978  23.349  23.394  1.00  0.00     0.044 A 
ATOM     80  C   UNL A   1      30.683  23.577  25.919  1.00  0.00     0.031 A 
ATOM     81  C   UNL A   1      31.204  24.460  23.730  1.00  0.00     0.067 A 
ATOM     82  C   UNL A   1      30.611  24.612  24.978  1.00  0.00     0.089 A 
ATOM     83  N   UNL A   1      30.838  25.590  23.038  1.00  0.00    -0.338 N 
ATOM     84  N   UNL A   1      30.051  25.851  25.095  1.00  0.00    -0.228 NA
ATOM     85  C   UNL A   1      30.215  26.428  23.925  1.00  0.00     0.142 A 
ATOM     86  H   UNL A   1      30.994  25.764  22.082  1.00  0.00     0.168 HD
BRANCH  85  87
ATOM     87  C   UNL A   1      29.929  27.855  23.692  1.00  0.00     0.063 A 
ATOM     88  C   UNL A   1      29.027  28.407  22.821  1.00  0.00     0.117 A 
ATOM     89  C   UNL A   1      30.585  28.943  24.325  1.00  0.00     0.106 A 
ATOM     90  N   UNL A   1      29.097  29.753  23.052  1.00  0.00    -0.284 N 
ATOM     91  N   UNL A   1      30.071  30.111  23.909  1.00  0.00    -0.175 NA
ATOM     92  H   UNL A   1      28.489  30.402  22.630  1.00  0.00     0.189 HD
BRANCH  89  93
ATOM     93  C   UNL A   1      31.780  28.859  25.152  1.00  0.00     0.039 A 
ATOM     94  C   UNL A   1      31.663  29.073  26.539  1.00  0.00     0.016 A 
ATOM     95  C   UNL A   1      33.044  28.637  24.605  1.00  0.00     0.135 A 
ATOM     96  C   UNL A   1      32.795  29.071  27.352  1.00  0.00     0.040 A 
ATOM     97  C   UNL A   1      34.178  28.629  25.415  1.00  0.00     0.079 A 
ATOM     98  F   UNL A   1      33.202  28.452  23.285  1.00  0.00    -0.206 F 
ATOM     99  C   UNL A   1      34.041  28.848  26.781  1.00  0.00     0.126 A 
ATOM    100  F   UNL A   1      35.130  28.848  27.562  1.00  0.00    -0.207 F 
ENDBRANCH  89  93
ENDBRANCH  85  87
ENDBRANCH  75  77
ENDBRANCH  74  75
ENDBRANCH  73  74
ENDBRANCH  72  73
ENDBRANCH  71  72
ENDBRANCH   1  71
TORSDOF 19
ENDMDL
MODEL 2
REMARK VINA RESULT:     -11.6      2.049      2.479
REMARK SMILES O=C(OCCOCCOC(=O)c1ccc2nc(-c3c[nH]nc3-c3ccc(F)cc3F)[nH]c2c1)c1ccc(-c2c3nc(c(-c4cc(S(=O)(=O)[O-])ccc4F)c4ccc([nH]4)c(-c4cc(S(=O)(=O)[O-])ccc4F)c4nc(c(-c5cc(S(=O)(=O)[O-])ccc5F)c5ccc2[nH]5)C=C4)C=C3)cc1
REMARK SMILES IDX 5 1 4 2 3 3 2 4 1 5 34 6 35 7 96 8 36 9 95 10 37 11 38 12
REMARK SMILES IDX 39 13 89 14 40 15 94 16 88 17 90 18 41 19 93 20 87 21 86 22
REMARK SMILES IDX 42 24 74 25 54 26 73 27 55 28 58 29 72 30 91 31 56 32 57 33
REMARK SMILES IDX 71 35 92 36 59 37 43 38 44 39 52 40 45 41 51 42 53 43 50 44
REMARK SMILES IDX 46 45 47 46 48 47 49 48 75 49 76 50 84 51 77 52 83 53 85 54
REMARK SMILES IDX 82 55 78 56 79 57 80 58 81 59 60 60 61 61 69 62 62 63 68 64
REMARK SMILES IDX 70 65 67 66 63 67 64 68 65 69 66 70 6 71 7 72 8 73 9 74
REMARK SMILES IDX 10 75 11 76 12 77 13 78 33 79 14 80 32 81 15 82 31 83 16 84
REMARK SMILES IDX 17 85 18 87 19 88 22 89 20 90 21 91 23 93 24 94 29 95 25 96
REMARK SMILES IDX 28 97 30 98 26 99 27 100
REMARK H PARENT 90 23 58 34 31 86 20 92
REMARK Flexibility Score: inf
ROOT
ATOM      1  C   UNL A   1      36.842  22.729  26.059  1.00  0.00     0.202 C 
ENDROOT
BRANCH   1   2
ATOM      2  C   UNL A   1      37.928  21.900  25.374  1.00  0.00     0.261 C 
BRANCH   2   3
ATOM      3  O   UNL A   1      38.922  21.510  26.333  1.00  0.00    -0.460 OA
BRANCH   3   4
ATOM      4  C   UNL A   1      40.153  22.035  26.525  1.00  0.00     0.338 C 
ATOM      5  O   UNL A   1      41.127  21.296  26.394  1.00  0.00    -0.246 OA
BRANCH   4   6
ATOM      6  C   UNL A   1      40.404  23.466  26.877  1.00  0.00     0.060 A 
ATOM      7  C   UNL A   1      40.056  24.568  26.091  1.00  0.00     0.016 A 
ATOM      8  C   UNL A   1      40.951  23.712  28.148  1.00  0.00     0.016 A 
ATOM      9  C   UNL A   1      40.282  25.870  26.517  1.00  0.00     0.010 A 
ATOM     10  C   UNL A   1      41.160  25.017  28.598  1.00  0.00     0.010 A 
ATOM     11  C   UNL A   1      40.838  26.097  27.769  1.00  0.00    -0.014 A 
BRANCH  11  12
ATOM     12  C   UNL A   1      41.202  27.475  28.133  1.00  0.00     0.031 A 
ATOM     13  C   UNL A   1      42.636  27.875  28.004  1.00  0.00     0.074 A 
ATOM     14  C   UNL A   1      40.244  28.350  28.479  1.00  0.00     0.049 A 
ATOM     15  N   UNL A   1      43.228  28.977  28.365  1.00  0.00    -0.248 NA
ATOM     16  C   UNL A   1      43.523  26.885  27.372  1.00  0.00     0.031 C 
ATOM     17  C   UNL A   1      38.808  28.063  28.492  1.00  0.00     0.029 A 
ATOM     18  N   UNL A   1      40.330  29.656  28.876  1.00  0.00    -0.354 N 
ATOM     19  C   UNL A   1      44.566  28.807  28.032  1.00  0.00     0.074 A 
ATOM     20  C   UNL A   1      44.696  27.490  27.449  1.00  0.00     0.031 C 
ATOM     21  C   UNL A   1      38.148  29.163  28.888  1.00  0.00     0.029 A 
ATOM     22  C   UNL A   1      39.116  30.200  29.223  1.00  0.00     0.049 A 
ATOM     23  H   UNL A   1      41.177  30.156  28.910  1.00  0.00     0.167 HD
ATOM     24  C   UNL A   1      45.587  29.679  28.216  1.00  0.00     0.034 A 
ATOM     25  C   UNL A   1      38.839  31.386  29.799  1.00  0.00     0.034 A 
ATOM     26  C   UNL A   1      45.401  30.965  28.841  1.00  0.00     0.049 A 
ATOM     27  C   UNL A   1      40.000  32.299  30.104  1.00  0.00     0.074 A 
ATOM     28  C   UNL A   1      46.345  31.913  29.185  1.00  0.00     0.029 A 
ATOM     29  N   UNL A   1      44.163  31.474  29.231  1.00  0.00    -0.354 N 
ATOM     30  N   UNL A   1      41.281  32.105  29.876  1.00  0.00    -0.248 NA
ATOM     31  C   UNL A   1      39.689  33.578  30.748  1.00  0.00     0.031 C 
ATOM     32  C   UNL A   1      45.686  32.965  29.835  1.00  0.00     0.029 A 
ATOM     33  C   UNL A   1      44.320  32.712  29.829  1.00  0.00     0.049 A 
ATOM     34  H   UNL A   1      43.300  31.019  29.098  1.00  0.00     0.167 HD
ATOM     35  C   UNL A   1      41.928  33.250  30.328  1.00  0.00     0.074 A 
ATOM     36  C   UNL A   1      40.892  34.130  30.837  1.00  0.00     0.031 C 
ATOM     37  C   UNL A   1      43.253  33.552  30.324  1.00  0.00     0.034 A 
BRANCH  24  38
ATOM     38  C   UNL A   1      46.966  29.189  27.844  1.00  0.00     0.023 A 
ATOM     39  C   UNL A   1      47.335  28.954  26.506  1.00  0.00     0.031 A 
ATOM     40  C   UNL A   1      47.874  28.812  28.850  1.00  0.00     0.131 A 
ATOM     41  C   UNL A   1      48.520  28.258  26.218  1.00  0.00     0.055 A 
ATOM     42  C   UNL A   1      49.096  28.205  28.551  1.00  0.00     0.041 A 
ATOM     43  F   UNL A   1      47.568  28.978  30.146  1.00  0.00    -0.206 F 
ATOM     44  C   UNL A   1      49.414  27.903  27.229  1.00  0.00     0.022 A 
BRANCH  41  45
ATOM     45  S   UNL A   1      48.771  27.637  24.529  1.00  0.00     0.124 S 
ATOM     46  O   UNL A   1      47.614  28.196  23.833  1.00  0.00    -0.237 OA
ATOM     47  O   UNL A   1      50.066  28.204  24.172  1.00  0.00    -0.237 OA
ATOM     48  O   UNL A   1      48.748  26.185  24.689  1.00  0.00    -0.744 OA
ENDBRANCH  41  45
ENDBRANCH  24  38
BRANCH  25  49
ATOM     49  C   UNL A   1      37.439  31.726  30.187  1.00  0.00     0.023 A 
ATOM     50  C   UNL A   1      36.548  32.325  29.285  1.00  0.00     0.031 A 
ATOM     51  C   UNL A   1      36.970  31.445  31.486  1.00  0.00     0.131 A 
ATOM     52  C   UNL A   1      35.242  32.642  29.697  1.00  0.00     0.055 A 
ATOM     53  C   UNL A   1      35.658  31.719  31.876  1.00  0.00     0.041 A 
ATOM     54  F   UNL A   1      37.779  30.874  32.392  1.00  0.00    -0.206 F 
ATOM     55  C   UNL A   1      34.787  32.328  30.980  1.00  0.00     0.022 A 
BRANCH  52  56
ATOM     56  S   UNL A   1      34.151  33.522  28.545  1.00  0.00     0.124 S 
ATOM     57  O   UNL A   1      33.561  32.421  27.792  1.00  0.00    -0.237 OA
ATOM     58  O   UNL A   1      33.257  34.230  29.455  1.00  0.00    -0.237 OA
ATOM     59  O   UNL A   1      35.068  34.373  27.790  1.00  0.00    -0.744 OA
ENDBRANCH  52  56
ENDBRANCH  25  49
BRANCH  37  60
ATOM     60  C   UNL A   1      43.635  34.916  30.835  1.00  0.00     0.023 A 
ATOM     61  C   UNL A   1      43.903  35.149  32.193  1.00  0.00     0.031 A 
ATOM     62  C   UNL A   1      43.756  35.989  29.934  1.00  0.00     0.131 A 
ATOM     63  C   UNL A   1      44.246  36.440  32.620  1.00  0.00     0.055 A 
ATOM     64  C   UNL A   1      44.148  37.257  30.356  1.00  0.00     0.041 A 
ATOM     65  F   UNL A   1      43.510  35.812  28.626  1.00  0.00    -0.206 F 
ATOM     66  C   UNL A   1      44.387  37.490  31.709  1.00  0.00     0.022 A 
BRANCH  63  67
ATOM     67  S   UNL A   1      44.447  36.744  34.396  1.00  0.00     0.124 S 
ATOM     68  O   UNL A   1      43.788  38.036  34.559  1.00  0.00    -0.237 OA
ATOM     69  O   UNL A   1      43.764  35.599  34.989  1.00  0.00    -0.237 OA
ATOM     70  O   UNL A   1      45.898  36.760  34.578  1.00  0.00    -0.744 OA
ENDBRANCH  63  67
ENDBRANCH  37  60
ENDBRANCH  11  12
ENDBRANCH   4   6
ENDBRANCH   3   4
ENDBRANCH   2   3
ENDBRANCH   1   2
BRANCH   1  71
ATOM     71  O   UNL A   1      35.509  22.282  25.814  1.00  0.00    -0.374 OA
BRANCH  71  72
ATOM     72  C   UNL A   1      35.309  21.503  24.630  1.00  0.00     0.202 C 
BRANCH  72  73
ATOM     73  C   UNL A   1      34.577  20.210  24.994  1.00  0.00     0.261 C 
BRANCH  73  74
ATOM     74  O   UNL A   1      33.197  20.524  25.241  1.00  0.00    -0.460 OA
BRANCH  74  75
ATOM     75  C   UNL A   1      32.504  20.948  24.154  1.00  0.00     0.338 C 
ATOM     76  O   UNL A   1      32.253  20.335  23.132  1.00  0.00    -0.246 OA
BRANCH  75  77
ATOM     77  C   UNL A   1      31.883  22.238  24.515  1.00  0.00     0.062 A 
ATOM     78  C   UNL A   1      31.319  22.421  25.782  1.00  0.00     0.018 A 
ATOM     79  C   UNL A   1      31.810  23.226  23.517  1.00  0.00     0.044 A 
ATOM     80  C   UNL A   1      30.684  23.624  26.102  1.00  0.00     0.031 A 
ATOM     81  C   UNL A   1      31.099  24.381  23.843  1.00  0.00     0.067 A 
ATOM     82  C   UNL A   1      30.591  24.615  25.116  1.00  0.00     0.089 A 
ATOM     83  N   UNL A   1      30.732  25.490  23.120  1.00  0.00    -0.338 N 
ATOM     84  N   UNL A   1      30.083  25.879  25.205  1.00  0.00    -0.228 NA
ATOM     85  C   UNL A   1      30.196  26.393  24.000  1.00  0.00     0.142 A 
ATOM     86  H   UNL A   1      30.834  25.612  22.148  1.00  0.00     0.168 HD
BRANCH  85  87
ATOM     87  C   UNL A   1      29.947  27.817  23.714  1.00  0.00     0.063 A 
ATOM     88  C   UNL A   1      29.039  28.361  22.843  1.00  0.00     0.117 A 
ATOM     89  C   UNL A   1      30.652  28.909  24.283  1.00  0.00     0.106 A 
ATOM     90  N   UNL A   1      29.156  29.712  23.015  1.00  0.00    -0.284 N 
ATOM     91  N   UNL A   1      30.163  30.074  23.832  1.00  0.00    -0.175 NA
ATOM     92  H   UNL A   1      28.557  30.362  22.581  1.00  0.00     0.189 HD
BRANCH  89  93
ATOM     93  C   UNL A   1      31.866  28.822  25.083  1.00  0.00     0.039 A 
ATOM     94  C   UNL A   1      31.786  29.070  26.467  1.00  0.00     0.016 A 
ATOM     95  C   UNL A   1      33.111  28.564  24.511  1.00  0.00     0.135 A 
ATOM     96  C   UNL A   1      32.938  29.066  27.253  1.00  0.00     0.040 A 
ATOM     97  C   UNL A   1      34.264  28.553  25.294  1.00  0.00     0.079 A 
ATOM     98  F   UNL A   1      33.233  28.345  23.193  1.00  0.00    -0.206 F 
ATOM     99  C   UNL A   1      34.165  28.807  26.657  1.00  0.00     0.126 A 
ATOM    100  F   UNL A   1      35.273  28.804  27.411  1.00  0.00    -0.207 F 
ENDBRANCH  89  93
ENDBRANCH  85  87
ENDBRANCH  75  77
ENDBRANCH  74  75
ENDBRANCH  73  74
ENDBRANCH  72  73
ENDBRANCH  71  72
ENDBRANCH   1  71
TORSDOF 19
ENDMDL
MODEL 3
REMARK VINA RESULT:     -11.5      2.190      7.787
REMARK SMILES O=C(OCCOCCOC(=O)c1ccc2nc(-c3c[nH]nc3-c3ccc(F)cc3F)[nH]c2c1)c1ccc(-c2c3nc(c(-c4cc(S(=O)(=O)[O-])ccc4F)c4ccc([nH]4)c(-c4cc(S(=O)(=O)[O-])ccc4F)c4nc(c(-c5cc(S(=O)(=O)[O-])ccc5F)c5ccc2[nH]5)C=C4)C=C3)cc1
REMARK SMILES IDX 5 1 4 2 3 3 2 4 1 5 34 6 35 7 96 8 36 9 95 10 37 11 38 12
REMARK SMILES IDX 39 13 89 14 40 15 94 16 88 17 90 18 41 19 93 20 87 21 86 22
REMARK SMILES IDX 42 24 74 25 54 26 73 27 55 28 58 29 72 30 91 31 56 32 57 33
REMARK SMILES IDX 71 35 92 36 59 37 43 38 44 39 52 40 45 41 51 42 53 43 50 44
REMARK SMILES IDX 46 45 47 46 48 47 49 48 75 49 76 50 84 51 77 52 83 53 85 54
REMARK SMILES IDX 82 55 78 56 79 57 80 58 81 59 60 60 61 61 69 62 62 63 68 64
REMARK SMILES IDX 70 65 67 66 63 67 64 68 65 69 66 70 6 71 7 72 8 73 9 74
REMARK SMILES IDX 10 75 11 76 12 77 13 78 33 79 14 80 32 81 15 82 31 83 16 84
REMARK SMILES IDX 17 85 18 87 19 88 22 89 20 90 21 91 23 93 24 94 29 95 25 96
REMARK SMILES IDX 28 97 30 98 26 99 27 100
REMARK H PARENT 90 23 58 34 31 86 20 92
REMARK Flexibility Score: inf
ROOT
ATOM      1  C   UNL A   1      38.416  21.509  25.728  1.00  0.00     0.202 C 
ENDROOT
BRANCH   1   2
ATOM      2  C   UNL A   1      38.971  20.138  25.340  1.00  0.00     0.261 C 
BRANCH   2   3
ATOM      3  O   UNL A   1      40.026  19.767  26.239  1.00  0.00    -0.460 OA
BRANCH   3   4
ATOM      4  C   UNL A   1      41.357  19.955  26.092  1.00  0.00     0.338 C 
ATOM      5  O   UNL A   1      42.026  19.033  25.628  1.00  0.00    -0.246 OA
BRANCH   4   6
ATOM      6  C   UNL A   1      42.066  21.221  26.450  1.00  0.00     0.060 A 
ATOM      7  C   UNL A   1      42.582  21.533  27.712  1.00  0.00     0.016 A 
ATOM      8  C   UNL A   1      42.311  22.121  25.400  1.00  0.00     0.016 A 
ATOM      9  C   UNL A   1      43.272  22.714  27.948  1.00  0.00     0.010 A 
ATOM     10  C   UNL A   1      43.026  23.300  25.619  1.00  0.00     0.010 A 
ATOM     11  C   UNL A   1      43.492  23.602  26.904  1.00  0.00    -0.014 A 
BRANCH  11  12
ATOM     12  C   UNL A   1      44.095  24.907  27.211  1.00  0.00     0.031 A 
ATOM     13  C   UNL A   1      43.214  25.961  27.799  1.00  0.00     0.074 A 
ATOM     14  C   UNL A   1      45.415  25.090  27.046  1.00  0.00     0.049 A 
ATOM     15  N   UNL A   1      43.468  27.214  28.048  1.00  0.00    -0.248 NA
ATOM     16  C   UNL A   1      41.853  25.532  28.158  1.00  0.00     0.031 C 
ATOM     17  C   UNL A   1      46.358  24.059  26.606  1.00  0.00     0.029 A 
ATOM     18  N   UNL A   1      46.193  26.198  27.235  1.00  0.00    -0.354 N 
ATOM     19  C   UNL A   1      42.290  27.736  28.569  1.00  0.00     0.074 A 
ATOM     20  C   UNL A   1      41.320  26.663  28.587  1.00  0.00     0.031 C 
ATOM     21  C   UNL A   1      47.589  24.591  26.550  1.00  0.00     0.029 A 
ATOM     22  C   UNL A   1      47.507  26.009  26.879  1.00  0.00     0.049 A 
ATOM     23  H   UNL A   1      45.846  27.049  27.589  1.00  0.00     0.167 HD
ATOM     24  C   UNL A   1      42.051  29.006  28.977  1.00  0.00     0.034 A 
ATOM     25  C   UNL A   1      48.510  26.904  26.782  1.00  0.00     0.034 A 
ATOM     26  C   UNL A   1      43.049  30.044  28.896  1.00  0.00     0.049 A 
ATOM     27  C   UNL A   1      48.197  28.338  27.130  1.00  0.00     0.074 A 
ATOM     28  C   UNL A   1      42.931  31.391  29.176  1.00  0.00     0.029 A 
ATOM     29  N   UNL A   1      44.364  29.834  28.484  1.00  0.00    -0.354 N 
ATOM     30  N   UNL A   1      47.058  28.857  27.534  1.00  0.00    -0.248 NA
ATOM     31  C   UNL A   1      49.290  29.306  27.002  1.00  0.00     0.031 C 
ATOM     32  C   UNL A   1      44.154  32.005  28.875  1.00  0.00     0.029 A 
ATOM     33  C   UNL A   1      45.061  31.029  28.482  1.00  0.00     0.049 A 
ATOM     34  H   UNL A   1      44.743  28.962  28.231  1.00  0.00     0.167 HD
ATOM     35  C   UNL A   1      47.304  30.211  27.732  1.00  0.00     0.074 A 
ATOM     36  C   UNL A   1      48.702  30.424  27.406  1.00  0.00     0.031 C 
ATOM     37  C   UNL A   1      46.458  31.191  28.146  1.00  0.00     0.034 A 
BRANCH  24  38
ATOM     38  C   UNL A   1      40.639  29.318  29.412  1.00  0.00     0.023 A 
ATOM     39  C   UNL A   1      40.276  29.375  30.771  1.00  0.00     0.031 A 
ATOM     40  C   UNL A   1      39.612  29.415  28.455  1.00  0.00     0.131 A 
ATOM     41  C   UNL A   1      38.919  29.407  31.133  1.00  0.00     0.055 A 
ATOM     42  C   UNL A   1      38.271  29.543  28.822  1.00  0.00     0.041 A 
ATOM     43  F   UNL A   1      39.889  29.334  27.144  1.00  0.00    -0.206 F 
ATOM     44  C   UNL A   1      37.916  29.515  30.168  1.00  0.00     0.022 A 
BRANCH  41  45
ATOM     45  S   UNL A   1      38.477  29.091  32.867  1.00  0.00     0.124 S 
ATOM     46  O   UNL A   1      37.100  28.621  32.739  1.00  0.00    -0.237 OA
ATOM     47  O   UNL A   1      39.459  28.091  33.266  1.00  0.00    -0.237 OA
ATOM     48  O   UNL A   1      38.623  30.399  33.502  1.00  0.00    -0.744 OA
ENDBRANCH  41  45
ENDBRANCH  24  38
BRANCH  25  49
ATOM     49  C   UNL A   1      49.846  26.485  26.268  1.00  0.00     0.023 A 
ATOM     50  C   UNL A   1      50.330  26.922  25.026  1.00  0.00     0.031 A 
ATOM     51  C   UNL A   1      50.668  25.629  27.029  1.00  0.00     0.131 A 
ATOM     52  C   UNL A   1      51.589  26.491  24.574  1.00  0.00     0.055 A 
ATOM     53  C   UNL A   1      51.936  25.241  26.596  1.00  0.00     0.041 A 
ATOM     54  F   UNL A   1      50.256  25.178  28.224  1.00  0.00    -0.206 F 
ATOM     55  C   UNL A   1      52.401  25.666  25.357  1.00  0.00     0.022 A 
BRANCH  52  56
ATOM     56  S   UNL A   1      52.136  26.979  22.914  1.00  0.00     0.124 S 
ATOM     57  O   UNL A   1      52.613  28.337  23.145  1.00  0.00    -0.237 OA
ATOM     58  O   UNL A   1      53.158  25.979  22.625  1.00  0.00    -0.237 OA
ATOM     59  O   UNL A   1      50.920  26.873  22.110  1.00  0.00    -0.744 OA
ENDBRANCH  52  56
ENDBRANCH  25  49
BRANCH  37  60
ATOM     60  C   UNL A   1      47.052  32.564  28.321  1.00  0.00     0.023 A 
ATOM     61  C   UNL A   1      47.029  33.517  27.290  1.00  0.00     0.031 A 
ATOM     62  C   UNL A   1      47.622  32.924  29.554  1.00  0.00     0.131 A 
ATOM     63  C   UNL A   1      47.603  34.778  27.501  1.00  0.00     0.055 A 
ATOM     64  C   UNL A   1      48.145  34.196  29.775  1.00  0.00     0.041 A 
ATOM     65  F   UNL A   1      47.665  32.045  30.570  1.00  0.00    -0.206 F 
ATOM     66  C   UNL A   1      48.145  35.129  28.741  1.00  0.00     0.022 A 
BRANCH  63  67
ATOM     67  S   UNL A   1      47.689  35.939  26.111  1.00  0.00     0.124 S 
ATOM     68  O   UNL A   1      48.339  35.133  25.083  1.00  0.00    -0.237 OA
ATOM     69  O   UNL A   1      46.283  36.255  25.880  1.00  0.00    -0.237 OA
ATOM     70  O   UNL A   1      48.492  37.042  26.635  1.00  0.00    -0.744 OA
ENDBRANCH  63  67
ENDBRANCH  37  60
ENDBRANCH  11  12
ENDBRANCH   4   6
ENDBRANCH   3   4
ENDBRANCH   2   3
ENDBRANCH   1   2
BRANCH   1  71
ATOM     71  O   UNL A   1      37.113  21.790  25.219  1.00  0.00    -0.374 OA
BRANCH  71  72
ATOM     72  C   UNL A   1      36.218  20.677  25.119  1.00  0.00     0.202 C 
BRANCH  72  73
ATOM     73  C   UNL A   1      34.855  21.073  25.690  1.00  0.00     0.261 C 
BRANCH  73  74
ATOM     74  O   UNL A   1      33.952  21.296  24.595  1.00  0.00    -0.460 OA
BRANCH  74  75
ATOM     75  C   UNL A   1      32.647  21.048  24.870  1.00  0.00     0.338 C 
ATOM     76  O   UNL A   1      32.110  19.974  25.078  1.00  0.00    -0.246 OA
BRANCH  75  77
ATOM     77  C   UNL A   1      32.002  22.352  25.113  1.00  0.00     0.062 A 
ATOM     78  C   UNL A   1      31.466  22.653  26.371  1.00  0.00     0.018 A 
ATOM     79  C   UNL A   1      31.875  23.229  24.021  1.00  0.00     0.044 A 
ATOM     80  C   UNL A   1      30.808  23.867  26.582  1.00  0.00     0.031 A 
ATOM     81  C   UNL A   1      31.143  24.394  24.247  1.00  0.00     0.067 A 
ATOM     82  C   UNL A   1      30.662  24.747  25.503  1.00  0.00     0.089 A 
ATOM     83  N   UNL A   1      30.727  25.413  23.423  1.00  0.00    -0.338 N 
ATOM     84  N   UNL A   1      30.123  26.001  25.476  1.00  0.00    -0.228 NA
ATOM     85  C   UNL A   1      30.190  26.390  24.221  1.00  0.00     0.142 A 
ATOM     86  H   UNL A   1      30.800  25.436  22.442  1.00  0.00     0.168 HD
BRANCH  85  87
ATOM     87  C   UNL A   1      29.895  27.770  23.797  1.00  0.00     0.063 A 
ATOM     88  C   UNL A   1      28.936  28.200  22.918  1.00  0.00     0.117 A 
ATOM     89  C   UNL A   1      30.601  28.929  24.211  1.00  0.00     0.106 A 
ATOM     90  N   UNL A   1      29.029  29.564  22.939  1.00  0.00    -0.284 N 
ATOM     91  N   UNL A   1      30.065  30.030  23.662  1.00  0.00    -0.175 NA
ATOM     92  H   UNL A   1      28.396  30.152  22.468  1.00  0.00     0.189 HD
BRANCH  89  93
ATOM     93  C   UNL A   1      31.853  28.950  24.955  1.00  0.00     0.039 A 
ATOM     94  C   UNL A   1      32.823  27.969  24.678  1.00  0.00     0.016 A 
ATOM     95  C   UNL A   1      32.090  29.871  25.976  1.00  0.00     0.135 A 
ATOM     96  C   UNL A   1      34.003  27.914  25.420  1.00  0.00     0.040 A 
ATOM     97  C   UNL A   1      33.270  29.823  26.715  1.00  0.00     0.079 A 
ATOM     98  F   UNL A   1      31.181  30.807  26.286  1.00  0.00    -0.206 F 
ATOM     99  C   UNL A   1      34.214  28.842  26.430  1.00  0.00     0.126 A 
ATOM    100  F   UNL A   1      35.347  28.789  27.145  1.00  0.00    -0.207 F 
ENDBRANCH  89  93
ENDBRANCH  85  87
ENDBRANCH  75  77
ENDBRANCH  74  75
ENDBRANCH  73  74
ENDBRANCH  72  73
ENDBRANCH  71  72
ENDBRANCH   1  71
TORSDOF 19
ENDMDL
