MODEL 1
REMARK VINA RESULT:     -10.4      0.000      0.000
REMARK SMILES NS(=O)(=O)c1ccc(-n2nc(C(=O)NCCCC(=O)OCCOCCOC(=O)c3ccc(-c4c5nc(c(-c6cc(S(=O)(=O)[O-])ccc6F)c6ccc([nH]6)c(-c6cc(S(=O)(=O)[O-])ccc6F)c6nc(c(-c7cc(S(=O)(=O)[O-])ccc7F)c7ccc4[nH]7)C=C6)C=C5)cc3)cc2-c2ccccc2)cc1
REMARK SMILES IDX 21 1 20 2 18 3 19 4 17 5 16 6 15 7 14 8 12 9 13 10 11 12
REMARK SMILES IDX 9 13 10 14 93 15 92 16 8 17 5 18 6 19 101 20 7 21 100 22
REMARK SMILES IDX 2 23 3 24 4 25 1 26 94 29 95 30 99 31 96 32 98 33 97 34
REMARK SMILES IDX 22 35 23 36 24 37 25 38 26 39 27 40 28 41 29 42 30 43 91 44
REMARK SMILES IDX 31 45 90 46 32 47 33 48 34 49 84 50 35 51 89 52 83 53 85 54
REMARK SMILES IDX 36 55 88 56 82 57 81 58 37 60 69 61 49 62 68 63 50 64 53 65
REMARK SMILES IDX 67 66 86 67 51 68 52 69 66 71 87 72 54 73 38 74 39 75 47 76
REMARK SMILES IDX 40 77 46 78 48 79 45 80 41 81 42 82 43 83 44 84 70 85 71 86
REMARK SMILES IDX 79 87 72 88 78 89 80 90 77 91 73 92 74 93 75 94 76 95 55 96
REMARK SMILES IDX 56 97 64 98 57 99 63 100 65 101 62 102 58 103 59 104 60 105
REMARK SMILES IDX 61 106
REMARK H PARENT 14 11 1 27 1 28 85 59 53 70
REMARK Flexibility Score: inf
ROOT
ATOM      1  C   UNL A   1      34.006  23.648  26.710  1.00  0.00     0.261 C 
ENDROOT
BRANCH   1   2
ATOM      2  O   UNL A   1      32.685  23.611  26.139  1.00  0.00    -0.463 OA
BRANCH   2   3
ATOM      3  C   UNL A   1      32.230  22.419  25.690  1.00  0.00     0.305 C 
ATOM      4  O   UNL A   1      32.654  21.326  26.043  1.00  0.00    -0.252 OA
BRANCH   3   5
ATOM      5  C   UNL A   1      31.132  22.578  24.655  1.00  0.00     0.124 C 
BRANCH   5   6
ATOM      6  C   UNL A   1      31.474  22.270  23.188  1.00  0.00     0.033 C 
BRANCH   6   7
ATOM      7  C   UNL A   1      32.951  22.393  22.804  1.00  0.00     0.117 C 
BRANCH   7   8
ATOM      8  N   UNL A   1      33.123  23.159  21.586  1.00  0.00    -0.351 N 
ATOM      9  C   UNL A   1      32.880  24.466  21.222  1.00  0.00     0.271 C 
ATOM     10  O   UNL A   1      33.221  24.755  20.072  1.00  0.00    -0.267 OA
ATOM     11  H   UNL A   1      33.497  22.624  20.850  1.00  0.00     0.163 HD
BRANCH   9  12
ATOM     12  C   UNL A   1      32.299  25.462  22.147  1.00  0.00     0.151 A 
ATOM     13  N   UNL A   1      31.188  27.222  22.698  1.00  0.00    -0.232 N 
ATOM     14  N   UNL A   1      31.291  26.273  21.739  1.00  0.00    -0.162 NA
ATOM     15  C   UNL A   1      31.939  26.897  23.807  1.00  0.00     0.075 A 
ATOM     16  C   UNL A   1      32.616  25.744  23.495  1.00  0.00     0.065 A 
BRANCH  13  17
ATOM     17  C   UNL A   1      30.351  28.361  22.556  1.00  0.00     0.065 A 
ATOM     18  C   UNL A   1      28.926  30.757  22.590  1.00  0.00     0.082 A 
ATOM     19  C   UNL A   1      30.023  30.631  21.740  1.00  0.00     0.024 A 
ATOM     20  C   UNL A   1      28.525  29.687  23.404  1.00  0.00     0.024 A 
ATOM     21  C   UNL A   1      30.736  29.430  21.727  1.00  0.00     0.030 A 
ATOM     22  C   UNL A   1      29.224  28.474  23.370  1.00  0.00     0.030 A 
BRANCH  18  23
ATOM     23  S   UNL A   1      28.028  32.279  22.697  1.00  0.00     0.238 S 
ATOM     24  O   UNL A   1      27.019  32.135  23.722  1.00  0.00    -0.207 OA
ATOM     25  O   UNL A   1      27.707  32.697  21.352  1.00  0.00    -0.207 OA
BRANCH  23  26
ATOM     26  N   UNL A   1      29.130  33.394  23.289  1.00  0.00    -0.225 NA
ATOM     27  H   UNL A   1      28.938  33.573  24.275  1.00  0.00     0.137 HD
ATOM     28  H   UNL A   1      29.048  34.265  22.764  1.00  0.00     0.137 HD
ENDBRANCH  23  26
ENDBRANCH  18  23
ENDBRANCH  13  17
BRANCH  15  29
ATOM     29  C   UNL A   1      32.081  27.744  24.962  1.00  0.00     0.000 A 
ATOM     30  C   UNL A   1      31.477  27.467  26.187  1.00  0.00     0.010 A 
ATOM     31  C   UNL A   1      32.750  28.946  24.752  1.00  0.00     0.010 A 
ATOM     32  C   UNL A   1      31.534  28.422  27.194  1.00  0.00     0.001 A 
ATOM     33  C   UNL A   1      32.775  29.902  25.738  1.00  0.00     0.001 A 
ATOM     34  C   UNL A   1      32.161  29.639  26.947  1.00  0.00     0.000 A 
ENDBRANCH  15  29
ENDBRANCH   9  12
ENDBRANCH   7   8
ENDBRANCH   6   7
ENDBRANCH   5   6
ENDBRANCH   3   5
ENDBRANCH   2   3
ENDBRANCH   1   2
BRANCH   1  35
ATOM     35  C   UNL A   1      35.044  23.901  25.619  1.00  0.00     0.202 C 
BRANCH  35  36
ATOM     36  O   UNL A   1      35.684  22.732  25.105  1.00  0.00    -0.374 OA
BRANCH  36  37
ATOM     37  C   UNL A   1      37.033  22.850  24.662  1.00  0.00     0.202 C 
BRANCH  37  38
ATOM     38  C   UNL A   1      38.006  21.784  25.147  1.00  0.00     0.261 C 
BRANCH  38  39
ATOM     39  O   UNL A   1      38.773  22.238  26.256  1.00  0.00    -0.460 OA
BRANCH  39  40
ATOM     40  C   UNL A   1      39.891  21.506  26.522  1.00  0.00     0.338 C 
ATOM     41  O   UNL A   1      40.130  20.379  26.166  1.00  0.00    -0.246 OA
BRANCH  40  42
ATOM     42  C   UNL A   1      40.708  22.282  27.472  1.00  0.00     0.060 A 
ATOM     43  C   UNL A   1      40.445  23.650  27.586  1.00  0.00     0.016 A 
ATOM     44  C   UNL A   1      41.887  21.722  27.962  1.00  0.00     0.016 A 
ATOM     45  C   UNL A   1      41.471  24.493  27.980  1.00  0.00     0.010 A 
ATOM     46  C   UNL A   1      42.916  22.567  28.276  1.00  0.00     0.010 A 
ATOM     47  C   UNL A   1      42.733  23.944  28.212  1.00  0.00    -0.014 A 
BRANCH  47  48
ATOM     48  C   UNL A   1      43.862  24.783  28.582  1.00  0.00     0.031 A 
ATOM     49  C   UNL A   1      44.099  24.741  30.048  1.00  0.00     0.074 A 
ATOM     50  C   UNL A   1      44.719  25.320  27.681  1.00  0.00     0.049 A 
ATOM     51  N   UNL A   1      43.831  25.671  30.901  1.00  0.00    -0.248 NA
ATOM     52  C   UNL A   1      44.432  23.451  30.682  1.00  0.00     0.031 C 
ATOM     53  C   UNL A   1      44.736  25.153  26.228  1.00  0.00     0.029 A 
ATOM     54  N   UNL A   1      45.860  26.039  27.899  1.00  0.00    -0.354 N 
ATOM     55  C   UNL A   1      44.243  25.173  32.130  1.00  0.00     0.074 A 
ATOM     56  C   UNL A   1      44.325  23.751  31.977  1.00  0.00     0.031 C 
ATOM     57  C   UNL A   1      45.924  25.581  25.733  1.00  0.00     0.029 A 
ATOM     58  C   UNL A   1      46.735  26.148  26.802  1.00  0.00     0.049 A 
ATOM     59  H   UNL A   1      46.058  26.454  28.769  1.00  0.00     0.167 HD
ATOM     60  C   UNL A   1      44.774  25.996  33.075  1.00  0.00     0.034 A 
ATOM     61  C   UNL A   1      48.028  26.616  26.830  1.00  0.00     0.034 A 
ATOM     62  C   UNL A   1      44.506  27.381  32.750  1.00  0.00     0.049 A 
ATOM     63  C   UNL A   1      48.126  27.404  28.097  1.00  0.00     0.074 A 
ATOM     64  C   UNL A   1      43.344  28.087  32.491  1.00  0.00     0.029 A 
ATOM     65  N   UNL A   1      45.524  28.120  32.184  1.00  0.00    -0.354 N 
ATOM     66  N   UNL A   1      47.486  28.528  28.272  1.00  0.00    -0.248 NA
ATOM     67  C   UNL A   1      48.489  26.711  29.330  1.00  0.00     0.031 C 
ATOM     68  C   UNL A   1      43.656  28.891  31.354  1.00  0.00     0.029 A 
ATOM     69  C   UNL A   1      45.013  28.735  31.063  1.00  0.00     0.049 A 
ATOM     70  H   UNL A   1      46.446  28.194  32.520  1.00  0.00     0.167 HD
ATOM     71  C   UNL A   1      46.982  28.464  29.562  1.00  0.00     0.074 A 
ATOM     72  C   UNL A   1      47.717  27.372  30.203  1.00  0.00     0.031 C 
ATOM     73  C   UNL A   1      45.797  29.066  29.886  1.00  0.00     0.034 A 
BRANCH  60  74
ATOM     74  C   UNL A   1      45.834  25.585  34.067  1.00  0.00     0.023 A 
ATOM     75  C   UNL A   1      47.169  25.858  33.724  1.00  0.00     0.031 A 
ATOM     76  C   UNL A   1      45.648  24.727  35.179  1.00  0.00     0.131 A 
ATOM     77  C   UNL A   1      48.230  25.237  34.405  1.00  0.00     0.055 A 
ATOM     78  C   UNL A   1      46.708  24.176  35.902  1.00  0.00     0.041 A 
ATOM     79  F   UNL A   1      44.446  24.287  35.568  1.00  0.00    -0.206 F 
ATOM     80  C   UNL A   1      48.010  24.404  35.498  1.00  0.00     0.022 A 
BRANCH  77  81
ATOM     81  S   UNL A   1      49.895  25.396  33.716  1.00  0.00     0.124 S 
ATOM     82  O   UNL A   1      50.054  26.845  33.667  1.00  0.00    -0.237 OA
ATOM     83  O   UNL A   1      50.699  24.692  34.709  1.00  0.00    -0.237 OA
ATOM     84  O   UNL A   1      49.786  24.736  32.417  1.00  0.00    -0.744 OA
ENDBRANCH  77  81
ENDBRANCH  60  74
BRANCH  61  85
ATOM     85  C   UNL A   1      49.256  26.279  26.003  1.00  0.00     0.023 A 
ATOM     86  C   UNL A   1      49.639  27.031  24.858  1.00  0.00     0.031 A 
ATOM     87  C   UNL A   1      50.239  25.384  26.474  1.00  0.00     0.131 A 
ATOM     88  C   UNL A   1      50.962  26.957  24.341  1.00  0.00     0.055 A 
ATOM     89  C   UNL A   1      51.569  25.394  26.029  1.00  0.00     0.041 A 
ATOM     90  F   UNL A   1      49.992  24.534  27.479  1.00  0.00    -0.206 F 
ATOM     91  C   UNL A   1      51.948  26.212  24.984  1.00  0.00     0.022 A 
BRANCH  88  92
ATOM     92  S   UNL A   1      51.459  27.825  22.814  1.00  0.00     0.124 S 
ATOM     93  O   UNL A   1      52.331  28.871  23.338  1.00  0.00    -0.237 OA
ATOM     94  O   UNL A   1      52.100  26.775  22.033  1.00  0.00    -0.237 OA
ATOM     95  O   UNL A   1      50.188  28.304  22.267  1.00  0.00    -0.744 OA
ENDBRANCH  88  92
ENDBRANCH  61  85
BRANCH  73  96
ATOM     96  C   UNL A   1      45.142  29.971  28.851  1.00  0.00     0.023 A 
ATOM     97  C   UNL A   1      45.547  31.297  28.558  1.00  0.00     0.031 A 
ATOM     98  C   UNL A   1      44.147  29.410  28.034  1.00  0.00     0.131 A 
ATOM     99  C   UNL A   1      44.949  32.009  27.498  1.00  0.00     0.055 A 
ATOM    100  C   UNL A   1      43.577  30.105  26.968  1.00  0.00     0.041 A 
ATOM    101  F   UNL A   1      43.735  28.147  28.236  1.00  0.00    -0.206 F 
ATOM    102  C   UNL A   1      43.970  31.411  26.700  1.00  0.00     0.022 A 
BRANCH  99 103
ATOM    103  S   UNL A   1      45.419  33.736  27.152  1.00  0.00     0.124 S 
ATOM    104  O   UNL A   1      45.929  33.685  25.787  1.00  0.00    -0.237 OA
ATOM    105  O   UNL A   1      44.158  34.449  27.335  1.00  0.00    -0.237 OA
ATOM    106  O   UNL A   1      46.432  34.022  28.169  1.00  0.00    -0.744 OA
ENDBRANCH  99 103
ENDBRANCH  73  96
ENDBRANCH  47  48
ENDBRANCH  40  42
ENDBRANCH  39  40
ENDBRANCH  38  39
ENDBRANCH  37  38
ENDBRANCH  36  37
ENDBRANCH  35  36
ENDBRANCH   1  35
TORSDOF 25
ENDMDL
MODEL 2
REMARK VINA RESULT:     -10.2      3.799      6.006
REMARK SMILES NS(=O)(=O)c1ccc(-n2nc(C(=O)NCCCC(=O)OCCOCCOC(=O)c3ccc(-c4c5nc(c(-c6cc(S(=O)(=O)[O-])ccc6F)c6ccc([nH]6)c(-c6cc(S(=O)(=O)[O-])ccc6F)c6nc(c(-c7cc(S(=O)(=O)[O-])ccc7F)c7ccc4[nH]7)C=C6)C=C5)cc3)cc2-c2ccccc2)cc1
REMARK SMILES IDX 21 1 20 2 18 3 19 4 17 5 16 6 15 7 14 8 12 9 13 10 11 12
REMARK SMILES IDX 9 13 10 14 93 15 92 16 8 17 5 18 6 19 101 20 7 21 100 22
REMARK SMILES IDX 2 23 3 24 4 25 1 26 94 29 95 30 99 31 96 32 98 33 97 34
REMARK SMILES IDX 22 35 23 36 24 37 25 38 26 39 27 40 28 41 29 42 30 43 91 44
REMARK SMILES IDX 31 45 90 46 32 47 33 48 34 49 84 50 35 51 89 52 83 53 85 54
REMARK SMILES IDX 36 55 88 56 82 57 81 58 37 60 69 61 49 62 68 63 50 64 53 65
REMARK SMILES IDX 67 66 86 67 51 68 52 69 66 71 87 72 54 73 38 74 39 75 47 76
REMARK SMILES IDX 40 77 46 78 48 79 45 80 41 81 42 82 43 83 44 84 70 85 71 86
REMARK SMILES IDX 79 87 72 88 78 89 80 90 77 91 73 92 74 93 75 94 76 95 55 96
REMARK SMILES IDX 56 97 64 98 57 99 63 100 65 101 62 102 58 103 59 104 60 105
REMARK SMILES IDX 61 106
REMARK H PARENT 14 11 1 27 1 28 85 59 53 70
REMARK Flexibility Score: inf
ROOT
ATOM      1  C   UNL A   1      38.272  21.153  25.387  1.00  0.00     0.261 C 
ENDROOT
BRANCH   1   2
ATOM      2  O   UNL A   1      37.119  20.627  24.705  1.00  0.00    -0.463 OA
BRANCH   2   3
ATOM      3  C   UNL A   1      36.015  21.407  24.648  1.00  0.00     0.305 C 
ATOM      4  O   UNL A   1      36.002  22.582  24.304  1.00  0.00    -0.252 OA
BRANCH   3   5
ATOM      5  C   UNL A   1      34.767  20.668  25.092  1.00  0.00     0.124 C 
BRANCH   5   6
ATOM      6  C   UNL A   1      33.517  21.499  25.426  1.00  0.00     0.033 C 
BRANCH   6   7
ATOM      7  C   UNL A   1      32.441  21.557  24.338  1.00  0.00     0.117 C 
BRANCH   7   8
ATOM      8  N   UNL A   1      32.965  22.101  23.101  1.00  0.00    -0.351 N 
ATOM      9  C   UNL A   1      33.017  23.360  22.543  1.00  0.00     0.271 C 
ATOM     10  O   UNL A   1      33.612  23.424  21.463  1.00  0.00    -0.267 OA
ATOM     11  H   UNL A   1      33.376  21.415  22.527  1.00  0.00     0.163 HD
BRANCH   9  12
ATOM     12  C   UNL A   1      32.448  24.555  23.202  1.00  0.00     0.151 A 
ATOM     13  N   UNL A   1      31.406  26.436  23.306  1.00  0.00    -0.232 N 
ATOM     14  N   UNL A   1      31.502  25.299  22.577  1.00  0.00    -0.162 NA
ATOM     15  C   UNL A   1      32.090  26.326  24.497  1.00  0.00     0.075 A 
ATOM     16  C   UNL A   1      32.720  25.107  24.474  1.00  0.00     0.065 A 
BRANCH  13  17
ATOM     17  C   UNL A   1      30.634  27.550  22.880  1.00  0.00     0.065 A 
ATOM     18  C   UNL A   1      29.203  29.898  22.418  1.00  0.00     0.082 A 
ATOM     19  C   UNL A   1      30.539  29.827  22.026  1.00  0.00     0.024 A 
ATOM     20  C   UNL A   1      28.575  28.796  23.017  1.00  0.00     0.024 A 
ATOM     21  C   UNL A   1      31.253  28.651  22.261  1.00  0.00     0.030 A 
ATOM     22  C   UNL A   1      29.284  27.607  23.227  1.00  0.00     0.030 A 
BRANCH  18  23
ATOM     23  S   UNL A   1      28.270  31.387  22.206  1.00  0.00     0.238 S 
ATOM     24  O   UNL A   1      27.427  31.229  21.043  1.00  0.00    -0.207 OA
ATOM     25  O   UNL A   1      29.178  32.501  22.355  1.00  0.00    -0.207 OA
BRANCH  23  26
ATOM     26  N   UNL A   1      27.234  31.443  23.522  1.00  0.00    -0.225 NA
ATOM     27  H   UNL A   1      26.977  32.412  23.712  1.00  0.00     0.137 HD
ATOM     28  H   UNL A   1      27.700  31.048  24.339  1.00  0.00     0.137 HD
ENDBRANCH  23  26
ENDBRANCH  18  23
ENDBRANCH  13  17
BRANCH  15  29
ATOM     29  C   UNL A   1      32.224  27.396  25.452  1.00  0.00     0.000 A 
ATOM     30  C   UNL A   1      33.194  28.390  25.348  1.00  0.00     0.010 A 
ATOM     31  C   UNL A   1      31.410  27.307  26.577  1.00  0.00     0.010 A 
ATOM     32  C   UNL A   1      33.353  29.284  26.399  1.00  0.00     0.001 A 
ATOM     33  C   UNL A   1      31.593  28.171  27.629  1.00  0.00     0.001 A 
ATOM     34  C   UNL A   1      32.567  29.147  27.538  1.00  0.00     0.000 A 
ENDBRANCH  15  29
ENDBRANCH   9  12
ENDBRANCH   7   8
ENDBRANCH   6   7
ENDBRANCH   5   6
ENDBRANCH   3   5
ENDBRANCH   2   3
ENDBRANCH   1   2
BRANCH   1  35
ATOM     35  C   UNL A   1      39.326  20.063  25.557  1.00  0.00     0.202 C 
BRANCH  35  36
ATOM     36  O   UNL A   1      40.308  20.317  26.564  1.00  0.00    -0.374 OA
BRANCH  36  37
ATOM     37  C   UNL A   1      41.681  20.204  26.202  1.00  0.00     0.202 C 
BRANCH  37  38
ATOM     38  C   UNL A   1      42.418  21.505  25.915  1.00  0.00     0.261 C 
BRANCH  38  39
ATOM     39  O   UNL A   1      43.199  21.924  27.027  1.00  0.00    -0.460 OA
BRANCH  39  40
ATOM     40  C   UNL A   1      44.260  22.722  26.720  1.00  0.00     0.338 C 
ATOM     41  O   UNL A   1      45.385  22.375  26.458  1.00  0.00    -0.246 OA
BRANCH  40  42
ATOM     42  C   UNL A   1      43.833  24.118  26.921  1.00  0.00     0.060 A 
ATOM     43  C   UNL A   1      44.778  25.123  26.698  1.00  0.00     0.016 A 
ATOM     44  C   UNL A   1      42.651  24.368  27.616  1.00  0.00     0.016 A 
ATOM     45  C   UNL A   1      44.645  26.321  27.379  1.00  0.00     0.010 A 
ATOM     46  C   UNL A   1      42.568  25.524  28.344  1.00  0.00     0.010 A 
ATOM     47  C   UNL A   1      43.593  26.461  28.285  1.00  0.00    -0.014 A 
BRANCH  47  48
ATOM     48  C   UNL A   1      43.428  27.677  29.066  1.00  0.00     0.031 A 
ATOM     49  C   UNL A   1      43.732  27.435  30.500  1.00  0.00     0.074 A 
ATOM     50  C   UNL A   1      43.264  28.902  28.513  1.00  0.00     0.049 A 
ATOM     51  N   UNL A   1      42.883  27.350  31.467  1.00  0.00    -0.248 NA
ATOM     52  C   UNL A   1      45.087  26.988  30.879  1.00  0.00     0.031 C 
ATOM     53  C   UNL A   1      43.262  29.270  27.097  1.00  0.00     0.029 A 
ATOM     54  N   UNL A   1      43.193  30.121  29.125  1.00  0.00    -0.354 N 
ATOM     55  C   UNL A   1      43.643  27.133  32.608  1.00  0.00     0.074 A 
ATOM     56  C   UNL A   1      44.912  26.646  32.155  1.00  0.00     0.031 C 
ATOM     57  C   UNL A   1      43.393  30.614  26.975  1.00  0.00     0.029 A 
ATOM     58  C   UNL A   1      43.391  31.238  28.292  1.00  0.00     0.049 A 
ATOM     59  H   UNL A   1      43.015  30.213  30.088  1.00  0.00     0.167 HD
ATOM     60  C   UNL A   1      43.272  27.662  33.806  1.00  0.00     0.034 A 
ATOM     61  C   UNL A   1      43.590  32.537  28.697  1.00  0.00     0.034 A 
ATOM     62  C   UNL A   1      41.898  28.113  33.757  1.00  0.00     0.049 A 
ATOM     63  C   UNL A   1      43.081  32.585  30.102  1.00  0.00     0.074 A 
ATOM     64  C   UNL A   1      40.706  27.492  33.428  1.00  0.00     0.029 A 
ATOM     65  N   UNL A   1      41.667  29.465  33.603  1.00  0.00    -0.354 N 
ATOM     66  N   UNL A   1      41.814  32.462  30.391  1.00  0.00    -0.248 NA
ATOM     67  C   UNL A   1      43.990  32.243  31.193  1.00  0.00     0.031 C 
ATOM     68  C   UNL A   1      40.027  28.432  32.596  1.00  0.00     0.029 A 
ATOM     69  C   UNL A   1      40.770  29.615  32.570  1.00  0.00     0.049 A 
ATOM     70  H   UNL A   1      42.072  30.189  34.133  1.00  0.00     0.167 HD
ATOM     71  C   UNL A   1      41.771  31.627  31.496  1.00  0.00     0.074 A 
ATOM     72  C   UNL A   1      43.141  31.606  32.011  1.00  0.00     0.031 C 
ATOM     73  C   UNL A   1      40.722  30.771  31.692  1.00  0.00     0.034 A 
BRANCH  60  74
ATOM     74  C   UNL A   1      44.236  28.107  34.879  1.00  0.00     0.023 A 
ATOM     75  C   UNL A   1      44.345  27.289  36.017  1.00  0.00     0.031 A 
ATOM     76  C   UNL A   1      44.844  29.382  34.978  1.00  0.00     0.131 A 
ATOM     77  C   UNL A   1      44.949  27.767  37.192  1.00  0.00     0.055 A 
ATOM     78  C   UNL A   1      45.513  29.821  36.121  1.00  0.00     0.041 A 
ATOM     79  F   UNL A   1      44.741  30.315  34.024  1.00  0.00    -0.206 F 
ATOM     80  C   UNL A   1      45.543  29.024  37.250  1.00  0.00     0.022 A 
BRANCH  77  81
ATOM     81  S   UNL A   1      44.781  26.779  38.699  1.00  0.00     0.124 S 
ATOM     82  O   UNL A   1      45.178  27.739  39.723  1.00  0.00    -0.237 OA
ATOM     83  O   UNL A   1      43.368  26.419  38.664  1.00  0.00    -0.237 OA
ATOM     84  O   UNL A   1      45.714  25.676  38.483  1.00  0.00    -0.744 OA
ENDBRANCH  77  81
ENDBRANCH  60  74
BRANCH  61  85
ATOM     85  C   UNL A   1      44.375  33.688  28.093  1.00  0.00     0.023 A 
ATOM     86  C   UNL A   1      43.808  34.977  27.890  1.00  0.00     0.031 A 
ATOM     87  C   UNL A   1      45.777  33.634  27.957  1.00  0.00     0.131 A 
ATOM     88  C   UNL A   1      44.635  36.120  27.701  1.00  0.00     0.055 A 
ATOM     89  C   UNL A   1      46.589  34.775  27.878  1.00  0.00     0.041 A 
ATOM     90  F   UNL A   1      46.445  32.476  28.018  1.00  0.00    -0.206 F 
ATOM     91  C   UNL A   1      46.022  36.030  27.789  1.00  0.00     0.022 A 
BRANCH  88  92
ATOM     92  S   UNL A   1      43.943  37.769  27.332  1.00  0.00     0.124 S 
ATOM     93  O   UNL A   1      42.741  37.424  26.581  1.00  0.00    -0.237 OA
ATOM     94  O   UNL A   1      43.740  38.343  28.656  1.00  0.00    -0.237 OA
ATOM     95  O   UNL A   1      44.996  38.410  26.543  1.00  0.00    -0.744 OA
ENDBRANCH  88  92
ENDBRANCH  61  85
BRANCH  73  96
ATOM     96  C   UNL A   1      39.511  30.895  30.777  1.00  0.00     0.023 A 
ATOM     97  C   UNL A   1      38.432  31.794  30.972  1.00  0.00     0.031 A 
ATOM     98  C   UNL A   1      39.522  30.158  29.581  1.00  0.00     0.131 A 
ATOM     99  C   UNL A   1      37.417  31.913  30.002  1.00  0.00     0.055 A 
ATOM    100  C   UNL A   1      38.531  30.298  28.609  1.00  0.00     0.041 A 
ATOM    101  F   UNL A   1      40.528  29.308  29.316  1.00  0.00    -0.206 F 
ATOM    102  C   UNL A   1      37.470  31.170  28.819  1.00  0.00     0.022 A 
BRANCH  99 103
ATOM    103  S   UNL A   1      35.994  33.020  30.272  1.00  0.00     0.124 S 
ATOM    104  O   UNL A   1      36.542  34.348  30.021  1.00  0.00    -0.237 OA
ATOM    105  O   UNL A   1      35.025  32.534  29.293  1.00  0.00    -0.237 OA
ATOM    106  O   UNL A   1      35.627  32.767  31.666  1.00  0.00    -0.744 OA
ENDBRANCH  99 103
ENDBRANCH  73  96
ENDBRANCH  47  48
ENDBRANCH  40  42
ENDBRANCH  39  40
ENDBRANCH  38  39
ENDBRANCH  37  38
ENDBRANCH  36  37
ENDBRANCH  35  36
ENDBRANCH   1  35
TORSDOF 25
ENDMDL
MODEL 3
REMARK VINA RESULT:     -10.2      3.453      5.576
REMARK SMILES NS(=O)(=O)c1ccc(-n2nc(C(=O)NCCCC(=O)OCCOCCOC(=O)c3ccc(-c4c5nc(c(-c6cc(S(=O)(=O)[O-])ccc6F)c6ccc([nH]6)c(-c6cc(S(=O)(=O)[O-])ccc6F)c6nc(c(-c7cc(S(=O)(=O)[O-])ccc7F)c7ccc4[nH]7)C=C6)C=C5)cc3)cc2-c2ccccc2)cc1
REMARK SMILES IDX 21 1 20 2 18 3 19 4 17 5 16 6 15 7 14 8 12 9 13 10 11 12
REMARK SMILES IDX 9 13 10 14 93 15 92 16 8 17 5 18 6 19 101 20 7 21 100 22
REMARK SMILES IDX 2 23 3 24 4 25 1 26 94 29 95 30 99 31 96 32 98 33 97 34
REMARK SMILES IDX 22 35 23 36 24 37 25 38 26 39 27 40 28 41 29 42 30 43 91 44
REMARK SMILES IDX 31 45 90 46 32 47 33 48 34 49 84 50 35 51 89 52 83 53 85 54
REMARK SMILES IDX 36 55 88 56 82 57 81 58 37 60 69 61 49 62 68 63 50 64 53 65
REMARK SMILES IDX 67 66 86 67 51 68 52 69 66 71 87 72 54 73 38 74 39 75 47 76
REMARK SMILES IDX 40 77 46 78 48 79 45 80 41 81 42 82 43 83 44 84 70 85 71 86
REMARK SMILES IDX 79 87 72 88 78 89 80 90 77 91 73 92 74 93 75 94 76 95 55 96
REMARK SMILES IDX 56 97 64 98 57 99 63 100 65 101 62 102 58 103 59 104 60 105
REMARK SMILES IDX 61 106
REMARK H PARENT 14 11 1 27 1 28 85 59 53 70
REMARK Flexibility Score: inf
ROOT
ATOM      1  C   UNL A   1      38.238  21.169  25.340  1.00  0.00     0.261 C 
ENDROOT
BRANCH   1   2
ATOM      2  O   UNL A   1      37.065  20.645  24.692  1.00  0.00    -0.463 OA
BRANCH   2   3
ATOM      3  C   UNL A   1      35.966  21.432  24.654  1.00  0.00     0.305 C 
ATOM      4  O   UNL A   1      35.954  22.607  24.309  1.00  0.00    -0.252 OA
BRANCH   3   5
ATOM      5  C   UNL A   1      34.721  20.702  25.122  1.00  0.00     0.124 C 
BRANCH   5   6
ATOM      6  C   UNL A   1      33.481  21.541  25.471  1.00  0.00     0.033 C 
BRANCH   6   7
ATOM      7  C   UNL A   1      32.384  21.590  24.404  1.00  0.00     0.117 C 
BRANCH   7   8
ATOM      8  N   UNL A   1      32.888  22.108  23.147  1.00  0.00    -0.351 N 
ATOM      9  C   UNL A   1      32.935  23.355  22.563  1.00  0.00     0.271 C 
ATOM     10  O   UNL A   1      33.511  23.395  21.472  1.00  0.00    -0.267 OA
ATOM     11  H   UNL A   1      33.287  21.409  22.581  1.00  0.00     0.163 HD
BRANCH   9  12
ATOM     12  C   UNL A   1      32.380  24.565  23.207  1.00  0.00     0.151 A 
ATOM     13  N   UNL A   1      31.353  26.455  23.289  1.00  0.00    -0.232 N 
ATOM     14  N   UNL A   1      31.434  25.306  22.579  1.00  0.00    -0.162 NA
ATOM     15  C   UNL A   1      32.046  26.360  24.476  1.00  0.00     0.075 A 
ATOM     16  C   UNL A   1      32.668  25.136  24.468  1.00  0.00     0.065 A 
BRANCH  13  17
ATOM     17  C   UNL A   1      30.586  27.567  22.851  1.00  0.00     0.065 A 
ATOM     18  C   UNL A   1      29.180  29.925  22.357  1.00  0.00     0.082 A 
ATOM     19  C   UNL A   1      30.499  29.814  21.919  1.00  0.00     0.024 A 
ATOM     20  C   UNL A   1      28.556  28.857  23.020  1.00  0.00     0.024 A 
ATOM     21  C   UNL A   1      31.200  28.633  22.170  1.00  0.00     0.030 A 
ATOM     22  C   UNL A   1      29.251  27.664  23.247  1.00  0.00     0.030 A 
BRANCH  18  23
ATOM     23  S   UNL A   1      28.267  31.423  22.126  1.00  0.00     0.238 S 
ATOM     24  O   UNL A   1      27.477  31.288  20.923  1.00  0.00    -0.207 OA
ATOM     25  O   UNL A   1      29.174  32.529  22.334  1.00  0.00    -0.207 OA
BRANCH  23  26
ATOM     26  N   UNL A   1      27.172  31.466  23.393  1.00  0.00    -0.225 NA
ATOM     27  H   UNL A   1      26.500  30.705  23.289  1.00  0.00     0.137 HD
ATOM     28  H   UNL A   1      26.678  32.358  23.387  1.00  0.00     0.137 HD
ENDBRANCH  23  26
ENDBRANCH  18  23
ENDBRANCH  13  17
BRANCH  15  29
ATOM     29  C   UNL A   1      32.197  27.444  25.411  1.00  0.00     0.000 A 
ATOM     30  C   UNL A   1      33.119  28.474  25.239  1.00  0.00     0.010 A 
ATOM     31  C   UNL A   1      31.459  27.335  26.586  1.00  0.00     0.010 A 
ATOM     32  C   UNL A   1      33.307  29.385  26.271  1.00  0.00     0.001 A 
ATOM     33  C   UNL A   1      31.672  28.217  27.618  1.00  0.00     0.001 A 
ATOM     34  C   UNL A   1      32.599  29.229  27.458  1.00  0.00     0.000 A 
ENDBRANCH  15  29
ENDBRANCH   9  12
ENDBRANCH   7   8
ENDBRANCH   6   7
ENDBRANCH   5   6
ENDBRANCH   3   5
ENDBRANCH   2   3
ENDBRANCH   1   2
BRANCH   1  35
ATOM     35  C   UNL A   1      39.279  20.066  25.519  1.00  0.00     0.202 C 
BRANCH  35  36
ATOM     36  O   UNL A   1      40.255  20.308  26.533  1.00  0.00    -0.374 OA
BRANCH  36  37
ATOM     37  C   UNL A   1      41.628  20.298  26.154  1.00  0.00     0.202 C 
BRANCH  37  38
ATOM     38  C   UNL A   1      42.285  21.655  25.939  1.00  0.00     0.261 C 
BRANCH  38  39
ATOM     39  O   UNL A   1      43.088  22.033  27.051  1.00  0.00    -0.460 OA
BRANCH  39  40
ATOM     40  C   UNL A   1      44.155  22.825  26.749  1.00  0.00     0.338 C 
ATOM     41  O   UNL A   1      45.278  22.472  26.483  1.00  0.00    -0.246 OA
BRANCH  40  42
ATOM     42  C   UNL A   1      43.738  24.223  26.960  1.00  0.00     0.060 A 
ATOM     43  C   UNL A   1      44.680  25.225  26.709  1.00  0.00     0.016 A 
ATOM     44  C   UNL A   1      42.577  24.478  27.688  1.00  0.00     0.016 A 
ATOM     45  C   UNL A   1      44.570  26.424  27.392  1.00  0.00     0.010 A 
ATOM     46  C   UNL A   1      42.518  25.635  28.417  1.00  0.00     0.010 A 
ATOM     47  C   UNL A   1      43.545  26.568  28.328  1.00  0.00    -0.014 A 
BRANCH  47  48
ATOM     48  C   UNL A   1      43.406  27.785  29.112  1.00  0.00     0.031 A 
ATOM     49  C   UNL A   1      43.719  27.536  30.543  1.00  0.00     0.074 A 
ATOM     50  C   UNL A   1      43.255  29.013  28.562  1.00  0.00     0.049 A 
ATOM     51  N   UNL A   1      42.877  27.464  31.517  1.00  0.00    -0.248 NA
ATOM     52  C   UNL A   1      45.071  27.068  30.908  1.00  0.00     0.031 C 
ATOM     53  C   UNL A   1      43.246  29.384  27.147  1.00  0.00     0.029 A 
ATOM     54  N   UNL A   1      43.208  30.233  29.176  1.00  0.00    -0.354 N 
ATOM     55  C   UNL A   1      43.644  27.234  32.651  1.00  0.00     0.074 A 
ATOM     56  C   UNL A   1      44.901  26.727  32.186  1.00  0.00     0.031 C 
ATOM     57  C   UNL A   1      43.397  30.726  27.025  1.00  0.00     0.029 A 
ATOM     58  C   UNL A   1      43.416  31.347  28.342  1.00  0.00     0.049 A 
ATOM     59  H   UNL A   1      43.041  30.326  30.141  1.00  0.00     0.167 HD
ATOM     60  C   UNL A   1      43.293  27.766  33.853  1.00  0.00     0.034 A 
ATOM     61  C   UNL A   1      43.640  32.643  28.747  1.00  0.00     0.034 A 
ATOM     62  C   UNL A   1      41.925  28.239  33.817  1.00  0.00     0.049 A 
ATOM     63  C   UNL A   1      43.144  32.697  30.157  1.00  0.00     0.074 A 
ATOM     64  C   UNL A   1      40.721  27.637  33.498  1.00  0.00     0.029 A 
ATOM     65  N   UNL A   1      41.714  29.594  33.667  1.00  0.00    -0.354 N 
ATOM     66  N   UNL A   1      41.878  32.593  30.458  1.00  0.00    -0.248 NA
ATOM     67  C   UNL A   1      44.058  32.339  31.239  1.00  0.00     0.031 C 
ATOM     68  C   UNL A   1      40.049  28.588  32.674  1.00  0.00     0.029 A 
ATOM     69  C   UNL A   1      40.810  29.759  32.642  1.00  0.00     0.049 A 
ATOM     70  H   UNL A   1      42.135  30.311  34.194  1.00  0.00     0.167 HD
ATOM     71  C   UNL A   1      41.832  31.757  31.562  1.00  0.00     0.074 A 
ATOM     72  C   UNL A   1      43.207  31.714  32.064  1.00  0.00     0.031 C 
ATOM     73  C   UNL A   1      40.772  30.917  31.766  1.00  0.00     0.034 A 
BRANCH  60  74
ATOM     74  C   UNL A   1      44.273  28.194  34.917  1.00  0.00     0.023 A 
ATOM     75  C   UNL A   1      44.924  29.426  34.727  1.00  0.00     0.031 A 
ATOM     76  C   UNL A   1      44.798  27.375  35.947  1.00  0.00     0.131 A 
ATOM     77  C   UNL A   1      46.070  29.757  35.468  1.00  0.00     0.055 A 
ATOM     78  C   UNL A   1      45.889  27.746  36.735  1.00  0.00     0.041 A 
ATOM     79  F   UNL A   1      44.359  26.134  36.186  1.00  0.00    -0.206 F 
ATOM     80  C   UNL A   1      46.553  28.931  36.478  1.00  0.00     0.022 A 
BRANCH  77  81
ATOM     81  S   UNL A   1      47.024  31.209  34.959  1.00  0.00     0.124 S 
ATOM     82  O   UNL A   1      48.333  30.912  35.528  1.00  0.00    -0.237 OA
ATOM     83  O   UNL A   1      46.920  31.139  33.505  1.00  0.00    -0.237 OA
ATOM     84  O   UNL A   1      46.308  32.317  35.585  1.00  0.00    -0.744 OA
ENDBRANCH  77  81
ENDBRANCH  60  74
BRANCH  61  85
ATOM     85  C   UNL A   1      44.436  33.783  28.138  1.00  0.00     0.023 A 
ATOM     86  C   UNL A   1      45.817  33.667  27.819  1.00  0.00     0.031 A 
ATOM     87  C   UNL A   1      43.801  34.919  27.596  1.00  0.00     0.131 A 
ATOM     88  C   UNL A   1      46.439  34.572  26.913  1.00  0.00     0.055 A 
ATOM     89  C   UNL A   1      44.388  35.741  26.623  1.00  0.00     0.041 A 
ATOM     90  F   UNL A   1      42.531  35.221  27.890  1.00  0.00    -0.206 F 
ATOM     91  C   UNL A   1      45.701  35.547  26.247  1.00  0.00     0.022 A 
BRANCH  88  92
ATOM     92  S   UNL A   1      48.230  34.518  26.563  1.00  0.00     0.124 S 
ATOM     93  O   UNL A   1      48.397  35.682  25.700  1.00  0.00    -0.237 OA
ATOM     94  O   UNL A   1      48.826  34.602  27.891  1.00  0.00    -0.237 OA
ATOM     95  O   UNL A   1      48.408  33.228  25.894  1.00  0.00    -0.744 OA
ENDBRANCH  88  92
ENDBRANCH  61  85
BRANCH  73  96
ATOM     96  C   UNL A   1      39.554  31.061  30.863  1.00  0.00     0.023 A 
ATOM     97  C   UNL A   1      38.540  32.039  31.015  1.00  0.00     0.031 A 
ATOM     98  C   UNL A   1      39.496  30.250  29.717  1.00  0.00     0.131 A 
ATOM     99  C   UNL A   1      37.516  32.162  30.053  1.00  0.00     0.055 A 
ATOM    100  C   UNL A   1      38.498  30.392  28.753  1.00  0.00     0.041 A 
ATOM    101  F   UNL A   1      40.441  29.321  29.494  1.00  0.00    -0.206 F 
ATOM    102  C   UNL A   1      37.499  31.343  28.921  1.00  0.00     0.022 A 
BRANCH  99 103
ATOM    103  S   UNL A   1      36.173  33.375  30.271  1.00  0.00     0.124 S 
ATOM    104  O   UNL A   1      36.279  34.219  29.087  1.00  0.00    -0.237 OA
ATOM    105  O   UNL A   1      34.988  32.525  30.344  1.00  0.00    -0.237 OA
ATOM    106  O   UNL A   1      36.519  34.043  31.527  1.00  0.00    -0.744 OA
ENDBRANCH  99 103
ENDBRANCH  73  96
ENDBRANCH  47  48
ENDBRANCH  40  42
ENDBRANCH  39  40
ENDBRANCH  38  39
ENDBRANCH  37  38
ENDBRANCH  36  37
ENDBRANCH  35  36
ENDBRANCH   1  35
TORSDOF 25
ENDMDL
