MODEL 1
REMARK VINA RESULT:      -9.7      0.000      0.000
REMARK SMILES CCC[N@@H+](CC1CC[NH2+]CC1)[C@@H](CC)C(=O)OCCOCCOC(=O)c1ccc(-c2c3nc(c(-c4cc(S(=O)(=O)[O-])ccc4F)c4ccc([nH]4)c(-c4cc(S(=O)(=O)[O-])ccc4F)c4nc(c(-c5cc(S(=O)(=O)[O-])ccc5F)c5ccc2[nH]5)C=C4)C=C3)cc1
REMARK SMILES IDX 20 1 19 2 18 3 17 4 15 5 16 6 12 7 4 8 3 10 2 11 1 12 5 13
REMARK SMILES IDX 6 14 7 15 11 16 8 17 10 18 9 19 13 22 14 23 21 24 22 25
REMARK SMILES IDX 23 26 24 27 25 28 26 29 27 30 88 31 28 32 87 33 29 34 30 35
REMARK SMILES IDX 31 36 81 37 32 38 86 39 80 40 82 41 33 42 85 43 79 44 78 45
REMARK SMILES IDX 34 47 66 48 46 49 65 50 47 51 50 52 64 53 83 54 48 55 49 56
REMARK SMILES IDX 63 58 84 59 51 60 35 61 36 62 44 63 37 64 43 65 45 66 42 67
REMARK SMILES IDX 38 68 39 69 40 70 41 71 67 72 68 73 76 74 69 75 75 76 77 77
REMARK SMILES IDX 74 78 70 79 71 80 72 81 73 82 52 83 53 84 61 85 54 86 60 87
REMARK SMILES IDX 62 88 59 89 55 90 56 91 57 92 58 93
REMARK H PARENT 4 9 9 20 9 21 82 46 50 57
REMARK Flexibility Score: inf
ROOT
ATOM      1  O   UNL A   1      35.572  20.747  25.146  1.00  0.00    -0.374 OA
ENDROOT
BRANCH   1   2
ATOM      2  C   UNL A   1      34.238  20.601  25.632  1.00  0.00     0.202 C 
BRANCH   2   3
ATOM      3  C   UNL A   1      33.201  20.330  24.533  1.00  0.00     0.261 C 
BRANCH   3   4
ATOM      4  O   UNL A   1      32.528  21.522  24.075  1.00  0.00    -0.459 OA
BRANCH   4   5
ATOM      5  C   UNL A   1      31.680  22.140  24.936  1.00  0.00     0.364 C 
ATOM      6  O   UNL A   1      30.961  21.551  25.740  1.00  0.00    -0.245 OA
BRANCH   5   7
ATOM      7  C   UNL A   1      31.679  23.676  24.778  1.00  0.00     0.294 C 
BRANCH   7   8
ATOM      8  N   UNL A   1      32.980  24.306  25.124  1.00  0.00    -0.323 N 
ATOM      9  H   UNL A   1      33.390  23.475  25.549  1.00  0.00     0.348 HD
BRANCH   8  10
ATOM     10  C   UNL A   1      34.015  24.570  24.126  1.00  0.00     0.262 C 
BRANCH  10  11
ATOM     11  C   UNL A   1      35.471  24.129  24.314  1.00  0.00     0.058 C 
ATOM     12  C   UNL A   1      36.056  23.186  23.300  1.00  0.00     0.010 C 
ENDBRANCH  10  11
ENDBRANCH   8  10
BRANCH   8  13
ATOM     13  C   UNL A   1      32.861  25.418  26.100  1.00  0.00     0.266 C 
BRANCH  13  14
ATOM     14  C   UNL A   1      32.644  26.933  25.745  1.00  0.00     0.055 C 
ATOM     15  C   UNL A   1      33.889  27.834  25.794  1.00  0.00     0.071 C 
ATOM     16  C   UNL A   1      31.430  27.680  26.312  1.00  0.00     0.071 C 
ATOM     17  C   UNL A   1      34.077  28.662  27.057  1.00  0.00     0.261 C 
ATOM     18  C   UNL A   1      31.694  28.419  27.619  1.00  0.00     0.261 C 
ATOM     19  N   UNL A   1      32.862  29.292  27.560  1.00  0.00    -0.346 N 
ATOM     20  H   UNL A   1      32.638  30.079  26.951  1.00  0.00     0.346 HD
ATOM     21  H   UNL A   1      33.060  29.567  28.522  1.00  0.00     0.346 HD
ENDBRANCH  13  14
ENDBRANCH   8  13
ENDBRANCH   7   8
BRANCH   7  22
ATOM     22  C   UNL A   1      30.786  24.146  23.615  1.00  0.00     0.074 C 
ATOM     23  C   UNL A   1      30.089  25.486  23.600  1.00  0.00     0.011 C 
ENDBRANCH   7  22
ENDBRANCH   5   7
ENDBRANCH   4   5
ENDBRANCH   3   4
ENDBRANCH   2   3
ENDBRANCH   1   2
BRANCH   1  24
ATOM     24  C   UNL A   1      36.276  19.537  24.867  1.00  0.00     0.202 C 
BRANCH  24  25
ATOM     25  C   UNL A   1      37.786  19.728  24.701  1.00  0.00     0.261 C 
BRANCH  25  26
ATOM     26  O   UNL A   1      38.265  20.812  25.521  1.00  0.00    -0.460 OA
BRANCH  26  27
ATOM     27  C   UNL A   1      39.467  20.617  26.118  1.00  0.00     0.338 C 
ATOM     28  O   UNL A   1      40.112  19.591  26.132  1.00  0.00    -0.246 OA
BRANCH  27  29
ATOM     29  C   UNL A   1      39.984  21.917  26.618  1.00  0.00     0.060 A 
ATOM     30  C   UNL A   1      39.424  23.083  26.082  1.00  0.00     0.016 A 
ATOM     31  C   UNL A   1      40.975  22.006  27.602  1.00  0.00     0.016 A 
ATOM     32  C   UNL A   1      39.876  24.338  26.497  1.00  0.00     0.010 A 
ATOM     33  C   UNL A   1      41.416  23.266  28.031  1.00  0.00     0.010 A 
ATOM     34  C   UNL A   1      40.897  24.440  27.452  1.00  0.00    -0.014 A 
BRANCH  34  35
ATOM     35  C   UNL A   1      41.565  25.753  27.670  1.00  0.00     0.031 A 
ATOM     36  C   UNL A   1      40.811  26.811  28.433  1.00  0.00     0.074 A 
ATOM     37  C   UNL A   1      42.825  25.994  27.258  1.00  0.00     0.049 A 
ATOM     38  N   UNL A   1      41.177  28.021  28.769  1.00  0.00    -0.248 NA
ATOM     39  C   UNL A   1      39.452  26.453  28.871  1.00  0.00     0.031 C 
ATOM     40  C   UNL A   1      43.677  25.052  26.536  1.00  0.00     0.029 A 
ATOM     41  N   UNL A   1      43.610  27.115  27.396  1.00  0.00    -0.354 N 
ATOM     42  C   UNL A   1      40.097  28.566  29.454  1.00  0.00     0.074 A 
ATOM     43  C   UNL A   1      39.041  27.578  29.431  1.00  0.00     0.031 C 
ATOM     44  C   UNL A   1      44.867  25.633  26.297  1.00  0.00     0.029 A 
ATOM     45  C   UNL A   1      44.855  26.998  26.823  1.00  0.00     0.049 A 
ATOM     46  H   UNL A   1      43.307  27.928  27.862  1.00  0.00     0.167 HD
ATOM     47  C   UNL A   1      39.995  29.770  30.068  1.00  0.00     0.034 A 
ATOM     48  C   UNL A   1      45.863  27.892  26.724  1.00  0.00     0.034 A 
ATOM     49  C   UNL A   1      41.049  30.753  30.086  1.00  0.00     0.049 A 
ATOM     50  C   UNL A   1      45.699  29.262  27.344  1.00  0.00     0.074 A 
ATOM     51  C   UNL A   1      41.056  31.994  30.699  1.00  0.00     0.029 A 
ATOM     52  N   UNL A   1      42.276  30.616  29.452  1.00  0.00    -0.354 N 
ATOM     53  N   UNL A   1      44.682  29.753  28.015  1.00  0.00    -0.248 NA
ATOM     54  C   UNL A   1      46.828  30.195  27.205  1.00  0.00     0.031 C 
ATOM     55  C   UNL A   1      42.256  32.636  30.372  1.00  0.00     0.029 A 
ATOM     56  C   UNL A   1      43.033  31.764  29.627  1.00  0.00     0.049 A 
ATOM     57  H   UNL A   1      42.567  29.820  28.951  1.00  0.00     0.167 HD
ATOM     58  C   UNL A   1      45.064  31.036  28.404  1.00  0.00     0.074 A 
ATOM     59  C   UNL A   1      46.407  31.239  27.905  1.00  0.00     0.031 C 
ATOM     60  C   UNL A   1      44.370  31.960  29.118  1.00  0.00     0.034 A 
BRANCH  47  61
ATOM     61  C   UNL A   1      38.678  30.097  30.728  1.00  0.00     0.023 A 
ATOM     62  C   UNL A   1      37.652  30.770  30.040  1.00  0.00     0.031 A 
ATOM     63  C   UNL A   1      38.463  29.774  32.079  1.00  0.00     0.131 A 
ATOM     64  C   UNL A   1      36.495  31.166  30.725  1.00  0.00     0.055 A 
ATOM     65  C   UNL A   1      37.273  30.096  32.732  1.00  0.00     0.041 A 
ATOM     66  F   UNL A   1      39.417  29.155  32.794  1.00  0.00    -0.206 F 
ATOM     67  C   UNL A   1      36.286  30.811  32.060  1.00  0.00     0.022 A 
BRANCH  64  68
ATOM     68  S   UNL A   1      35.338  32.288  29.893  1.00  0.00     0.124 S 
ATOM     69  O   UNL A   1      34.360  32.540  30.950  1.00  0.00    -0.237 OA
ATOM     70  O   UNL A   1      36.192  33.413  29.532  1.00  0.00    -0.237 OA
ATOM     71  O   UNL A   1      34.839  31.496  28.771  1.00  0.00    -0.744 OA
ENDBRANCH  64  68
ENDBRANCH  47  61
BRANCH  48  72
ATOM     72  C   UNL A   1      47.113  27.550  25.980  1.00  0.00     0.023 A 
ATOM     73  C   UNL A   1      47.248  27.824  24.608  1.00  0.00     0.031 A 
ATOM     74  C   UNL A   1      48.165  26.872  26.621  1.00  0.00     0.131 A 
ATOM     75  C   UNL A   1      48.385  27.380  23.914  1.00  0.00     0.055 A 
ATOM     76  C   UNL A   1      49.318  26.480  25.937  1.00  0.00     0.041 A 
ATOM     77  F   UNL A   1      48.089  26.580  27.929  1.00  0.00    -0.206 F 
ATOM     78  C   UNL A   1      49.427  26.721  24.572  1.00  0.00     0.022 A 
BRANCH  75  79
ATOM     79  S   UNL A   1      48.447  27.595  22.113  1.00  0.00     0.124 S 
ATOM     80  O   UNL A   1      47.140  28.178  21.838  1.00  0.00    -0.237 OA
ATOM     81  O   UNL A   1      49.594  28.484  21.954  1.00  0.00    -0.237 OA
ATOM     82  O   UNL A   1      48.642  26.236  21.613  1.00  0.00    -0.744 OA
ENDBRANCH  75  79
ENDBRANCH  48  72
BRANCH  60  83
ATOM     83  C   UNL A   1      45.072  33.258  29.446  1.00  0.00     0.023 A 
ATOM     84  C   UNL A   1      45.072  34.351  28.562  1.00  0.00     0.031 A 
ATOM     85  C   UNL A   1      45.748  33.402  30.673  1.00  0.00     0.131 A 
ATOM     86  C   UNL A   1      45.774  35.520  28.895  1.00  0.00     0.055 A 
ATOM     87  C   UNL A   1      46.393  34.589  31.023  1.00  0.00     0.041 A 
ATOM     88  F   UNL A   1      45.783  32.392  31.556  1.00  0.00    -0.206 F 
ATOM     89  C   UNL A   1      46.420  35.652  30.127  1.00  0.00     0.022 A 
BRANCH  86  90
ATOM     90  S   UNL A   1      45.908  36.840  27.657  1.00  0.00     0.124 S 
ATOM     91  O   UNL A   1      45.573  36.136  26.424  1.00  0.00    -0.237 OA
ATOM     92  O   UNL A   1      44.923  37.809  28.125  1.00  0.00    -0.237 OA
ATOM     93  O   UNL A   1      47.301  37.272  27.764  1.00  0.00    -0.744 OA
ENDBRANCH  86  90
ENDBRANCH  60  83
ENDBRANCH  34  35
ENDBRANCH  27  29
ENDBRANCH  26  27
ENDBRANCH  25  26
ENDBRANCH  24  25
ENDBRANCH   1  24
TORSDOF 23
ENDMDL
MODEL 2
REMARK VINA RESULT:      -9.6      4.990      8.320
REMARK SMILES CCC[N@@H+](CC1CC[NH2+]CC1)[C@@H](CC)C(=O)OCCOCCOC(=O)c1ccc(-c2c3nc(c(-c4cc(S(=O)(=O)[O-])ccc4F)c4ccc([nH]4)c(-c4cc(S(=O)(=O)[O-])ccc4F)c4nc(c(-c5cc(S(=O)(=O)[O-])ccc5F)c5ccc2[nH]5)C=C4)C=C3)cc1
REMARK SMILES IDX 20 1 19 2 18 3 17 4 15 5 16 6 12 7 4 8 3 10 2 11 1 12 5 13
REMARK SMILES IDX 6 14 7 15 11 16 8 17 10 18 9 19 13 22 14 23 21 24 22 25
REMARK SMILES IDX 23 26 24 27 25 28 26 29 27 30 88 31 28 32 87 33 29 34 30 35
REMARK SMILES IDX 31 36 81 37 32 38 86 39 80 40 82 41 33 42 85 43 79 44 78 45
REMARK SMILES IDX 34 47 66 48 46 49 65 50 47 51 50 52 64 53 83 54 48 55 49 56
REMARK SMILES IDX 63 58 84 59 51 60 35 61 36 62 44 63 37 64 43 65 45 66 42 67
REMARK SMILES IDX 38 68 39 69 40 70 41 71 67 72 68 73 76 74 69 75 75 76 77 77
REMARK SMILES IDX 74 78 70 79 71 80 72 81 73 82 52 83 53 84 61 85 54 86 60 87
REMARK SMILES IDX 62 88 59 89 55 90 56 91 57 92 58 93
REMARK H PARENT 4 9 9 20 9 21 82 46 50 57
REMARK Flexibility Score: inf
ROOT
ATOM      1  O   UNL A   1      32.739  30.361  26.574  1.00  0.00    -0.374 OA
ENDROOT
BRANCH   1   2
ATOM      2  C   UNL A   1      32.993  29.187  25.803  1.00  0.00     0.202 C 
BRANCH   2   3
ATOM      3  C   UNL A   1      33.535  28.008  26.622  1.00  0.00     0.261 C 
BRANCH   3   4
ATOM      4  O   UNL A   1      32.742  26.809  26.490  1.00  0.00    -0.459 OA
BRANCH   4   5
ATOM      5  C   UNL A   1      33.205  25.830  25.671  1.00  0.00     0.364 C 
ATOM      6  O   UNL A   1      34.324  25.826  25.164  1.00  0.00    -0.245 OA
BRANCH   5   7
ATOM      7  C   UNL A   1      32.159  24.726  25.404  1.00  0.00     0.294 C 
BRANCH   7   8
ATOM      8  N   UNL A   1      32.256  24.138  24.042  1.00  0.00    -0.323 N 
ATOM      9  H   UNL A   1      31.542  23.424  24.185  1.00  0.00     0.348 HD
BRANCH   8  10
ATOM     10  C   UNL A   1      31.679  24.785  22.864  1.00  0.00     0.262 C 
BRANCH  10  11
ATOM     11  C   UNL A   1      30.713  25.970  22.967  1.00  0.00     0.058 C 
ATOM     12  C   UNL A   1      31.175  27.300  22.438  1.00  0.00     0.010 C 
ENDBRANCH  10  11
ENDBRANCH   8  10
BRANCH   8  13
ATOM     13  C   UNL A   1      33.580  23.537  23.748  1.00  0.00     0.266 C 
BRANCH  13  14
ATOM     14  C   UNL A   1      33.960  22.023  23.919  1.00  0.00     0.055 C 
ATOM     15  C   UNL A   1      32.801  21.013  23.858  1.00  0.00     0.071 C 
ATOM     16  C   UNL A   1      34.963  21.609  25.004  1.00  0.00     0.071 C 
ATOM     17  C   UNL A   1      32.259  20.523  25.193  1.00  0.00     0.261 C 
ATOM     18  C   UNL A   1      34.330  21.205  26.331  1.00  0.00     0.261 C 
ATOM     19  N   UNL A   1      33.277  20.206  26.186  1.00  0.00    -0.346 N 
ATOM     20  H   UNL A   1      33.714  19.323  25.921  1.00  0.00     0.346 HD
ATOM     21  H   UNL A   1      32.797  20.165  27.085  1.00  0.00     0.346 HD
ENDBRANCH  13  14
ENDBRANCH   8  13
ENDBRANCH   7   8
BRANCH   7  22
ATOM     22  C   UNL A   1      31.836  23.906  26.667  1.00  0.00     0.074 C 
ATOM     23  C   UNL A   1      30.530  23.171  26.860  1.00  0.00     0.011 C 
ENDBRANCH   7  22
ENDBRANCH   5   7
ENDBRANCH   4   5
ENDBRANCH   3   4
ENDBRANCH   2   3
ENDBRANCH   1   2
BRANCH   1  24
ATOM     24  C   UNL A   1      31.562  31.094  26.236  1.00  0.00     0.202 C 
BRANCH  24  25
ATOM     25  C   UNL A   1      31.456  32.448  26.943  1.00  0.00     0.261 C 
BRANCH  25  26
ATOM     26  O   UNL A   1      32.682  33.196  26.815  1.00  0.00    -0.460 OA
BRANCH  26  27
ATOM     27  C   UNL A   1      33.165  33.739  27.960  1.00  0.00     0.338 C 
ATOM     28  O   UNL A   1      32.606  34.542  28.676  1.00  0.00    -0.246 OA
BRANCH  27  29
ATOM     29  C   UNL A   1      34.437  33.063  28.325  1.00  0.00     0.060 A 
ATOM     30  C   UNL A   1      34.360  31.734  28.762  1.00  0.00     0.016 A 
ATOM     31  C   UNL A   1      35.683  33.694  28.223  1.00  0.00     0.016 A 
ATOM     32  C   UNL A   1      35.517  31.046  29.134  1.00  0.00     0.010 A 
ATOM     33  C   UNL A   1      36.845  32.996  28.579  1.00  0.00     0.010 A 
ATOM     34  C   UNL A   1      36.766  31.681  29.076  1.00  0.00    -0.014 A 
BRANCH  34  35
ATOM     35  C   UNL A   1      37.938  31.048  29.741  1.00  0.00     0.031 A 
ATOM     36  C   UNL A   1      38.223  31.418  31.174  1.00  0.00     0.074 A 
ATOM     37  C   UNL A   1      38.702  30.127  29.122  1.00  0.00     0.049 A 
ATOM     38  N   UNL A   1      39.166  30.994  31.975  1.00  0.00    -0.248 NA
ATOM     39  C   UNL A   1      37.321  32.409  31.780  1.00  0.00     0.031 C 
ATOM     40  C   UNL A   1      38.521  29.656  27.751  1.00  0.00     0.029 A 
ATOM     41  N   UNL A   1      39.789  29.417  29.577  1.00  0.00    -0.354 N 
ATOM     42  C   UNL A   1      38.971  31.667  33.177  1.00  0.00     0.074 A 
ATOM     43  C   UNL A   1      37.860  32.570  32.978  1.00  0.00     0.031 C 
ATOM     44  C   UNL A   1      39.462  28.734  27.477  1.00  0.00     0.029 A 
ATOM     45  C   UNL A   1      40.331  28.567  28.641  1.00  0.00     0.049 A 
ATOM     46  H   UNL A   1      40.147  29.510  30.490  1.00  0.00     0.167 HD
ATOM     47  C   UNL A   1      39.639  31.531  34.348  1.00  0.00     0.034 A 
ATOM     48  C   UNL A   1      41.410  27.757  28.713  1.00  0.00     0.034 A 
ATOM     49  C   UNL A   1      40.748  30.632  34.541  1.00  0.00     0.049 A 
ATOM     50  C   UNL A   1      42.194  27.681  30.005  1.00  0.00     0.074 A 
ATOM     51  C   UNL A   1      41.478  30.402  35.694  1.00  0.00     0.029 A 
ATOM     52  N   UNL A   1      41.298  29.823  33.555  1.00  0.00    -0.354 N 
ATOM     53  N   UNL A   1      41.980  28.302  31.143  1.00  0.00    -0.248 NA
ATOM     54  C   UNL A   1      43.359  26.785  30.025  1.00  0.00     0.031 C 
ATOM     55  C   UNL A   1      42.515  29.514  35.386  1.00  0.00     0.029 A 
ATOM     56  C   UNL A   1      42.381  29.123  34.062  1.00  0.00     0.049 A 
ATOM     57  H   UNL A   1      40.967  29.758  32.630  1.00  0.00     0.167 HD
ATOM     58  C   UNL A   1      42.962  27.843  32.019  1.00  0.00     0.074 A 
ATOM     59  C   UNL A   1      43.761  26.886  31.284  1.00  0.00     0.031 C 
ATOM     60  C   UNL A   1      43.178  28.176  33.319  1.00  0.00     0.034 A 
BRANCH  47  61
ATOM     61  C   UNL A   1      39.207  32.415  35.492  1.00  0.00     0.023 A 
ATOM     62  C   UNL A   1      39.633  33.752  35.596  1.00  0.00     0.031 A 
ATOM     63  C   UNL A   1      38.396  31.901  36.518  1.00  0.00     0.131 A 
ATOM     64  C   UNL A   1      39.313  34.500  36.738  1.00  0.00     0.055 A 
ATOM     65  C   UNL A   1      38.010  32.678  37.611  1.00  0.00     0.041 A 
ATOM     66  F   UNL A   1      37.981  30.624  36.486  1.00  0.00    -0.206 F 
ATOM     67  C   UNL A   1      38.482  33.981  37.734  1.00  0.00     0.022 A 
BRANCH  64  68
ATOM     68  S   UNL A   1      40.125  36.104  36.978  1.00  0.00     0.124 S 
ATOM     69  O   UNL A   1      39.398  36.633  38.130  1.00  0.00    -0.237 OA
ATOM     70  O   UNL A   1      41.512  35.723  37.219  1.00  0.00    -0.237 OA
ATOM     71  O   UNL A   1      39.878  36.805  35.720  1.00  0.00    -0.744 OA
ENDBRANCH  64  68
ENDBRANCH  47  61
BRANCH  48  72
ATOM     72  C   UNL A   1      41.851  26.970  27.522  1.00  0.00     0.023 A 
ATOM     73  C   UNL A   1      41.602  25.590  27.422  1.00  0.00     0.031 A 
ATOM     74  C   UNL A   1      42.599  27.577  26.498  1.00  0.00     0.131 A 
ATOM     75  C   UNL A   1      42.137  24.857  26.350  1.00  0.00     0.055 A 
ATOM     76  C   UNL A   1      43.083  26.854  25.406  1.00  0.00     0.041 A 
ATOM     77  F   UNL A   1      42.872  28.892  26.544  1.00  0.00    -0.206 F 
ATOM     78  C   UNL A   1      42.865  25.482  25.334  1.00  0.00     0.022 A 
BRANCH  75  79
ATOM     79  S   UNL A   1      41.944  23.053  26.344  1.00  0.00     0.124 S 
ATOM     80  O   UNL A   1      42.651  22.675  27.562  1.00  0.00    -0.237 OA
ATOM     81  O   UNL A   1      40.493  22.903  26.369  1.00  0.00    -0.237 OA
ATOM     82  O   UNL A   1      42.588  22.645  25.096  1.00  0.00    -0.744 OA
ENDBRANCH  75  79
ENDBRANCH  48  72
BRANCH  60  83
ATOM     83  C   UNL A   1      44.294  27.461  34.045  1.00  0.00     0.023 A 
ATOM     84  C   UNL A   1      44.066  26.301  34.805  1.00  0.00     0.031 A 
ATOM     85  C   UNL A   1      45.612  27.950  33.967  1.00  0.00     0.131 A 
ATOM     86  C   UNL A   1      45.129  25.697  35.496  1.00  0.00     0.055 A 
ATOM     87  C   UNL A   1      46.674  27.310  34.607  1.00  0.00     0.041 A 
ATOM     88  F   UNL A   1      45.889  29.055  33.257  1.00  0.00    -0.206 F 
ATOM     89  C   UNL A   1      46.433  26.184  35.387  1.00  0.00     0.022 A 
BRANCH  86  90
ATOM     90  S   UNL A   1      44.770  24.313  36.613  1.00  0.00     0.124 S 
ATOM     91  O   UNL A   1      43.818  24.912  37.543  1.00  0.00    -0.237 OA
ATOM     92  O   UNL A   1      44.226  23.310  35.704  1.00  0.00    -0.237 OA
ATOM     93  O   UNL A   1      46.074  23.987  37.187  1.00  0.00    -0.744 OA
ENDBRANCH  86  90
ENDBRANCH  60  83
ENDBRANCH  34  35
ENDBRANCH  27  29
ENDBRANCH  26  27
ENDBRANCH  25  26
ENDBRANCH  24  25
ENDBRANCH   1  24
TORSDOF 23
ENDMDL
MODEL 3
REMARK VINA RESULT:      -9.4      1.568      7.710
REMARK SMILES CCC[N@@H+](CC1CC[NH2+]CC1)[C@@H](CC)C(=O)OCCOCCOC(=O)c1ccc(-c2c3nc(c(-c4cc(S(=O)(=O)[O-])ccc4F)c4ccc([nH]4)c(-c4cc(S(=O)(=O)[O-])ccc4F)c4nc(c(-c5cc(S(=O)(=O)[O-])ccc5F)c5ccc2[nH]5)C=C4)C=C3)cc1
REMARK SMILES IDX 20 1 19 2 18 3 17 4 15 5 16 6 12 7 4 8 3 10 2 11 1 12 5 13
REMARK SMILES IDX 6 14 7 15 11 16 8 17 10 18 9 19 13 22 14 23 21 24 22 25
REMARK SMILES IDX 23 26 24 27 25 28 26 29 27 30 88 31 28 32 87 33 29 34 30 35
REMARK SMILES IDX 31 36 81 37 32 38 86 39 80 40 82 41 33 42 85 43 79 44 78 45
REMARK SMILES IDX 34 47 66 48 46 49 65 50 47 51 50 52 64 53 83 54 48 55 49 56
REMARK SMILES IDX 63 58 84 59 51 60 35 61 36 62 44 63 37 64 43 65 45 66 42 67
REMARK SMILES IDX 38 68 39 69 40 70 41 71 67 72 68 73 76 74 69 75 75 76 77 77
REMARK SMILES IDX 74 78 70 79 71 80 72 81 73 82 52 83 53 84 61 85 54 86 60 87
REMARK SMILES IDX 62 88 59 89 55 90 56 91 57 92 58 93
REMARK H PARENT 4 9 9 20 9 21 82 46 50 57
REMARK Flexibility Score: inf
ROOT
ATOM      1  O   UNL A   1      36.048  20.978  25.416  1.00  0.00    -0.374 OA
ENDROOT
BRANCH   1   2
ATOM      2  C   UNL A   1      34.675  21.191  25.089  1.00  0.00     0.202 C 
BRANCH   2   3
ATOM      3  C   UNL A   1      33.706  20.894  26.241  1.00  0.00     0.261 C 
BRANCH   3   4
ATOM      4  O   UNL A   1      32.552  21.761  26.254  1.00  0.00    -0.459 OA
BRANCH   4   5
ATOM      5  C   UNL A   1      32.543  22.789  27.140  1.00  0.00     0.364 C 
ATOM      6  O   UNL A   1      32.978  22.717  28.287  1.00  0.00    -0.245 OA
BRANCH   5   7
ATOM      7  C   UNL A   1      31.889  24.067  26.570  1.00  0.00     0.294 C 
BRANCH   7   8
ATOM      8  N   UNL A   1      32.763  24.804  25.620  1.00  0.00    -0.323 N 
ATOM      9  H   UNL A   1      33.590  24.228  25.770  1.00  0.00     0.348 HD
BRANCH   8  10
ATOM     10  C   UNL A   1      32.653  24.649  24.170  1.00  0.00     0.262 C 
BRANCH  10  11
ATOM     11  C   UNL A   1      33.844  24.245  23.294  1.00  0.00     0.058 C 
ATOM     12  C   UNL A   1      33.576  23.347  22.117  1.00  0.00     0.010 C 
ENDBRANCH  10  11
ENDBRANCH   8  10
BRANCH   8  13
ATOM     13  C   UNL A   1      33.001  26.217  26.006  1.00  0.00     0.266 C 
BRANCH  13  14
ATOM     14  C   UNL A   1      31.891  27.287  26.308  1.00  0.00     0.055 C 
ATOM     15  C   UNL A   1      31.385  28.107  25.109  1.00  0.00     0.071 C 
ATOM     16  C   UNL A   1      32.016  28.184  27.545  1.00  0.00     0.071 C 
ATOM     17  C   UNL A   1      31.987  29.495  24.937  1.00  0.00     0.261 C 
ATOM     18  C   UNL A   1      32.699  29.523  27.291  1.00  0.00     0.261 C 
ATOM     19  N   UNL A   1      32.122  30.259  26.171  1.00  0.00    -0.346 N 
ATOM     20  H   UNL A   1      31.195  30.580  26.447  1.00  0.00     0.346 HD
ATOM     21  H   UNL A   1      32.770  31.020  25.966  1.00  0.00     0.346 HD
ENDBRANCH  13  14
ENDBRANCH   8  13
ENDBRANCH   7   8
BRANCH   7  22
ATOM     22  C   UNL A   1      30.367  23.916  26.389  1.00  0.00     0.074 C 
ATOM     23  C   UNL A   1      29.427  25.095  26.302  1.00  0.00     0.011 C 
ENDBRANCH   7  22
ENDBRANCH   5   7
ENDBRANCH   4   5
ENDBRANCH   3   4
ENDBRANCH   2   3
ENDBRANCH   1   2
BRANCH   1  24
ATOM     24  C   UNL A   1      36.664  19.832  24.828  1.00  0.00     0.202 C 
BRANCH  24  25
ATOM     25  C   UNL A   1      38.187  19.803  24.986  1.00  0.00     0.261 C 
BRANCH  25  26
ATOM     26  O   UNL A   1      38.663  20.995  25.641  1.00  0.00    -0.460 OA
BRANCH  26  27
ATOM     27  C   UNL A   1      39.851  20.883  26.285  1.00  0.00     0.338 C 
ATOM     28  O   UNL A   1      40.595  19.925  26.273  1.00  0.00    -0.246 OA
BRANCH  27  29
ATOM     29  C   UNL A   1      40.214  22.195  26.879  1.00  0.00     0.060 A 
ATOM     30  C   UNL A   1      39.507  23.321  26.438  1.00  0.00     0.016 A 
ATOM     31  C   UNL A   1      41.203  22.331  27.861  1.00  0.00     0.016 A 
ATOM     32  C   UNL A   1      39.810  24.587  26.945  1.00  0.00     0.010 A 
ATOM     33  C   UNL A   1      41.492  23.599  28.383  1.00  0.00     0.010 A 
ATOM     34  C   UNL A   1      40.826  24.741  27.898  1.00  0.00    -0.014 A 
BRANCH  34  35
ATOM     35  C   UNL A   1      41.332  26.106  28.212  1.00  0.00     0.031 A 
ATOM     36  C   UNL A   1      42.723  26.465  27.759  1.00  0.00     0.074 A 
ATOM     37  C   UNL A   1      40.569  27.029  28.830  1.00  0.00     0.049 A 
ATOM     38  N   UNL A   1      43.382  27.587  27.892  1.00  0.00    -0.248 NA
ATOM     39  C   UNL A   1      43.475  25.407  27.066  1.00  0.00     0.031 C 
ATOM     40  C   UNL A   1      39.199  26.824  29.295  1.00  0.00     0.029 A 
ATOM     41  N   UNL A   1      40.845  28.333  29.170  1.00  0.00    -0.354 N 
ATOM     42  C   UNL A   1      44.623  27.369  27.301  1.00  0.00     0.074 A 
ATOM     43  C   UNL A   1      44.645  25.990  26.866  1.00  0.00     0.031 C 
ATOM     44  C   UNL A   1      38.754  27.964  29.856  1.00  0.00     0.029 A 
ATOM     45  C   UNL A   1      39.813  28.971  29.817  1.00  0.00     0.049 A 
ATOM     46  H   UNL A   1      41.704  28.769  28.967  1.00  0.00     0.167 HD
ATOM     47  C   UNL A   1      45.644  28.240  27.115  1.00  0.00     0.034 A 
ATOM     48  C   UNL A   1      39.737  30.218  30.330  1.00  0.00     0.034 A 
ATOM     49  C   UNL A   1      45.619  29.613  27.553  1.00  0.00     0.049 A 
ATOM     50  C   UNL A   1      40.920  31.151  30.185  1.00  0.00     0.074 A 
ATOM     51  C   UNL A   1      46.591  30.584  27.394  1.00  0.00     0.029 A 
ATOM     52  N   UNL A   1      44.574  30.207  28.249  1.00  0.00    -0.354 N 
ATOM     53  N   UNL A   1      42.076  30.939  29.598  1.00  0.00    -0.248 NA
ATOM     54  C   UNL A   1      40.782  32.496  30.762  1.00  0.00     0.031 C 
ATOM     55  C   UNL A   1      46.168  31.740  28.058  1.00  0.00     0.029 A 
ATOM     56  C   UNL A   1      44.895  31.519  28.559  1.00  0.00     0.049 A 
ATOM     57  H   UNL A   1      43.730  29.761  28.488  1.00  0.00     0.167 HD
ATOM     58  C   UNL A   1      42.785  32.135  29.708  1.00  0.00     0.074 A 
ATOM     59  C   UNL A   1      41.923  33.066  30.404  1.00  0.00     0.031 C 
ATOM     60  C   UNL A   1      44.032  32.439  29.263  1.00  0.00     0.034 A 
BRANCH  47  61
ATOM     61  C   UNL A   1      46.888  27.708  26.447  1.00  0.00     0.023 A 
ATOM     62  C   UNL A   1      47.178  27.983  25.098  1.00  0.00     0.031 A 
ATOM     63  C   UNL A   1      47.773  26.877  27.155  1.00  0.00     0.131 A 
ATOM     64  C   UNL A   1      48.277  27.367  24.481  1.00  0.00     0.055 A 
ATOM     65  C   UNL A   1      48.912  26.337  26.558  1.00  0.00     0.041 A 
ATOM     66  F   UNL A   1      47.533  26.559  28.438  1.00  0.00    -0.206 F 
ATOM     67  C   UNL A   1      49.161  26.567  25.208  1.00  0.00     0.022 A 
BRANCH  64  68
ATOM     68  S   UNL A   1      48.445  27.500  22.680  1.00  0.00     0.124 S 
ATOM     69  O   UNL A   1      47.227  28.226  22.324  1.00  0.00    -0.237 OA
ATOM     70  O   UNL A   1      49.694  28.238  22.533  1.00  0.00    -0.237 OA
ATOM     71  O   UNL A   1      48.483  26.109  22.235  1.00  0.00    -0.744 OA
ENDBRANCH  64  68
ENDBRANCH  47  61
BRANCH  48  72
ATOM     72  C   UNL A   1      38.515  30.667  31.063  1.00  0.00     0.023 A 
ATOM     73  C   UNL A   1      37.469  31.336  30.405  1.00  0.00     0.031 A 
ATOM     74  C   UNL A   1      38.412  30.499  32.455  1.00  0.00     0.131 A 
ATOM     75  C   UNL A   1      36.392  31.852  31.144  1.00  0.00     0.055 A 
ATOM     76  C   UNL A   1      37.314  30.967  33.179  1.00  0.00     0.041 A 
ATOM     77  F   UNL A   1      39.385  29.871  33.137  1.00  0.00    -0.206 F 
ATOM     78  C   UNL A   1      36.301  31.661  32.525  1.00  0.00     0.022 A 
BRANCH  75  79
ATOM     79  S   UNL A   1      35.149  32.860  30.288  1.00  0.00     0.124 S 
ATOM     80  O   UNL A   1      34.245  33.205  31.379  1.00  0.00    -0.237 OA
ATOM     81  O   UNL A   1      35.959  33.951  29.755  1.00  0.00    -0.237 OA
ATOM     82  O   UNL A   1      34.601  31.948  29.287  1.00  0.00    -0.744 OA
ENDBRANCH  75  79
ENDBRANCH  48  72
BRANCH  60  83
ATOM     83  C   UNL A   1      44.521  33.853  29.472  1.00  0.00     0.023 A 
ATOM     84  C   UNL A   1      45.251  34.229  30.614  1.00  0.00     0.031 A 
ATOM     85  C   UNL A   1      44.256  34.841  28.505  1.00  0.00     0.131 A 
ATOM     86  C   UNL A   1      45.646  35.565  30.782  1.00  0.00     0.055 A 
ATOM     87  C   UNL A   1      44.705  36.154  28.650  1.00  0.00     0.041 A 
ATOM     88  F   UNL A   1      43.563  34.541  27.394  1.00  0.00    -0.206 F 
ATOM     89  C   UNL A   1      45.394  36.526  29.800  1.00  0.00     0.022 A 
BRANCH  86  90
ATOM     90  S   UNL A   1      46.423  36.055  32.348  1.00  0.00     0.124 S 
ATOM     91  O   UNL A   1      46.470  34.789  33.073  1.00  0.00    -0.237 OA
ATOM     92  O   UNL A   1      47.709  36.584  31.907  1.00  0.00    -0.237 OA
ATOM     93  O   UNL A   1      45.499  37.048  32.894  1.00  0.00    -0.744 OA
ENDBRANCH  86  90
ENDBRANCH  60  83
ENDBRANCH  34  35
ENDBRANCH  27  29
ENDBRANCH  26  27
ENDBRANCH  25  26
ENDBRANCH  24  25
ENDBRANCH   1  24
TORSDOF 23
ENDMDL
