MODEL 1
REMARK VINA RESULT:     -11.2      0.000      0.000
REMARK SMILES CCc1cccc(-c2ccc([C@@H](C)C(=O)OCCOCCOC(=O)c3ccc(-c4c5nc(c(-c6cc(S(=O)(=O)[O-])ccc6F)c6ccc([nH]6)c(-c6cc(S(=O)(=O)[O-])ccc6F)c6nc(c(-c7cc(S(=O)(=O)[O-])ccc7F)c7ccc4[nH]7)C=C6)C=C5)cc3)cc2)c1
REMARK SMILES IDX 19 1 18 2 17 3 16 4 14 5 15 6 12 7 13 8 11 9 8 10 9 11 89 12
REMARK SMILES IDX 10 13 88 14 7 15 3 16 4 17 90 18 5 19 6 20 2 21 1 22 20 23
REMARK SMILES IDX 21 24 22 25 23 26 24 27 25 28 26 29 87 30 27 31 86 32 28 33
REMARK SMILES IDX 29 34 30 35 80 36 31 37 85 38 79 39 81 40 32 41 84 42 78 43
REMARK SMILES IDX 77 44 33 46 65 47 45 48 64 49 46 50 49 51 63 52 82 53 47 54
REMARK SMILES IDX 48 55 62 57 83 58 50 59 34 60 35 61 43 62 36 63 42 64 44 65
REMARK SMILES IDX 41 66 37 67 38 68 39 69 40 70 66 71 67 72 75 73 68 74 74 75
REMARK SMILES IDX 76 76 73 77 69 78 70 79 71 80 72 81 51 82 52 83 60 84 53 85
REMARK SMILES IDX 59 86 61 87 58 88 54 89 55 90 56 91 57 92
REMARK H PARENT 81 45 49 56
REMARK Flexibility Score: inf
ROOT
ATOM      1  O   UNL A   1      37.521  21.082  24.381  1.00  0.00    -0.374 OA
ENDROOT
BRANCH   1   2
ATOM      2  C   UNL A   1      36.292  21.801  24.476  1.00  0.00     0.202 C 
BRANCH   2   3
ATOM      3  C   UNL A   1      35.420  21.491  25.696  1.00  0.00     0.261 C 
BRANCH   3   4
ATOM      4  O   UNL A   1      34.267  20.711  25.329  1.00  0.00    -0.463 OA
BRANCH   4   5
ATOM      5  C   UNL A   1      33.059  21.274  25.586  1.00  0.00     0.313 C 
ATOM      6  O   UNL A   1      31.978  20.748  25.333  1.00  0.00    -0.252 OA
BRANCH   5   7
ATOM      7  C   UNL A   1      33.145  22.665  26.194  1.00  0.00     0.126 C 
ATOM      8  C   UNL A   1      32.756  22.593  27.668  1.00  0.00     0.025 C 
BRANCH   7   9
ATOM      9  C   UNL A   1      32.439  23.808  25.469  1.00  0.00    -0.034 A 
ATOM     10  C   UNL A   1      31.362  26.080  24.124  1.00  0.00    -0.018 A 
ATOM     11  C   UNL A   1      31.003  25.777  25.447  1.00  0.00     0.009 A 
ATOM     12  C   UNL A   1      32.227  25.194  23.468  1.00  0.00     0.009 A 
ATOM     13  C   UNL A   1      31.533  24.662  26.110  1.00  0.00     0.005 A 
ATOM     14  C   UNL A   1      32.757  24.078  24.128  1.00  0.00     0.005 A 
BRANCH  10  15
ATOM     15  C   UNL A   1      30.912  27.325  23.474  1.00  0.00    -0.018 A 
ATOM     16  C   UNL A   1      29.125  28.871  22.776  1.00  0.00    -0.048 A 
ATOM     17  C   UNL A   1      30.086  29.683  22.163  1.00  0.00     0.004 A 
ATOM     18  C   UNL A   1      29.556  27.697  23.429  1.00  0.00     0.012 A 
ATOM     19  C   UNL A   1      31.434  29.332  22.196  1.00  0.00     0.001 A 
ATOM     20  C   UNL A   1      31.841  28.167  22.845  1.00  0.00     0.009 A 
BRANCH  16  21
ATOM     21  C   UNL A   1      27.649  29.207  22.794  1.00  0.00     0.032 C 
ATOM     22  C   UNL A   1      27.239  30.475  23.535  1.00  0.00     0.009 C 
ENDBRANCH  16  21
ENDBRANCH  10  15
ENDBRANCH   7   9
ENDBRANCH   5   7
ENDBRANCH   4   5
ENDBRANCH   3   4
ENDBRANCH   2   3
ENDBRANCH   1   2
BRANCH   1  23
ATOM     23  C   UNL A   1      37.570  19.787  24.982  1.00  0.00     0.202 C 
BRANCH  23  24
ATOM     24  C   UNL A   1      38.934  19.310  25.495  1.00  0.00     0.261 C 
BRANCH  24  25
ATOM     25  O   UNL A   1      39.876  20.387  25.635  1.00  0.00    -0.460 OA
BRANCH  25  26
ATOM     26  C   UNL A   1      40.493  20.456  26.838  1.00  0.00     0.338 C 
ATOM     27  O   UNL A   1      40.988  19.527  27.466  1.00  0.00    -0.246 OA
BRANCH  26  28
ATOM     28  C   UNL A   1      40.675  21.866  27.227  1.00  0.00     0.060 A 
ATOM     29  C   UNL A   1      39.965  22.838  26.508  1.00  0.00     0.016 A 
ATOM     30  C   UNL A   1      41.567  22.239  28.234  1.00  0.00     0.016 A 
ATOM     31  C   UNL A   1      40.181  24.192  26.761  1.00  0.00     0.010 A 
ATOM     32  C   UNL A   1      41.790  23.597  28.478  1.00  0.00     0.010 A 
ATOM     33  C   UNL A   1      41.124  24.579  27.720  1.00  0.00    -0.014 A 
BRANCH  33  34
ATOM     34  C   UNL A   1      41.541  26.000  27.825  1.00  0.00     0.031 A 
ATOM     35  C   UNL A   1      42.873  26.401  27.255  1.00  0.00     0.074 A 
ATOM     36  C   UNL A   1      40.760  26.910  28.432  1.00  0.00     0.049 A 
ATOM     37  N   UNL A   1      43.509  27.540  27.345  1.00  0.00    -0.248 NA
ATOM     38  C   UNL A   1      43.585  25.368  26.489  1.00  0.00     0.031 C 
ATOM     39  C   UNL A   1      39.430  26.648  28.978  1.00  0.00     0.029 A 
ATOM     40  N   UNL A   1      40.989  28.233  28.715  1.00  0.00    -0.354 N 
ATOM     41  C   UNL A   1      44.710  27.355  26.669  1.00  0.00     0.074 A 
ATOM     42  C   UNL A   1      44.720  25.986  26.198  1.00  0.00     0.031 C 
ATOM     43  C   UNL A   1      38.975  27.768  29.565  1.00  0.00     0.029 A 
ATOM     44  C   UNL A   1      39.999  28.808  29.477  1.00  0.00     0.049 A 
ATOM     45  H   UNL A   1      41.783  28.723  28.404  1.00  0.00     0.167 HD
ATOM     46  C   UNL A   1      45.712  28.246  26.465  1.00  0.00     0.034 A 
ATOM     47  C   UNL A   1      39.948  30.014  30.079  1.00  0.00     0.034 A 
ATOM     48  C   UNL A   1      45.682  29.605  26.951  1.00  0.00     0.049 A 
ATOM     49  C   UNL A   1      41.104  30.969  29.910  1.00  0.00     0.074 A 
ATOM     50  C   UNL A   1      46.619  30.606  26.771  1.00  0.00     0.029 A 
ATOM     51  N   UNL A   1      44.670  30.146  27.736  1.00  0.00    -0.354 N 
ATOM     52  N   UNL A   1      42.232  30.794  29.259  1.00  0.00    -0.248 NA
ATOM     53  C   UNL A   1      40.983  32.285  30.554  1.00  0.00     0.031 C 
ATOM     54  C   UNL A   1      46.216  31.722  27.511  1.00  0.00     0.029 A 
ATOM     55  C   UNL A   1      44.983  31.450  28.084  1.00  0.00     0.049 A 
ATOM     56  H   UNL A   1      43.851  29.671  28.007  1.00  0.00     0.167 HD
ATOM     57  C   UNL A   1      42.939  31.987  29.389  1.00  0.00     0.074 A 
ATOM     58  C   UNL A   1      42.112  32.873  30.183  1.00  0.00     0.031 C 
ATOM     59  C   UNL A   1      44.154  32.323  28.885  1.00  0.00     0.034 A 
BRANCH  46  60
ATOM     60  C   UNL A   1      46.945  27.750  25.747  1.00  0.00     0.023 A 
ATOM     61  C   UNL A   1      47.218  28.090  24.411  1.00  0.00     0.031 A 
ATOM     62  C   UNL A   1      47.833  26.874  26.397  1.00  0.00     0.131 A 
ATOM     63  C   UNL A   1      48.297  27.490  23.742  1.00  0.00     0.055 A 
ATOM     64  C   UNL A   1      48.954  26.349  25.752  1.00  0.00     0.041 A 
ATOM     65  F   UNL A   1      47.613  26.493  27.666  1.00  0.00    -0.206 F 
ATOM     66  C   UNL A   1      49.181  26.641  24.411  1.00  0.00     0.022 A 
BRANCH  63  67
ATOM     67  S   UNL A   1      48.424  27.696  21.944  1.00  0.00     0.124 S 
ATOM     68  O   UNL A   1      47.067  28.107  21.597  1.00  0.00    -0.237 OA
ATOM     69  O   UNL A   1      49.455  28.720  21.818  1.00  0.00    -0.237 OA
ATOM     70  O   UNL A   1      48.803  26.366  21.472  1.00  0.00    -0.744 OA
ENDBRANCH  63  67
ENDBRANCH  46  60
BRANCH  47  71
ATOM     71  C   UNL A   1      38.791  30.356  30.953  1.00  0.00     0.023 A 
ATOM     72  C   UNL A   1      37.728  31.145  30.491  1.00  0.00     0.031 A 
ATOM     73  C   UNL A   1      38.743  29.896  32.284  1.00  0.00     0.131 A 
ATOM     74  C   UNL A   1      36.673  31.472  31.359  1.00  0.00     0.055 A 
ATOM     75  C   UNL A   1      37.671  30.185  33.128  1.00  0.00     0.041 A 
ATOM     76  F   UNL A   1      39.735  29.136  32.775  1.00  0.00    -0.206 F 
ATOM     77  C   UNL A   1      36.630  30.985  32.667  1.00  0.00     0.022 A 
BRANCH  74  78
ATOM     78  S   UNL A   1      35.372  32.589  30.767  1.00  0.00     0.124 S 
ATOM     79  O   UNL A   1      34.393  32.502  31.844  1.00  0.00    -0.237 OA
ATOM     80  O   UNL A   1      36.088  33.855  30.650  1.00  0.00    -0.237 OA
ATOM     81  O   UNL A   1      34.960  31.990  29.499  1.00  0.00    -0.744 OA
ENDBRANCH  74  78
ENDBRANCH  47  71
BRANCH  59  82
ATOM     82  C   UNL A   1      44.644  33.730  29.126  1.00  0.00     0.023 A 
ATOM     83  C   UNL A   1      44.199  34.820  28.358  1.00  0.00     0.031 A 
ATOM     84  C   UNL A   1      45.548  33.983  30.174  1.00  0.00     0.131 A 
ATOM     85  C   UNL A   1      44.682  36.109  28.633  1.00  0.00     0.055 A 
ATOM     86  C   UNL A   1      45.985  35.273  30.475  1.00  0.00     0.041 A 
ATOM     87  F   UNL A   1      46.007  32.977  30.937  1.00  0.00    -0.206 F 
ATOM     88  C   UNL A   1      45.557  36.345  29.697  1.00  0.00     0.022 A 
BRANCH  85  89
ATOM     89  S   UNL A   1      44.195  37.478  27.546  1.00  0.00     0.124 S 
ATOM     90  O   UNL A   1      43.669  38.449  28.501  1.00  0.00    -0.237 OA
ATOM     91  O   UNL A   1      45.455  37.833  26.903  1.00  0.00    -0.237 OA
ATOM     92  O   UNL A   1      43.197  36.878  26.663  1.00  0.00    -0.744 OA
ENDBRANCH  85  89
ENDBRANCH  59  82
ENDBRANCH  33  34
ENDBRANCH  26  28
ENDBRANCH  25  26
ENDBRANCH  24  25
ENDBRANCH  23  24
ENDBRANCH   1  23
TORSDOF 20
ENDMDL
MODEL 2
REMARK VINA RESULT:     -11.2      1.135      7.636
REMARK SMILES CCc1cccc(-c2ccc([C@@H](C)C(=O)OCCOCCOC(=O)c3ccc(-c4c5nc(c(-c6cc(S(=O)(=O)[O-])ccc6F)c6ccc([nH]6)c(-c6cc(S(=O)(=O)[O-])ccc6F)c6nc(c(-c7cc(S(=O)(=O)[O-])ccc7F)c7ccc4[nH]7)C=C6)C=C5)cc3)cc2)c1
REMARK SMILES IDX 19 1 18 2 17 3 16 4 14 5 15 6 12 7 13 8 11 9 8 10 9 11 89 12
REMARK SMILES IDX 10 13 88 14 7 15 3 16 4 17 90 18 5 19 6 20 2 21 1 22 20 23
REMARK SMILES IDX 21 24 22 25 23 26 24 27 25 28 26 29 87 30 27 31 86 32 28 33
REMARK SMILES IDX 29 34 30 35 80 36 31 37 85 38 79 39 81 40 32 41 84 42 78 43
REMARK SMILES IDX 77 44 33 46 65 47 45 48 64 49 46 50 49 51 63 52 82 53 47 54
REMARK SMILES IDX 48 55 62 57 83 58 50 59 34 60 35 61 43 62 36 63 42 64 44 65
REMARK SMILES IDX 41 66 37 67 38 68 39 69 40 70 66 71 67 72 75 73 68 74 74 75
REMARK SMILES IDX 76 76 73 77 69 78 70 79 71 80 72 81 51 82 52 83 60 84 53 85
REMARK SMILES IDX 59 86 61 87 58 88 54 89 55 90 56 91 57 92
REMARK H PARENT 81 45 49 56
REMARK Flexibility Score: inf
ROOT
ATOM      1  O   UNL A   1      34.704  20.038  24.620  1.00  0.00    -0.374 OA
ENDROOT
BRANCH   1   2
ATOM      2  C   UNL A   1      33.504  19.890  25.380  1.00  0.00     0.202 C 
BRANCH   2   3
ATOM      3  C   UNL A   1      32.205  20.285  24.673  1.00  0.00     0.261 C 
BRANCH   3   4
ATOM      4  O   UNL A   1      32.439  21.295  23.675  1.00  0.00    -0.463 OA
BRANCH   4   5
ATOM      5  C   UNL A   1      32.359  22.583  24.097  1.00  0.00     0.313 C 
ATOM      6  O   UNL A   1      32.456  22.938  25.269  1.00  0.00    -0.252 OA
BRANCH   5   7
ATOM      7  C   UNL A   1      32.093  23.581  22.982  1.00  0.00     0.126 C 
ATOM      8  C   UNL A   1      33.219  23.496  21.954  1.00  0.00     0.025 C 
BRANCH   7   9
ATOM      9  C   UNL A   1      31.777  25.022  23.371  1.00  0.00    -0.034 A 
ATOM     10  C   UNL A   1      30.977  27.705  23.918  1.00  0.00    -0.018 A 
ATOM     11  C   UNL A   1      32.152  27.425  23.203  1.00  0.00     0.009 A 
ATOM     12  C   UNL A   1      30.238  26.616  24.403  1.00  0.00     0.009 A 
ATOM     13  C   UNL A   1      32.546  26.108  22.931  1.00  0.00     0.005 A 
ATOM     14  C   UNL A   1      30.630  25.298  24.133  1.00  0.00     0.005 A 
BRANCH  10  15
ATOM     15  C   UNL A   1      30.492  29.087  24.085  1.00  0.00    -0.018 A 
ATOM     16  C   UNL A   1      29.008  30.945  23.441  1.00  0.00    -0.048 A 
ATOM     17  C   UNL A   1      29.639  31.759  24.388  1.00  0.00     0.004 A 
ATOM     18  C   UNL A   1      29.445  29.611  23.304  1.00  0.00     0.012 A 
ATOM     19  C   UNL A   1      30.678  31.260  25.171  1.00  0.00     0.001 A 
ATOM     20  C   UNL A   1      31.098  29.939  25.020  1.00  0.00     0.009 A 
BRANCH  16  21
ATOM     21  C   UNL A   1      27.860  31.420  22.576  1.00  0.00     0.032 C 
ATOM     22  C   UNL A   1      28.204  31.884  21.164  1.00  0.00     0.009 C 
ENDBRANCH  16  21
ENDBRANCH  10  15
ENDBRANCH   7   9
ENDBRANCH   5   7
ENDBRANCH   4   5
ENDBRANCH   3   4
ENDBRANCH   2   3
ENDBRANCH   1   2
BRANCH   1  23
ATOM     23  C   UNL A   1      35.764  20.791  25.211  1.00  0.00     0.202 C 
BRANCH  23  24
ATOM     24  C   UNL A   1      37.189  20.266  25.002  1.00  0.00     0.261 C 
BRANCH  24  25
ATOM     25  O   UNL A   1      38.181  21.298  25.139  1.00  0.00    -0.460 OA
BRANCH  25  26
ATOM     26  C   UNL A   1      39.222  20.989  25.947  1.00  0.00     0.338 C 
ATOM     27  O   UNL A   1      39.792  19.907  26.032  1.00  0.00    -0.246 OA
BRANCH  26  28
ATOM     28  C   UNL A   1      39.730  22.210  26.598  1.00  0.00     0.060 A 
ATOM     29  C   UNL A   1      39.226  23.442  26.160  1.00  0.00     0.016 A 
ATOM     30  C   UNL A   1      40.726  22.158  27.576  1.00  0.00     0.016 A 
ATOM     31  C   UNL A   1      39.749  24.632  26.663  1.00  0.00     0.010 A 
ATOM     32  C   UNL A   1      41.257  23.353  28.071  1.00  0.00     0.010 A 
ATOM     33  C   UNL A   1      40.795  24.594  27.593  1.00  0.00    -0.014 A 
BRANCH  33  34
ATOM     34  C   UNL A   1      41.523  25.838  27.947  1.00  0.00     0.031 A 
ATOM     35  C   UNL A   1      40.781  26.920  28.680  1.00  0.00     0.074 A 
ATOM     36  C   UNL A   1      42.812  26.009  27.606  1.00  0.00     0.049 A 
ATOM     37  N   UNL A   1      41.158  28.137  28.974  1.00  0.00    -0.248 NA
ATOM     38  C   UNL A   1      39.423  26.581  29.130  1.00  0.00     0.031 C 
ATOM     39  C   UNL A   1      43.646  25.012  26.939  1.00  0.00     0.029 A 
ATOM     40  N   UNL A   1      43.634  27.098  27.751  1.00  0.00    -0.354 N 
ATOM     41  C   UNL A   1      40.075  28.720  29.623  1.00  0.00     0.074 A 
ATOM     42  C   UNL A   1      39.021  27.728  29.655  1.00  0.00     0.031 C 
ATOM     43  C   UNL A   1      44.854  25.549  26.698  1.00  0.00     0.029 A 
ATOM     44  C   UNL A   1      44.862  26.940  27.151  1.00  0.00     0.049 A 
ATOM     45  H   UNL A   1      43.373  27.912  28.238  1.00  0.00     0.167 HD
ATOM     46  C   UNL A   1      39.972  29.969  30.140  1.00  0.00     0.034 A 
ATOM     47  C   UNL A   1      45.854  27.829  26.943  1.00  0.00     0.034 A 
ATOM     48  C   UNL A   1      41.035  30.944  30.090  1.00  0.00     0.049 A 
ATOM     49  C   UNL A   1      45.696  29.240  27.454  1.00  0.00     0.074 A 
ATOM     50  C   UNL A   1      41.058  32.224  30.614  1.00  0.00     0.029 A 
ATOM     51  N   UNL A   1      42.257  30.754  29.455  1.00  0.00    -0.354 N 
ATOM     52  N   UNL A   1      44.675  29.783  28.079  1.00  0.00    -0.248 NA
ATOM     53  C   UNL A   1      46.822  30.159  27.237  1.00  0.00     0.031 C 
ATOM     54  C   UNL A   1      42.256  32.834  30.229  1.00  0.00     0.029 A 
ATOM     55  C   UNL A   1      43.021  31.908  29.538  1.00  0.00     0.049 A 
ATOM     56  H   UNL A   1      42.539  29.922  29.011  1.00  0.00     0.167 HD
ATOM     57  C   UNL A   1      45.049  31.096  28.355  1.00  0.00     0.074 A 
ATOM     58  C   UNL A   1      46.387  31.265  27.827  1.00  0.00     0.031 C 
ATOM     59  C   UNL A   1      44.354  32.067  28.999  1.00  0.00     0.034 A 
BRANCH  46  60
ATOM     60  C   UNL A   1      38.641  30.365  30.735  1.00  0.00     0.023 A 
ATOM     61  C   UNL A   1      37.639  30.992  29.973  1.00  0.00     0.031 A 
ATOM     62  C   UNL A   1      38.394  30.162  32.105  1.00  0.00     0.131 A 
ATOM     63  C   UNL A   1      36.479  31.472  30.602  1.00  0.00     0.055 A 
ATOM     64  C   UNL A   1      37.199  30.563  32.706  1.00  0.00     0.041 A 
ATOM     65  F   UNL A   1      39.321  29.590  32.890  1.00  0.00    -0.206 F 
ATOM     66  C   UNL A   1      36.242  31.239  31.958  1.00  0.00     0.022 A 
BRANCH  63  67
ATOM     67  S   UNL A   1      35.369  32.555  29.660  1.00  0.00     0.124 S 
ATOM     68  O   UNL A   1      36.213  33.727  29.443  1.00  0.00    -0.237 OA
ATOM     69  O   UNL A   1      35.074  31.751  28.479  1.00  0.00    -0.237 OA
ATOM     70  O   UNL A   1      34.244  32.767  30.569  1.00  0.00    -0.744 OA
ENDBRANCH  63  67
ENDBRANCH  46  60
BRANCH  47  71
ATOM     71  C   UNL A   1      47.054  27.427  26.156  1.00  0.00     0.023 A 
ATOM     72  C   UNL A   1      47.181  27.745  24.796  1.00  0.00     0.031 A 
ATOM     73  C   UNL A   1      48.096  26.702  26.766  1.00  0.00     0.131 A 
ATOM     74  C   UNL A   1      48.314  27.317  24.083  1.00  0.00     0.055 A 
ATOM     75  C   UNL A   1      49.239  26.319  26.066  1.00  0.00     0.041 A 
ATOM     76  F   UNL A   1      48.023  26.373  28.067  1.00  0.00    -0.206 F 
ATOM     77  C   UNL A   1      49.349  26.621  24.712  1.00  0.00     0.022 A 
BRANCH  74  78
ATOM     78  S   UNL A   1      48.396  27.642  22.301  1.00  0.00     0.124 S 
ATOM     79  O   UNL A   1      48.466  26.292  21.756  1.00  0.00    -0.237 OA
ATOM     80  O   UNL A   1      47.151  28.366  22.067  1.00  0.00    -0.237 OA
ATOM     81  O   UNL A   1      49.613  28.438  22.156  1.00  0.00    -0.744 OA
ENDBRANCH  74  78
ENDBRANCH  47  71
BRANCH  59  82
ATOM     82  C   UNL A   1      45.047  33.389  29.224  1.00  0.00     0.023 A 
ATOM     83  C   UNL A   1      45.104  34.382  28.230  1.00  0.00     0.031 A 
ATOM     84  C   UNL A   1      45.626  33.669  30.475  1.00  0.00     0.131 A 
ATOM     85  C   UNL A   1      45.754  35.598  28.497  1.00  0.00     0.055 A 
ATOM     86  C   UNL A   1      46.225  34.899  30.751  1.00  0.00     0.041 A 
ATOM     87  F   UNL A   1      45.600  32.755  31.458  1.00  0.00    -0.206 F 
ATOM     88  C   UNL A   1      46.298  35.869  29.756  1.00  0.00     0.022 A 
BRANCH  85  89
ATOM     89  S   UNL A   1      45.929  36.811  27.159  1.00  0.00     0.124 S 
ATOM     90  O   UNL A   1      46.077  35.951  25.989  1.00  0.00    -0.237 OA
ATOM     91  O   UNL A   1      44.680  37.559  27.247  1.00  0.00    -0.237 OA
ATOM     92  O   UNL A   1      47.127  37.562  27.530  1.00  0.00    -0.744 OA
ENDBRANCH  85  89
ENDBRANCH  59  82
ENDBRANCH  33  34
ENDBRANCH  26  28
ENDBRANCH  25  26
ENDBRANCH  24  25
ENDBRANCH  23  24
ENDBRANCH   1  23
TORSDOF 20
ENDMDL
MODEL 3
REMARK VINA RESULT:     -11.0      2.293      3.135
REMARK SMILES CCc1cccc(-c2ccc([C@@H](C)C(=O)OCCOCCOC(=O)c3ccc(-c4c5nc(c(-c6cc(S(=O)(=O)[O-])ccc6F)c6ccc([nH]6)c(-c6cc(S(=O)(=O)[O-])ccc6F)c6nc(c(-c7cc(S(=O)(=O)[O-])ccc7F)c7ccc4[nH]7)C=C6)C=C5)cc3)cc2)c1
REMARK SMILES IDX 19 1 18 2 17 3 16 4 14 5 15 6 12 7 13 8 11 9 8 10 9 11 89 12
REMARK SMILES IDX 10 13 88 14 7 15 3 16 4 17 90 18 5 19 6 20 2 21 1 22 20 23
REMARK SMILES IDX 21 24 22 25 23 26 24 27 25 28 26 29 87 30 27 31 86 32 28 33
REMARK SMILES IDX 29 34 30 35 80 36 31 37 85 38 79 39 81 40 32 41 84 42 78 43
REMARK SMILES IDX 77 44 33 46 65 47 45 48 64 49 46 50 49 51 63 52 82 53 47 54
REMARK SMILES IDX 48 55 62 57 83 58 50 59 34 60 35 61 43 62 36 63 42 64 44 65
REMARK SMILES IDX 41 66 37 67 38 68 39 69 40 70 66 71 67 72 75 73 68 74 74 75
REMARK SMILES IDX 76 76 73 77 69 78 70 79 71 80 72 81 51 82 52 83 60 84 53 85
REMARK SMILES IDX 59 86 61 87 58 88 54 89 55 90 56 91 57 92
REMARK H PARENT 81 45 49 56
REMARK Flexibility Score: inf
ROOT
ATOM      1  O   UNL A   1      35.038  19.967  24.438  1.00  0.00    -0.374 OA
ENDROOT
BRANCH   1   2
ATOM      2  C   UNL A   1      34.004  19.166  25.010  1.00  0.00     0.202 C 
BRANCH   2   3
ATOM      3  C   UNL A   1      32.586  19.426  24.496  1.00  0.00     0.261 C 
BRANCH   3   4
ATOM      4  O   UNL A   1      32.513  20.667  23.769  1.00  0.00    -0.463 OA
BRANCH   4   5
ATOM      5  C   UNL A   1      31.997  21.725  24.443  1.00  0.00     0.313 C 
ATOM      6  O   UNL A   1      31.489  21.660  25.559  1.00  0.00    -0.252 OA
BRANCH   5   7
ATOM      7  C   UNL A   1      32.060  23.035  23.673  1.00  0.00     0.126 C 
ATOM      8  C   UNL A   1      33.071  22.900  22.537  1.00  0.00     0.025 C 
BRANCH   7   9
ATOM      9  C   UNL A   1      32.257  24.324  24.466  1.00  0.00    -0.034 A 
ATOM     10  C   UNL A   1      32.642  26.864  25.706  1.00  0.00    -0.018 A 
ATOM     11  C   UNL A   1      33.648  25.884  25.721  1.00  0.00     0.009 A 
ATOM     12  C   UNL A   1      31.420  26.528  25.107  1.00  0.00     0.009 A 
ATOM     13  C   UNL A   1      33.461  24.636  25.111  1.00  0.00     0.005 A 
ATOM     14  C   UNL A   1      31.230  25.281  24.497  1.00  0.00     0.005 A 
BRANCH  10  15
ATOM     15  C   UNL A   1      32.887  28.221  26.226  1.00  0.00    -0.018 A 
ATOM     16  C   UNL A   1      34.242  29.826  27.513  1.00  0.00    -0.048 A 
ATOM     17  C   UNL A   1      33.286  30.815  27.261  1.00  0.00     0.004 A 
ATOM     18  C   UNL A   1      34.029  28.535  26.986  1.00  0.00     0.012 A 
ATOM     19  C   UNL A   1      32.148  30.525  26.510  1.00  0.00     0.001 A 
ATOM     20  C   UNL A   1      31.952  29.242  25.999  1.00  0.00     0.009 A 
BRANCH  16  21
ATOM     21  C   UNL A   1      35.509  30.083  28.302  1.00  0.00     0.032 C 
ATOM     22  C   UNL A   1      36.577  30.942  27.632  1.00  0.00     0.009 C 
ENDBRANCH  16  21
ENDBRANCH  10  15
ENDBRANCH   7   9
ENDBRANCH   5   7
ENDBRANCH   4   5
ENDBRANCH   3   4
ENDBRANCH   2   3
ENDBRANCH   1   2
BRANCH   1  23
ATOM     23  C   UNL A   1      35.861  20.712  25.337  1.00  0.00     0.202 C 
BRANCH  23  24
ATOM     24  C   UNL A   1      37.373  20.682  25.082  1.00  0.00     0.261 C 
BRANCH  24  25
ATOM     25  O   UNL A   1      38.025  21.894  25.496  1.00  0.00    -0.460 OA
BRANCH  25  26
ATOM     26  C   UNL A   1      39.200  21.721  26.146  1.00  0.00     0.338 C 
ATOM     27  O   UNL A   1      39.921  20.731  26.110  1.00  0.00    -0.246 OA
BRANCH  26  28
ATOM     28  C   UNL A   1      39.616  22.988  26.774  1.00  0.00     0.060 A 
ATOM     29  C   UNL A   1      38.909  24.149  26.433  1.00  0.00     0.016 A 
ATOM     30  C   UNL A   1      40.715  23.053  27.633  1.00  0.00     0.016 A 
ATOM     31  C   UNL A   1      39.327  25.390  26.912  1.00  0.00     0.010 A 
ATOM     32  C   UNL A   1      41.139  24.299  28.103  1.00  0.00     0.010 A 
ATOM     33  C   UNL A   1      40.468  25.476  27.718  1.00  0.00    -0.014 A 
BRANCH  33  34
ATOM     34  C   UNL A   1      41.064  26.799  28.028  1.00  0.00     0.031 A 
ATOM     35  C   UNL A   1      42.491  27.056  27.631  1.00  0.00     0.074 A 
ATOM     36  C   UNL A   1      40.357  27.746  28.668  1.00  0.00     0.049 A 
ATOM     37  N   UNL A   1      43.264  28.071  27.912  1.00  0.00    -0.248 NA
ATOM     38  C   UNL A   1      43.130  26.014  26.813  1.00  0.00     0.031 C 
ATOM     39  C   UNL A   1      38.953  27.629  29.059  1.00  0.00     0.029 A 
ATOM     40  N   UNL A   1      40.735  28.983  29.127  1.00  0.00    -0.354 N 
ATOM     41  C   UNL A   1      44.493  27.782  27.327  1.00  0.00     0.074 A 
ATOM     42  C   UNL A   1      44.363  26.484  26.699  1.00  0.00     0.031 C 
ATOM     43  C   UNL A   1      38.598  28.736  29.733  1.00  0.00     0.029 A 
ATOM     44  C   UNL A   1      39.759  29.616  29.861  1.00  0.00     0.049 A 
ATOM     45  H   UNL A   1      41.618  29.380  28.948  1.00  0.00     0.167 HD
ATOM     46  C   UNL A   1      45.624  28.530  27.321  1.00  0.00     0.034 A 
ATOM     47  C   UNL A   1      39.812  30.745  30.596  1.00  0.00     0.034 A 
ATOM     48  C   UNL A   1      45.731  29.819  27.962  1.00  0.00     0.049 A 
ATOM     49  C   UNL A   1      41.100  31.530  30.646  1.00  0.00     0.074 A 
ATOM     50  C   UNL A   1      46.811  30.683  27.986  1.00  0.00     0.029 A 
ATOM     51  N   UNL A   1      44.727  30.418  28.713  1.00  0.00    -0.354 N 
ATOM     52  N   UNL A   1      42.255  31.259  30.080  1.00  0.00    -0.248 NA
ATOM     53  C   UNL A   1      41.095  32.774  31.429  1.00  0.00     0.031 C 
ATOM     54  C   UNL A   1      46.490  31.762  28.816  1.00  0.00     0.029 A 
ATOM     55  C   UNL A   1      45.179  31.618  29.241  1.00  0.00     0.049 A 
ATOM     56  H   UNL A   1      43.826  30.045  28.851  1.00  0.00     0.167 HD
ATOM     57  C   UNL A   1      43.102  32.313  30.414  1.00  0.00     0.074 A 
ATOM     58  C   UNL A   1      42.327  33.223  31.232  1.00  0.00     0.031 C 
ATOM     59  C   UNL A   1      44.398  32.515  30.064  1.00  0.00     0.034 A 
BRANCH  46  60
ATOM     60  C   UNL A   1      46.845  27.934  26.661  1.00  0.00     0.023 A 
ATOM     61  C   UNL A   1      47.122  28.121  25.295  1.00  0.00     0.031 A 
ATOM     62  C   UNL A   1      47.718  27.117  27.403  1.00  0.00     0.131 A 
ATOM     63  C   UNL A   1      48.186  27.430  24.696  1.00  0.00     0.055 A 
ATOM     64  C   UNL A   1      48.827  26.503  26.818  1.00  0.00     0.041 A 
ATOM     65  F   UNL A   1      47.493  26.882  28.705  1.00  0.00    -0.206 F 
ATOM     66  C   UNL A   1      49.056  26.642  25.454  1.00  0.00     0.022 A 
BRANCH  63  67
ATOM     67  S   UNL A   1      48.313  27.437  22.886  1.00  0.00     0.124 S 
ATOM     68  O   UNL A   1      49.591  28.113  22.681  1.00  0.00    -0.237 OA
ATOM     69  O   UNL A   1      48.283  26.014  22.564  1.00  0.00    -0.237 OA
ATOM     70  O   UNL A   1      47.139  28.198  22.463  1.00  0.00    -0.744 OA
ENDBRANCH  63  67
ENDBRANCH  46  60
BRANCH  47  71
ATOM     71  C   UNL A   1      38.628  31.162  31.399  1.00  0.00     0.023 A 
ATOM     72  C   UNL A   1      37.630  31.987  30.862  1.00  0.00     0.031 A 
ATOM     73  C   UNL A   1      38.489  30.738  32.735  1.00  0.00     0.131 A 
ATOM     74  C   UNL A   1      36.546  32.383  31.665  1.00  0.00     0.055 A 
ATOM     75  C   UNL A   1      37.389  31.097  33.513  1.00  0.00     0.041 A 
ATOM     76  F   UNL A   1      39.417  29.946  33.296  1.00  0.00    -0.206 F 
ATOM     77  C   UNL A   1      36.412  31.932  32.980  1.00  0.00     0.022 A 
BRANCH  74  78
ATOM     78  S   UNL A   1      35.333  33.544  30.979  1.00  0.00     0.124 S 
ATOM     79  O   UNL A   1      35.888  33.807  29.657  1.00  0.00    -0.237 OA
ATOM     80  O   UNL A   1      34.105  32.757  31.016  1.00  0.00    -0.237 OA
ATOM     81  O   UNL A   1      35.376  34.670  31.910  1.00  0.00    -0.744 OA
ENDBRANCH  74  78
ENDBRANCH  47  71
BRANCH  59  82
ATOM     82  C   UNL A   1      45.050  33.800  30.514  1.00  0.00     0.023 A 
ATOM     83  C   UNL A   1      45.776  33.890  31.714  1.00  0.00     0.031 A 
ATOM     84  C   UNL A   1      44.972  34.944  29.699  1.00  0.00     0.131 A 
ATOM     85  C   UNL A   1      46.371  35.108  32.079  1.00  0.00     0.055 A 
ATOM     86  C   UNL A   1      45.608  36.138  30.042  1.00  0.00     0.041 A 
ATOM     87  F   UNL A   1      44.289  34.913  28.543  1.00  0.00    -0.206 F 
ATOM     88  C   UNL A   1      46.307  36.226  31.242  1.00  0.00     0.022 A 
BRANCH  85  89
ATOM     89  S   UNL A   1      47.191  35.236  33.692  1.00  0.00     0.124 S 
ATOM     90  O   UNL A   1      47.479  33.838  33.996  1.00  0.00    -0.237 OA
ATOM     91  O   UNL A   1      48.346  36.075  33.392  1.00  0.00    -0.237 OA
ATOM     92  O   UNL A   1      46.179  35.858  34.544  1.00  0.00    -0.744 OA
ENDBRANCH  85  89
ENDBRANCH  59  82
ENDBRANCH  33  34
ENDBRANCH  26  28
ENDBRANCH  25  26
ENDBRANCH  24  25
ENDBRANCH  23  24
ENDBRANCH   1  23
TORSDOF 20
ENDMDL
