MODEL 1
REMARK VINA RESULT:     -11.2      0.000      0.000
REMARK SMILES O=C(/C=C/c1ccccc1Oc1cccc(Cl)c1)OCCOCCOC(=O)c1ccc(-c2c3nc(c(-c4cc(S(=O)(=O)[O-])ccc4F)c4ccc([nH]4)c(-c4cc(S(=O)(=O)[O-])ccc4F)c4nc(c(-c5cc(S(=O)(=O)[O-])ccc5F)c5ccc2[nH]5)C=C4)C=C3)cc1
REMARK SMILES IDX 22 1 21 2 20 3 19 4 2 5 1 6 3 7 4 8 5 9 6 10 10 11 7 12 9 13
REMARK SMILES IDX 8 14 11 15 12 16 13 17 18 18 14 19 16 20 15 21 17 22 23 23
REMARK SMILES IDX 24 24 25 25 26 26 27 27 28 28 29 29 90 30 30 31 89 32 31 33
REMARK SMILES IDX 32 34 33 35 83 36 34 37 88 38 82 39 84 40 35 41 87 42 81 43
REMARK SMILES IDX 80 44 36 46 68 47 48 48 67 49 49 50 52 51 66 52 85 53 50 54
REMARK SMILES IDX 51 55 65 57 86 58 53 59 37 60 38 61 46 62 39 63 45 64 47 65
REMARK SMILES IDX 44 66 40 67 41 68 42 69 43 70 69 71 70 72 78 73 71 74 77 75
REMARK SMILES IDX 79 76 76 77 72 78 73 79 74 80 75 81 54 82 55 83 63 84 56 85
REMARK SMILES IDX 62 86 64 87 61 88 57 89 58 90 59 91 60 92
REMARK H PARENT 84 45 52 56
REMARK Flexibility Score: inf
ROOT
ATOM      1  O   UNL A   1      31.209  28.804  24.750  1.00  0.00    -0.374 OA
ENDROOT
BRANCH   1   2
ATOM      2  C   UNL A   1      31.636  28.494  23.424  1.00  0.00     0.202 C 
BRANCH   2   3
ATOM      3  C   UNL A   1      33.089  28.715  23.008  1.00  0.00     0.261 C 
BRANCH   3   4
ATOM      4  O   UNL A   1      33.959  27.588  23.206  1.00  0.00    -0.460 OA
BRANCH   4   5
ATOM      5  C   UNL A   1      33.750  26.357  22.702  1.00  0.00     0.330 C 
ATOM      6  O   UNL A   1      33.598  26.189  21.495  1.00  0.00    -0.247 OA
BRANCH   5   7
ATOM      7  C   UNL A   1      33.621  25.198  23.603  1.00  0.00     0.094 C 
ATOM      8  C   UNL A   1      34.087  25.117  24.854  1.00  0.00     0.019 C 
BRANCH   8   9
ATOM      9  C   UNL A   1      33.975  23.912  25.663  1.00  0.00     0.017 A 
ATOM     10  C   UNL A   1      32.876  23.881  26.547  1.00  0.00     0.012 A 
ATOM     11  C   UNL A   1      34.915  22.867  25.668  1.00  0.00     0.134 A 
ATOM     12  C   UNL A   1      32.714  22.834  27.449  1.00  0.00     0.001 A 
ATOM     13  C   UNL A   1      34.725  21.815  26.578  1.00  0.00     0.048 A 
ATOM     14  C   UNL A   1      33.643  21.800  27.466  1.00  0.00     0.004 A 
BRANCH  11  15
ATOM     15  O   UNL A   1      36.064  22.714  24.904  1.00  0.00    -0.457 OA
BRANCH  15  16
ATOM     16  C   UNL A   1      37.308  22.762  25.481  1.00  0.00     0.128 A 
ATOM     17  C   UNL A   1      37.711  23.935  26.125  1.00  0.00     0.047 A 
ATOM     18  C   UNL A   1      38.167  21.661  25.416  1.00  0.00     0.067 A 
ATOM     19  C   UNL A   1      38.939  23.974  26.791  1.00  0.00     0.005 A 
ATOM     20  C   UNL A   1      39.373  21.695  26.117  1.00  0.00     0.044 A 
ATOM     21  C   UNL A   1      39.763  22.845  26.803  1.00  0.00     0.021 A 
ATOM     22  Cl  UNL A   1      40.333  20.271  26.228  1.00  0.00    -0.084 Cl
ENDBRANCH  15  16
ENDBRANCH  11  15
ENDBRANCH   8   9
ENDBRANCH   5   7
ENDBRANCH   4   5
ENDBRANCH   3   4
ENDBRANCH   2   3
ENDBRANCH   1   2
BRANCH   1  23
ATOM     23  C   UNL A   1      31.620  30.072  25.277  1.00  0.00     0.202 C 
BRANCH  23  24
ATOM     24  C   UNL A   1      31.968  30.182  26.765  1.00  0.00     0.261 C 
BRANCH  24  25
ATOM     25  O   UNL A   1      33.377  30.124  26.998  1.00  0.00    -0.460 OA
BRANCH  25  26
ATOM     26  C   UNL A   1      33.911  31.306  27.407  1.00  0.00     0.338 C 
ATOM     27  O   UNL A   1      33.331  32.366  27.521  1.00  0.00    -0.246 OA
BRANCH  26  28
ATOM     28  C   UNL A   1      35.251  31.033  27.973  1.00  0.00     0.060 A 
ATOM     29  C   UNL A   1      35.546  29.702  28.304  1.00  0.00     0.016 A 
ATOM     30  C   UNL A   1      36.218  32.033  28.104  1.00  0.00     0.016 A 
ATOM     31  C   UNL A   1      36.789  29.371  28.826  1.00  0.00     0.010 A 
ATOM     32  C   UNL A   1      37.454  31.709  28.660  1.00  0.00     0.010 A 
ATOM     33  C   UNL A   1      37.714  30.390  29.070  1.00  0.00    -0.014 A 
BRANCH  33  34
ATOM     34  C   UNL A   1      38.797  30.139  30.042  1.00  0.00     0.031 A 
ATOM     35  C   UNL A   1      39.896  29.209  29.605  1.00  0.00     0.074 A 
ATOM     36  C   UNL A   1      38.816  30.739  31.241  1.00  0.00     0.049 A 
ATOM     37  N   UNL A   1      40.911  28.745  30.279  1.00  0.00    -0.248 NA
ATOM     38  C   UNL A   1      39.827  28.732  28.211  1.00  0.00     0.031 C 
ATOM     39  C   UNL A   1      37.833  31.710  31.717  1.00  0.00     0.029 A 
ATOM     40  N   UNL A   1      39.698  30.609  32.281  1.00  0.00    -0.354 N 
ATOM     41  C   UNL A   1      41.596  27.915  29.397  1.00  0.00     0.074 A 
ATOM     42  C   UNL A   1      40.857  27.906  28.156  1.00  0.00     0.031 C 
ATOM     43  C   UNL A   1      38.160  32.080  32.968  1.00  0.00     0.029 A 
ATOM     44  C   UNL A   1      39.345  31.335  33.391  1.00  0.00     0.049 A 
ATOM     45  H   UNL A   1      40.505  30.048  32.236  1.00  0.00     0.167 HD
ATOM     46  C   UNL A   1      42.744  27.230  29.607  1.00  0.00     0.034 A 
ATOM     47  C   UNL A   1      39.905  31.360  34.616  1.00  0.00     0.034 A 
ATOM     48  C   UNL A   1      43.443  27.245  30.865  1.00  0.00     0.049 A 
ATOM     49  C   UNL A   1      41.124  30.501  34.866  1.00  0.00     0.074 A 
ATOM     50  C   UNL A   1      44.607  26.586  31.214  1.00  0.00     0.029 A 
ATOM     51  N   UNL A   1      43.031  27.951  31.990  1.00  0.00    -0.354 N 
ATOM     52  N   UNL A   1      41.760  29.704  34.034  1.00  0.00    -0.248 NA
ATOM     53  C   UNL A   1      41.703  30.549  36.213  1.00  0.00     0.031 C 
ATOM     54  C   UNL A   1      44.854  26.831  32.569  1.00  0.00     0.029 A 
ATOM     55  C   UNL A   1      43.898  27.718  33.042  1.00  0.00     0.049 A 
ATOM     56  H   UNL A   1      42.237  28.533  32.031  1.00  0.00     0.167 HD
ATOM     57  C   UNL A   1      42.835  29.186  34.751  1.00  0.00     0.074 A 
ATOM     58  C   UNL A   1      42.767  29.771  36.075  1.00  0.00     0.031 C 
ATOM     59  C   UNL A   1      43.799  28.312  34.356  1.00  0.00     0.034 A 
BRANCH  46  60
ATOM     60  C   UNL A   1      43.257  26.372  28.477  1.00  0.00     0.023 A 
ATOM     61  C   UNL A   1      44.336  26.776  27.669  1.00  0.00     0.031 A 
ATOM     62  C   UNL A   1      42.626  25.154  28.168  1.00  0.00     0.131 A 
ATOM     63  C   UNL A   1      44.702  26.008  26.554  1.00  0.00     0.055 A 
ATOM     64  C   UNL A   1      43.051  24.351  27.108  1.00  0.00     0.041 A 
ATOM     65  F   UNL A   1      41.569  24.733  28.880  1.00  0.00    -0.206 F 
ATOM     66  C   UNL A   1      44.086  24.783  26.284  1.00  0.00     0.022 A 
BRANCH  63  67
ATOM     67  S   UNL A   1      45.891  26.704  25.373  1.00  0.00     0.124 S 
ATOM     68  O   UNL A   1      46.274  25.519  24.608  1.00  0.00    -0.237 OA
ATOM     69  O   UNL A   1      45.089  27.692  24.662  1.00  0.00    -0.237 OA
ATOM     70  O   UNL A   1      46.943  27.251  26.228  1.00  0.00    -0.744 OA
ENDBRANCH  63  67
ENDBRANCH  46  60
BRANCH  47  71
ATOM     71  C   UNL A   1      39.312  32.188  35.706  1.00  0.00     0.023 A 
ATOM     72  C   UNL A   1      39.734  33.509  35.921  1.00  0.00     0.031 A 
ATOM     73  C   UNL A   1      38.349  31.654  36.580  1.00  0.00     0.131 A 
ATOM     74  C   UNL A   1      39.229  34.236  37.010  1.00  0.00     0.055 A 
ATOM     75  C   UNL A   1      37.806  32.401  37.627  1.00  0.00     0.041 A 
ATOM     76  F   UNL A   1      37.913  30.394  36.424  1.00  0.00    -0.206 F 
ATOM     77  C   UNL A   1      38.257  33.697  37.855  1.00  0.00     0.022 A 
BRANCH  74  78
ATOM     78  S   UNL A   1      39.936  35.869  37.363  1.00  0.00     0.124 S 
ATOM     79  O   UNL A   1      41.332  35.537  37.623  1.00  0.00    -0.237 OA
ATOM     80  O   UNL A   1      39.666  36.588  36.122  1.00  0.00    -0.237 OA
ATOM     81  O   UNL A   1      39.174  36.326  38.524  1.00  0.00    -0.744 OA
ENDBRANCH  74  78
ENDBRANCH  47  71
BRANCH  59  82
ATOM     82  C   UNL A   1      44.882  27.986  35.355  1.00  0.00     0.023 A 
ATOM     83  C   UNL A   1      44.767  26.908  36.248  1.00  0.00     0.031 A 
ATOM     84  C   UNL A   1      46.049  28.770  35.408  1.00  0.00     0.131 A 
ATOM     85  C   UNL A   1      45.774  26.681  37.198  1.00  0.00     0.055 A 
ATOM     86  C   UNL A   1      47.080  28.494  36.306  1.00  0.00     0.041 A 
ATOM     87  F   UNL A   1      46.210  29.814  34.577  1.00  0.00    -0.206 F 
ATOM     88  C   UNL A   1      46.938  27.454  37.218  1.00  0.00     0.022 A 
BRANCH  85  89
ATOM     89  S   UNL A   1      45.493  25.427  38.477  1.00  0.00     0.124 S 
ATOM     90  O   UNL A   1      44.934  26.223  39.564  1.00  0.00    -0.237 OA
ATOM     91  O   UNL A   1      44.570  24.510  37.818  1.00  0.00    -0.237 OA
ATOM     92  O   UNL A   1      46.829  24.888  38.727  1.00  0.00    -0.744 OA
ENDBRANCH  85  89
ENDBRANCH  59  82
ENDBRANCH  33  34
ENDBRANCH  26  28
ENDBRANCH  25  26
ENDBRANCH  24  25
ENDBRANCH  23  24
ENDBRANCH   1  23
TORSDOF 20
ENDMDL
MODEL 2
REMARK VINA RESULT:     -11.0      4.884     10.329
REMARK SMILES O=C(/C=C/c1ccccc1Oc1cccc(Cl)c1)OCCOCCOC(=O)c1ccc(-c2c3nc(c(-c4cc(S(=O)(=O)[O-])ccc4F)c4ccc([nH]4)c(-c4cc(S(=O)(=O)[O-])ccc4F)c4nc(c(-c5cc(S(=O)(=O)[O-])ccc5F)c5ccc2[nH]5)C=C4)C=C3)cc1
REMARK SMILES IDX 22 1 21 2 20 3 19 4 2 5 1 6 3 7 4 8 5 9 6 10 10 11 7 12 9 13
REMARK SMILES IDX 8 14 11 15 12 16 13 17 18 18 14 19 16 20 15 21 17 22 23 23
REMARK SMILES IDX 24 24 25 25 26 26 27 27 28 28 29 29 90 30 30 31 89 32 31 33
REMARK SMILES IDX 32 34 33 35 83 36 34 37 88 38 82 39 84 40 35 41 87 42 81 43
REMARK SMILES IDX 80 44 36 46 68 47 48 48 67 49 49 50 52 51 66 52 85 53 50 54
REMARK SMILES IDX 51 55 65 57 86 58 53 59 37 60 38 61 46 62 39 63 45 64 47 65
REMARK SMILES IDX 44 66 40 67 41 68 42 69 43 70 69 71 70 72 78 73 71 74 77 75
REMARK SMILES IDX 79 76 76 77 72 78 73 79 74 80 75 81 54 82 55 83 63 84 56 85
REMARK SMILES IDX 62 86 64 87 61 88 57 89 58 90 59 91 60 92
REMARK H PARENT 84 45 52 56
REMARK Flexibility Score: inf
ROOT
ATOM      1  O   UNL A   1      34.914  21.527  26.185  1.00  0.00    -0.374 OA
ENDROOT
BRANCH   1   2
ATOM      2  C   UNL A   1      33.564  21.133  26.431  1.00  0.00     0.202 C 
BRANCH   2   3
ATOM      3  C   UNL A   1      32.460  21.491  25.437  1.00  0.00     0.261 C 
BRANCH   3   4
ATOM      4  O   UNL A   1      31.172  21.744  26.022  1.00  0.00    -0.460 OA
BRANCH   4   5
ATOM      5  C   UNL A   1      30.710  22.959  26.372  1.00  0.00     0.330 C 
ATOM      6  O   UNL A   1      30.062  23.111  27.406  1.00  0.00    -0.247 OA
BRANCH   5   7
ATOM      7  C   UNL A   1      30.906  24.114  25.480  1.00  0.00     0.094 C 
ATOM      8  C   UNL A   1      30.785  25.401  25.820  1.00  0.00     0.019 C 
BRANCH   8   9
ATOM      9  C   UNL A   1      30.934  26.489  24.864  1.00  0.00     0.017 A 
ATOM     10  C   UNL A   1      30.887  26.109  23.507  1.00  0.00     0.012 A 
ATOM     11  C   UNL A   1      31.200  27.825  25.214  1.00  0.00     0.134 A 
ATOM     12  C   UNL A   1      31.121  27.036  22.496  1.00  0.00     0.001 A 
ATOM     13  C   UNL A   1      31.420  28.746  24.177  1.00  0.00     0.048 A 
ATOM     14  C   UNL A   1      31.391  28.357  22.833  1.00  0.00     0.004 A 
BRANCH  11  15
ATOM     15  O   UNL A   1      31.308  28.399  26.473  1.00  0.00    -0.457 OA
BRANCH  15  16
ATOM     16  C   UNL A   1      32.329  29.269  26.768  1.00  0.00     0.128 A 
ATOM     17  C   UNL A   1      32.039  30.629  26.909  1.00  0.00     0.047 A 
ATOM     18  C   UNL A   1      33.640  28.806  26.910  1.00  0.00     0.067 A 
ATOM     19  C   UNL A   1      33.048  31.517  27.291  1.00  0.00     0.005 A 
ATOM     20  C   UNL A   1      34.632  29.693  27.331  1.00  0.00     0.044 A 
ATOM     21  C   UNL A   1      34.343  31.044  27.522  1.00  0.00     0.021 A 
ATOM     22  Cl  UNL A   1      36.197  29.093  27.725  1.00  0.00    -0.084 Cl
ENDBRANCH  15  16
ENDBRANCH  11  15
ENDBRANCH   8   9
ENDBRANCH   5   7
ENDBRANCH   4   5
ENDBRANCH   3   4
ENDBRANCH   2   3
ENDBRANCH   1   2
BRANCH   1  23
ATOM     23  C   UNL A   1      35.509  21.054  24.969  1.00  0.00     0.202 C 
BRANCH  23  24
ATOM     24  C   UNL A   1      36.919  20.455  25.015  1.00  0.00     0.261 C 
BRANCH  24  25
ATOM     25  O   UNL A   1      37.930  21.459  25.128  1.00  0.00    -0.460 OA
BRANCH  25  26
ATOM     26  C   UNL A   1      38.994  21.078  25.883  1.00  0.00     0.338 C 
ATOM     27  O   UNL A   1      39.561  20.005  25.854  1.00  0.00    -0.246 OA
BRANCH  26  28
ATOM     28  C   UNL A   1      39.542  22.283  26.546  1.00  0.00     0.060 A 
ATOM     29  C   UNL A   1      38.998  23.521  26.172  1.00  0.00     0.016 A 
ATOM     30  C   UNL A   1      40.501  22.200  27.559  1.00  0.00     0.016 A 
ATOM     31  C   UNL A   1      39.455  24.691  26.763  1.00  0.00     0.010 A 
ATOM     32  C   UNL A   1      40.985  23.376  28.129  1.00  0.00     0.010 A 
ATOM     33  C   UNL A   1      40.499  24.620  27.690  1.00  0.00    -0.014 A 
BRANCH  33  34
ATOM     34  C   UNL A   1      41.298  25.834  27.943  1.00  0.00     0.031 A 
ATOM     35  C   UNL A   1      40.622  26.943  28.704  1.00  0.00     0.074 A 
ATOM     36  C   UNL A   1      42.575  25.929  27.546  1.00  0.00     0.049 A 
ATOM     37  N   UNL A   1      41.050  28.141  28.984  1.00  0.00    -0.248 NA
ATOM     38  C   UNL A   1      39.266  26.653  29.206  1.00  0.00     0.031 C 
ATOM     39  C   UNL A   1      43.332  24.877  26.871  1.00  0.00     0.029 A 
ATOM     40  N   UNL A   1      43.459  26.971  27.650  1.00  0.00    -0.354 N 
ATOM     41  C   UNL A   1      40.016  28.752  29.687  1.00  0.00     0.074 A 
ATOM     42  C   UNL A   1      38.925  27.807  29.750  1.00  0.00     0.031 C 
ATOM     43  C   UNL A   1      44.569  25.334  26.607  1.00  0.00     0.029 A 
ATOM     44  C   UNL A   1      44.670  26.723  27.052  1.00  0.00     0.049 A 
ATOM     45  H   UNL A   1      43.246  27.815  28.108  1.00  0.00     0.167 HD
ATOM     46  C   UNL A   1      39.987  29.989  30.235  1.00  0.00     0.034 A 
ATOM     47  C   UNL A   1      45.720  27.545  26.863  1.00  0.00     0.034 A 
ATOM     48  C   UNL A   1      41.086  30.914  30.134  1.00  0.00     0.049 A 
ATOM     49  C   UNL A   1      45.627  28.960  27.386  1.00  0.00     0.074 A 
ATOM     50  C   UNL A   1      41.181  32.199  30.631  1.00  0.00     0.029 A 
ATOM     51  N   UNL A   1      42.282  30.650  29.475  1.00  0.00    -0.354 N 
ATOM     52  N   UNL A   1      44.640  29.540  28.035  1.00  0.00    -0.248 NA
ATOM     53  C   UNL A   1      46.787  29.828  27.156  1.00  0.00     0.031 C 
ATOM     54  C   UNL A   1      42.400  32.740  30.207  1.00  0.00     0.029 A 
ATOM     55  C   UNL A   1      43.107  31.760  29.525  1.00  0.00     0.049 A 
ATOM     56  H   UNL A   1      42.509  29.798  29.037  1.00  0.00     0.167 HD
ATOM     57  C   UNL A   1      45.080  30.830  28.322  1.00  0.00     0.074 A 
ATOM     58  C   UNL A   1      46.422  30.936  27.786  1.00  0.00     0.031 C 
ATOM     59  C   UNL A   1      44.441  31.837  28.975  1.00  0.00     0.034 A 
BRANCH  46  60
ATOM     60  C   UNL A   1      38.713  30.414  30.922  1.00  0.00     0.023 A 
ATOM     61  C   UNL A   1      37.831  31.344  30.340  1.00  0.00     0.031 A 
ATOM     62  C   UNL A   1      38.399  29.922  32.200  1.00  0.00     0.131 A 
ATOM     63  C   UNL A   1      36.721  31.804  31.065  1.00  0.00     0.055 A 
ATOM     64  C   UNL A   1      37.247  30.319  32.881  1.00  0.00     0.041 A 
ATOM     65  F   UNL A   1      39.220  29.060  32.821  1.00  0.00    -0.206 F 
ATOM     66  C   UNL A   1      36.407  31.277  32.320  1.00  0.00     0.022 A 
BRANCH  63  67
ATOM     67  S   UNL A   1      35.780  33.211  30.411  1.00  0.00     0.124 S 
ATOM     68  O   UNL A   1      34.409  32.714  30.498  1.00  0.00    -0.237 OA
ATOM     69  O   UNL A   1      36.131  34.283  31.334  1.00  0.00    -0.237 OA
ATOM     70  O   UNL A   1      36.294  33.364  29.051  1.00  0.00    -0.744 OA
ENDBRANCH  63  67
ENDBRANCH  46  60
BRANCH  47  71
ATOM     71  C   UNL A   1      46.928  27.076  26.124  1.00  0.00     0.023 A 
ATOM     72  C   UNL A   1      47.972  26.417  26.790  1.00  0.00     0.031 A 
ATOM     73  C   UNL A   1      47.078  27.324  24.748  1.00  0.00     0.131 A 
ATOM     74  C   UNL A   1      49.139  26.069  26.092  1.00  0.00     0.055 A 
ATOM     75  C   UNL A   1      48.216  26.925  24.045  1.00  0.00     0.041 A 
ATOM     76  F   UNL A   1      46.113  27.957  24.062  1.00  0.00    -0.206 F 
ATOM     77  C   UNL A   1      49.261  26.304  24.720  1.00  0.00     0.022 A 
BRANCH  74  78
ATOM     78  S   UNL A   1      50.537  25.389  27.026  1.00  0.00     0.124 S 
ATOM     79  O   UNL A   1      50.942  26.536  27.830  1.00  0.00    -0.237 OA
ATOM     80  O   UNL A   1      49.909  24.287  27.747  1.00  0.00    -0.237 OA
ATOM     81  O   UNL A   1      51.482  24.992  25.983  1.00  0.00    -0.744 OA
ENDBRANCH  74  78
ENDBRANCH  47  71
BRANCH  59  82
ATOM     82  C   UNL A   1      45.213  33.115  29.188  1.00  0.00     0.023 A 
ATOM     83  C   UNL A   1      45.171  34.171  28.262  1.00  0.00     0.031 A 
ATOM     84  C   UNL A   1      46.002  33.276  30.342  1.00  0.00     0.131 A 
ATOM     85  C   UNL A   1      45.953  35.315  28.476  1.00  0.00     0.055 A 
ATOM     86  C   UNL A   1      46.720  34.447  30.585  1.00  0.00     0.041 A 
ATOM     87  F   UNL A   1      46.079  32.298  31.260  1.00  0.00    -0.206 F 
ATOM     88  C   UNL A   1      46.710  35.469  29.641  1.00  0.00     0.022 A 
BRANCH  85  89
ATOM     89  S   UNL A   1      46.051  36.558  27.159  1.00  0.00     0.124 S 
ATOM     90  O   UNL A   1      44.676  37.043  27.097  1.00  0.00    -0.237 OA
ATOM     91  O   UNL A   1      47.035  37.497  27.689  1.00  0.00    -0.237 OA
ATOM     92  O   UNL A   1      46.491  35.790  25.995  1.00  0.00    -0.744 OA
ENDBRANCH  85  89
ENDBRANCH  59  82
ENDBRANCH  33  34
ENDBRANCH  26  28
ENDBRANCH  25  26
ENDBRANCH  24  25
ENDBRANCH  23  24
ENDBRANCH   1  23
TORSDOF 20
ENDMDL
MODEL 3
REMARK VINA RESULT:     -10.9      2.302      2.725
REMARK SMILES O=C(/C=C/c1ccccc1Oc1cccc(Cl)c1)OCCOCCOC(=O)c1ccc(-c2c3nc(c(-c4cc(S(=O)(=O)[O-])ccc4F)c4ccc([nH]4)c(-c4cc(S(=O)(=O)[O-])ccc4F)c4nc(c(-c5cc(S(=O)(=O)[O-])ccc5F)c5ccc2[nH]5)C=C4)C=C3)cc1
REMARK SMILES IDX 22 1 21 2 20 3 19 4 2 5 1 6 3 7 4 8 5 9 6 10 10 11 7 12 9 13
REMARK SMILES IDX 8 14 11 15 12 16 13 17 18 18 14 19 16 20 15 21 17 22 23 23
REMARK SMILES IDX 24 24 25 25 26 26 27 27 28 28 29 29 90 30 30 31 89 32 31 33
REMARK SMILES IDX 32 34 33 35 83 36 34 37 88 38 82 39 84 40 35 41 87 42 81 43
REMARK SMILES IDX 80 44 36 46 68 47 48 48 67 49 49 50 52 51 66 52 85 53 50 54
REMARK SMILES IDX 51 55 65 57 86 58 53 59 37 60 38 61 46 62 39 63 45 64 47 65
REMARK SMILES IDX 44 66 40 67 41 68 42 69 43 70 69 71 70 72 78 73 71 74 77 75
REMARK SMILES IDX 79 76 76 77 72 78 73 79 74 80 75 81 54 82 55 83 63 84 56 85
REMARK SMILES IDX 62 86 64 87 61 88 57 89 58 90 59 91 60 92
REMARK H PARENT 84 45 52 56
REMARK Flexibility Score: inf
ROOT
ATOM      1  O   UNL A   1      31.060  29.107  24.737  1.00  0.00    -0.374 OA
ENDROOT
BRANCH   1   2
ATOM      2  C   UNL A   1      31.470  28.908  23.385  1.00  0.00     0.202 C 
BRANCH   2   3
ATOM      3  C   UNL A   1      32.945  29.015  23.001  1.00  0.00     0.261 C 
BRANCH   3   4
ATOM      4  O   UNL A   1      33.754  27.884  23.363  1.00  0.00    -0.460 OA
BRANCH   4   5
ATOM      5  C   UNL A   1      33.597  26.638  22.878  1.00  0.00     0.330 C 
ATOM      6  O   UNL A   1      33.874  26.379  21.709  1.00  0.00    -0.247 OA
BRANCH   5   7
ATOM      7  C   UNL A   1      33.013  25.580  23.721  1.00  0.00     0.094 C 
ATOM      8  C   UNL A   1      32.814  25.646  25.041  1.00  0.00     0.019 C 
BRANCH   8   9
ATOM      9  C   UNL A   1      32.288  24.533  25.818  1.00  0.00     0.017 A 
ATOM     10  C   UNL A   1      30.884  24.399  25.803  1.00  0.00     0.012 A 
ATOM     11  C   UNL A   1      33.070  23.680  26.616  1.00  0.00     0.134 A 
ATOM     12  C   UNL A   1      30.249  23.442  26.589  1.00  0.00     0.001 A 
ATOM     13  C   UNL A   1      32.409  22.713  27.390  1.00  0.00     0.048 A 
ATOM     14  C   UNL A   1      31.014  22.599  27.386  1.00  0.00     0.004 A 
BRANCH  11  15
ATOM     15  O   UNL A   1      34.447  23.655  26.788  1.00  0.00    -0.457 OA
BRANCH  15  16
ATOM     16  C   UNL A   1      35.263  23.048  25.866  1.00  0.00     0.128 A 
ATOM     17  C   UNL A   1      36.061  23.845  25.040  1.00  0.00     0.047 A 
ATOM     18  C   UNL A   1      35.288  21.656  25.743  1.00  0.00     0.067 A 
ATOM     19  C   UNL A   1      36.959  23.244  24.154  1.00  0.00     0.005 A 
ATOM     20  C   UNL A   1      36.216  21.064  24.885  1.00  0.00     0.044 A 
ATOM     21  C   UNL A   1      37.051  21.851  24.091  1.00  0.00     0.021 A 
ATOM     22  Cl  UNL A   1      36.409  19.354  24.890  1.00  0.00    -0.084 Cl
ENDBRANCH  15  16
ENDBRANCH  11  15
ENDBRANCH   8   9
ENDBRANCH   5   7
ENDBRANCH   4   5
ENDBRANCH   3   4
ENDBRANCH   2   3
ENDBRANCH   1   2
BRANCH   1  23
ATOM     23  C   UNL A   1      31.383  30.374  25.326  1.00  0.00     0.202 C 
BRANCH  23  24
ATOM     24  C   UNL A   1      31.984  30.407  26.736  1.00  0.00     0.261 C 
BRANCH  24  25
ATOM     25  O   UNL A   1      33.411  30.472  26.714  1.00  0.00    -0.460 OA
BRANCH  25  26
ATOM     26  C   UNL A   1      33.921  31.501  27.439  1.00  0.00     0.338 C 
ATOM     27  O   UNL A   1      33.311  32.452  27.884  1.00  0.00    -0.246 OA
BRANCH  26  28
ATOM     28  C   UNL A   1      35.295  31.136  27.854  1.00  0.00     0.060 A 
ATOM     29  C   UNL A   1      35.605  29.768  27.901  1.00  0.00     0.016 A 
ATOM     30  C   UNL A   1      36.273  32.100  28.113  1.00  0.00     0.016 A 
ATOM     31  C   UNL A   1      36.878  29.354  28.268  1.00  0.00     0.010 A 
ATOM     32  C   UNL A   1      37.541  31.685  28.515  1.00  0.00     0.010 A 
ATOM     33  C   UNL A   1      37.822  30.314  28.644  1.00  0.00    -0.014 A 
BRANCH  33  34
ATOM     34  C   UNL A   1      38.964  29.888  29.476  1.00  0.00     0.031 A 
ATOM     35  C   UNL A   1      39.849  28.811  28.911  1.00  0.00     0.074 A 
ATOM     36  C   UNL A   1      39.220  30.461  30.661  1.00  0.00     0.049 A 
ATOM     37  N   UNL A   1      40.856  28.189  29.457  1.00  0.00    -0.248 NA
ATOM     38  C   UNL A   1      39.539  28.369  27.539  1.00  0.00     0.031 C 
ATOM     39  C   UNL A   1      38.461  31.562  31.250  1.00  0.00     0.029 A 
ATOM     40  N   UNL A   1      40.192  30.185  31.585  1.00  0.00    -0.354 N 
ATOM     41  C   UNL A   1      41.296  27.279  28.501  1.00  0.00     0.074 A 
ATOM     42  C   UNL A   1      40.418  27.399  27.360  1.00  0.00     0.031 C 
ATOM     43  C   UNL A   1      38.990  31.860  32.450  1.00  0.00     0.029 A 
ATOM     44  C   UNL A   1      40.092  30.940  32.728  1.00  0.00     0.049 A 
ATOM     45  H   UNL A   1      40.894  29.510  31.444  1.00  0.00     0.167 HD
ATOM     46  C   UNL A   1      42.344  26.426  28.571  1.00  0.00     0.034 A 
ATOM     47  C   UNL A   1      40.795  30.863  33.875  1.00  0.00     0.034 A 
ATOM     48  C   UNL A   1      43.186  26.317  29.734  1.00  0.00     0.049 A 
ATOM     49  C   UNL A   1      41.891  29.827  33.976  1.00  0.00     0.074 A 
ATOM     50  C   UNL A   1      44.270  25.486  29.940  1.00  0.00     0.029 A 
ATOM     51  N   UNL A   1      43.025  27.061  30.898  1.00  0.00    -0.354 N 
ATOM     52  N   UNL A   1      42.293  28.955  33.076  1.00  0.00    -0.248 NA
ATOM     53  C   UNL A   1      42.631  29.767  35.241  1.00  0.00     0.031 C 
ATOM     54  C   UNL A   1      44.716  25.671  31.253  1.00  0.00     0.029 A 
ATOM     55  C   UNL A   1      43.970  26.685  31.836  1.00  0.00     0.049 A 
ATOM     56  H   UNL A   1      42.339  27.755  31.034  1.00  0.00     0.167 HD
ATOM     57  C   UNL A   1      43.357  28.271  33.657  1.00  0.00     0.074 A 
ATOM     58  C   UNL A   1      43.540  28.840  34.977  1.00  0.00     0.031 C 
ATOM     59  C   UNL A   1      44.123  27.268  33.150  1.00  0.00     0.034 A 
BRANCH  46  60
ATOM     60  C   UNL A   1      42.579  25.518  27.390  1.00  0.00     0.023 A 
ATOM     61  C   UNL A   1      42.006  24.234  27.314  1.00  0.00     0.031 A 
ATOM     62  C   UNL A   1      43.431  25.918  26.346  1.00  0.00     0.131 A 
ATOM     63  C   UNL A   1      42.348  23.376  26.258  1.00  0.00     0.055 A 
ATOM     64  C   UNL A   1      43.700  25.091  25.254  1.00  0.00     0.041 A 
ATOM     65  F   UNL A   1      44.036  27.116  26.380  1.00  0.00    -0.206 F 
ATOM     66  C   UNL A   1      43.168  23.805  25.213  1.00  0.00     0.022 A 
BRANCH  63  67
ATOM     67  S   UNL A   1      41.828  21.640  26.349  1.00  0.00     0.124 S 
ATOM     68  O   UNL A   1      41.860  21.398  27.790  1.00  0.00    -0.237 OA
ATOM     69  O   UNL A   1      40.506  21.673  25.736  1.00  0.00    -0.237 OA
ATOM     70  O   UNL A   1      42.854  20.934  25.584  1.00  0.00    -0.744 OA
ENDBRANCH  63  67
ENDBRANCH  46  60
BRANCH  47  71
ATOM     71  C   UNL A   1      40.471  31.754  35.025  1.00  0.00     0.023 A 
ATOM     72  C   UNL A   1      39.460  31.418  35.938  1.00  0.00     0.031 A 
ATOM     73  C   UNL A   1      41.136  32.981  35.201  1.00  0.00     0.131 A 
ATOM     74  C   UNL A   1      39.111  32.317  36.958  1.00  0.00     0.055 A 
ATOM     75  C   UNL A   1      40.825  33.846  36.252  1.00  0.00     0.041 A 
ATOM     76  F   UNL A   1      42.108  33.356  34.354  1.00  0.00    -0.206 F 
ATOM     77  C   UNL A   1      39.797  33.522  37.131  1.00  0.00     0.022 A 
BRANCH  74  78
ATOM     78  S   UNL A   1      37.678  31.930  37.999  1.00  0.00     0.124 S 
ATOM     79  O   UNL A   1      36.703  32.911  37.539  1.00  0.00    -0.237 OA
ATOM     80  O   UNL A   1      37.410  30.541  37.640  1.00  0.00    -0.237 OA
ATOM     81  O   UNL A   1      38.178  32.135  39.358  1.00  0.00    -0.744 OA
ENDBRANCH  74  78
ENDBRANCH  47  71
BRANCH  59  82
ATOM     82  C   UNL A   1      45.258  26.769  34.009  1.00  0.00     0.023 A 
ATOM     83  C   UNL A   1      45.104  25.676  34.879  1.00  0.00     0.031 A 
ATOM     84  C   UNL A   1      46.514  27.399  33.951  1.00  0.00     0.131 A 
ATOM     85  C   UNL A   1      46.171  25.286  35.701  1.00  0.00     0.055 A 
ATOM     86  C   UNL A   1      47.593  26.960  34.718  1.00  0.00     0.041 A 
ATOM     87  F   UNL A   1      46.715  28.450  33.138  1.00  0.00    -0.206 F 
ATOM     88  C   UNL A   1      47.420  25.907  35.610  1.00  0.00     0.022 A 
BRANCH  85  89
ATOM     89  S   UNL A   1      45.875  24.023  36.967  1.00  0.00     0.124 S 
ATOM     90  O   UNL A   1      45.002  23.089  36.265  1.00  0.00    -0.237 OA
ATOM     91  O   UNL A   1      47.224  23.544  37.253  1.00  0.00    -0.237 OA
ATOM     92  O   UNL A   1      45.239  24.769  38.053  1.00  0.00    -0.744 OA
ENDBRANCH  85  89
ENDBRANCH  59  82
ENDBRANCH  33  34
ENDBRANCH  26  28
ENDBRANCH  25  26
ENDBRANCH  24  25
ENDBRANCH  23  24
ENDBRANCH   1  23
TORSDOF 20
ENDMDL
