MODEL 1
REMARK VINA RESULT:     -10.9      0.000      0.000
REMARK SMILES C[C@@H](C(=O)OCCOCCOC(=O)c1ccc(-c2c3nc(c(-c4cc(S(=O)(=O)[O-])ccc4F)c4ccc([nH]4)c(-c4cc(S(=O)(=O)[O-])ccc4F)c4nc(c(-c5cc(S(=O)(=O)[O-])ccc5F)c5ccc2[nH]5)C=C4)C=C3)cc1)c1cc(/C=C/S(C)(=O)=O)cc(C(=O)c2ccccc2)c1
REMARK SMILES IDX 8 1 7 2 6 3 5 4 3 5 4 6 2 7 1 8 77 9 78 10 96 11 79 12 87 13
REMARK SMILES IDX 86 14 80 15 81 16 82 17 83 18 84 19 85 20 88 21 89 22 90 23
REMARK SMILES IDX 91 24 95 25 92 26 94 27 93 28 9 29 10 30 11 31 12 32 13 33
REMARK SMILES IDX 14 34 15 35 76 36 16 37 75 38 17 39 18 40 19 41 69 42 20 43
REMARK SMILES IDX 74 44 68 45 70 46 21 47 73 48 67 49 66 50 22 52 54 53 34 54
REMARK SMILES IDX 53 55 35 56 38 57 52 58 71 59 36 60 37 61 51 63 72 64 39 65
REMARK SMILES IDX 23 66 24 67 32 68 25 69 31 70 33 71 30 72 26 73 27 74 28 75
REMARK SMILES IDX 29 76 55 77 56 78 64 79 57 80 63 81 65 82 62 83 58 84 59 85
REMARK SMILES IDX 60 86 61 87 40 88 41 89 49 90 42 91 48 92 50 93 47 94 43 95
REMARK SMILES IDX 44 96 45 97 46 98
REMARK H PARENT 70 51 38 62
REMARK Flexibility Score: inf
ROOT
ATOM      1  O   UNL A   1      41.993  19.170  25.681  1.00  0.00    -0.374 OA
ENDROOT
BRANCH   1   2
ATOM      2  C   UNL A   1      41.663  20.500  26.087  1.00  0.00     0.202 C 
BRANCH   2   3
ATOM      3  C   UNL A   1      40.528  20.645  27.104  1.00  0.00     0.261 C 
BRANCH   3   4
ATOM      4  O   UNL A   1      39.826  21.889  26.931  1.00  0.00    -0.463 OA
BRANCH   4   5
ATOM      5  C   UNL A   1      38.871  21.892  25.964  1.00  0.00     0.313 C 
ATOM      6  O   UNL A   1      38.538  20.896  25.327  1.00  0.00    -0.252 OA
BRANCH   5   7
ATOM      7  C   UNL A   1      38.169  23.256  25.807  1.00  0.00     0.126 C 
ATOM      8  C   UNL A   1      38.526  24.264  26.901  1.00  0.00     0.025 C 
BRANCH   7   9
ATOM      9  C   UNL A   1      36.668  23.046  25.572  1.00  0.00    -0.033 A 
ATOM     10  C   UNL A   1      36.011  21.804  25.635  1.00  0.00     0.012 A 
ATOM     11  C   UNL A   1      35.917  24.166  25.181  1.00  0.00     0.016 A 
ATOM     12  C   UNL A   1      34.657  21.666  25.265  1.00  0.00    -0.024 A 
ATOM     13  C   UNL A   1      34.593  24.047  24.755  1.00  0.00     0.023 A 
ATOM     14  C   UNL A   1      33.961  22.802  24.819  1.00  0.00     0.020 A 
BRANCH  12  15
ATOM     15  C   UNL A   1      33.922  20.385  25.297  1.00  0.00     0.020 C 
ATOM     16  C   UNL A   1      34.260  19.255  24.655  1.00  0.00     0.106 C 
BRANCH  16  17
ATOM     17  S   UNL A   1      33.261  17.837  24.813  1.00  0.00     0.168 S 
ATOM     18  C   UNL A   1      33.301  17.182  23.163  1.00  0.00     0.163 C 
ATOM     19  O   UNL A   1      33.949  16.893  25.668  1.00  0.00    -0.225 OA
ATOM     20  O   UNL A   1      31.885  18.213  25.088  1.00  0.00    -0.225 OA
ENDBRANCH  16  17
ENDBRANCH  12  15
BRANCH  13  21
ATOM     21  C   UNL A   1      33.851  25.226  24.223  1.00  0.00     0.193 C 
ATOM     22  O   UNL A   1      33.832  25.457  23.018  1.00  0.00    -0.289 OA
BRANCH  21  23
ATOM     23  C   UNL A   1      33.102  26.112  25.148  1.00  0.00     0.022 A 
ATOM     24  C   UNL A   1      31.725  25.920  25.290  1.00  0.00     0.012 A 
ATOM     25  C   UNL A   1      33.764  27.080  25.914  1.00  0.00     0.012 A 
ATOM     26  C   UNL A   1      31.019  26.661  26.239  1.00  0.00     0.001 A 
ATOM     27  C   UNL A   1      33.053  27.816  26.863  1.00  0.00     0.001 A 
ATOM     28  C   UNL A   1      31.684  27.600  27.030  1.00  0.00     0.000 A 
ENDBRANCH  21  23
ENDBRANCH  13  21
ENDBRANCH   7   9
ENDBRANCH   5   7
ENDBRANCH   4   5
ENDBRANCH   3   4
ENDBRANCH   2   3
ENDBRANCH   1   2
BRANCH   1  29
ATOM     29  C   UNL A   1      43.151  18.571  26.256  1.00  0.00     0.202 C 
BRANCH  29  30
ATOM     30  C   UNL A   1      44.327  18.251  25.322  1.00  0.00     0.261 C 
BRANCH  30  31
ATOM     31  O   UNL A   1      45.271  19.332  25.215  1.00  0.00    -0.460 OA
BRANCH  31  32
ATOM     32  C   UNL A   1      44.933  20.283  24.307  1.00  0.00     0.338 C 
ATOM     33  O   UNL A   1      44.661  20.100  23.127  1.00  0.00    -0.246 OA
BRANCH  32  34
ATOM     34  C   UNL A   1      44.737  21.587  24.967  1.00  0.00     0.060 A 
ATOM     35  C   UNL A   1      44.280  22.649  24.176  1.00  0.00     0.016 A 
ATOM     36  C   UNL A   1      45.074  21.796  26.306  1.00  0.00     0.016 A 
ATOM     37  C   UNL A   1      44.203  23.935  24.705  1.00  0.00     0.010 A 
ATOM     38  C   UNL A   1      45.006  23.093  26.833  1.00  0.00     0.010 A 
ATOM     39  C   UNL A   1      44.605  24.173  26.026  1.00  0.00    -0.014 A 
BRANCH  39  40
ATOM     40  C   UNL A   1      44.752  25.574  26.500  1.00  0.00     0.031 A 
ATOM     41  C   UNL A   1      46.107  26.226  26.430  1.00  0.00     0.074 A 
ATOM     42  C   UNL A   1      43.688  26.270  26.939  1.00  0.00     0.049 A 
ATOM     43  N   UNL A   1      46.474  27.424  26.809  1.00  0.00    -0.248 NA
ATOM     44  C   UNL A   1      47.191  25.415  25.860  1.00  0.00     0.031 C 
ATOM     45  C   UNL A   1      42.318  25.763  27.005  1.00  0.00     0.029 A 
ATOM     46  N   UNL A   1      43.594  27.553  27.416  1.00  0.00    -0.354 N 
ATOM     47  C   UNL A   1      47.833  27.512  26.521  1.00  0.00     0.074 A 
ATOM     48  C   UNL A   1      48.229  26.229  25.978  1.00  0.00     0.031 C 
ATOM     49  C   UNL A   1      41.522  26.724  27.505  1.00  0.00     0.029 A 
ATOM     50  C   UNL A   1      42.330  27.899  27.829  1.00  0.00     0.049 A 
ATOM     51  H   UNL A   1      44.362  28.169  27.458  1.00  0.00     0.167 HD
ATOM     52  C   UNL A   1      48.668  28.568  26.684  1.00  0.00     0.034 A 
ATOM     53  C   UNL A   1      41.880  29.023  28.425  1.00  0.00     0.034 A 
ATOM     54  C   UNL A   1      48.262  29.835  27.240  1.00  0.00     0.049 A 
ATOM     55  C   UNL A   1      42.848  30.153  28.683  1.00  0.00     0.074 A 
ATOM     56  C   UNL A   1      49.025  30.972  27.446  1.00  0.00     0.029 A 
ATOM     57  N   UNL A   1      46.982  30.131  27.694  1.00  0.00    -0.354 N 
ATOM     58  N   UNL A   1      44.129  30.225  28.404  1.00  0.00    -0.248 NA
ATOM     59  C   UNL A   1      42.305  31.357  29.327  1.00  0.00     0.031 C 
ATOM     60  C   UNL A   1      48.227  31.926  28.088  1.00  0.00     0.029 A 
ATOM     61  C   UNL A   1      46.944  31.418  28.210  1.00  0.00     0.049 A 
ATOM     62  H   UNL A   1      46.214  29.516  27.655  1.00  0.00     0.167 HD
ATOM     63  C   UNL A   1      44.537  31.493  28.813  1.00  0.00     0.074 A 
ATOM     64  C   UNL A   1      43.363  32.154  29.343  1.00  0.00     0.031 C 
ATOM     65  C   UNL A   1      45.768  32.062  28.750  1.00  0.00     0.034 A 
BRANCH  52  66
ATOM     66  C   UNL A   1      50.115  28.369  26.300  1.00  0.00     0.023 A 
ATOM     67  C   UNL A   1      50.540  28.420  24.960  1.00  0.00     0.031 A 
ATOM     68  C   UNL A   1      51.079  28.088  27.284  1.00  0.00     0.131 A 
ATOM     69  C   UNL A   1      51.872  28.121  24.636  1.00  0.00     0.055 A 
ATOM     70  C   UNL A   1      52.420  27.871  26.962  1.00  0.00     0.041 A 
ATOM     71  F   UNL A   1      50.729  28.003  28.578  1.00  0.00    -0.206 F 
ATOM     72  C   UNL A   1      52.821  27.871  25.630  1.00  0.00     0.022 A 
BRANCH  69  73
ATOM     73  S   UNL A   1      52.314  27.915  22.889  1.00  0.00     0.124 S 
ATOM     74  O   UNL A   1      53.442  26.990  22.977  1.00  0.00    -0.237 OA
ATOM     75  O   UNL A   1      51.087  27.372  22.315  1.00  0.00    -0.237 OA
ATOM     76  O   UNL A   1      52.660  29.268  22.461  1.00  0.00    -0.744 OA
ENDBRANCH  69  73
ENDBRANCH  52  66
BRANCH  53  77
ATOM     77  C   UNL A   1      40.459  29.124  28.865  1.00  0.00     0.023 A 
ATOM     78  C   UNL A   1      40.105  29.029  30.220  1.00  0.00     0.031 A 
ATOM     79  C   UNL A   1      39.424  29.265  27.922  1.00  0.00     0.131 A 
ATOM     80  C   UNL A   1      38.751  29.032  30.591  1.00  0.00     0.055 A 
ATOM     81  C   UNL A   1      38.081  29.319  28.301  1.00  0.00     0.041 A 
ATOM     82  F   UNL A   1      39.706  29.359  26.613  1.00  0.00    -0.206 F 
ATOM     83  C   UNL A   1      37.738  29.189  29.642  1.00  0.00     0.022 A 
BRANCH  80  84
ATOM     84  S   UNL A   1      38.326  28.744  32.331  1.00  0.00     0.124 S 
ATOM     85  O   UNL A   1      38.774  27.369  32.522  1.00  0.00    -0.237 OA
ATOM     86  O   UNL A   1      39.106  29.775  33.007  1.00  0.00    -0.237 OA
ATOM     87  O   UNL A   1      36.878  28.939  32.362  1.00  0.00    -0.744 OA
ENDBRANCH  80  84
ENDBRANCH  53  77
BRANCH  65  88
ATOM     88  C   UNL A   1      45.893  33.489  29.228  1.00  0.00     0.023 A 
ATOM     89  C   UNL A   1      45.524  34.578  28.417  1.00  0.00     0.031 A 
ATOM     90  C   UNL A   1      46.397  33.763  30.512  1.00  0.00     0.131 A 
ATOM     91  C   UNL A   1      45.716  35.889  28.878  1.00  0.00     0.055 A 
ATOM     92  C   UNL A   1      46.529  35.068  30.988  1.00  0.00     0.041 A 
ATOM     93  F   UNL A   1      46.766  32.763  31.328  1.00  0.00    -0.206 F 
ATOM     94  C   UNL A   1      46.200  36.141  30.165  1.00  0.00     0.022 A 
BRANCH  91  95
ATOM     95  S   UNL A   1      45.410  37.268  27.740  1.00  0.00     0.124 S 
ATOM     96  O   UNL A   1      45.709  38.424  28.578  1.00  0.00    -0.237 OA
ATOM     97  O   UNL A   1      46.357  37.000  26.662  1.00  0.00    -0.237 OA
ATOM     98  O   UNL A   1      44.002  37.111  27.380  1.00  0.00    -0.744 OA
ENDBRANCH  91  95
ENDBRANCH  65  88
ENDBRANCH  39  40
ENDBRANCH  32  34
ENDBRANCH  31  32
ENDBRANCH  30  31
ENDBRANCH  29  30
ENDBRANCH   1  29
TORSDOF 22
ENDMDL
MODEL 2
REMARK VINA RESULT:     -10.5      1.873      3.776
REMARK SMILES C[C@@H](C(=O)OCCOCCOC(=O)c1ccc(-c2c3nc(c(-c4cc(S(=O)(=O)[O-])ccc4F)c4ccc([nH]4)c(-c4cc(S(=O)(=O)[O-])ccc4F)c4nc(c(-c5cc(S(=O)(=O)[O-])ccc5F)c5ccc2[nH]5)C=C4)C=C3)cc1)c1cc(/C=C/S(C)(=O)=O)cc(C(=O)c2ccccc2)c1
REMARK SMILES IDX 8 1 7 2 6 3 5 4 3 5 4 6 2 7 1 8 77 9 78 10 96 11 79 12 87 13
REMARK SMILES IDX 86 14 80 15 81 16 82 17 83 18 84 19 85 20 88 21 89 22 90 23
REMARK SMILES IDX 91 24 95 25 92 26 94 27 93 28 9 29 10 30 11 31 12 32 13 33
REMARK SMILES IDX 14 34 15 35 76 36 16 37 75 38 17 39 18 40 19 41 69 42 20 43
REMARK SMILES IDX 74 44 68 45 70 46 21 47 73 48 67 49 66 50 22 52 54 53 34 54
REMARK SMILES IDX 53 55 35 56 38 57 52 58 71 59 36 60 37 61 51 63 72 64 39 65
REMARK SMILES IDX 23 66 24 67 32 68 25 69 31 70 33 71 30 72 26 73 27 74 28 75
REMARK SMILES IDX 29 76 55 77 56 78 64 79 57 80 63 81 65 82 62 83 58 84 59 85
REMARK SMILES IDX 60 86 61 87 40 88 41 89 49 90 42 91 48 92 50 93 47 94 43 95
REMARK SMILES IDX 44 96 45 97 46 98
REMARK H PARENT 70 51 38 62
REMARK Flexibility Score: inf
ROOT
ATOM      1  O   UNL A   1      42.121  19.447  25.490  1.00  0.00    -0.374 OA
ENDROOT
BRANCH   1   2
ATOM      2  C   UNL A   1      41.517  20.579  26.122  1.00  0.00     0.202 C 
BRANCH   2   3
ATOM      3  C   UNL A   1      40.039  20.447  26.497  1.00  0.00     0.261 C 
BRANCH   3   4
ATOM      4  O   UNL A   1      39.375  21.723  26.462  1.00  0.00    -0.463 OA
BRANCH   4   5
ATOM      5  C   UNL A   1      38.376  21.836  25.547  1.00  0.00     0.313 C 
ATOM      6  O   UNL A   1      37.932  20.895  24.895  1.00  0.00    -0.252 OA
BRANCH   5   7
ATOM      7  C   UNL A   1      37.778  23.256  25.474  1.00  0.00     0.126 C 
ATOM      8  C   UNL A   1      38.219  24.172  26.617  1.00  0.00     0.025 C 
BRANCH   7   9
ATOM      9  C   UNL A   1      36.263  23.174  25.245  1.00  0.00    -0.033 A 
ATOM     10  C   UNL A   1      35.430  24.276  24.983  1.00  0.00     0.012 A 
ATOM     11  C   UNL A   1      35.660  21.916  25.397  1.00  0.00     0.016 A 
ATOM     12  C   UNL A   1      34.027  24.142  24.927  1.00  0.00    -0.024 A 
ATOM     13  C   UNL A   1      34.271  21.766  25.404  1.00  0.00     0.023 A 
ATOM     14  C   UNL A   1      33.461  22.876  25.148  1.00  0.00     0.020 A 
BRANCH  12  15
ATOM     15  C   UNL A   1      33.104  25.267  24.671  1.00  0.00     0.020 C 
ATOM     16  C   UNL A   1      33.447  26.532  24.383  1.00  0.00     0.106 C 
BRANCH  16  17
ATOM     17  S   UNL A   1      32.209  27.727  24.113  1.00  0.00     0.168 S 
ATOM     18  C   UNL A   1      31.155  26.896  22.951  1.00  0.00     0.163 C 
ATOM     19  O   UNL A   1      31.457  27.884  25.341  1.00  0.00    -0.225 OA
ATOM     20  O   UNL A   1      32.761  28.886  23.434  1.00  0.00    -0.225 OA
ENDBRANCH  16  17
ENDBRANCH  12  15
BRANCH  13  21
ATOM     21  C   UNL A   1      33.645  20.445  25.693  1.00  0.00     0.193 C 
ATOM     22  O   UNL A   1      33.171  20.209  26.800  1.00  0.00    -0.289 OA
BRANCH  21  23
ATOM     23  C   UNL A   1      33.562  19.413  24.630  1.00  0.00     0.022 A 
ATOM     24  C   UNL A   1      34.505  18.381  24.625  1.00  0.00     0.012 A 
ATOM     25  C   UNL A   1      32.526  19.428  23.687  1.00  0.00     0.012 A 
ATOM     26  C   UNL A   1      34.379  17.335  23.709  1.00  0.00     0.001 A 
ATOM     27  C   UNL A   1      32.404  18.379  22.776  1.00  0.00     0.001 A 
ATOM     28  C   UNL A   1      33.325  17.330  22.793  1.00  0.00     0.000 A 
ENDBRANCH  21  23
ENDBRANCH  13  21
ENDBRANCH   7   9
ENDBRANCH   5   7
ENDBRANCH   4   5
ENDBRANCH   3   4
ENDBRANCH   2   3
ENDBRANCH   1   2
BRANCH   1  29
ATOM     29  C   UNL A   1      43.189  18.799  26.176  1.00  0.00     0.202 C 
BRANCH  29  30
ATOM     30  C   UNL A   1      44.434  18.421  25.361  1.00  0.00     0.261 C 
BRANCH  30  31
ATOM     31  O   UNL A   1      45.344  19.521  25.181  1.00  0.00    -0.460 OA
BRANCH  31  32
ATOM     32  C   UNL A   1      44.919  20.460  24.296  1.00  0.00     0.338 C 
ATOM     33  O   UNL A   1      44.595  20.270  23.131  1.00  0.00    -0.246 OA
BRANCH  32  34
ATOM     34  C   UNL A   1      44.701  21.752  24.974  1.00  0.00     0.060 A 
ATOM     35  C   UNL A   1      44.248  22.822  24.192  1.00  0.00     0.016 A 
ATOM     36  C   UNL A   1      45.014  21.942  26.321  1.00  0.00     0.016 A 
ATOM     37  C   UNL A   1      44.151  24.098  24.741  1.00  0.00     0.010 A 
ATOM     38  C   UNL A   1      44.927  23.229  26.868  1.00  0.00     0.010 A 
ATOM     39  C   UNL A   1      44.529  24.319  26.072  1.00  0.00    -0.014 A 
BRANCH  39  40
ATOM     40  C   UNL A   1      44.656  25.713  26.569  1.00  0.00     0.031 A 
ATOM     41  C   UNL A   1      46.002  26.386  26.512  1.00  0.00     0.074 A 
ATOM     42  C   UNL A   1      43.583  26.386  27.021  1.00  0.00     0.049 A 
ATOM     43  N   UNL A   1      46.352  27.582  26.911  1.00  0.00    -0.248 NA
ATOM     44  C   UNL A   1      47.098  25.600  25.927  1.00  0.00     0.031 C 
ATOM     45  C   UNL A   1      42.220  25.859  27.078  1.00  0.00     0.029 A 
ATOM     46  N   UNL A   1      43.471  27.660  27.520  1.00  0.00    -0.354 N 
ATOM     47  C   UNL A   1      47.709  27.695  26.625  1.00  0.00     0.074 A 
ATOM     48  C   UNL A   1      48.124  26.427  26.059  1.00  0.00     0.031 C 
ATOM     49  C   UNL A   1      41.410  26.799  27.594  1.00  0.00     0.029 A 
ATOM     50  C   UNL A   1      42.201  27.980  27.939  1.00  0.00     0.049 A 
ATOM     51  H   UNL A   1      44.230  28.286  27.573  1.00  0.00     0.167 HD
ATOM     52  C   UNL A   1      48.529  28.759  26.806  1.00  0.00     0.034 A 
ATOM     53  C   UNL A   1      41.736  29.087  28.554  1.00  0.00     0.034 A 
ATOM     54  C   UNL A   1      48.105  30.010  27.385  1.00  0.00     0.049 A 
ATOM     55  C   UNL A   1      42.688  30.226  28.833  1.00  0.00     0.074 A 
ATOM     56  C   UNL A   1      48.852  31.154  27.611  1.00  0.00     0.029 A 
ATOM     57  N   UNL A   1      46.822  30.280  27.844  1.00  0.00    -0.354 N 
ATOM     58  N   UNL A   1      43.968  30.321  28.555  1.00  0.00    -0.248 NA
ATOM     59  C   UNL A   1      42.128  31.411  29.497  1.00  0.00     0.031 C 
ATOM     60  C   UNL A   1      48.041  32.086  28.269  1.00  0.00     0.029 A 
ATOM     61  C   UNL A   1      46.765  31.557  28.382  1.00  0.00     0.049 A 
ATOM     62  H   UNL A   1      46.062  29.655  27.794  1.00  0.00     0.167 HD
ATOM     63  C   UNL A   1      44.358  31.587  28.986  1.00  0.00     0.074 A 
ATOM     64  C   UNL A   1      43.175  32.223  29.528  1.00  0.00     0.031 C 
ATOM     65  C   UNL A   1      45.580  32.175  28.933  1.00  0.00     0.034 A 
BRANCH  52  66
ATOM     66  C   UNL A   1      49.979  28.587  26.419  1.00  0.00     0.023 A 
ATOM     67  C   UNL A   1      50.447  28.916  25.134  1.00  0.00     0.031 A 
ATOM     68  C   UNL A   1      50.901  28.053  27.336  1.00  0.00     0.131 A 
ATOM     69  C   UNL A   1      51.776  28.638  24.780  1.00  0.00     0.055 A 
ATOM     70  C   UNL A   1      52.243  27.855  27.003  1.00  0.00     0.041 A 
ATOM     71  F   UNL A   1      50.509  27.698  28.570  1.00  0.00    -0.206 F 
ATOM     72  C   UNL A   1      52.684  28.133  25.714  1.00  0.00     0.022 A 
BRANCH  69  73
ATOM     73  S   UNL A   1      52.263  28.807  23.041  1.00  0.00     0.124 S 
ATOM     74  O   UNL A   1      52.011  27.460  22.533  1.00  0.00    -0.237 OA
ATOM     75  O   UNL A   1      51.364  29.850  22.560  1.00  0.00    -0.237 OA
ATOM     76  O   UNL A   1      53.673  29.182  23.115  1.00  0.00    -0.744 OA
ENDBRANCH  69  73
ENDBRANCH  52  66
BRANCH  53  77
ATOM     77  C   UNL A   1      40.313  29.160  28.997  1.00  0.00     0.023 A 
ATOM     78  C   UNL A   1      39.959  29.008  30.346  1.00  0.00     0.031 A 
ATOM     79  C   UNL A   1      39.279  29.331  28.058  1.00  0.00     0.131 A 
ATOM     80  C   UNL A   1      38.605  28.986  30.715  1.00  0.00     0.055 A 
ATOM     81  C   UNL A   1      37.936  29.361  28.437  1.00  0.00     0.041 A 
ATOM     82  F   UNL A   1      39.562  29.480  26.755  1.00  0.00    -0.206 F 
ATOM     83  C   UNL A   1      37.592  29.175  29.772  1.00  0.00     0.022 A 
BRANCH  80  84
ATOM     84  S   UNL A   1      38.179  28.626  32.441  1.00  0.00     0.124 S 
ATOM     85  O   UNL A   1      36.804  29.106  32.514  1.00  0.00    -0.237 OA
ATOM     86  O   UNL A   1      38.359  27.179  32.500  1.00  0.00    -0.237 OA
ATOM     87  O   UNL A   1      39.155  29.405  33.200  1.00  0.00    -0.744 OA
ENDBRANCH  80  84
ENDBRANCH  53  77
BRANCH  65  88
ATOM     88  C   UNL A   1      45.685  33.595  29.435  1.00  0.00     0.023 A 
ATOM     89  C   UNL A   1      46.019  33.888  30.770  1.00  0.00     0.031 A 
ATOM     90  C   UNL A   1      45.437  34.673  28.565  1.00  0.00     0.131 A 
ATOM     91  C   UNL A   1      46.043  35.220  31.208  1.00  0.00     0.055 A 
ATOM     92  C   UNL A   1      45.522  35.998  28.993  1.00  0.00     0.041 A 
ATOM     93  F   UNL A   1      45.112  34.452  27.282  1.00  0.00    -0.206 F 
ATOM     94  C   UNL A   1      45.813  36.278  30.325  1.00  0.00     0.022 A 
BRANCH  91  95
ATOM     95  S   UNL A   1      46.290  35.554  32.974  1.00  0.00     0.124 S 
ATOM     96  O   UNL A   1      46.352  37.011  33.002  1.00  0.00    -0.237 OA
ATOM     97  O   UNL A   1      45.102  34.955  33.575  1.00  0.00    -0.237 OA
ATOM     98  O   UNL A   1      47.547  34.874  33.281  1.00  0.00    -0.744 OA
ENDBRANCH  91  95
ENDBRANCH  65  88
ENDBRANCH  39  40
ENDBRANCH  32  34
ENDBRANCH  31  32
ENDBRANCH  30  31
ENDBRANCH  29  30
ENDBRANCH   1  29
TORSDOF 22
ENDMDL
MODEL 3
REMARK VINA RESULT:     -10.5      3.463     10.665
REMARK SMILES C[C@@H](C(=O)OCCOCCOC(=O)c1ccc(-c2c3nc(c(-c4cc(S(=O)(=O)[O-])ccc4F)c4ccc([nH]4)c(-c4cc(S(=O)(=O)[O-])ccc4F)c4nc(c(-c5cc(S(=O)(=O)[O-])ccc5F)c5ccc2[nH]5)C=C4)C=C3)cc1)c1cc(/C=C/S(C)(=O)=O)cc(C(=O)c2ccccc2)c1
REMARK SMILES IDX 8 1 7 2 6 3 5 4 3 5 4 6 2 7 1 8 77 9 78 10 96 11 79 12 87 13
REMARK SMILES IDX 86 14 80 15 81 16 82 17 83 18 84 19 85 20 88 21 89 22 90 23
REMARK SMILES IDX 91 24 95 25 92 26 94 27 93 28 9 29 10 30 11 31 12 32 13 33
REMARK SMILES IDX 14 34 15 35 76 36 16 37 75 38 17 39 18 40 19 41 69 42 20 43
REMARK SMILES IDX 74 44 68 45 70 46 21 47 73 48 67 49 66 50 22 52 54 53 34 54
REMARK SMILES IDX 53 55 35 56 38 57 52 58 71 59 36 60 37 61 51 63 72 64 39 65
REMARK SMILES IDX 23 66 24 67 32 68 25 69 31 70 33 71 30 72 26 73 27 74 28 75
REMARK SMILES IDX 29 76 55 77 56 78 64 79 57 80 63 81 65 82 62 83 58 84 59 85
REMARK SMILES IDX 60 86 61 87 40 88 41 89 49 90 42 91 48 92 50 93 47 94 43 95
REMARK SMILES IDX 44 96 45 97 46 98
REMARK H PARENT 70 51 38 62
REMARK Flexibility Score: inf
ROOT
ATOM      1  O   UNL A   1      35.933  35.171  33.290  1.00  0.00    -0.374 OA
ENDROOT
BRANCH   1   2
ATOM      2  C   UNL A   1      34.780  35.763  32.689  1.00  0.00     0.202 C 
BRANCH   2   3
ATOM      3  C   UNL A   1      33.707  34.801  32.171  1.00  0.00     0.261 C 
BRANCH   3   4
ATOM      4  O   UNL A   1      33.870  34.545  30.764  1.00  0.00    -0.463 OA
BRANCH   4   5
ATOM      5  C   UNL A   1      34.483  33.373  30.451  1.00  0.00     0.313 C 
ATOM      6  O   UNL A   1      34.328  32.329  31.078  1.00  0.00    -0.252 OA
BRANCH   5   7
ATOM      7  C   UNL A   1      35.323  33.453  29.160  1.00  0.00     0.126 C 
ATOM      8  C   UNL A   1      34.812  34.485  28.153  1.00  0.00     0.025 C 
BRANCH   7   9
ATOM      9  C   UNL A   1      35.553  32.044  28.598  1.00  0.00    -0.033 A 
ATOM     10  C   UNL A   1      34.679  31.377  27.721  1.00  0.00     0.012 A 
ATOM     11  C   UNL A   1      36.675  31.343  29.065  1.00  0.00     0.016 A 
ATOM     12  C   UNL A   1      34.883  30.029  27.361  1.00  0.00    -0.024 A 
ATOM     13  C   UNL A   1      36.869  29.991  28.770  1.00  0.00     0.023 A 
ATOM     14  C   UNL A   1      35.984  29.346  27.902  1.00  0.00     0.020 A 
BRANCH  12  15
ATOM     15  C   UNL A   1      33.989  29.276  26.457  1.00  0.00     0.020 C 
ATOM     16  C   UNL A   1      33.791  27.948  26.455  1.00  0.00     0.106 C 
BRANCH  16  17
ATOM     17  S   UNL A   1      32.693  27.237  25.305  1.00  0.00     0.168 S 
ATOM     18  C   UNL A   1      31.753  26.139  26.335  1.00  0.00     0.163 C 
ATOM     19  O   UNL A   1      31.792  28.271  24.842  1.00  0.00    -0.225 OA
ATOM     20  O   UNL A   1      33.418  26.412  24.354  1.00  0.00    -0.225 OA
ENDBRANCH  16  17
ENDBRANCH  12  15
BRANCH  13  21
ATOM     21  C   UNL A   1      37.996  29.229  29.378  1.00  0.00     0.193 C 
ATOM     22  O   UNL A   1      38.081  29.108  30.597  1.00  0.00    -0.289 OA
BRANCH  21  23
ATOM     23  C   UNL A   1      39.011  28.582  28.509  1.00  0.00     0.022 A 
ATOM     24  C   UNL A   1      39.104  27.188  28.515  1.00  0.00     0.012 A 
ATOM     25  C   UNL A   1      39.815  29.342  27.651  1.00  0.00     0.012 A 
ATOM     26  C   UNL A   1      39.967  26.551  27.621  1.00  0.00     0.001 A 
ATOM     27  C   UNL A   1      40.674  28.699  26.758  1.00  0.00     0.001 A 
ATOM     28  C   UNL A   1      40.742  27.305  26.738  1.00  0.00     0.000 A 
ENDBRANCH  21  23
ENDBRANCH  13  21
ENDBRANCH   7   9
ENDBRANCH   5   7
ENDBRANCH   4   5
ENDBRANCH   3   4
ENDBRANCH   2   3
ENDBRANCH   1   2
BRANCH   1  29
ATOM     29  C   UNL A   1      35.759  33.940  33.987  1.00  0.00     0.202 C 
BRANCH  29  30
ATOM     30  C   UNL A   1      36.536  32.717  33.480  1.00  0.00     0.261 C 
BRANCH  30  31
ATOM     31  O   UNL A   1      37.629  33.066  32.611  1.00  0.00    -0.460 OA
BRANCH  31  32
ATOM     32  C   UNL A   1      38.841  33.107  33.223  1.00  0.00     0.338 C 
ATOM     33  O   UNL A   1      39.076  33.541  34.343  1.00  0.00    -0.246 OA
BRANCH  32  34
ATOM     34  C   UNL A   1      39.846  32.369  32.436  1.00  0.00     0.060 A 
ATOM     35  C   UNL A   1      40.937  31.828  33.129  1.00  0.00     0.016 A 
ATOM     36  C   UNL A   1      39.777  32.280  31.045  1.00  0.00     0.016 A 
ATOM     37  C   UNL A   1      41.988  31.237  32.431  1.00  0.00     0.010 A 
ATOM     38  C   UNL A   1      40.840  31.696  30.343  1.00  0.00     0.010 A 
ATOM     39  C   UNL A   1      41.966  31.204  31.030  1.00  0.00    -0.014 A 
BRANCH  39  40
ATOM     40  C   UNL A   1      43.192  30.800  30.294  1.00  0.00     0.031 A 
ATOM     41  C   UNL A   1      43.372  29.353  29.921  1.00  0.00     0.074 A 
ATOM     42  C   UNL A   1      44.106  31.713  29.921  1.00  0.00     0.049 A 
ATOM     43  N   UNL A   1      44.368  28.771  29.304  1.00  0.00    -0.248 NA
ATOM     44  C   UNL A   1      42.282  28.443  30.300  1.00  0.00     0.031 C 
ATOM     45  C   UNL A   1      44.016  33.150  30.180  1.00  0.00     0.029 A 
ATOM     46  N   UNL A   1      45.292  31.567  29.246  1.00  0.00    -0.354 N 
ATOM     47  C   UNL A   1      44.025  27.425  29.217  1.00  0.00     0.074 A 
ATOM     48  C   UNL A   1      42.750  27.274  29.886  1.00  0.00     0.031 C 
ATOM     49  C   UNL A   1      45.108  33.752  29.678  1.00  0.00     0.029 A 
ATOM     50  C   UNL A   1      45.991  32.741  29.096  1.00  0.00     0.049 A 
ATOM     51  H   UNL A   1      45.611  30.702  28.901  1.00  0.00     0.167 HD
ATOM     52  C   UNL A   1      44.706  26.412  28.625  1.00  0.00     0.034 A 
ATOM     53  C   UNL A   1      47.214  32.971  28.575  1.00  0.00     0.034 A 
ATOM     54  C   UNL A   1      45.983  26.574  27.976  1.00  0.00     0.049 A 
ATOM     55  C   UNL A   1      47.997  31.812  28.004  1.00  0.00     0.074 A 
ATOM     56  C   UNL A   1      46.758  25.617  27.342  1.00  0.00     0.029 A 
ATOM     57  N   UNL A   1      46.685  27.770  27.889  1.00  0.00    -0.354 N 
ATOM     58  N   UNL A   1      47.661  30.545  27.927  1.00  0.00    -0.248 NA
ATOM     59  C   UNL A   1      49.320  32.119  27.442  1.00  0.00     0.031 C 
ATOM     60  C   UNL A   1      47.955  26.218  26.936  1.00  0.00     0.029 A 
ATOM     61  C   UNL A   1      47.896  27.568  27.243  1.00  0.00     0.049 A 
ATOM     62  H   UNL A   1      46.368  28.637  28.234  1.00  0.00     0.167 HD
ATOM     63  C   UNL A   1      48.720  29.910  27.281  1.00  0.00     0.074 A 
ATOM     64  C   UNL A   1      49.696  30.935  26.979  1.00  0.00     0.031 C 
ATOM     65  C   UNL A   1      48.869  28.599  26.960  1.00  0.00     0.034 A 
BRANCH  52  66
ATOM     66  C   UNL A   1      44.097  25.032  28.706  1.00  0.00     0.023 A 
ATOM     67  C   UNL A   1      43.451  24.442  27.604  1.00  0.00     0.031 A 
ATOM     68  C   UNL A   1      44.131  24.309  29.911  1.00  0.00     0.131 A 
ATOM     69  C   UNL A   1      42.803  23.206  27.751  1.00  0.00     0.055 A 
ATOM     70  C   UNL A   1      43.554  23.043  30.028  1.00  0.00     0.041 A 
ATOM     71  F   UNL A   1      44.712  24.830  31.003  1.00  0.00    -0.206 F 
ATOM     72  C   UNL A   1      42.872  22.491  28.949  1.00  0.00     0.022 A 
BRANCH  69  73
ATOM     73  S   UNL A   1      41.744  22.616  26.402  1.00  0.00     0.124 S 
ATOM     74  O   UNL A   1      42.288  23.347  25.260  1.00  0.00    -0.237 OA
ATOM     75  O   UNL A   1      41.986  21.178  26.415  1.00  0.00    -0.237 OA
ATOM     76  O   UNL A   1      40.404  23.028  26.814  1.00  0.00    -0.744 OA
ENDBRANCH  69  73
ENDBRANCH  52  66
BRANCH  53  77
ATOM     77  C   UNL A   1      47.802  34.341  28.608  1.00  0.00     0.023 A 
ATOM     78  C   UNL A   1      47.651  35.228  27.531  1.00  0.00     0.031 A 
ATOM     79  C   UNL A   1      48.574  34.763  29.707  1.00  0.00     0.131 A 
ATOM     80  C   UNL A   1      48.298  36.474  27.555  1.00  0.00     0.055 A 
ATOM     81  C   UNL A   1      49.172  36.024  29.748  1.00  0.00     0.041 A 
ATOM     82  F   UNL A   1      48.751  33.955  30.763  1.00  0.00    -0.206 F 
ATOM     83  C   UNL A   1      49.046  36.883  28.661  1.00  0.00     0.022 A 
BRANCH  80  84
ATOM     84  S   UNL A   1      48.214  37.525  26.079  1.00  0.00     0.124 S 
ATOM     85  O   UNL A   1      49.004  36.758  25.123  1.00  0.00    -0.237 OA
ATOM     86  O   UNL A   1      46.778  37.581  25.829  1.00  0.00    -0.237 OA
ATOM     87  O   UNL A   1      48.818  38.780  26.523  1.00  0.00    -0.744 OA
ENDBRANCH  80  84
ENDBRANCH  53  77
BRANCH  65  88
ATOM     88  C   UNL A   1      50.117  28.212  26.203  1.00  0.00     0.023 A 
ATOM     89  C   UNL A   1      50.144  28.150  24.799  1.00  0.00     0.031 A 
ATOM     90  C   UNL A   1      51.296  27.893  26.901  1.00  0.00     0.131 A 
ATOM     91  C   UNL A   1      51.308  27.725  24.140  1.00  0.00     0.055 A 
ATOM     92  C   UNL A   1      52.469  27.529  26.238  1.00  0.00     0.041 A 
ATOM     93  F   UNL A   1      51.327  27.933  28.243  1.00  0.00    -0.206 F 
ATOM     94  C   UNL A   1      52.476  27.431  24.849  1.00  0.00     0.022 A 
BRANCH  91  95
ATOM     95  S   UNL A   1      51.253  27.474  22.344  1.00  0.00     0.124 S 
ATOM     96  O   UNL A   1      51.288  28.845  21.846  1.00  0.00    -0.237 OA
ATOM     97  O   UNL A   1      52.453  26.678  22.103  1.00  0.00    -0.237 OA
ATOM     98  O   UNL A   1      49.990  26.770  22.133  1.00  0.00    -0.744 OA
ENDBRANCH  91  95
ENDBRANCH  65  88
ENDBRANCH  39  40
ENDBRANCH  32  34
ENDBRANCH  31  32
ENDBRANCH  30  31
ENDBRANCH  29  30
ENDBRANCH   1  29
TORSDOF 22
ENDMDL
