MODEL 1
REMARK VINA RESULT:     -11.0      0.000      0.000
REMARK SMILES COc1ccc2c(c1)c(Cc1nc(-c3ccc(C(=O)OCCOCCOC(=O)c4ccc(-c5c6nc(c(-c7cc(S(=O)(=O)[O-])ccc7F)c7ccc([nH]7)c(-c7cc(S(=O)(=O)[O-])ccc7F)c7nc(c(-c8cc(S(=O)(=O)[O-])ccc8F)c8ccc5[nH]8)C=C7)C=C6)cc4)cc3)cs1)c(C)n2C(=O)c1ccc(Cl)cc1
REMARK SMILES IDX 22 1 21 2 20 3 18 4 19 5 17 6 14 7 15 8 93 9 16 10 92 11
REMARK SMILES IDX 13 12 11 13 12 14 95 15 94 16 10 17 9 18 3 19 4 20 8 21 5 22
REMARK SMILES IDX 7 23 6 24 98 25 96 26 97 27 2 28 1 29 99 30 100 31 101 32
REMARK SMILES IDX 102 33 107 34 103 35 106 36 104 37 105 38 23 39 24 40 25 41
REMARK SMILES IDX 26 42 27 43 28 44 29 45 30 46 91 47 31 48 90 49 32 50 33 51
REMARK SMILES IDX 34 52 84 53 35 54 89 55 83 56 85 57 36 58 88 59 82 60 81 61
REMARK SMILES IDX 37 63 69 64 49 65 68 66 50 67 53 68 67 69 86 70 51 71 52 72
REMARK SMILES IDX 66 74 87 75 54 76 38 77 39 78 47 79 40 80 46 81 48 82 45 83
REMARK SMILES IDX 41 84 42 85 43 86 44 87 70 88 71 89 79 90 72 91 78 92 80 93
REMARK SMILES IDX 77 94 73 95 74 96 75 97 76 98 55 99 56 100 64 101 57 102
REMARK SMILES IDX 63 103 65 104 62 105 58 106 59 107 60 108 61 109
REMARK H PARENT 85 62 53 73
REMARK Flexibility Score: inf
ROOT
ATOM      1  C   UNL A   1      35.749  22.623  23.459  1.00  0.00     0.202 C 
ENDROOT
BRANCH   1   2
ATOM      2  C   UNL A   1      34.519  22.399  24.350  1.00  0.00     0.261 C 
BRANCH   2   3
ATOM      3  O   UNL A   1      33.413  23.242  24.008  1.00  0.00    -0.460 OA
BRANCH   3   4
ATOM      4  C   UNL A   1      32.524  23.406  25.018  1.00  0.00     0.338 C 
ATOM      5  O   UNL A   1      31.878  22.538  25.585  1.00  0.00    -0.246 OA
BRANCH   4   6
ATOM      6  C   UNL A   1      32.613  24.784  25.543  1.00  0.00     0.060 A 
ATOM      7  C   UNL A   1      32.954  27.421  26.416  1.00  0.00     0.001 A 
ATOM      8  C   UNL A   1      34.002  26.749  25.776  1.00  0.00     0.011 A 
ATOM      9  C   UNL A   1      31.730  26.763  26.615  1.00  0.00     0.011 A 
ATOM     10  C   UNL A   1      33.836  25.435  25.350  1.00  0.00     0.016 A 
ATOM     11  C   UNL A   1      31.549  25.448  26.160  1.00  0.00     0.016 A 
BRANCH   7  12
ATOM     12  C   UNL A   1      33.196  28.747  26.951  1.00  0.00     0.081 A 
ATOM     13  C   UNL A   1      34.519  30.374  27.638  1.00  0.00     0.098 A 
ATOM     14  N   UNL A   1      34.405  29.066  27.526  1.00  0.00    -0.241 NA
ATOM     15  S   UNL A   1      33.082  31.260  27.308  1.00  0.00    -0.126 S 
ATOM     16  C   UNL A   1      32.314  29.802  26.827  1.00  0.00     0.095 A 
BRANCH  13  17
ATOM     17  C   UNL A   1      35.794  31.076  28.009  1.00  0.00     0.105 C 
BRANCH  17  18
ATOM     18  C   UNL A   1      36.174  30.874  29.461  1.00  0.00    -0.012 A 
ATOM     19  C   UNL A   1      34.540  33.382  31.843  1.00  0.00     0.119 A 
ATOM     20  C   UNL A   1      35.221  32.979  32.978  1.00  0.00     0.048 A 
ATOM     21  C   UNL A   1      34.792  32.739  30.633  1.00  0.00     0.057 A 
ATOM     22  C   UNL A   1      36.152  31.936  32.917  1.00  0.00     0.031 A 
ATOM     23  C   UNL A   1      35.705  31.662  30.550  1.00  0.00     0.008 A 
ATOM     24  C   UNL A   1      36.356  31.231  31.709  1.00  0.00     0.057 A 
ATOM     25  N   UNL A   1      37.135  30.104  31.379  1.00  0.00    -0.280 N 
ATOM     26  C   UNL A   1      37.057  29.933  29.982  1.00  0.00     0.028 A 
ATOM     27  C   UNL A   1      37.791  28.900  29.186  1.00  0.00     0.065 C 
BRANCH  19  28
ATOM     28  O   UNL A   1      33.588  34.360  31.799  1.00  0.00    -0.497 OA
ATOM     29  C   UNL A   1      33.496  35.073  30.571  1.00  0.00     0.278 C 
ENDBRANCH  19  28
BRANCH  25  30
ATOM     30  C   UNL A   1      37.878  29.303  32.300  1.00  0.00     0.262 C 
ATOM     31  O   UNL A   1      37.287  28.494  33.013  1.00  0.00    -0.268 OA
BRANCH  30  32
ATOM     32  C   UNL A   1      39.344  29.319  32.459  1.00  0.00     0.040 A 
ATOM     33  C   UNL A   1      40.063  28.139  32.691  1.00  0.00     0.015 A 
ATOM     34  C   UNL A   1      40.000  30.555  32.413  1.00  0.00     0.015 A 
ATOM     35  C   UNL A   1      41.430  28.215  32.974  1.00  0.00     0.021 A 
ATOM     36  C   UNL A   1      41.367  30.623  32.686  1.00  0.00     0.021 A 
ATOM     37  C   UNL A   1      42.070  29.456  32.987  1.00  0.00     0.041 A 
ATOM     38  Cl  UNL A   1      43.737  29.554  33.400  1.00  0.00    -0.084 Cl
ENDBRANCH  30  32
ENDBRANCH  25  30
ENDBRANCH  17  18
ENDBRANCH  13  17
ENDBRANCH   7  12
ENDBRANCH   4   6
ENDBRANCH   3   4
ENDBRANCH   2   3
ENDBRANCH   1   2
BRANCH   1  39
ATOM     39  O   UNL A   1      36.860  23.360  23.966  1.00  0.00    -0.374 OA
BRANCH  39  40
ATOM     40  C   UNL A   1      37.023  23.453  25.384  1.00  0.00     0.202 C 
BRANCH  40  41
ATOM     41  C   UNL A   1      38.265  22.831  26.048  1.00  0.00     0.261 C 
BRANCH  41  42
ATOM     42  O   UNL A   1      39.008  23.806  26.789  1.00  0.00    -0.460 OA
BRANCH  42  43
ATOM     43  C   UNL A   1      40.019  23.305  27.552  1.00  0.00     0.338 C 
ATOM     44  O   UNL A   1      40.311  22.131  27.709  1.00  0.00    -0.246 OA
BRANCH  43  45
ATOM     45  C   UNL A   1      40.907  24.451  27.826  1.00  0.00     0.060 A 
ATOM     46  C   UNL A   1      40.765  25.643  27.110  1.00  0.00     0.016 A 
ATOM     47  C   UNL A   1      42.073  24.178  28.559  1.00  0.00     0.016 A 
ATOM     48  C   UNL A   1      41.834  26.527  27.065  1.00  0.00     0.010 A 
ATOM     49  C   UNL A   1      43.156  25.048  28.477  1.00  0.00     0.010 A 
ATOM     50  C   UNL A   1      43.046  26.206  27.704  1.00  0.00    -0.014 A 
BRANCH  50  51
ATOM     51  C   UNL A   1      44.098  27.223  27.708  1.00  0.00     0.031 A 
ATOM     52  C   UNL A   1      45.314  26.792  26.961  1.00  0.00     0.074 A 
ATOM     53  C   UNL A   1      43.998  28.483  28.176  1.00  0.00     0.049 A 
ATOM     54  N   UNL A   1      46.512  26.611  27.414  1.00  0.00    -0.248 NA
ATOM     55  C   UNL A   1      45.127  26.365  25.567  1.00  0.00     0.031 C 
ATOM     56  C   UNL A   1      42.802  29.199  28.623  1.00  0.00     0.029 A 
ATOM     57  N   UNL A   1      44.966  29.446  28.234  1.00  0.00    -0.354 N 
ATOM     58  C   UNL A   1      47.275  26.198  26.322  1.00  0.00     0.074 A 
ATOM     59  C   UNL A   1      46.341  25.914  25.262  1.00  0.00     0.031 C 
ATOM     60  C   UNL A   1      43.070  30.526  28.661  1.00  0.00     0.029 A 
ATOM     61  C   UNL A   1      44.479  30.740  28.366  1.00  0.00     0.049 A 
ATOM     62  H   UNL A   1      45.928  29.239  28.187  1.00  0.00     0.167 HD
ATOM     63  C   UNL A   1      48.635  26.280  26.308  1.00  0.00     0.034 A 
ATOM     64  C   UNL A   1      45.160  31.895  28.129  1.00  0.00     0.034 A 
ATOM     65  C   UNL A   1      49.164  26.491  27.626  1.00  0.00     0.049 A 
ATOM     66  C   UNL A   1      46.613  31.597  28.147  1.00  0.00     0.074 A 
ATOM     67  C   UNL A   1      49.138  25.770  28.803  1.00  0.00     0.029 A 
ATOM     68  N   UNL A   1      49.539  27.766  27.975  1.00  0.00    -0.354 N 
ATOM     69  N   UNL A   1      47.288  31.293  29.218  1.00  0.00    -0.248 NA
ATOM     70  C   UNL A   1      47.228  31.206  26.886  1.00  0.00     0.031 C 
ATOM     71  C   UNL A   1      49.004  26.748  29.827  1.00  0.00     0.029 A 
ATOM     72  C   UNL A   1      49.021  28.005  29.221  1.00  0.00     0.049 A 
ATOM     73  H   UNL A   1      50.078  28.387  27.434  1.00  0.00     0.167 HD
ATOM     74  C   UNL A   1      48.138  30.279  28.809  1.00  0.00     0.074 A 
ATOM     75  C   UNL A   1      48.125  30.333  27.347  1.00  0.00     0.031 C 
ATOM     76  C   UNL A   1      48.548  29.299  29.665  1.00  0.00     0.034 A 
BRANCH  63  77
ATOM     77  C   UNL A   1      49.461  26.469  25.059  1.00  0.00     0.023 A 
ATOM     78  C   UNL A   1      48.938  27.014  23.872  1.00  0.00     0.031 A 
ATOM     79  C   UNL A   1      50.861  26.309  25.096  1.00  0.00     0.131 A 
ATOM     80  C   UNL A   1      49.762  27.358  22.793  1.00  0.00     0.055 A 
ATOM     81  C   UNL A   1      51.693  26.720  24.046  1.00  0.00     0.041 A 
ATOM     82  F   UNL A   1      51.473  25.806  26.179  1.00  0.00    -0.206 F 
ATOM     83  C   UNL A   1      51.144  27.248  22.885  1.00  0.00     0.022 A 
BRANCH  80  84
ATOM     84  S   UNL A   1      49.035  27.970  21.248  1.00  0.00     0.124 S 
ATOM     85  O   UNL A   1      48.751  26.729  20.538  1.00  0.00    -0.237 OA
ATOM     86  O   UNL A   1      47.869  28.701  21.740  1.00  0.00    -0.237 OA
ATOM     87  O   UNL A   1      50.091  28.803  20.681  1.00  0.00    -0.744 OA
ENDBRANCH  80  84
ENDBRANCH  63  77
BRANCH  64  88
ATOM     88  C   UNL A   1      44.641  33.079  27.397  1.00  0.00     0.023 A 
ATOM     89  C   UNL A   1      44.072  34.142  28.121  1.00  0.00     0.031 A 
ATOM     90  C   UNL A   1      44.390  33.040  26.013  1.00  0.00     0.131 A 
ATOM     91  C   UNL A   1      43.239  35.076  27.490  1.00  0.00     0.055 A 
ATOM     92  C   UNL A   1      43.575  33.988  25.378  1.00  0.00     0.041 A 
ATOM     93  F   UNL A   1      44.866  32.034  25.261  1.00  0.00    -0.206 F 
ATOM     94  C   UNL A   1      42.981  35.004  26.121  1.00  0.00     0.022 A 
BRANCH  91  95
ATOM     95  S   UNL A   1      42.399  36.342  28.478  1.00  0.00     0.124 S 
ATOM     96  O   UNL A   1      42.326  37.466  27.548  1.00  0.00    -0.237 OA
ATOM     97  O   UNL A   1      41.130  35.688  28.779  1.00  0.00    -0.237 OA
ATOM     98  O   UNL A   1      43.297  36.539  29.613  1.00  0.00    -0.744 OA
ENDBRANCH  91  95
ENDBRANCH  64  88
BRANCH  76  99
ATOM     99  C   UNL A   1      48.256  29.423  31.144  1.00  0.00     0.023 A 
ATOM    100  C   UNL A   1      49.293  29.922  31.954  1.00  0.00     0.031 A 
ATOM    101  C   UNL A   1      47.145  28.851  31.793  1.00  0.00     0.131 A 
ATOM    102  C   UNL A   1      49.233  29.790  33.345  1.00  0.00     0.055 A 
ATOM    103  C   UNL A   1      47.053  28.794  33.188  1.00  0.00     0.041 A 
ATOM    104  F   UNL A   1      46.164  28.246  31.109  1.00  0.00    -0.206 F 
ATOM    105  C   UNL A   1      48.110  29.244  33.971  1.00  0.00     0.022 A 
BRANCH 102 106
ATOM    106  S   UNL A   1      50.693  30.152  34.355  1.00  0.00     0.124 S 
ATOM    107  O   UNL A   1      51.087  28.822  34.813  1.00  0.00    -0.237 OA
ATOM    108  O   UNL A   1      51.595  30.774  33.387  1.00  0.00    -0.237 OA
ATOM    109  O   UNL A   1      50.192  31.047  35.394  1.00  0.00    -0.744 OA
ENDBRANCH 102 106
ENDBRANCH  76  99
ENDBRANCH  50  51
ENDBRANCH  43  45
ENDBRANCH  42  43
ENDBRANCH  41  42
ENDBRANCH  40  41
ENDBRANCH  39  40
ENDBRANCH   1  39
TORSDOF 23
ENDMDL
MODEL 2
REMARK VINA RESULT:     -10.8      3.373      8.005
REMARK SMILES COc1ccc2c(c1)c(Cc1nc(-c3ccc(C(=O)OCCOCCOC(=O)c4ccc(-c5c6nc(c(-c7cc(S(=O)(=O)[O-])ccc7F)c7ccc([nH]7)c(-c7cc(S(=O)(=O)[O-])ccc7F)c7nc(c(-c8cc(S(=O)(=O)[O-])ccc8F)c8ccc5[nH]8)C=C7)C=C6)cc4)cc3)cs1)c(C)n2C(=O)c1ccc(Cl)cc1
REMARK SMILES IDX 22 1 21 2 20 3 18 4 19 5 17 6 14 7 15 8 93 9 16 10 92 11
REMARK SMILES IDX 13 12 11 13 12 14 95 15 94 16 10 17 9 18 3 19 4 20 8 21 5 22
REMARK SMILES IDX 7 23 6 24 98 25 96 26 97 27 2 28 1 29 99 30 100 31 101 32
REMARK SMILES IDX 102 33 107 34 103 35 106 36 104 37 105 38 23 39 24 40 25 41
REMARK SMILES IDX 26 42 27 43 28 44 29 45 30 46 91 47 31 48 90 49 32 50 33 51
REMARK SMILES IDX 34 52 84 53 35 54 89 55 83 56 85 57 36 58 88 59 82 60 81 61
REMARK SMILES IDX 37 63 69 64 49 65 68 66 50 67 53 68 67 69 86 70 51 71 52 72
REMARK SMILES IDX 66 74 87 75 54 76 38 77 39 78 47 79 40 80 46 81 48 82 45 83
REMARK SMILES IDX 41 84 42 85 43 86 44 87 70 88 71 89 79 90 72 91 78 92 80 93
REMARK SMILES IDX 77 94 73 95 74 96 75 97 76 98 55 99 56 100 64 101 57 102
REMARK SMILES IDX 63 103 65 104 62 105 58 106 59 107 60 108 61 109
REMARK H PARENT 85 62 53 73
REMARK Flexibility Score: inf
ROOT
ATOM      1  C   UNL A   1      36.207  22.772  24.404  1.00  0.00     0.202 C 
ENDROOT
BRANCH   1   2
ATOM      2  C   UNL A   1      34.729  22.635  24.797  1.00  0.00     0.261 C 
BRANCH   2   3
ATOM      3  O   UNL A   1      33.974  23.834  24.584  1.00  0.00    -0.460 OA
BRANCH   3   4
ATOM      4  C   UNL A   1      32.936  23.981  25.443  1.00  0.00     0.338 C 
ATOM      5  O   UNL A   1      32.296  23.096  25.991  1.00  0.00    -0.246 OA
BRANCH   4   6
ATOM      6  C   UNL A   1      32.820  25.396  25.849  1.00  0.00     0.060 A 
ATOM      7  C   UNL A   1      32.776  28.116  26.505  1.00  0.00     0.001 A 
ATOM      8  C   UNL A   1      33.939  27.534  25.985  1.00  0.00     0.011 A 
ATOM      9  C   UNL A   1      31.632  27.325  26.693  1.00  0.00     0.011 A 
ATOM     10  C   UNL A   1      33.964  26.181  25.668  1.00  0.00     0.016 A 
ATOM     11  C   UNL A   1      31.644  25.966  26.346  1.00  0.00     0.016 A 
BRANCH   7  12
ATOM     12  C   UNL A   1      32.818  29.501  26.934  1.00  0.00     0.081 A 
ATOM     13  C   UNL A   1      33.882  31.331  27.557  1.00  0.00     0.098 A 
ATOM     14  N   UNL A   1      33.934  30.014  27.555  1.00  0.00    -0.241 NA
ATOM     15  S   UNL A   1      32.377  32.000  27.059  1.00  0.00    -0.126 S 
ATOM     16  C   UNL A   1      31.827  30.423  26.662  1.00  0.00     0.095 A 
BRANCH  13  17
ATOM     17  C   UNL A   1      35.033  32.215  27.944  1.00  0.00     0.105 C 
BRANCH  17  18
ATOM     18  C   UNL A   1      35.402  32.090  29.407  1.00  0.00    -0.012 A 
ATOM     19  C   UNL A   1      37.524  29.009  30.204  1.00  0.00     0.119 A 
ATOM     20  C   UNL A   1      37.515  29.169  31.578  1.00  0.00     0.048 A 
ATOM     21  C   UNL A   1      36.850  29.930  29.406  1.00  0.00     0.057 A 
ATOM     22  C   UNL A   1      36.840  30.246  32.165  1.00  0.00     0.031 A 
ATOM     23  C   UNL A   1      36.186  31.044  29.971  1.00  0.00     0.008 A 
ATOM     24  C   UNL A   1      36.218  31.225  31.356  1.00  0.00     0.057 A 
ATOM     25  N   UNL A   1      35.567  32.438  31.654  1.00  0.00    -0.280 N 
ATOM     26  C   UNL A   1      35.020  32.928  30.451  1.00  0.00     0.028 A 
ATOM     27  C   UNL A   1      34.178  34.158  30.311  1.00  0.00     0.065 C 
BRANCH  19  28
ATOM     28  O   UNL A   1      38.179  28.019  29.528  1.00  0.00    -0.497 OA
ATOM     29  C   UNL A   1      39.089  27.245  30.301  1.00  0.00     0.278 C 
ENDBRANCH  19  28
BRANCH  25  30
ATOM     30  C   UNL A   1      35.469  33.038  32.947  1.00  0.00     0.262 C 
ATOM     31  O   UNL A   1      34.407  32.980  33.564  1.00  0.00    -0.268 OA
BRANCH  30  32
ATOM     32  C   UNL A   1      36.569  33.711  33.664  1.00  0.00     0.040 A 
ATOM     33  C   UNL A   1      37.686  34.207  32.980  1.00  0.00     0.015 A 
ATOM     34  C   UNL A   1      36.488  33.806  35.058  1.00  0.00     0.015 A 
ATOM     35  C   UNL A   1      38.767  34.710  33.710  1.00  0.00     0.021 A 
ATOM     36  C   UNL A   1      37.566  34.319  35.781  1.00  0.00     0.021 A 
ATOM     37  C   UNL A   1      38.708  34.749  35.105  1.00  0.00     0.041 A 
ATOM     38  Cl  UNL A   1      40.065  35.307  36.003  1.00  0.00    -0.084 Cl
ENDBRANCH  30  32
ENDBRANCH  25  30
ENDBRANCH  17  18
ENDBRANCH  13  17
ENDBRANCH   7  12
ENDBRANCH   4   6
ENDBRANCH   3   4
ENDBRANCH   2   3
ENDBRANCH   1   2
BRANCH   1  39
ATOM     39  O   UNL A   1      37.011  23.769  25.030  1.00  0.00    -0.374 OA
BRANCH  39  40
ATOM     40  C   UNL A   1      37.650  23.449  26.268  1.00  0.00     0.202 C 
BRANCH  40  41
ATOM     41  C   UNL A   1      39.081  22.880  26.260  1.00  0.00     0.261 C 
BRANCH  41  42
ATOM     42  O   UNL A   1      39.878  23.445  27.308  1.00  0.00    -0.460 OA
BRANCH  42  43
ATOM     43  C   UNL A   1      41.126  23.841  26.935  1.00  0.00     0.338 C 
ATOM     44  O   UNL A   1      41.754  23.474  25.956  1.00  0.00    -0.246 OA
BRANCH  43  45
ATOM     45  C   UNL A   1      41.398  25.064  27.716  1.00  0.00     0.060 A 
ATOM     46  C   UNL A   1      40.984  26.312  27.241  1.00  0.00     0.016 A 
ATOM     47  C   UNL A   1      42.355  24.955  28.737  1.00  0.00     0.016 A 
ATOM     48  C   UNL A   1      41.598  27.453  27.740  1.00  0.00     0.010 A 
ATOM     49  C   UNL A   1      42.996  26.098  29.204  1.00  0.00     0.010 A 
ATOM     50  C   UNL A   1      42.639  27.344  28.681  1.00  0.00    -0.014 A 
BRANCH  50  51
ATOM     51  C   UNL A   1      43.172  28.583  29.246  1.00  0.00     0.031 A 
ATOM     52  C   UNL A   1      42.493  28.973  30.515  1.00  0.00     0.074 A 
ATOM     53  C   UNL A   1      44.252  29.266  28.814  1.00  0.00     0.049 A 
ATOM     54  N   UNL A   1      41.794  30.033  30.758  1.00  0.00    -0.248 NA
ATOM     55  C   UNL A   1      42.471  27.976  31.595  1.00  0.00     0.031 C 
ATOM     56  C   UNL A   1      45.245  28.868  27.816  1.00  0.00     0.029 A 
ATOM     57  N   UNL A   1      44.755  30.444  29.289  1.00  0.00    -0.354 N 
ATOM     58  C   UNL A   1      41.371  29.916  32.082  1.00  0.00     0.074 A 
ATOM     59  C   UNL A   1      41.681  28.569  32.487  1.00  0.00     0.031 C 
ATOM     60  C   UNL A   1      46.340  29.654  27.944  1.00  0.00     0.029 A 
ATOM     61  C   UNL A   1      46.079  30.683  28.940  1.00  0.00     0.049 A 
ATOM     62  H   UNL A   1      44.225  31.071  29.832  1.00  0.00     0.167 HD
ATOM     63  C   UNL A   1      40.948  30.987  32.811  1.00  0.00     0.034 A 
ATOM     64  C   UNL A   1      46.924  31.580  29.517  1.00  0.00     0.034 A 
ATOM     65  C   UNL A   1      40.666  32.118  31.972  1.00  0.00     0.049 A 
ATOM     66  C   UNL A   1      46.117  32.577  30.262  1.00  0.00     0.074 A 
ATOM     67  C   UNL A   1      39.773  32.360  30.946  1.00  0.00     0.029 A 
ATOM     68  N   UNL A   1      41.609  33.114  31.892  1.00  0.00    -0.354 N 
ATOM     69  N   UNL A   1      45.367  33.482  29.702  1.00  0.00    -0.248 NA
ATOM     70  C   UNL A   1      45.804  32.274  31.652  1.00  0.00     0.031 C 
ATOM     71  C   UNL A   1      40.491  33.165  30.020  1.00  0.00     0.029 A 
ATOM     72  C   UNL A   1      41.752  33.418  30.564  1.00  0.00     0.049 A 
ATOM     73  H   UNL A   1      42.088  33.530  32.645  1.00  0.00     0.167 HD
ATOM     74  C   UNL A   1      44.223  33.506  30.483  1.00  0.00     0.074 A 
ATOM     75  C   UNL A   1      44.586  32.815  31.719  1.00  0.00     0.031 C 
ATOM     76  C   UNL A   1      43.004  33.819  29.956  1.00  0.00     0.034 A 
BRANCH  63  77
ATOM     77  C   UNL A   1      41.079  31.098  34.310  1.00  0.00     0.023 A 
ATOM     78  C   UNL A   1      42.323  31.174  34.964  1.00  0.00     0.031 A 
ATOM     79  C   UNL A   1      39.948  31.356  35.111  1.00  0.00     0.131 A 
ATOM     80  C   UNL A   1      42.421  31.469  36.329  1.00  0.00     0.055 A 
ATOM     81  C   UNL A   1      40.049  31.723  36.459  1.00  0.00     0.041 A 
ATOM     82  F   UNL A   1      38.711  31.320  34.594  1.00  0.00    -0.206 F 
ATOM     83  C   UNL A   1      41.291  31.780  37.077  1.00  0.00     0.022 A 
BRANCH  80  84
ATOM     84  S   UNL A   1      44.037  31.463  37.152  1.00  0.00     0.124 S 
ATOM     85  O   UNL A   1      44.860  30.738  36.191  1.00  0.00    -0.237 OA
ATOM     86  O   UNL A   1      44.312  32.893  37.272  1.00  0.00    -0.237 OA
ATOM     87  O   UNL A   1      43.776  30.778  38.414  1.00  0.00    -0.744 OA
ENDBRANCH  80  84
ENDBRANCH  63  77
BRANCH  64  88
ATOM     88  C   UNL A   1      48.343  31.331  29.884  1.00  0.00     0.023 A 
ATOM     89  C   UNL A   1      49.365  31.965  29.156  1.00  0.00     0.031 A 
ATOM     90  C   UNL A   1      48.715  30.244  30.696  1.00  0.00     0.131 A 
ATOM     91  C   UNL A   1      50.680  31.484  29.195  1.00  0.00     0.055 A 
ATOM     92  C   UNL A   1      50.036  29.776  30.754  1.00  0.00     0.041 A 
ATOM     93  F   UNL A   1      47.790  29.562  31.391  1.00  0.00    -0.206 F 
ATOM     94  C   UNL A   1      51.024  30.388  29.987  1.00  0.00     0.022 A 
BRANCH  91  95
ATOM     95  S   UNL A   1      51.942  32.228  28.128  1.00  0.00     0.124 S 
ATOM     96  O   UNL A   1      53.179  31.900  28.832  1.00  0.00    -0.237 OA
ATOM     97  O   UNL A   1      51.722  31.518  26.872  1.00  0.00    -0.237 OA
ATOM     98  O   UNL A   1      51.592  33.646  28.125  1.00  0.00    -0.744 OA
ENDBRANCH  91  95
ENDBRANCH  64  88
BRANCH  76  99
ATOM     99  C   UNL A   1      42.911  34.361  28.547  1.00  0.00     0.023 A 
ATOM    100  C   UNL A   1      43.571  33.630  27.542  1.00  0.00     0.031 A 
ATOM    101  C   UNL A   1      42.443  35.646  28.211  1.00  0.00     0.131 A 
ATOM    102  C   UNL A   1      43.800  34.197  26.285  1.00  0.00     0.055 A 
ATOM    103  C   UNL A   1      42.603  36.179  26.928  1.00  0.00     0.041 A 
ATOM    104  F   UNL A   1      41.908  36.463  29.129  1.00  0.00    -0.206 F 
ATOM    105  C   UNL A   1      43.304  35.463  25.963  1.00  0.00     0.022 A 
BRANCH 102 106
ATOM    106  S   UNL A   1      44.907  33.380  25.107  1.00  0.00     0.124 S 
ATOM    107  O   UNL A   1      45.986  34.355  24.972  1.00  0.00    -0.237 OA
ATOM    108  O   UNL A   1      45.259  32.149  25.814  1.00  0.00    -0.237 OA
ATOM    109  O   UNL A   1      44.083  33.192  23.917  1.00  0.00    -0.744 OA
ENDBRANCH 102 106
ENDBRANCH  76  99
ENDBRANCH  50  51
ENDBRANCH  43  45
ENDBRANCH  42  43
ENDBRANCH  41  42
ENDBRANCH  40  41
ENDBRANCH  39  40
ENDBRANCH   1  39
TORSDOF 23
ENDMDL
MODEL 3
REMARK VINA RESULT:     -10.5      3.458      7.718
REMARK SMILES COc1ccc2c(c1)c(Cc1nc(-c3ccc(C(=O)OCCOCCOC(=O)c4ccc(-c5c6nc(c(-c7cc(S(=O)(=O)[O-])ccc7F)c7ccc([nH]7)c(-c7cc(S(=O)(=O)[O-])ccc7F)c7nc(c(-c8cc(S(=O)(=O)[O-])ccc8F)c8ccc5[nH]8)C=C7)C=C6)cc4)cc3)cs1)c(C)n2C(=O)c1ccc(Cl)cc1
REMARK SMILES IDX 22 1 21 2 20 3 18 4 19 5 17 6 14 7 15 8 93 9 16 10 92 11
REMARK SMILES IDX 13 12 11 13 12 14 95 15 94 16 10 17 9 18 3 19 4 20 8 21 5 22
REMARK SMILES IDX 7 23 6 24 98 25 96 26 97 27 2 28 1 29 99 30 100 31 101 32
REMARK SMILES IDX 102 33 107 34 103 35 106 36 104 37 105 38 23 39 24 40 25 41
REMARK SMILES IDX 26 42 27 43 28 44 29 45 30 46 91 47 31 48 90 49 32 50 33 51
REMARK SMILES IDX 34 52 84 53 35 54 89 55 83 56 85 57 36 58 88 59 82 60 81 61
REMARK SMILES IDX 37 63 69 64 49 65 68 66 50 67 53 68 67 69 86 70 51 71 52 72
REMARK SMILES IDX 66 74 87 75 54 76 38 77 39 78 47 79 40 80 46 81 48 82 45 83
REMARK SMILES IDX 41 84 42 85 43 86 44 87 70 88 71 89 79 90 72 91 78 92 80 93
REMARK SMILES IDX 77 94 73 95 74 96 75 97 76 98 55 99 56 100 64 101 57 102
REMARK SMILES IDX 63 103 65 104 62 105 58 106 59 107 60 108 61 109
REMARK H PARENT 85 62 53 73
REMARK Flexibility Score: inf
ROOT
ATOM      1  C   UNL A   1      41.855  22.814  27.216  1.00  0.00     0.202 C 
ENDROOT
BRANCH   1   2
ATOM      2  C   UNL A   1      40.401  22.521  27.612  1.00  0.00     0.261 C 
BRANCH   2   3
ATOM      3  O   UNL A   1      39.452  22.919  26.616  1.00  0.00    -0.460 OA
BRANCH   3   4
ATOM      4  C   UNL A   1      38.933  21.880  25.917  1.00  0.00     0.338 C 
ATOM      5  O   UNL A   1      39.467  20.809  25.674  1.00  0.00    -0.246 OA
BRANCH   4   6
ATOM      6  C   UNL A   1      37.492  22.107  25.683  1.00  0.00     0.060 A 
ATOM      7  C   UNL A   1      34.805  22.744  25.227  1.00  0.00     0.001 A 
ATOM      8  C   UNL A   1      35.710  23.739  25.620  1.00  0.00     0.011 A 
ATOM      9  C   UNL A   1      35.256  21.426  25.062  1.00  0.00     0.011 A 
ATOM     10  C   UNL A   1      37.043  23.421  25.855  1.00  0.00     0.016 A 
ATOM     11  C   UNL A   1      36.607  21.107  25.269  1.00  0.00     0.016 A 
BRANCH   7  12
ATOM     12  C   UNL A   1      33.401  23.085  25.103  1.00  0.00     0.081 A 
ATOM     13  C   UNL A   1      31.680  24.441  25.367  1.00  0.00     0.098 A 
ATOM     14  N   UNL A   1      32.848  24.089  25.864  1.00  0.00    -0.241 NA
ATOM     15  S   UNL A   1      31.076  23.407  24.131  1.00  0.00    -0.126 S 
ATOM     16  C   UNL A   1      32.554  22.535  24.161  1.00  0.00     0.095 A 
BRANCH  13  17
ATOM     17  C   UNL A   1      30.911  25.654  25.807  1.00  0.00     0.105 C 
BRANCH  17  18
ATOM     18  C   UNL A   1      31.693  26.938  25.631  1.00  0.00    -0.012 A 
ATOM     19  C   UNL A   1      33.494  27.199  22.267  1.00  0.00     0.119 A 
ATOM     20  C   UNL A   1      34.173  28.371  22.548  1.00  0.00     0.048 A 
ATOM     21  C   UNL A   1      32.649  26.652  23.231  1.00  0.00     0.057 A 
ATOM     22  C   UNL A   1      34.014  29.006  23.785  1.00  0.00     0.031 A 
ATOM     23  C   UNL A   1      32.447  27.290  24.477  1.00  0.00     0.008 A 
ATOM     24  C   UNL A   1      33.101  28.497  24.737  1.00  0.00     0.057 A 
ATOM     25  N   UNL A   1      32.670  28.966  25.994  1.00  0.00    -0.280 N 
ATOM     26  C   UNL A   1      31.848  27.968  26.556  1.00  0.00     0.028 A 
ATOM     27  C   UNL A   1      31.230  28.009  27.918  1.00  0.00     0.065 C 
BRANCH  19  28
ATOM     28  O   UNL A   1      33.549  26.519  21.084  1.00  0.00    -0.497 OA
ATOM     29  C   UNL A   1      32.472  25.621  20.841  1.00  0.00     0.278 C 
ENDBRANCH  19  28
BRANCH  25  30
ATOM     30  C   UNL A   1      33.024  30.217  26.586  1.00  0.00     0.262 C 
ATOM     31  O   UNL A   1      32.202  31.133  26.606  1.00  0.00    -0.268 OA
BRANCH  30  32
ATOM     32  C   UNL A   1      34.310  30.521  27.241  1.00  0.00     0.040 A 
ATOM     33  C   UNL A   1      35.253  29.516  27.492  1.00  0.00     0.015 A 
ATOM     34  C   UNL A   1      34.551  31.840  27.643  1.00  0.00     0.015 A 
ATOM     35  C   UNL A   1      36.396  29.821  28.237  1.00  0.00     0.021 A 
ATOM     36  C   UNL A   1      35.699  32.140  28.378  1.00  0.00     0.021 A 
ATOM     37  C   UNL A   1      36.604  31.126  28.690  1.00  0.00     0.041 A 
ATOM     38  Cl  UNL A   1      37.977  31.484  29.663  1.00  0.00    -0.084 Cl
ENDBRANCH  30  32
ENDBRANCH  25  30
ENDBRANCH  17  18
ENDBRANCH  13  17
ENDBRANCH   7  12
ENDBRANCH   4   6
ENDBRANCH   3   4
ENDBRANCH   2   3
ENDBRANCH   1   2
BRANCH   1  39
ATOM     39  O   UNL A   1      42.713  21.737  26.846  1.00  0.00    -0.374 OA
BRANCH  39  40
ATOM     40  C   UNL A   1      43.160  21.659  25.490  1.00  0.00     0.202 C 
BRANCH  40  41
ATOM     41  C   UNL A   1      43.543  22.948  24.740  1.00  0.00     0.261 C 
BRANCH  41  42
ATOM     42  O   UNL A   1      44.955  23.019  24.503  1.00  0.00    -0.460 OA
BRANCH  42  43
ATOM     43  C   UNL A   1      45.735  22.567  25.524  1.00  0.00     0.338 C 
ATOM     44  O   UNL A   1      46.400  21.546  25.548  1.00  0.00    -0.246 OA
BRANCH  43  45
ATOM     45  C   UNL A   1      45.920  23.729  26.417  1.00  0.00     0.060 A 
ATOM     46  C   UNL A   1      45.431  23.700  27.726  1.00  0.00     0.016 A 
ATOM     47  C   UNL A   1      46.282  24.938  25.802  1.00  0.00     0.016 A 
ATOM     48  C   UNL A   1      45.229  24.902  28.390  1.00  0.00     0.010 A 
ATOM     49  C   UNL A   1      46.040  26.142  26.457  1.00  0.00     0.010 A 
ATOM     50  C   UNL A   1      45.483  26.123  27.738  1.00  0.00    -0.014 A 
BRANCH  50  51
ATOM     51  C   UNL A   1      45.352  27.349  28.525  1.00  0.00     0.031 A 
ATOM     52  C   UNL A   1      46.205  27.339  29.748  1.00  0.00     0.074 A 
ATOM     53  C   UNL A   1      44.680  28.464  28.173  1.00  0.00     0.049 A 
ATOM     54  N   UNL A   1      45.834  27.384  30.985  1.00  0.00    -0.248 NA
ATOM     55  C   UNL A   1      47.642  27.095  29.559  1.00  0.00     0.031 C 
ATOM     56  C   UNL A   1      44.077  28.798  26.882  1.00  0.00     0.029 A 
ATOM     57  N   UNL A   1      44.502  29.610  28.896  1.00  0.00    -0.354 N 
ATOM     58  C   UNL A   1      47.007  27.334  31.738  1.00  0.00     0.074 A 
ATOM     59  C   UNL A   1      48.063  26.998  30.818  1.00  0.00     0.031 C 
ATOM     60  C   UNL A   1      43.832  30.129  26.840  1.00  0.00     0.029 A 
ATOM     61  C   UNL A   1      44.142  30.715  28.136  1.00  0.00     0.049 A 
ATOM     62  H   UNL A   1      44.619  29.648  29.873  1.00  0.00     0.167 HD
ATOM     63  C   UNL A   1      47.060  27.740  33.038  1.00  0.00     0.034 A 
ATOM     64  C   UNL A   1      44.212  32.021  28.513  1.00  0.00     0.034 A 
ATOM     65  C   UNL A   1      45.745  27.871  33.602  1.00  0.00     0.049 A 
ATOM     66  C   UNL A   1      44.298  32.080  29.993  1.00  0.00     0.074 A 
ATOM     67  C   UNL A   1      44.702  26.996  33.832  1.00  0.00     0.029 A 
ATOM     68  N   UNL A   1      45.207  29.131  33.700  1.00  0.00    -0.354 N 
ATOM     69  N   UNL A   1      43.317  31.789  30.798  1.00  0.00    -0.248 NA
ATOM     70  C   UNL A   1      45.629  32.042  30.584  1.00  0.00     0.031 C 
ATOM     71  C   UNL A   1      43.528  27.748  33.554  1.00  0.00     0.029 A 
ATOM     72  C   UNL A   1      43.920  29.049  33.236  1.00  0.00     0.049 A 
ATOM     73  H   UNL A   1      45.659  29.938  34.039  1.00  0.00     0.167 HD
ATOM     74  C   UNL A   1      43.920  31.082  31.825  1.00  0.00     0.074 A 
ATOM     75  C   UNL A   1      45.351  31.350  31.690  1.00  0.00     0.031 C 
ATOM     76  C   UNL A   1      43.252  30.111  32.513  1.00  0.00     0.034 A 
BRANCH  63  77
ATOM     77  C   UNL A   1      48.291  28.306  33.702  1.00  0.00     0.023 A 
ATOM     78  C   UNL A   1      48.876  27.729  34.845  1.00  0.00     0.031 A 
ATOM     79  C   UNL A   1      49.044  29.317  33.071  1.00  0.00     0.131 A 
ATOM     80  C   UNL A   1      50.119  28.152  35.329  1.00  0.00     0.055 A 
ATOM     81  C   UNL A   1      50.320  29.690  33.512  1.00  0.00     0.041 A 
ATOM     82  F   UNL A   1      48.590  29.933  31.969  1.00  0.00    -0.206 F 
ATOM     83  C   UNL A   1      50.866  29.107  34.648  1.00  0.00     0.022 A 
BRANCH  80  84
ATOM     84  S   UNL A   1      50.792  27.447  36.858  1.00  0.00     0.124 S 
ATOM     85  O   UNL A   1      51.443  26.237  36.370  1.00  0.00    -0.237 OA
ATOM     86  O   UNL A   1      51.686  28.513  37.307  1.00  0.00    -0.237 OA
ATOM     87  O   UNL A   1      49.609  27.244  37.690  1.00  0.00    -0.744 OA
ENDBRANCH  80  84
ENDBRANCH  63  77
BRANCH  64  88
ATOM     88  C   UNL A   1      44.719  33.144  27.681  1.00  0.00     0.023 A 
ATOM     89  C   UNL A   1      46.028  33.088  27.172  1.00  0.00     0.031 A 
ATOM     90  C   UNL A   1      44.077  34.396  27.662  1.00  0.00     0.131 A 
ATOM     91  C   UNL A   1      46.677  34.248  26.728  1.00  0.00     0.055 A 
ATOM     92  C   UNL A   1      44.719  35.554  27.196  1.00  0.00     0.041 A 
ATOM     93  F   UNL A   1      42.842  34.538  28.167  1.00  0.00    -0.206 F 
ATOM     94  C   UNL A   1      46.032  35.485  26.741  1.00  0.00     0.022 A 
BRANCH  91  95
ATOM     95  S   UNL A   1      48.415  34.167  26.221  1.00  0.00     0.124 S 
ATOM     96  O   UNL A   1      48.380  34.769  24.891  1.00  0.00    -0.237 OA
ATOM     97  O   UNL A   1      49.062  34.964  27.258  1.00  0.00    -0.237 OA
ATOM     98  O   UNL A   1      48.710  32.737  26.243  1.00  0.00    -0.744 OA
ENDBRANCH  91  95
ENDBRANCH  64  88
BRANCH  76  99
ATOM     99  C   UNL A   1      41.763  29.938  32.314  1.00  0.00     0.023 A 
ATOM    100  C   UNL A   1      40.920  30.667  33.173  1.00  0.00     0.031 A 
ATOM    101  C   UNL A   1      41.170  28.933  31.525  1.00  0.00     0.131 A 
ATOM    102  C   UNL A   1      39.561  30.350  33.272  1.00  0.00     0.055 A 
ATOM    103  C   UNL A   1      39.796  28.673  31.568  1.00  0.00     0.041 A 
ATOM    104  F   UNL A   1      41.905  28.109  30.765  1.00  0.00    -0.206 F 
ATOM    105  C   UNL A   1      38.988  29.367  32.461  1.00  0.00     0.022 A 
BRANCH 102 106
ATOM    106  S   UNL A   1      38.553  31.077  34.589  1.00  0.00     0.124 S 
ATOM    107  O   UNL A   1      37.294  31.346  33.899  1.00  0.00    -0.237 OA
ATOM    108  O   UNL A   1      38.507  30.000  35.577  1.00  0.00    -0.237 OA
ATOM    109  O   UNL A   1      39.305  32.258  35.001  1.00  0.00    -0.744 OA
ENDBRANCH 102 106
ENDBRANCH  76  99
ENDBRANCH  50  51
ENDBRANCH  43  45
ENDBRANCH  42  43
ENDBRANCH  41  42
ENDBRANCH  40  41
ENDBRANCH  39  40
ENDBRANCH   1  39
TORSDOF 23
ENDMDL
