MODEL 1
REMARK VINA RESULT:     -11.9      0.000      0.000
REMARK SMILES Cc1ccccc1NC(=O)CSc1nc(C(=O)OCCOCCOC(=O)c2ccc(-c3c4nc(c(-c5cc(S(=O)(=O)[O-])ccc5F)c5ccc([nH]5)c(-c5cc(S(=O)(=O)[O-])ccc5F)c5nc(c(-c6cc(S(=O)(=O)[O-])ccc6F)c6ccc3[nH]6)C=C5)C=C4)cc2)c2ccccc2n1
REMARK SMILES IDX 20 1 19 2 18 3 16 4 17 5 15 6 13 7 14 8 96 9 95 10 90 11
REMARK SMILES IDX 94 12 91 13 93 14 92 15 12 16 11 17 9 18 8 19 10 21 7 22
REMARK SMILES IDX 1 23 2 24 3 25 4 26 6 27 5 28 21 29 22 30 23 31 24 32 25 33
REMARK SMILES IDX 26 34 27 35 28 36 89 37 29 38 88 39 30 40 31 41 32 42 82 43
REMARK SMILES IDX 33 44 87 45 81 46 83 47 34 48 86 49 80 50 79 51 35 53 67 54
REMARK SMILES IDX 47 55 66 56 48 57 51 58 65 59 84 60 49 61 50 62 64 64 85 65
REMARK SMILES IDX 52 66 36 67 37 68 45 69 38 70 44 71 46 72 43 73 39 74 40 75
REMARK SMILES IDX 41 76 42 77 68 78 69 79 77 80 70 81 76 82 78 83 75 84 71 85
REMARK SMILES IDX 72 86 73 87 74 88 53 89 54 90 62 91 55 92 61 93 63 94 60 95
REMARK SMILES IDX 56 96 57 97 58 98 59 99
REMARK H PARENT 8 20 83 52 51 63
REMARK Flexibility Score: inf
ROOT
ATOM      1  C   UNL A   1      33.474  28.841  26.496  1.00  0.00     0.202 C 
ENDROOT
BRANCH   1   2
ATOM      2  C   UNL A   1      33.331  29.227  25.062  1.00  0.00     0.261 C 
BRANCH   2   3
ATOM      3  O   UNL A   1      33.638  28.109  24.214  1.00  0.00    -0.458 OA
BRANCH   3   4
ATOM      4  C   UNL A   1      33.242  27.997  22.924  1.00  0.00     0.357 C 
ATOM      5  O   UNL A   1      33.905  28.116  21.920  1.00  0.00    -0.244 OA
BRANCH   4   6
ATOM      6  C   UNL A   1      31.846  27.474  22.937  1.00  0.00     0.160 A 
ATOM      7  C   UNL A   1      30.628  25.802  23.859  1.00  0.00     0.189 A 
ATOM      8  N   UNL A   1      31.813  26.246  23.491  1.00  0.00    -0.215 NA
ATOM      9  N   UNL A   1      29.476  26.468  23.720  1.00  0.00    -0.222 NA
ATOM     10  C   UNL A   1      29.523  27.674  23.130  1.00  0.00     0.076 A 
ATOM     11  C   UNL A   1      30.706  28.256  22.675  1.00  0.00     0.034 A 
ATOM     12  C   UNL A   1      28.345  28.410  23.027  1.00  0.00     0.029 A 
ATOM     13  C   UNL A   1      30.647  29.553  22.083  1.00  0.00     0.013 A 
ATOM     14  C   UNL A   1      28.312  29.711  22.513  1.00  0.00     0.002 A 
ATOM     15  C   UNL A   1      29.472  30.288  22.042  1.00  0.00     0.001 A 
BRANCH   7  16
ATOM     16  S   UNL A   1      30.652  24.337  24.835  1.00  0.00    -0.076 SA
BRANCH  16  17
ATOM     17  C   UNL A   1      32.441  24.273  25.201  1.00  0.00     0.178 C 
BRANCH  17  18
ATOM     18  C   UNL A   1      32.758  23.673  26.557  1.00  0.00     0.234 C 
ATOM     19  N   UNL A   1      33.897  22.980  26.851  1.00  0.00    -0.325 N 
ATOM     20  H   UNL A   1      33.893  22.600  27.760  1.00  0.00     0.169 HD
ATOM     21  O   UNL A   1      31.953  23.804  27.488  1.00  0.00    -0.274 OA
BRANCH  19  22
ATOM     22  C   UNL A   1      35.076  22.687  26.139  1.00  0.00     0.044 A 
ATOM     23  C   UNL A   1      34.043  20.500  25.224  1.00  0.00     0.046 C 
ATOM     24  C   UNL A   1      35.184  21.456  25.460  1.00  0.00    -0.027 A 
ATOM     25  C   UNL A   1      36.441  21.060  24.956  1.00  0.00     0.005 A 
ATOM     26  C   UNL A   1      37.562  21.874  25.086  1.00  0.00     0.000 A 
ATOM     27  C   UNL A   1      36.178  23.547  26.119  1.00  0.00     0.026 A 
ATOM     28  C   UNL A   1      37.422  23.135  25.641  1.00  0.00     0.002 A 
ENDBRANCH  19  22
ENDBRANCH  17  18
ENDBRANCH  16  17
ENDBRANCH   7  16
ENDBRANCH   4   6
ENDBRANCH   3   4
ENDBRANCH   2   3
ENDBRANCH   1   2
BRANCH   1  29
ATOM     29  O   UNL A   1      33.128  30.010  27.216  1.00  0.00    -0.374 OA
BRANCH  29  30
ATOM     30  C   UNL A   1      34.176  30.890  27.530  1.00  0.00     0.202 C 
BRANCH  30  31
ATOM     31  C   UNL A   1      33.651  32.321  27.649  1.00  0.00     0.261 C 
BRANCH  31  32
ATOM     32  O   UNL A   1      34.688  33.201  28.151  1.00  0.00    -0.460 OA
BRANCH  32  33
ATOM     33  C   UNL A   1      34.631  33.512  29.483  1.00  0.00     0.338 C 
ATOM     34  O   UNL A   1      33.636  33.930  30.052  1.00  0.00    -0.246 OA
BRANCH  33  35
ATOM     35  C   UNL A   1      35.986  33.418  30.110  1.00  0.00     0.060 A 
ATOM     36  C   UNL A   1      37.154  33.702  29.369  1.00  0.00     0.016 A 
ATOM     37  C   UNL A   1      36.087  32.741  31.316  1.00  0.00     0.016 A 
ATOM     38  C   UNL A   1      38.390  33.144  29.746  1.00  0.00     0.010 A 
ATOM     39  C   UNL A   1      37.261  32.078  31.589  1.00  0.00     0.010 A 
ATOM     40  C   UNL A   1      38.415  32.239  30.800  1.00  0.00    -0.014 A 
BRANCH  40  41
ATOM     41  C   UNL A   1      39.514  31.346  31.199  1.00  0.00     0.031 A 
ATOM     42  C   UNL A   1      39.645  30.096  30.415  1.00  0.00     0.074 A 
ATOM     43  C   UNL A   1      40.571  31.800  31.923  1.00  0.00     0.049 A 
ATOM     44  N   UNL A   1      40.600  29.254  30.552  1.00  0.00    -0.248 NA
ATOM     45  C   UNL A   1      38.678  29.665  29.402  1.00  0.00     0.031 C 
ATOM     46  C   UNL A   1      41.983  31.408  31.813  1.00  0.00     0.029 A 
ATOM     47  N   UNL A   1      40.607  32.763  32.929  1.00  0.00    -0.354 N 
ATOM     48  C   UNL A   1      40.596  28.422  29.459  1.00  0.00     0.074 A 
ATOM     49  C   UNL A   1      39.314  28.632  28.846  1.00  0.00     0.031 C 
ATOM     50  C   UNL A   1      42.686  31.920  32.840  1.00  0.00     0.029 A 
ATOM     51  C   UNL A   1      41.734  32.545  33.738  1.00  0.00     0.049 A 
ATOM     52  H   UNL A   1      39.946  33.482  33.053  1.00  0.00     0.167 HD
ATOM     53  C   UNL A   1      41.750  27.760  29.174  1.00  0.00     0.034 A 
ATOM     54  C   UNL A   1      41.567  32.312  35.066  1.00  0.00     0.034 A 
ATOM     55  C   UNL A   1      42.709  27.931  30.279  1.00  0.00     0.049 A 
ATOM     56  C   UNL A   1      41.930  30.860  35.304  1.00  0.00     0.074 A 
ATOM     57  C   UNL A   1      43.890  28.634  30.444  1.00  0.00     0.029 A 
ATOM     58  N   UNL A   1      42.297  27.572  31.562  1.00  0.00    -0.354 N 
ATOM     59  N   UNL A   1      41.957  29.964  34.348  1.00  0.00    -0.248 NA
ATOM     60  C   UNL A   1      42.447  30.336  36.562  1.00  0.00     0.031 C 
ATOM     61  C   UNL A   1      44.132  28.751  31.851  1.00  0.00     0.029 A 
ATOM     62  C   UNL A   1      43.118  28.093  32.536  1.00  0.00     0.049 A 
ATOM     63  H   UNL A   1      41.510  27.010  31.749  1.00  0.00     0.167 HD
ATOM     64  C   UNL A   1      42.580  28.832  34.779  1.00  0.00     0.074 A 
ATOM     65  C   UNL A   1      42.830  29.100  36.190  1.00  0.00     0.031 C 
ATOM     66  C   UNL A   1      42.874  27.784  33.947  1.00  0.00     0.034 A 
BRANCH  53  67
ATOM     67  C   UNL A   1      42.099  27.069  27.870  1.00  0.00     0.023 A 
ATOM     68  C   UNL A   1      42.727  25.806  27.933  1.00  0.00     0.031 A 
ATOM     69  C   UNL A   1      41.922  27.578  26.564  1.00  0.00     0.131 A 
ATOM     70  C   UNL A   1      43.141  25.125  26.772  1.00  0.00     0.055 A 
ATOM     71  C   UNL A   1      42.305  26.885  25.407  1.00  0.00     0.041 A 
ATOM     72  F   UNL A   1      41.404  28.782  26.316  1.00  0.00    -0.206 F 
ATOM     73  C   UNL A   1      42.921  25.653  25.504  1.00  0.00     0.022 A 
BRANCH  70  74
ATOM     74  S   UNL A   1      43.994  23.534  26.937  1.00  0.00     0.124 S 
ATOM     75  O   UNL A   1      44.228  23.164  25.546  1.00  0.00    -0.237 OA
ATOM     76  O   UNL A   1      45.171  23.891  27.720  1.00  0.00    -0.237 OA
ATOM     77  O   UNL A   1      43.020  22.699  27.639  1.00  0.00    -0.744 OA
ENDBRANCH  70  74
ENDBRANCH  53  67
BRANCH  54  78
ATOM     78  C   UNL A   1      40.428  33.146  35.598  1.00  0.00     0.023 A 
ATOM     79  C   UNL A   1      39.343  32.454  36.214  1.00  0.00     0.031 A 
ATOM     80  C   UNL A   1      40.665  34.467  36.023  1.00  0.00     0.131 A 
ATOM     81  C   UNL A   1      38.660  33.018  37.314  1.00  0.00     0.055 A 
ATOM     82  C   UNL A   1      39.986  35.013  37.125  1.00  0.00     0.041 A 
ATOM     83  F   UNL A   1      41.682  35.173  35.509  1.00  0.00    -0.206 F 
ATOM     84  C   UNL A   1      39.015  34.277  37.801  1.00  0.00     0.022 A 
BRANCH  81  85
ATOM     85  S   UNL A   1      37.443  32.017  38.244  1.00  0.00     0.124 S 
ATOM     86  O   UNL A   1      37.423  30.770  37.490  1.00  0.00    -0.237 OA
ATOM     87  O   UNL A   1      38.041  31.941  39.573  1.00  0.00    -0.237 OA
ATOM     88  O   UNL A   1      36.219  32.813  38.177  1.00  0.00    -0.744 OA
ENDBRANCH  81  85
ENDBRANCH  54  78
BRANCH  66  89
ATOM     89  C   UNL A   1      43.003  26.351  34.417  1.00  0.00     0.023 A 
ATOM     90  C   UNL A   1      44.229  25.683  34.438  1.00  0.00     0.031 A 
ATOM     91  C   UNL A   1      41.918  25.633  34.982  1.00  0.00     0.131 A 
ATOM     92  C   UNL A   1      44.339  24.359  34.877  1.00  0.00     0.055 A 
ATOM     93  C   UNL A   1      42.049  24.351  35.523  1.00  0.00     0.041 A 
ATOM     94  F   UNL A   1      40.683  26.143  35.069  1.00  0.00    -0.206 F 
ATOM     95  C   UNL A   1      43.264  23.691  35.449  1.00  0.00     0.022 A 
BRANCH  92  96
ATOM     96  S   UNL A   1      45.914  23.525  34.587  1.00  0.00     0.124 S 
ATOM     97  O   UNL A   1      45.475  22.217  34.109  1.00  0.00    -0.237 OA
ATOM     98  O   UNL A   1      46.544  24.381  33.587  1.00  0.00    -0.237 OA
ATOM     99  O   UNL A   1      46.552  23.526  35.901  1.00  0.00    -0.744 OA
ENDBRANCH  92  96
ENDBRANCH  66  89
ENDBRANCH  40  41
ENDBRANCH  33  35
ENDBRANCH  32  33
ENDBRANCH  31  32
ENDBRANCH  30  31
ENDBRANCH  29  30
ENDBRANCH   1  29
TORSDOF 21
ENDMDL
MODEL 2
REMARK VINA RESULT:     -11.3      4.541     10.566
REMARK SMILES Cc1ccccc1NC(=O)CSc1nc(C(=O)OCCOCCOC(=O)c2ccc(-c3c4nc(c(-c5cc(S(=O)(=O)[O-])ccc5F)c5ccc([nH]5)c(-c5cc(S(=O)(=O)[O-])ccc5F)c5nc(c(-c6cc(S(=O)(=O)[O-])ccc6F)c6ccc3[nH]6)C=C5)C=C4)cc2)c2ccccc2n1
REMARK SMILES IDX 20 1 19 2 18 3 16 4 17 5 15 6 13 7 14 8 96 9 95 10 90 11
REMARK SMILES IDX 94 12 91 13 93 14 92 15 12 16 11 17 9 18 8 19 10 21 7 22
REMARK SMILES IDX 1 23 2 24 3 25 4 26 6 27 5 28 21 29 22 30 23 31 24 32 25 33
REMARK SMILES IDX 26 34 27 35 28 36 89 37 29 38 88 39 30 40 31 41 32 42 82 43
REMARK SMILES IDX 33 44 87 45 81 46 83 47 34 48 86 49 80 50 79 51 35 53 67 54
REMARK SMILES IDX 47 55 66 56 48 57 51 58 65 59 84 60 49 61 50 62 64 64 85 65
REMARK SMILES IDX 52 66 36 67 37 68 45 69 38 70 44 71 46 72 43 73 39 74 40 75
REMARK SMILES IDX 41 76 42 77 68 78 69 79 77 80 70 81 76 82 78 83 75 84 71 85
REMARK SMILES IDX 72 86 73 87 74 88 53 89 54 90 62 91 55 92 61 93 63 94 60 95
REMARK SMILES IDX 56 96 57 97 58 98 59 99
REMARK H PARENT 8 20 83 52 51 63
REMARK Flexibility Score: inf
ROOT
ATOM      1  C   UNL A   1      37.555  22.158  26.007  1.00  0.00     0.202 C 
ENDROOT
BRANCH   1   2
ATOM      2  C   UNL A   1      37.355  23.513  25.417  1.00  0.00     0.261 C 
BRANCH   2   3
ATOM      3  O   UNL A   1      36.055  23.605  24.813  1.00  0.00    -0.458 OA
BRANCH   3   4
ATOM      4  C   UNL A   1      34.890  23.583  25.500  1.00  0.00     0.357 C 
ATOM      5  O   UNL A   1      34.681  23.931  26.639  1.00  0.00    -0.244 OA
BRANCH   4   6
ATOM      6  C   UNL A   1      33.812  23.245  24.527  1.00  0.00     0.160 A 
ATOM      7  C   UNL A   1      32.909  24.019  22.601  1.00  0.00     0.189 A 
ATOM      8  N   UNL A   1      33.591  24.282  23.697  1.00  0.00    -0.215 NA
ATOM      9  N   UNL A   1      32.424  22.819  22.262  1.00  0.00    -0.222 NA
ATOM     10  C   UNL A   1      32.621  21.805  23.120  1.00  0.00     0.076 A 
ATOM     11  C   UNL A   1      33.308  21.946  24.325  1.00  0.00     0.034 A 
ATOM     12  C   UNL A   1      32.175  20.535  22.762  1.00  0.00     0.029 A 
ATOM     13  C   UNL A   1      33.480  20.797  25.154  1.00  0.00     0.013 A 
ATOM     14  C   UNL A   1      32.416  19.401  23.547  1.00  0.00     0.002 A 
ATOM     15  C   UNL A   1      33.077  19.534  24.750  1.00  0.00     0.001 A 
BRANCH   7  16
ATOM     16  S   UNL A   1      32.888  25.313  21.407  1.00  0.00    -0.076 SA
BRANCH  16  17
ATOM     17  C   UNL A   1      32.786  26.741  22.543  1.00  0.00     0.178 C 
BRANCH  17  18
ATOM     18  C   UNL A   1      31.405  27.363  22.608  1.00  0.00     0.234 C 
ATOM     19  N   UNL A   1      30.892  27.999  23.702  1.00  0.00    -0.325 N 
ATOM     20  H   UNL A   1      29.952  28.271  23.583  1.00  0.00     0.169 HD
ATOM     21  O   UNL A   1      30.663  27.312  21.618  1.00  0.00    -0.274 OA
BRANCH  19  22
ATOM     22  C   UNL A   1      31.411  28.351  24.962  1.00  0.00     0.044 A 
ATOM     23  C   UNL A   1      31.023  25.955  25.851  1.00  0.00     0.046 C 
ATOM     24  C   UNL A   1      31.367  27.412  26.013  1.00  0.00    -0.027 A 
ATOM     25  C   UNL A   1      31.659  27.840  27.326  1.00  0.00     0.005 A 
ATOM     26  C   UNL A   1      32.021  29.156  27.595  1.00  0.00     0.000 A 
ATOM     27  C   UNL A   1      31.924  29.623  25.238  1.00  0.00     0.026 A 
ATOM     28  C   UNL A   1      32.185  30.042  26.543  1.00  0.00     0.002 A 
ENDBRANCH  19  22
ENDBRANCH  17  18
ENDBRANCH  16  17
ENDBRANCH   7  16
ENDBRANCH   4   6
ENDBRANCH   3   4
ENDBRANCH   2   3
ENDBRANCH   1   2
BRANCH   1  29
ATOM     29  O   UNL A   1      38.312  21.454  25.038  1.00  0.00    -0.374 OA
BRANCH  29  30
ATOM     30  C   UNL A   1      38.840  20.215  25.431  1.00  0.00     0.202 C 
BRANCH  30  31
ATOM     31  C   UNL A   1      40.056  20.418  26.335  1.00  0.00     0.261 C 
BRANCH  31  32
ATOM     32  O   UNL A   1      40.972  21.374  25.746  1.00  0.00    -0.460 OA
BRANCH  32  33
ATOM     33  C   UNL A   1      42.304  21.065  25.816  1.00  0.00     0.338 C 
ATOM     34  O   UNL A   1      42.790  20.015  25.429  1.00  0.00    -0.246 OA
BRANCH  33  35
ATOM     35  C   UNL A   1      43.056  22.119  26.564  1.00  0.00     0.060 A 
ATOM     36  C   UNL A   1      42.884  22.289  27.954  1.00  0.00     0.016 A 
ATOM     37  C   UNL A   1      43.666  23.119  25.820  1.00  0.00     0.016 A 
ATOM     38  C   UNL A   1      43.152  23.533  28.558  1.00  0.00     0.010 A 
ATOM     39  C   UNL A   1      43.777  24.368  26.386  1.00  0.00     0.010 A 
ATOM     40  C   UNL A   1      43.495  24.605  27.744  1.00  0.00    -0.014 A 
BRANCH  40  41
ATOM     41  C   UNL A   1      43.563  26.029  28.106  1.00  0.00     0.031 A 
ATOM     42  C   UNL A   1      42.268  26.748  28.140  1.00  0.00     0.074 A 
ATOM     43  C   UNL A   1      44.636  26.546  28.762  1.00  0.00     0.049 A 
ATOM     44  N   UNL A   1      42.123  27.957  28.532  1.00  0.00    -0.248 NA
ATOM     45  C   UNL A   1      40.999  26.158  27.703  1.00  0.00     0.031 C 
ATOM     46  C   UNL A   1      44.652  27.585  29.800  1.00  0.00     0.029 A 
ATOM     47  N   UNL A   1      45.985  26.215  28.651  1.00  0.00    -0.354 N 
ATOM     48  C   UNL A   1      40.786  28.176  28.758  1.00  0.00     0.074 A 
ATOM     49  C   UNL A   1      40.123  27.080  28.107  1.00  0.00     0.031 C 
ATOM     50  C   UNL A   1      45.916  27.971  30.049  1.00  0.00     0.029 A 
ATOM     51  C   UNL A   1      46.764  27.302  29.081  1.00  0.00     0.049 A 
ATOM     52  H   UNL A   1      46.336  25.356  28.324  1.00  0.00     0.167 HD
ATOM     53  C   UNL A   1      40.451  29.209  29.578  1.00  0.00     0.034 A 
ATOM     54  C   UNL A   1      47.651  27.868  28.220  1.00  0.00     0.034 A 
ATOM     55  C   UNL A   1      41.646  30.021  29.870  1.00  0.00     0.049 A 
ATOM     56  C   UNL A   1      47.108  29.240  27.872  1.00  0.00     0.074 A 
ATOM     57  C   UNL A   1      42.442  30.216  30.985  1.00  0.00     0.029 A 
ATOM     58  N   UNL A   1      42.370  30.527  28.790  1.00  0.00    -0.354 N 
ATOM     59  N   UNL A   1      45.851  29.572  28.034  1.00  0.00    -0.248 NA
ATOM     60  C   UNL A   1      47.933  30.377  27.487  1.00  0.00     0.031 C 
ATOM     61  C   UNL A   1      43.682  30.778  30.539  1.00  0.00     0.029 A 
ATOM     62  C   UNL A   1      43.626  30.953  29.162  1.00  0.00     0.049 A 
ATOM     63  H   UNL A   1      42.023  30.574  27.870  1.00  0.00     0.167 HD
ATOM     64  C   UNL A   1      45.701  30.921  27.914  1.00  0.00     0.074 A 
ATOM     65  C   UNL A   1      47.031  31.376  27.527  1.00  0.00     0.031 C 
ATOM     66  C   UNL A   1      44.518  31.562  28.173  1.00  0.00     0.034 A 
BRANCH  53  67
ATOM     67  C   UNL A   1      39.106  29.442  30.238  1.00  0.00     0.023 A 
ATOM     68  C   UNL A   1      38.231  30.382  29.652  1.00  0.00     0.031 A 
ATOM     69  C   UNL A   1      38.636  28.863  31.437  1.00  0.00     0.131 A 
ATOM     70  C   UNL A   1      36.990  30.705  30.235  1.00  0.00     0.055 A 
ATOM     71  C   UNL A   1      37.386  29.159  32.000  1.00  0.00     0.041 A 
ATOM     72  F   UNL A   1      39.354  28.002  32.160  1.00  0.00    -0.206 F 
ATOM     73  C   UNL A   1      36.555  30.087  31.403  1.00  0.00     0.022 A 
BRANCH  70  74
ATOM     74  S   UNL A   1      35.948  31.966  29.455  1.00  0.00     0.124 S 
ATOM     75  O   UNL A   1      35.081  31.163  28.600  1.00  0.00    -0.237 OA
ATOM     76  O   UNL A   1      35.316  32.603  30.604  1.00  0.00    -0.237 OA
ATOM     77  O   UNL A   1      36.909  32.805  28.740  1.00  0.00    -0.744 OA
ENDBRANCH  70  74
ENDBRANCH  53  67
BRANCH  54  78
ATOM     78  C   UNL A   1      48.282  26.805  27.355  1.00  0.00     0.023 A 
ATOM     79  C   UNL A   1      48.101  26.918  25.944  1.00  0.00     0.031 A 
ATOM     80  C   UNL A   1      49.437  26.135  27.798  1.00  0.00     0.131 A 
ATOM     81  C   UNL A   1      49.124  26.526  25.053  1.00  0.00     0.055 A 
ATOM     82  C   UNL A   1      50.452  25.759  26.902  1.00  0.00     0.041 A 
ATOM     83  F   UNL A   1      49.689  26.010  29.109  1.00  0.00    -0.206 F 
ATOM     84  C   UNL A   1      50.320  25.992  25.535  1.00  0.00     0.022 A 
BRANCH  81  85
ATOM     85  S   UNL A   1      48.976  26.907  23.269  1.00  0.00     0.124 S 
ATOM     86  O   UNL A   1      48.300  25.724  22.752  1.00  0.00    -0.237 OA
ATOM     87  O   UNL A   1      48.187  28.135  23.271  1.00  0.00    -0.237 OA
ATOM     88  O   UNL A   1      50.362  27.080  22.838  1.00  0.00    -0.744 OA
ENDBRANCH  81  85
ENDBRANCH  54  78
BRANCH  66  89
ATOM     89  C   UNL A   1      44.117  32.873  27.532  1.00  0.00     0.023 A 
ATOM     90  C   UNL A   1      43.701  33.972  28.287  1.00  0.00     0.031 A 
ATOM     91  C   UNL A   1      44.252  33.116  26.142  1.00  0.00     0.131 A 
ATOM     92  C   UNL A   1      43.335  35.183  27.686  1.00  0.00     0.055 A 
ATOM     93  C   UNL A   1      43.993  34.356  25.554  1.00  0.00     0.041 A 
ATOM     94  F   UNL A   1      44.672  32.177  25.283  1.00  0.00    -0.206 F 
ATOM     95  C   UNL A   1      43.504  35.397  26.325  1.00  0.00     0.022 A 
BRANCH  92  96
ATOM     96  S   UNL A   1      42.551  36.420  28.741  1.00  0.00     0.124 S 
ATOM     97  O   UNL A   1      41.149  36.014  28.684  1.00  0.00    -0.237 OA
ATOM     98  O   UNL A   1      43.215  36.207  30.023  1.00  0.00    -0.237 OA
ATOM     99  O   UNL A   1      42.860  37.684  28.079  1.00  0.00    -0.744 OA
ENDBRANCH  92  96
ENDBRANCH  66  89
ENDBRANCH  40  41
ENDBRANCH  33  35
ENDBRANCH  32  33
ENDBRANCH  31  32
ENDBRANCH  30  31
ENDBRANCH  29  30
ENDBRANCH   1  29
TORSDOF 21
ENDMDL
MODEL 3
REMARK VINA RESULT:     -11.0      6.085      8.304
REMARK SMILES Cc1ccccc1NC(=O)CSc1nc(C(=O)OCCOCCOC(=O)c2ccc(-c3c4nc(c(-c5cc(S(=O)(=O)[O-])ccc5F)c5ccc([nH]5)c(-c5cc(S(=O)(=O)[O-])ccc5F)c5nc(c(-c6cc(S(=O)(=O)[O-])ccc6F)c6ccc3[nH]6)C=C5)C=C4)cc2)c2ccccc2n1
REMARK SMILES IDX 20 1 19 2 18 3 16 4 17 5 15 6 13 7 14 8 96 9 95 10 90 11
REMARK SMILES IDX 94 12 91 13 93 14 92 15 12 16 11 17 9 18 8 19 10 21 7 22
REMARK SMILES IDX 1 23 2 24 3 25 4 26 6 27 5 28 21 29 22 30 23 31 24 32 25 33
REMARK SMILES IDX 26 34 27 35 28 36 89 37 29 38 88 39 30 40 31 41 32 42 82 43
REMARK SMILES IDX 33 44 87 45 81 46 83 47 34 48 86 49 80 50 79 51 35 53 67 54
REMARK SMILES IDX 47 55 66 56 48 57 51 58 65 59 84 60 49 61 50 62 64 64 85 65
REMARK SMILES IDX 52 66 36 67 37 68 45 69 38 70 44 71 46 72 43 73 39 74 40 75
REMARK SMILES IDX 41 76 42 77 68 78 69 79 77 80 70 81 76 82 78 83 75 84 71 85
REMARK SMILES IDX 72 86 73 87 74 88 53 89 54 90 62 91 55 92 61 93 63 94 60 95
REMARK SMILES IDX 56 96 57 97 58 98 59 99
REMARK H PARENT 8 20 83 52 51 63
REMARK Flexibility Score: inf
ROOT
ATOM      1  C   UNL A   1      34.025  35.078  31.422  1.00  0.00     0.202 C 
ENDROOT
BRANCH   1   2
ATOM      2  C   UNL A   1      33.575  34.843  30.019  1.00  0.00     0.261 C 
BRANCH   2   3
ATOM      3  O   UNL A   1      34.045  33.568  29.554  1.00  0.00    -0.458 OA
BRANCH   3   4
ATOM      4  C   UNL A   1      34.530  33.339  28.311  1.00  0.00     0.357 C 
ATOM      5  O   UNL A   1      34.872  34.144  27.477  1.00  0.00    -0.244 OA
BRANCH   4   6
ATOM      6  C   UNL A   1      34.786  31.874  28.203  1.00  0.00     0.160 A 
ATOM      7  C   UNL A   1      33.985  30.048  27.131  1.00  0.00     0.189 A 
ATOM      8  N   UNL A   1      33.758  31.266  27.580  1.00  0.00    -0.215 NA
ATOM      9  N   UNL A   1      35.139  29.382  27.252  1.00  0.00    -0.222 NA
ATOM     10  C   UNL A   1      36.140  29.989  27.911  1.00  0.00     0.076 A 
ATOM     11  C   UNL A   1      36.032  31.269  28.454  1.00  0.00     0.034 A 
ATOM     12  C   UNL A   1      37.368  29.339  28.000  1.00  0.00     0.029 A 
ATOM     13  C   UNL A   1      37.165  31.830  29.115  1.00  0.00     0.013 A 
ATOM     14  C   UNL A   1      38.494  29.929  28.583  1.00  0.00     0.002 A 
ATOM     15  C   UNL A   1      38.392  31.186  29.142  1.00  0.00     0.001 A 
BRANCH   7  16
ATOM     16  S   UNL A   1      32.734  29.398  26.076  1.00  0.00    -0.076 SA
BRANCH  16  17
ATOM     17  C   UNL A   1      33.451  27.744  25.777  1.00  0.00     0.178 C 
BRANCH  17  18
ATOM     18  C   UNL A   1      32.438  26.620  25.878  1.00  0.00     0.234 C 
ATOM     19  N   UNL A   1      32.688  25.319  25.548  1.00  0.00    -0.325 N 
ATOM     20  H   UNL A   1      31.888  24.747  25.607  1.00  0.00     0.169 HD
ATOM     21  O   UNL A   1      31.296  26.861  26.289  1.00  0.00    -0.274 OA
BRANCH  19  22
ATOM     22  C   UNL A   1      33.838  24.617  25.140  1.00  0.00     0.044 A 
ATOM     23  C   UNL A   1      33.413  25.248  22.669  1.00  0.00     0.046 C 
ATOM     24  C   UNL A   1      34.117  24.489  23.764  1.00  0.00    -0.027 A 
ATOM     25  C   UNL A   1      35.121  23.589  23.349  1.00  0.00     0.005 A 
ATOM     26  C   UNL A   1      35.861  22.855  24.271  1.00  0.00     0.000 A 
ATOM     27  C   UNL A   1      34.696  23.985  26.046  1.00  0.00     0.026 A 
ATOM     28  C   UNL A   1      35.669  23.078  25.624  1.00  0.00     0.002 A 
ENDBRANCH  19  22
ENDBRANCH  17  18
ENDBRANCH  16  17
ENDBRANCH   7  16
ENDBRANCH   4   6
ENDBRANCH   3   4
ENDBRANCH   2   3
ENDBRANCH   1   2
BRANCH   1  29
ATOM     29  O   UNL A   1      34.371  33.793  31.905  1.00  0.00    -0.374 OA
BRANCH  29  30
ATOM     30  C   UNL A   1      34.122  33.544  33.264  1.00  0.00     0.202 C 
BRANCH  30  31
ATOM     31  C   UNL A   1      35.427  33.224  33.994  1.00  0.00     0.261 C 
BRANCH  31  32
ATOM     32  O   UNL A   1      36.506  34.051  33.489  1.00  0.00    -0.460 OA
BRANCH  32  33
ATOM     33  C   UNL A   1      37.734  33.455  33.389  1.00  0.00     0.338 C 
ATOM     34  O   UNL A   1      38.099  32.506  34.064  1.00  0.00    -0.246 OA
BRANCH  33  35
ATOM     35  C   UNL A   1      38.619  34.214  32.452  1.00  0.00     0.060 A 
ATOM     36  C   UNL A   1      38.268  34.384  31.095  1.00  0.00     0.016 A 
ATOM     37  C   UNL A   1      39.921  34.461  32.860  1.00  0.00     0.016 A 
ATOM     38  C   UNL A   1      39.263  34.616  30.126  1.00  0.00     0.010 A 
ATOM     39  C   UNL A   1      40.898  34.533  31.895  1.00  0.00     0.010 A 
ATOM     40  C   UNL A   1      40.594  34.580  30.521  1.00  0.00    -0.014 A 
BRANCH  40  41
ATOM     41  C   UNL A   1      41.790  34.532  29.665  1.00  0.00     0.031 A 
ATOM     42  C   UNL A   1      42.401  33.195  29.485  1.00  0.00     0.074 A 
ATOM     43  C   UNL A   1      42.070  35.523  28.778  1.00  0.00     0.049 A 
ATOM     44  N   UNL A   1      43.379  32.947  28.698  1.00  0.00    -0.248 NA
ATOM     45  C   UNL A   1      41.967  31.998  30.212  1.00  0.00     0.031 C 
ATOM     46  C   UNL A   1      42.659  35.404  27.438  1.00  0.00     0.029 A 
ATOM     47  N   UNL A   1      41.850  36.895  28.886  1.00  0.00    -0.354 N 
ATOM     48  C   UNL A   1      43.454  31.586  28.523  1.00  0.00     0.074 A 
ATOM     49  C   UNL A   1      42.647  31.039  29.579  1.00  0.00     0.031 C 
ATOM     50  C   UNL A   1      42.972  36.622  26.960  1.00  0.00     0.029 A 
ATOM     51  C   UNL A   1      42.732  37.573  28.028  1.00  0.00     0.049 A 
ATOM     52  H   UNL A   1      41.182  37.321  29.470  1.00  0.00     0.167 HD
ATOM     53  C   UNL A   1      44.104  31.133  27.417  1.00  0.00     0.034 A 
ATOM     54  C   UNL A   1      43.604  38.478  28.548  1.00  0.00     0.034 A 
ATOM     55  C   UNL A   1      44.795  32.251  26.752  1.00  0.00     0.049 A 
ATOM     56  C   UNL A   1      44.988  37.873  28.423  1.00  0.00     0.074 A 
ATOM     57  C   UNL A   1      44.598  32.957  25.577  1.00  0.00     0.029 A 
ATOM     58  N   UNL A   1      45.685  33.012  27.510  1.00  0.00    -0.354 N 
ATOM     59  N   UNL A   1      45.194  36.589  28.260  1.00  0.00    -0.248 NA
ATOM     60  C   UNL A   1      46.216  38.647  28.300  1.00  0.00     0.031 C 
ATOM     61  C   UNL A   1      45.327  34.186  25.683  1.00  0.00     0.029 A 
ATOM     62  C   UNL A   1      45.990  34.210  26.904  1.00  0.00     0.049 A 
ATOM     63  H   UNL A   1      46.052  32.725  28.377  1.00  0.00     0.167 HD
ATOM     64  C   UNL A   1      46.488  36.362  27.898  1.00  0.00     0.074 A 
ATOM     65  C   UNL A   1      47.099  37.683  27.980  1.00  0.00     0.031 C 
ATOM     66  C   UNL A   1      46.948  35.126  27.526  1.00  0.00     0.034 A 
BRANCH  53  67
ATOM     67  C   UNL A   1      44.033  29.735  26.835  1.00  0.00     0.023 A 
ATOM     68  C   UNL A   1      45.241  29.108  26.459  1.00  0.00     0.031 A 
ATOM     69  C   UNL A   1      42.867  28.987  26.557  1.00  0.00     0.131 A 
ATOM     70  C   UNL A   1      45.260  27.837  25.853  1.00  0.00     0.055 A 
ATOM     71  C   UNL A   1      42.888  27.708  25.984  1.00  0.00     0.041 A 
ATOM     72  F   UNL A   1      41.636  29.447  26.786  1.00  0.00    -0.206 F 
ATOM     73  C   UNL A   1      44.087  27.125  25.624  1.00  0.00     0.022 A 
BRANCH  70  74
ATOM     74  S   UNL A   1      46.847  27.123  25.345  1.00  0.00     0.124 S 
ATOM     75  O   UNL A   1      47.477  26.829  26.628  1.00  0.00    -0.237 OA
ATOM     76  O   UNL A   1      46.432  25.975  24.547  1.00  0.00    -0.237 OA
ATOM     77  O   UNL A   1      47.476  28.203  24.585  1.00  0.00    -0.744 OA
ENDBRANCH  70  74
ENDBRANCH  53  67
BRANCH  54  78
ATOM     78  C   UNL A   1      42.952  39.231  29.681  1.00  0.00     0.023 A 
ATOM     79  C   UNL A   1      43.626  39.232  30.938  1.00  0.00     0.031 A 
ATOM     80  C   UNL A   1      42.118  40.330  29.404  1.00  0.00     0.131 A 
ATOM     81  C   UNL A   1      43.584  40.368  31.777  1.00  0.00     0.055 A 
ATOM     82  C   UNL A   1      42.093  41.457  30.242  1.00  0.00     0.041 A 
ATOM     83  F   UNL A   1      41.471  40.413  28.233  1.00  0.00    -0.206 F 
ATOM     84  C   UNL A   1      42.858  41.500  31.406  1.00  0.00     0.022 A 
BRANCH  81  85
ATOM     85  S   UNL A   1      44.651  40.444  33.262  1.00  0.00     0.124 S 
ATOM     86  O   UNL A   1      45.684  39.463  32.956  1.00  0.00    -0.237 OA
ATOM     87  O   UNL A   1      45.087  41.837  33.269  1.00  0.00    -0.237 OA
ATOM     88  O   UNL A   1      43.748  40.089  34.355  1.00  0.00    -0.744 OA
ENDBRANCH  81  85
ENDBRANCH  54  78
BRANCH  66  89
ATOM     89  C   UNL A   1      48.388  34.686  27.683  1.00  0.00     0.023 A 
ATOM     90  C   UNL A   1      49.232  34.502  26.586  1.00  0.00     0.031 A 
ATOM     91  C   UNL A   1      49.011  34.551  28.950  1.00  0.00     0.131 A 
ATOM     92  C   UNL A   1      50.563  34.098  26.740  1.00  0.00     0.055 A 
ATOM     93  C   UNL A   1      50.367  34.256  29.107  1.00  0.00     0.041 A 
ATOM     94  F   UNL A   1      48.350  34.729  30.101  1.00  0.00    -0.206 F 
ATOM     95  C   UNL A   1      51.152  34.000  27.994  1.00  0.00     0.022 A 
BRANCH  92  96
ATOM     96  S   UNL A   1      51.457  33.623  25.245  1.00  0.00     0.124 S 
ATOM     97  O   UNL A   1      52.845  33.700  25.691  1.00  0.00    -0.237 OA
ATOM     98  O   UNL A   1      50.952  32.277  24.992  1.00  0.00    -0.237 OA
ATOM     99  O   UNL A   1      51.058  34.634  24.270  1.00  0.00    -0.744 OA
ENDBRANCH  92  96
ENDBRANCH  66  89
ENDBRANCH  40  41
ENDBRANCH  33  35
ENDBRANCH  32  33
ENDBRANCH  31  32
ENDBRANCH  30  31
ENDBRANCH  29  30
ENDBRANCH   1  29
TORSDOF 21
ENDMDL
