MODEL 1
REMARK VINA RESULT:     -10.9      0.000      0.000
REMARK SMILES Nc1nc(Nc2ccc(C(=O)OCCOCCOC(=O)c3ccc(-c4c5nc(c(-c6cc(S(=O)(=O)[O-])ccc6F)c6ccc([nH]6)c(-c6cc(S(=O)(=O)[O-])ccc6F)c6nc(c(-c7cc(S(=O)(=O)[O-])ccc7F)c7ccc4[nH]7)C=C6)C=C5)cc3)cc2)ccc1[N+](=O)[O-]
REMARK SMILES IDX 15 1 14 2 13 3 12 4 10 5 11 6 9 7 6 8 7 9 85 10 8 11 84 12
REMARK SMILES IDX 5 13 4 15 2 16 3 17 88 18 87 19 86 20 1 21 89 24 90 25 91 26
REMARK SMILES IDX 16 27 17 28 18 29 19 30 20 31 21 32 22 33 83 34 23 35 82 36
REMARK SMILES IDX 24 37 25 38 26 39 76 40 27 41 81 42 75 43 77 44 28 45 80 46
REMARK SMILES IDX 74 47 73 48 29 50 61 51 41 52 60 53 42 54 45 55 59 56 78 57
REMARK SMILES IDX 43 58 44 59 58 61 79 62 46 63 30 64 31 65 39 66 32 67 38 68
REMARK SMILES IDX 40 69 37 70 33 71 34 72 35 73 36 74 62 75 63 76 71 77 64 78
REMARK SMILES IDX 70 79 72 80 69 81 65 82 66 83 67 84 68 85 47 86 48 87 56 88
REMARK SMILES IDX 49 89 55 90 57 91 54 92 50 93 51 94 52 95 53 96
REMARK H PARENT 5 14 1 22 1 23 77 49 45 60
REMARK Flexibility Score: inf
ROOT
ATOM      1  O   UNL A   1      37.322  21.671  25.544  1.00  0.00    -0.374 OA
ENDROOT
BRANCH   1   2
ATOM      2  C   UNL A   1      36.902  22.894  24.936  1.00  0.00     0.202 C 
BRANCH   2   3
ATOM      3  C   UNL A   1      35.994  23.787  25.785  1.00  0.00     0.261 C 
BRANCH   3   4
ATOM      4  O   UNL A   1      35.409  24.832  24.993  1.00  0.00    -0.460 OA
BRANCH   4   5
ATOM      5  C   UNL A   1      34.065  24.945  25.101  1.00  0.00     0.338 C 
ATOM      6  O   UNL A   1      33.442  25.868  25.607  1.00  0.00    -0.246 OA
BRANCH   5   7
ATOM      7  C   UNL A   1      33.396  23.842  24.375  1.00  0.00     0.060 A 
ATOM      8  C   UNL A   1      32.241  21.580  23.185  1.00  0.00     0.040 A 
ATOM      9  C   UNL A   1      31.975  21.885  24.524  1.00  0.00     0.027 A 
ATOM     10  C   UNL A   1      33.029  22.464  22.431  1.00  0.00     0.027 A 
ATOM     11  C   UNL A   1      32.557  23.003  25.118  1.00  0.00     0.018 A 
ATOM     12  C   UNL A   1      33.596  23.600  23.014  1.00  0.00     0.018 A 
BRANCH   8  13
ATOM     13  N   UNL A   1      31.905  20.301  22.693  1.00  0.00    -0.340 N 
ATOM     14  H   UNL A   1      31.295  20.241  21.923  1.00  0.00     0.168 HD
BRANCH  13  15
ATOM     15  C   UNL A   1      32.400  19.103  23.250  1.00  0.00     0.133 A 
ATOM     16  C   UNL A   1      32.760  17.763  25.147  1.00  0.00     0.204 A 
ATOM     17  N   UNL A   1      32.332  18.912  24.588  1.00  0.00    -0.207 NA
ATOM     18  C   UNL A   1      33.277  16.742  24.361  1.00  0.00     0.311 A 
ATOM     19  C   UNL A   1      33.378  16.933  22.976  1.00  0.00     0.093 A 
ATOM     20  C   UNL A   1      32.942  18.134  22.417  1.00  0.00     0.054 A 
BRANCH  16  21
ATOM     21  N   UNL A   1      32.528  17.700  26.501  1.00  0.00    -0.378 N 
ATOM     22  H   UNL A   1      33.249  17.421  27.111  1.00  0.00     0.158 HD
ATOM     23  H   UNL A   1      31.642  17.933  26.860  1.00  0.00     0.158 HD
ENDBRANCH  16  21
BRANCH  18  24
ATOM     24  N   UNL A   1      33.730  15.482  24.940  1.00  0.00     0.066 N 
ATOM     25  O   UNL A   1      34.956  15.300  25.015  1.00  0.00    -0.258 OA
ATOM     26  O   UNL A   1      32.887  14.670  25.350  1.00  0.00    -0.258 OA
ENDBRANCH  18  24
ENDBRANCH  13  15
ENDBRANCH   8  13
ENDBRANCH   5   7
ENDBRANCH   4   5
ENDBRANCH   3   4
ENDBRANCH   2   3
ENDBRANCH   1   2
BRANCH   1  27
ATOM     27  C   UNL A   1      38.728  21.490  25.727  1.00  0.00     0.202 C 
BRANCH  27  28
ATOM     28  C   UNL A   1      39.255  20.056  25.605  1.00  0.00     0.261 C 
BRANCH  28  29
ATOM     29  O   UNL A   1      40.265  19.769  26.589  1.00  0.00    -0.460 OA
BRANCH  29  30
ATOM     30  C   UNL A   1      41.538  19.831  26.128  1.00  0.00     0.338 C 
ATOM     31  O   UNL A   1      42.114  18.992  25.449  1.00  0.00    -0.246 OA
BRANCH  30  32
ATOM     32  C   UNL A   1      42.109  21.164  26.402  1.00  0.00     0.060 A 
ATOM     33  C   UNL A   1      42.279  21.531  27.743  1.00  0.00     0.016 A 
ATOM     34  C   UNL A   1      42.419  22.063  25.378  1.00  0.00     0.016 A 
ATOM     35  C   UNL A   1      42.712  22.815  28.068  1.00  0.00     0.010 A 
ATOM     36  C   UNL A   1      42.846  23.355  25.707  1.00  0.00     0.010 A 
ATOM     37  C   UNL A   1      42.963  23.748  27.054  1.00  0.00    -0.014 A 
BRANCH  37  38
ATOM     38  C   UNL A   1      43.197  25.172  27.407  1.00  0.00     0.031 A 
ATOM     39  C   UNL A   1      44.569  25.755  27.203  1.00  0.00     0.074 A 
ATOM     40  C   UNL A   1      42.193  25.944  27.862  1.00  0.00     0.049 A 
ATOM     41  N   UNL A   1      45.013  26.953  27.479  1.00  0.00    -0.248 NA
ATOM     42  C   UNL A   1      45.573  24.862  26.605  1.00  0.00     0.031 C 
ATOM     43  C   UNL A   1      40.808  25.508  28.043  1.00  0.00     0.029 A 
ATOM     44  N   UNL A   1      42.184  27.258  28.254  1.00  0.00    -0.354 N 
ATOM     45  C   UNL A   1      46.346  26.964  27.082  1.00  0.00     0.074 A 
ATOM     46  C   UNL A   1      46.648  25.636  26.591  1.00  0.00     0.031 C 
ATOM     47  C   UNL A   1      40.086  26.538  28.515  1.00  0.00     0.029 A 
ATOM     48  C   UNL A   1      40.961  27.693  28.710  1.00  0.00     0.049 A 
ATOM     49  H   UNL A   1      42.980  27.838  28.213  1.00  0.00     0.167 HD
ATOM     50  C   UNL A   1      47.233  27.990  27.113  1.00  0.00     0.034 A 
ATOM     51  C   UNL A   1      40.600  28.877  29.245  1.00  0.00     0.034 A 
ATOM     52  C   UNL A   1      46.925  29.303  27.624  1.00  0.00     0.049 A 
ATOM     53  C   UNL A   1      41.637  29.968  29.377  1.00  0.00     0.074 A 
ATOM     54  C   UNL A   1      47.753  30.409  27.719  1.00  0.00     0.029 A 
ATOM     55  N   UNL A   1      45.691  29.688  28.133  1.00  0.00    -0.354 N 
ATOM     56  N   UNL A   1      42.899  29.961  29.011  1.00  0.00    -0.248 NA
ATOM     57  C   UNL A   1      41.198  31.230  29.988  1.00  0.00     0.031 C 
ATOM     58  C   UNL A   1      47.040  31.439  28.344  1.00  0.00     0.029 A 
ATOM     59  C   UNL A   1      45.745  31.003  28.569  1.00  0.00     0.049 A 
ATOM     60  H   UNL A   1      44.895  29.111  28.179  1.00  0.00     0.167 HD
ATOM     61  C   UNL A   1      43.389  31.230  29.313  1.00  0.00     0.074 A 
ATOM     62  C   UNL A   1      42.286  31.977  29.879  1.00  0.00     0.031 C 
ATOM     63  C   UNL A   1      44.636  31.735  29.133  1.00  0.00     0.034 A 
BRANCH  50  64
ATOM     64  C   UNL A   1      48.631  27.709  26.617  1.00  0.00     0.023 A 
ATOM     65  C   UNL A   1      48.979  27.872  25.265  1.00  0.00     0.031 A 
ATOM     66  C   UNL A   1      49.622  27.251  27.503  1.00  0.00     0.131 A 
ATOM     67  C   UNL A   1      50.264  27.517  24.826  1.00  0.00     0.055 A 
ATOM     68  C   UNL A   1      50.921  26.973  27.073  1.00  0.00     0.041 A 
ATOM     69  F   UNL A   1      49.342  27.055  28.800  1.00  0.00    -0.206 F 
ATOM     70  C   UNL A   1      51.246  27.093  25.725  1.00  0.00     0.022 A 
BRANCH  67  71
ATOM     71  S   UNL A   1      50.596  27.493  23.043  1.00  0.00     0.124 S 
ATOM     72  O   UNL A   1      50.556  28.917  22.717  1.00  0.00    -0.237 OA
ATOM     73  O   UNL A   1      51.906  26.858  22.972  1.00  0.00    -0.237 OA
ATOM     74  O   UNL A   1      49.490  26.706  22.500  1.00  0.00    -0.744 OA
ENDBRANCH  67  71
ENDBRANCH  50  64
BRANCH  51  75
ATOM     75  C   UNL A   1      39.209  29.099  29.738  1.00  0.00     0.023 A 
ATOM     76  C   UNL A   1      38.289  29.857  28.995  1.00  0.00     0.031 A 
ATOM     77  C   UNL A   1      38.805  28.632  31.001  1.00  0.00     0.131 A 
ATOM     78  C   UNL A   1      37.038  30.175  29.544  1.00  0.00     0.055 A 
ATOM     79  C   UNL A   1      37.536  28.900  31.518  1.00  0.00     0.041 A 
ATOM     80  F   UNL A   1      39.645  27.907  31.758  1.00  0.00    -0.206 F 
ATOM     81  C   UNL A   1      36.650  29.691  30.795  1.00  0.00     0.022 A 
BRANCH  78  82
ATOM     82  S   UNL A   1      35.965  31.330  28.647  1.00  0.00     0.124 S 
ATOM     83  O   UNL A   1      35.446  30.484  27.578  1.00  0.00    -0.237 OA
ATOM     84  O   UNL A   1      35.009  31.718  29.679  1.00  0.00    -0.237 OA
ATOM     85  O   UNL A   1      36.881  32.385  28.220  1.00  0.00    -0.744 OA
ENDBRANCH  78  82
ENDBRANCH  51  75
BRANCH  63  86
ATOM     86  C   UNL A   1      44.851  33.185  29.498  1.00  0.00     0.023 A 
ATOM     87  C   UNL A   1      44.664  34.222  28.567  1.00  0.00     0.031 A 
ATOM     88  C   UNL A   1      45.261  33.531  30.798  1.00  0.00     0.131 A 
ATOM     89  C   UNL A   1      44.943  35.548  28.932  1.00  0.00     0.055 A 
ATOM     90  C   UNL A   1      45.479  34.857  31.173  1.00  0.00     0.041 A 
ATOM     91  F   UNL A   1      45.456  32.582  31.728  1.00  0.00    -0.206 F 
ATOM     92  C   UNL A   1      45.333  35.874  30.233  1.00  0.00     0.022 A 
BRANCH  89  93
ATOM     93  S   UNL A   1      44.873  36.836  27.657  1.00  0.00     0.124 S 
ATOM     94  O   UNL A   1      45.339  36.121  26.475  1.00  0.00    -0.237 OA
ATOM     95  O   UNL A   1      43.460  37.206  27.663  1.00  0.00    -0.237 OA
ATOM     96  O   UNL A   1      45.782  37.865  28.159  1.00  0.00    -0.744 OA
ENDBRANCH  89  93
ENDBRANCH  63  86
ENDBRANCH  37  38
ENDBRANCH  30  32
ENDBRANCH  29  30
ENDBRANCH  28  29
ENDBRANCH  27  28
ENDBRANCH   1  27
TORSDOF 21
ENDMDL
MODEL 2
REMARK VINA RESULT:     -10.9      5.480     10.713
REMARK SMILES Nc1nc(Nc2ccc(C(=O)OCCOCCOC(=O)c3ccc(-c4c5nc(c(-c6cc(S(=O)(=O)[O-])ccc6F)c6ccc([nH]6)c(-c6cc(S(=O)(=O)[O-])ccc6F)c6nc(c(-c7cc(S(=O)(=O)[O-])ccc7F)c7ccc4[nH]7)C=C6)C=C5)cc3)cc2)ccc1[N+](=O)[O-]
REMARK SMILES IDX 15 1 14 2 13 3 12 4 10 5 11 6 9 7 6 8 7 9 85 10 8 11 84 12
REMARK SMILES IDX 5 13 4 15 2 16 3 17 88 18 87 19 86 20 1 21 89 24 90 25 91 26
REMARK SMILES IDX 16 27 17 28 18 29 19 30 20 31 21 32 22 33 83 34 23 35 82 36
REMARK SMILES IDX 24 37 25 38 26 39 76 40 27 41 81 42 75 43 77 44 28 45 80 46
REMARK SMILES IDX 74 47 73 48 29 50 61 51 41 52 60 53 42 54 45 55 59 56 78 57
REMARK SMILES IDX 43 58 44 59 58 61 79 62 46 63 30 64 31 65 39 66 32 67 38 68
REMARK SMILES IDX 40 69 37 70 33 71 34 72 35 73 36 74 62 75 63 76 71 77 64 78
REMARK SMILES IDX 70 79 72 80 69 81 65 82 66 83 67 84 68 85 47 86 48 87 56 88
REMARK SMILES IDX 49 89 55 90 57 91 54 92 50 93 51 94 52 95 53 96
REMARK H PARENT 5 14 1 22 1 23 77 49 45 60
REMARK Flexibility Score: inf
ROOT
ATOM      1  O   UNL A   1      31.353  31.224  26.104  1.00  0.00    -0.374 OA
ENDROOT
BRANCH   1   2
ATOM      2  C   UNL A   1      31.948  30.252  26.966  1.00  0.00     0.202 C 
BRANCH   2   3
ATOM      3  C   UNL A   1      32.997  29.339  26.325  1.00  0.00     0.261 C 
BRANCH   3   4
ATOM      4  O   UNL A   1      32.924  29.395  24.891  1.00  0.00    -0.460 OA
BRANCH   4   5
ATOM      5  C   UNL A   1      32.021  28.556  24.333  1.00  0.00     0.338 C 
ATOM      6  O   UNL A   1      31.058  28.864  23.646  1.00  0.00    -0.246 OA
BRANCH   5   7
ATOM      7  C   UNL A   1      32.431  27.148  24.538  1.00  0.00     0.060 A 
ATOM      8  C   UNL A   1      33.155  24.520  25.197  1.00  0.00     0.040 A 
ATOM      9  C   UNL A   1      31.873  24.993  25.497  1.00  0.00     0.027 A 
ATOM     10  C   UNL A   1      34.041  25.353  24.495  1.00  0.00     0.027 A 
ATOM     11  C   UNL A   1      31.517  26.303  25.179  1.00  0.00     0.018 A 
ATOM     12  C   UNL A   1      33.681  26.660  24.152  1.00  0.00     0.018 A 
BRANCH   8  13
ATOM     13  N   UNL A   1      33.599  23.320  25.792  1.00  0.00    -0.340 N 
ATOM     14  H   UNL A   1      34.153  23.377  26.604  1.00  0.00     0.168 HD
BRANCH  13  15
ATOM     15  C   UNL A   1      33.289  22.042  25.282  1.00  0.00     0.133 A 
ATOM     16  C   UNL A   1      32.964  19.746  25.667  1.00  0.00     0.204 A 
ATOM     17  N   UNL A   1      33.294  20.974  26.113  1.00  0.00    -0.207 NA
ATOM     18  C   UNL A   1      32.606  19.547  24.339  1.00  0.00     0.311 A 
ATOM     19  C   UNL A   1      32.621  20.638  23.459  1.00  0.00     0.093 A 
ATOM     20  C   UNL A   1      32.977  21.898  23.937  1.00  0.00     0.054 A 
BRANCH  16  21
ATOM     21  N   UNL A   1      32.926  18.799  26.662  1.00  0.00    -0.378 N 
ATOM     22  H   UNL A   1      33.734  18.608  27.191  1.00  0.00     0.158 HD
ATOM     23  H   UNL A   1      32.090  18.312  26.847  1.00  0.00     0.158 HD
ENDBRANCH  16  21
BRANCH  18  24
ATOM     24  N   UNL A   1      32.227  18.231  23.836  1.00  0.00     0.066 N 
ATOM     25  O   UNL A   1      32.378  18.024  22.621  1.00  0.00    -0.258 OA
ATOM     26  O   UNL A   1      31.803  17.381  24.632  1.00  0.00    -0.258 OA
ENDBRANCH  18  24
ENDBRANCH  13  15
ENDBRANCH   8  13
ENDBRANCH   5   7
ENDBRANCH   4   5
ENDBRANCH   3   4
ENDBRANCH   2   3
ENDBRANCH   1   2
BRANCH   1  27
ATOM     27  C   UNL A   1      31.400  32.585  26.536  1.00  0.00     0.202 C 
BRANCH  27  28
ATOM     28  C   UNL A   1      32.510  32.949  27.529  1.00  0.00     0.261 C 
BRANCH  28  29
ATOM     29  O   UNL A   1      32.595  34.370  27.742  1.00  0.00    -0.460 OA
BRANCH  29  30
ATOM     30  C   UNL A   1      33.192  34.734  28.903  1.00  0.00     0.338 C 
ATOM     31  O   UNL A   1      32.777  35.548  29.716  1.00  0.00    -0.246 OA
BRANCH  30  32
ATOM     32  C   UNL A   1      34.356  33.866  29.166  1.00  0.00     0.060 A 
ATOM     33  C   UNL A   1      34.136  32.699  29.909  1.00  0.00     0.016 A 
ATOM     34  C   UNL A   1      35.645  34.207  28.749  1.00  0.00     0.016 A 
ATOM     35  C   UNL A   1      35.210  31.893  30.281  1.00  0.00     0.010 A 
ATOM     36  C   UNL A   1      36.724  33.400  29.132  1.00  0.00     0.010 A 
ATOM     37  C   UNL A   1      36.516  32.258  29.927  1.00  0.00    -0.014 A 
BRANCH  37  38
ATOM     38  C   UNL A   1      37.667  31.530  30.519  1.00  0.00     0.031 A 
ATOM     39  C   UNL A   1      38.078  31.847  31.932  1.00  0.00     0.074 A 
ATOM     40  C   UNL A   1      38.309  30.571  29.826  1.00  0.00     0.049 A 
ATOM     41  N   UNL A   1      39.072  31.371  32.636  1.00  0.00    -0.248 NA
ATOM     42  C   UNL A   1      37.252  32.834  32.644  1.00  0.00     0.031 C 
ATOM     43  C   UNL A   1      37.963  30.134  28.473  1.00  0.00     0.029 A 
ATOM     44  N   UNL A   1      39.386  29.793  30.165  1.00  0.00    -0.354 N 
ATOM     45  C   UNL A   1      38.989  31.994  33.877  1.00  0.00     0.074 A 
ATOM     46  C   UNL A   1      37.874  32.916  33.810  1.00  0.00     0.031 C 
ATOM     47  C   UNL A   1      38.817  29.166  28.098  1.00  0.00     0.029 A 
ATOM     48  C   UNL A   1      39.794  28.945  29.162  1.00  0.00     0.049 A 
ATOM     49  H   UNL A   1      39.827  29.837  31.045  1.00  0.00     0.167 HD
ATOM     50  C   UNL A   1      39.762  31.805  34.975  1.00  0.00     0.034 A 
ATOM     51  C   UNL A   1      40.849  28.105  29.104  1.00  0.00     0.034 A 
ATOM     52  C   UNL A   1      40.882  30.898  35.022  1.00  0.00     0.049 A 
ATOM     53  C   UNL A   1      41.767  27.999  30.301  1.00  0.00     0.074 A 
ATOM     54  C   UNL A   1      41.744  30.643  36.076  1.00  0.00     0.029 A 
ATOM     55  N   UNL A   1      41.303  30.098  33.966  1.00  0.00    -0.354 N 
ATOM     56  N   UNL A   1      41.685  28.604  31.464  1.00  0.00    -0.248 NA
ATOM     57  C   UNL A   1      42.914  27.090  30.177  1.00  0.00     0.031 C 
ATOM     58  C   UNL A   1      42.721  29.742  35.637  1.00  0.00     0.029 A 
ATOM     59  C   UNL A   1      42.426  29.374  34.335  1.00  0.00     0.049 A 
ATOM     60  H   UNL A   1      40.867  30.055  33.085  1.00  0.00     0.167 HD
ATOM     61  C   UNL A   1      42.749  28.116  32.220  1.00  0.00     0.074 A 
ATOM     62  C   UNL A   1      43.448  27.161  31.387  1.00  0.00     0.031 C 
ATOM     63  C   UNL A   1      43.112  28.424  33.492  1.00  0.00     0.034 A 
BRANCH  50  64
ATOM     64  C   UNL A   1      39.441  32.633  36.196  1.00  0.00     0.023 A 
ATOM     65  C   UNL A   1      38.608  32.146  37.218  1.00  0.00     0.031 A 
ATOM     66  C   UNL A   1      39.958  33.933  36.330  1.00  0.00     0.131 A 
ATOM     67  C   UNL A   1      38.262  32.977  38.295  1.00  0.00     0.055 A 
ATOM     68  C   UNL A   1      39.672  34.727  37.443  1.00  0.00     0.041 A 
ATOM     69  F   UNL A   1      40.741  34.460  35.376  1.00  0.00    -0.206 F 
ATOM     70  C   UNL A   1      38.808  34.256  38.427  1.00  0.00     0.022 A 
BRANCH  67  71
ATOM     71  S   UNL A   1      36.985  32.411  39.451  1.00  0.00     0.124 S 
ATOM     72  O   UNL A   1      35.761  32.769  38.737  1.00  0.00    -0.237 OA
ATOM     73  O   UNL A   1      37.267  30.985  39.563  1.00  0.00    -0.237 OA
ATOM     74  O   UNL A   1      37.244  33.195  40.658  1.00  0.00    -0.744 OA
ENDBRANCH  67  71
ENDBRANCH  50  64
BRANCH  51  75
ATOM     75  C   UNL A   1      41.134  27.322  27.867  1.00  0.00     0.023 A 
ATOM     76  C   UNL A   1      40.942  25.931  27.829  1.00  0.00     0.031 A 
ATOM     77  C   UNL A   1      41.687  27.939  26.731  1.00  0.00     0.131 A 
ATOM     78  C   UNL A   1      41.355  25.197  26.707  1.00  0.00     0.055 A 
ATOM     79  C   UNL A   1      42.040  27.213  25.592  1.00  0.00     0.041 A 
ATOM     80  F   UNL A   1      41.898  29.266  26.713  1.00  0.00    -0.206 F 
ATOM     81  C   UNL A   1      41.890  25.830  25.583  1.00  0.00     0.022 A 
BRANCH  78  82
ATOM     82  S   UNL A   1      41.288  23.386  26.782  1.00  0.00     0.124 S 
ATOM     83  O   UNL A   1      41.436  23.144  28.212  1.00  0.00    -0.237 OA
ATOM     84  O   UNL A   1      39.971  23.110  26.217  1.00  0.00    -0.237 OA
ATOM     85  O   UNL A   1      42.418  22.969  25.955  1.00  0.00    -0.744 OA
ENDBRANCH  78  82
ENDBRANCH  51  75
BRANCH  63  86
ATOM     86  C   UNL A   1      44.285  27.671  34.074  1.00  0.00     0.023 A 
ATOM     87  C   UNL A   1      44.153  26.366  34.580  1.00  0.00     0.031 A 
ATOM     88  C   UNL A   1      45.552  28.279  34.134  1.00  0.00     0.131 A 
ATOM     89  C   UNL A   1      45.255  25.732  35.174  1.00  0.00     0.055 A 
ATOM     90  C   UNL A   1      46.659  27.620  34.673  1.00  0.00     0.041 A 
ATOM     91  F   UNL A   1      45.736  29.524  33.668  1.00  0.00    -0.206 F 
ATOM     92  C   UNL A   1      46.511  26.344  35.209  1.00  0.00     0.022 A 
BRANCH  89  93
ATOM     93  S   UNL A   1      45.006  24.127  35.983  1.00  0.00     0.124 S 
ATOM     94  O   UNL A   1      43.725  23.704  35.430  1.00  0.00    -0.237 OA
ATOM     95  O   UNL A   1      46.173  23.370  35.539  1.00  0.00    -0.237 OA
ATOM     96  O   UNL A   1      44.990  24.459  37.406  1.00  0.00    -0.744 OA
ENDBRANCH  89  93
ENDBRANCH  63  86
ENDBRANCH  37  38
ENDBRANCH  30  32
ENDBRANCH  29  30
ENDBRANCH  28  29
ENDBRANCH  27  28
ENDBRANCH   1  27
TORSDOF 21
ENDMDL
MODEL 3
REMARK VINA RESULT:     -10.8      5.112      7.962
REMARK SMILES Nc1nc(Nc2ccc(C(=O)OCCOCCOC(=O)c3ccc(-c4c5nc(c(-c6cc(S(=O)(=O)[O-])ccc6F)c6ccc([nH]6)c(-c6cc(S(=O)(=O)[O-])ccc6F)c6nc(c(-c7cc(S(=O)(=O)[O-])ccc7F)c7ccc4[nH]7)C=C6)C=C5)cc3)cc2)ccc1[N+](=O)[O-]
REMARK SMILES IDX 15 1 14 2 13 3 12 4 10 5 11 6 9 7 6 8 7 9 85 10 8 11 84 12
REMARK SMILES IDX 5 13 4 15 2 16 3 17 88 18 87 19 86 20 1 21 89 24 90 25 91 26
REMARK SMILES IDX 16 27 17 28 18 29 19 30 20 31 21 32 22 33 83 34 23 35 82 36
REMARK SMILES IDX 24 37 25 38 26 39 76 40 27 41 81 42 75 43 77 44 28 45 80 46
REMARK SMILES IDX 74 47 73 48 29 50 61 51 41 52 60 53 42 54 45 55 59 56 78 57
REMARK SMILES IDX 43 58 44 59 58 61 79 62 46 63 30 64 31 65 39 66 32 67 38 68
REMARK SMILES IDX 40 69 37 70 33 71 34 72 35 73 36 74 62 75 63 76 71 77 64 78
REMARK SMILES IDX 70 79 72 80 69 81 65 82 66 83 67 84 68 85 47 86 48 87 56 88
REMARK SMILES IDX 49 89 55 90 57 91 54 92 50 93 51 94 52 95 53 96
REMARK H PARENT 5 14 1 22 1 23 77 49 45 60
REMARK Flexibility Score: inf
ROOT
ATOM      1  O   UNL A   1      31.595  29.335  24.497  1.00  0.00    -0.374 OA
ENDROOT
BRANCH   1   2
ATOM      2  C   UNL A   1      30.301  29.365  23.892  1.00  0.00     0.202 C 
BRANCH   2   3
ATOM      3  C   UNL A   1      30.123  28.492  22.646  1.00  0.00     0.261 C 
BRANCH   3   4
ATOM      4  O   UNL A   1      30.698  27.191  22.840  1.00  0.00    -0.460 OA
BRANCH   4   5
ATOM      5  C   UNL A   1      30.003  26.378  23.669  1.00  0.00     0.338 C 
ATOM      6  O   UNL A   1      28.787  26.259  23.733  1.00  0.00    -0.246 OA
BRANCH   5   7
ATOM      7  C   UNL A   1      30.926  25.502  24.425  1.00  0.00     0.060 A 
ATOM      8  C   UNL A   1      32.589  23.635  25.697  1.00  0.00     0.040 A 
ATOM      9  C   UNL A   1      32.701  23.855  24.320  1.00  0.00     0.027 A 
ATOM     10  C   UNL A   1      31.689  24.417  26.439  1.00  0.00     0.027 A 
ATOM     11  C   UNL A   1      31.867  24.775  23.686  1.00  0.00     0.018 A 
ATOM     12  C   UNL A   1      30.867  25.359  25.813  1.00  0.00     0.018 A 
BRANCH   8  13
ATOM     13  N   UNL A   1      33.207  22.500  26.263  1.00  0.00    -0.340 N 
ATOM     14  H   UNL A   1      33.564  22.568  27.178  1.00  0.00     0.168 HD
BRANCH  13  15
ATOM     15  C   UNL A   1      33.340  21.272  25.582  1.00  0.00     0.133 A 
ATOM     16  C   UNL A   1      34.720  19.515  24.850  1.00  0.00     0.204 A 
ATOM     17  N   UNL A   1      34.564  20.707  25.459  1.00  0.00    -0.207 NA
ATOM     18  C   UNL A   1      33.624  18.833  24.337  1.00  0.00     0.311 A 
ATOM     19  C   UNL A   1      32.353  19.416  24.433  1.00  0.00     0.093 A 
ATOM     20  C   UNL A   1      32.213  20.655  25.055  1.00  0.00     0.054 A 
BRANCH  16  21
ATOM     21  N   UNL A   1      36.011  19.045  24.900  1.00  0.00    -0.378 N 
ATOM     22  H   UNL A   1      36.471  18.780  24.070  1.00  0.00     0.158 HD
ATOM     23  H   UNL A   1      36.476  18.974  25.765  1.00  0.00     0.158 HD
ENDBRANCH  16  21
BRANCH  18  24
ATOM     24  N   UNL A   1      33.765  17.533  23.689  1.00  0.00     0.066 N 
ATOM     25  O   UNL A   1      34.154  16.588  24.394  1.00  0.00    -0.258 OA
ATOM     26  O   UNL A   1      33.471  17.422  22.490  1.00  0.00    -0.258 OA
ENDBRANCH  18  24
ENDBRANCH  13  15
ENDBRANCH   8  13
ENDBRANCH   5   7
ENDBRANCH   4   5
ENDBRANCH   3   4
ENDBRANCH   2   3
ENDBRANCH   1   2
BRANCH   1  27
ATOM     27  C   UNL A   1      31.643  29.081  25.903  1.00  0.00     0.202 C 
BRANCH  27  28
ATOM     28  C   UNL A   1      32.056  30.257  26.796  1.00  0.00     0.261 C 
BRANCH  28  29
ATOM     29  O   UNL A   1      33.401  30.692  26.524  1.00  0.00    -0.460 OA
BRANCH  29  30
ATOM     30  C   UNL A   1      33.887  31.608  27.396  1.00  0.00     0.338 C 
ATOM     31  O   UNL A   1      33.284  32.562  27.868  1.00  0.00    -0.246 OA
BRANCH  30  32
ATOM     32  C   UNL A   1      35.225  31.198  27.865  1.00  0.00     0.060 A 
ATOM     33  C   UNL A   1      35.409  29.849  28.194  1.00  0.00     0.016 A 
ATOM     34  C   UNL A   1      36.265  32.117  28.037  1.00  0.00     0.016 A 
ATOM     35  C   UNL A   1      36.615  29.421  28.744  1.00  0.00     0.010 A 
ATOM     36  C   UNL A   1      37.473  31.685  28.597  1.00  0.00     0.010 A 
ATOM     37  C   UNL A   1      37.643  30.342  28.983  1.00  0.00    -0.014 A 
BRANCH  37  38
ATOM     38  C   UNL A   1      38.828  29.929  29.777  1.00  0.00     0.031 A 
ATOM     39  C   UNL A   1      39.761  28.896  29.204  1.00  0.00     0.074 A 
ATOM     40  C   UNL A   1      39.093  30.495  30.969  1.00  0.00     0.049 A 
ATOM     41  N   UNL A   1      40.828  28.355  29.732  1.00  0.00    -0.248 NA
ATOM     42  C   UNL A   1      39.445  28.412  27.852  1.00  0.00     0.031 C 
ATOM     43  C   UNL A   1      38.297  31.549  31.598  1.00  0.00     0.029 A 
ATOM     44  N   UNL A   1      40.108  30.262  31.862  1.00  0.00    -0.354 N 
ATOM     45  C   UNL A   1      41.318  27.471  28.776  1.00  0.00     0.074 A 
ATOM     46  C   UNL A   1      40.401  27.517  27.655  1.00  0.00     0.031 C 
ATOM     47  C   UNL A   1      38.854  31.867  32.779  1.00  0.00     0.029 A 
ATOM     48  C   UNL A   1      40.018  31.015  33.010  1.00  0.00     0.049 A 
ATOM     49  H   UNL A   1      40.834  29.616  31.697  1.00  0.00     0.167 HD
ATOM     50  C   UNL A   1      42.434  26.703  28.822  1.00  0.00     0.034 A 
ATOM     51  C   UNL A   1      40.776  30.998  34.126  1.00  0.00     0.034 A 
ATOM     52  C   UNL A   1      43.328  26.652  29.952  1.00  0.00     0.049 A 
ATOM     53  C   UNL A   1      41.948  30.047  34.201  1.00  0.00     0.074 A 
ATOM     54  C   UNL A   1      44.477  25.896  30.112  1.00  0.00     0.029 A 
ATOM     55  N   UNL A   1      43.172  27.385  31.122  1.00  0.00    -0.354 N 
ATOM     56  N   UNL A   1      42.392  29.205  33.295  1.00  0.00    -0.248 NA
ATOM     57  C   UNL A   1      42.726  30.049  35.448  1.00  0.00     0.031 C 
ATOM     58  C   UNL A   1      44.976  26.121  31.400  1.00  0.00     0.029 A 
ATOM     59  C   UNL A   1      44.185  27.076  32.017  1.00  0.00     0.049 A 
ATOM     60  H   UNL A   1      42.446  28.028  31.292  1.00  0.00     0.167 HD
ATOM     61  C   UNL A   1      43.523  28.611  33.850  1.00  0.00     0.074 A 
ATOM     62  C   UNL A   1      43.699  29.197  35.162  1.00  0.00     0.031 C 
ATOM     63  C   UNL A   1      44.347  27.669  33.323  1.00  0.00     0.034 A 
BRANCH  50  64
ATOM     64  C   UNL A   1      42.719  25.826  27.626  1.00  0.00     0.023 A 
ATOM     65  C   UNL A   1      42.125  24.560  27.483  1.00  0.00     0.031 A 
ATOM     66  C   UNL A   1      43.612  26.252  26.628  1.00  0.00     0.131 A 
ATOM     67  C   UNL A   1      42.483  23.737  26.403  1.00  0.00     0.055 A 
ATOM     68  C   UNL A   1      43.904  25.460  25.515  1.00  0.00     0.041 A 
ATOM     69  F   UNL A   1      44.226  27.442  26.722  1.00  0.00    -0.206 F 
ATOM     70  C   UNL A   1      43.349  24.189  25.405  1.00  0.00     0.022 A 
BRANCH  67  71
ATOM     71  S   UNL A   1      41.901  22.020  26.391  1.00  0.00     0.124 S 
ATOM     72  O   UNL A   1      40.451  22.201  26.365  1.00  0.00    -0.237 OA
ATOM     73  O   UNL A   1      42.501  21.490  25.173  1.00  0.00    -0.237 OA
ATOM     74  O   UNL A   1      42.430  21.470  27.638  1.00  0.00    -0.744 OA
ENDBRANCH  67  71
ENDBRANCH  50  64
BRANCH  51  75
ATOM     75  C   UNL A   1      40.442  31.872  35.289  1.00  0.00     0.023 A 
ATOM     76  C   UNL A   1      39.440  31.509  36.203  1.00  0.00     0.031 A 
ATOM     77  C   UNL A   1      41.060  33.124  35.454  1.00  0.00     0.131 A 
ATOM     78  C   UNL A   1      39.043  32.412  37.202  1.00  0.00     0.055 A 
ATOM     79  C   UNL A   1      40.705  33.994  36.486  1.00  0.00     0.041 A 
ATOM     80  F   UNL A   1      42.022  33.524  34.606  1.00  0.00    -0.206 F 
ATOM     81  C   UNL A   1      39.678  33.646  37.358  1.00  0.00     0.022 A 
BRANCH  78  82
ATOM     82  S   UNL A   1      37.604  31.997  38.225  1.00  0.00     0.124 S 
ATOM     83  O   UNL A   1      36.657  33.037  37.840  1.00  0.00    -0.237 OA
ATOM     84  O   UNL A   1      37.292  30.645  37.772  1.00  0.00    -0.237 OA
ATOM     85  O   UNL A   1      38.117  32.091  39.589  1.00  0.00    -0.744 OA
ENDBRANCH  78  82
ENDBRANCH  51  75
BRANCH  63  86
ATOM     86  C   UNL A   1      45.546  27.265  34.146  1.00  0.00     0.023 A 
ATOM     87  C   UNL A   1      46.782  27.928  34.037  1.00  0.00     0.031 A 
ATOM     88  C   UNL A   1      45.453  26.188  35.046  1.00  0.00     0.131 A 
ATOM     89  C   UNL A   1      47.888  27.473  34.771  1.00  0.00     0.055 A 
ATOM     90  C   UNL A   1      46.540  25.777  35.818  1.00  0.00     0.041 A 
ATOM     91  F   UNL A   1      44.299  25.517  35.191  1.00  0.00    -0.206 F 
ATOM     92  C   UNL A   1      47.770  26.412  35.673  1.00  0.00     0.022 A 
BRANCH  89  93
ATOM     93  S   UNL A   1      49.507  28.230  34.468  1.00  0.00     0.124 S 
ATOM     94  O   UNL A   1      50.157  27.232  33.625  1.00  0.00    -0.237 OA
ATOM     95  O   UNL A   1      49.148  29.483  33.809  1.00  0.00    -0.237 OA
ATOM     96  O   UNL A   1      50.075  28.376  35.807  1.00  0.00    -0.744 OA
ENDBRANCH  89  93
ENDBRANCH  63  86
ENDBRANCH  37  38
ENDBRANCH  30  32
ENDBRANCH  29  30
ENDBRANCH  28  29
ENDBRANCH  27  28
ENDBRANCH   1  27
TORSDOF 21
ENDMDL
