MODEL 1
REMARK VINA RESULT:      -9.9      0.000      0.000
REMARK SMILES O=C(OCCOCCOC(=O)[C@H]1CCCN(C(=O)CCOc2ccc(F)cc2)C1)c1ccc(-c2c3nc(c(-c4cc(S(=O)(=O)[O-])ccc4F)c4ccc([nH]4)c(-c4cc(S(=O)(=O)[O-])ccc4F)c4nc(c(-c5cc(S(=O)(=O)[O-])ccc5F)c5ccc2[nH]5)C=C4)C=C3)cc1
REMARK SMILES IDX 7 1 6 2 5 3 4 4 3 5 2 6 1 7 30 8 31 9 92 10 32 11 91 12
REMARK SMILES IDX 33 13 34 14 35 15 85 16 36 17 90 18 84 19 86 20 37 21 89 22
REMARK SMILES IDX 83 23 82 24 38 26 70 27 50 28 69 29 51 30 54 31 68 32 87 33
REMARK SMILES IDX 52 34 53 35 67 37 88 38 55 39 39 40 40 41 48 42 41 43 47 44
REMARK SMILES IDX 49 45 46 46 42 47 43 48 44 49 45 50 71 51 72 52 80 53 73 54
REMARK SMILES IDX 79 55 81 56 78 57 74 58 75 59 76 60 77 61 56 62 57 63 65 64
REMARK SMILES IDX 58 65 64 66 66 67 63 68 59 69 60 70 61 71 62 72 8 73 9 74
REMARK SMILES IDX 10 75 11 76 12 77 13 78 29 79 14 80 16 81 15 82 17 83 18 84
REMARK SMILES IDX 19 85 20 86 21 87 22 88 23 89 28 90 24 91 27 92 25 93 26 94
REMARK H PARENT 86 25 54 36
REMARK Flexibility Score: inf
ROOT
ATOM      1  C   UNL A   1      40.078  21.938  27.152  1.00  0.00     0.202 C 
ENDROOT
BRANCH   1   2
ATOM      2  O   UNL A   1      40.774  20.704  27.331  1.00  0.00    -0.374 OA
BRANCH   2   3
ATOM      3  C   UNL A   1      40.759  19.795  26.228  1.00  0.00     0.202 C 
BRANCH   3   4
ATOM      4  C   UNL A   1      41.970  18.881  25.983  1.00  0.00     0.261 C 
BRANCH   4   5
ATOM      5  O   UNL A   1      43.216  19.561  26.168  1.00  0.00    -0.460 OA
BRANCH   5   6
ATOM      6  C   UNL A   1      43.777  20.434  25.295  1.00  0.00     0.338 C 
ATOM      7  O   UNL A   1      43.982  20.072  24.138  1.00  0.00    -0.246 OA
BRANCH   6   8
ATOM      8  C   UNL A   1      44.133  21.829  25.681  1.00  0.00     0.060 A 
ATOM      9  C   UNL A   1      44.764  22.180  26.873  1.00  0.00     0.016 A 
ATOM     10  C   UNL A   1      43.866  22.849  24.761  1.00  0.00     0.016 A 
ATOM     11  C   UNL A   1      45.098  23.467  27.192  1.00  0.00     0.010 A 
ATOM     12  C   UNL A   1      44.217  24.169  25.055  1.00  0.00     0.010 A 
ATOM     13  C   UNL A   1      44.834  24.462  26.275  1.00  0.00    -0.014 A 
BRANCH  13  14
ATOM     14  C   UNL A   1      45.100  25.815  26.740  1.00  0.00     0.031 A 
ATOM     15  C   UNL A   1      43.971  26.540  27.384  1.00  0.00     0.074 A 
ATOM     16  C   UNL A   1      46.370  26.254  26.762  1.00  0.00     0.049 A 
ATOM     17  N   UNL A   1      43.886  27.796  27.701  1.00  0.00    -0.248 NA
ATOM     18  C   UNL A   1      42.777  25.741  27.729  1.00  0.00     0.031 C 
ATOM     19  C   UNL A   1      47.552  25.465  26.382  1.00  0.00     0.029 A 
ATOM     20  N   UNL A   1      46.885  27.453  27.153  1.00  0.00    -0.354 N 
ATOM     21  C   UNL A   1      42.618  27.953  28.238  1.00  0.00     0.074 A 
ATOM     22  C   UNL A   1      41.967  26.665  28.224  1.00  0.00     0.031 C 
ATOM     23  C   UNL A   1      48.653  26.213  26.555  1.00  0.00     0.029 A 
ATOM     24  C   UNL A   1      48.242  27.551  26.950  1.00  0.00     0.049 A 
ATOM     25  H   UNL A   1      46.342  28.176  27.540  1.00  0.00     0.167 HD
ATOM     26  C   UNL A   1      42.066  29.101  28.679  1.00  0.00     0.034 A 
ATOM     27  C   UNL A   1      49.028  28.640  27.010  1.00  0.00     0.034 A 
ATOM     28  C   UNL A   1      42.787  30.343  28.664  1.00  0.00     0.049 A 
ATOM     29  C   UNL A   1      48.342  29.940  27.341  1.00  0.00     0.074 A 
ATOM     30  C   UNL A   1      42.337  31.612  28.959  1.00  0.00     0.029 A 
ATOM     31  N   UNL A   1      44.137  30.452  28.345  1.00  0.00    -0.354 N 
ATOM     32  N   UNL A   1      47.084  30.150  27.664  1.00  0.00    -0.248 NA
ATOM     33  C   UNL A   1      49.165  31.151  27.288  1.00  0.00     0.031 C 
ATOM     34  C   UNL A   1      43.405  32.496  28.775  1.00  0.00     0.029 A 
ATOM     35  C   UNL A   1      44.537  31.769  28.430  1.00  0.00     0.049 A 
ATOM     36  H   UNL A   1      44.721  29.700  28.095  1.00  0.00     0.167 HD
ATOM     37  C   UNL A   1      46.968  31.516  27.877  1.00  0.00     0.074 A 
ATOM     38  C   UNL A   1      48.293  32.074  27.664  1.00  0.00     0.031 C 
ATOM     39  C   UNL A   1      45.878  32.255  28.209  1.00  0.00     0.034 A 
BRANCH  26  40
ATOM     40  C   UNL A   1      40.632  29.066  29.114  1.00  0.00     0.023 A 
ATOM     41  C   UNL A   1      40.273  29.030  30.471  1.00  0.00     0.031 A 
ATOM     42  C   UNL A   1      39.609  29.057  28.152  1.00  0.00     0.131 A 
ATOM     43  C   UNL A   1      38.918  28.974  30.829  1.00  0.00     0.055 A 
ATOM     44  C   UNL A   1      38.262  29.053  28.514  1.00  0.00     0.041 A 
ATOM     45  F   UNL A   1      39.904  29.047  26.842  1.00  0.00    -0.206 F 
ATOM     46  C   UNL A   1      37.910  29.012  29.860  1.00  0.00     0.022 A 
BRANCH  43  47
ATOM     47  S   UNL A   1      38.482  28.804  32.581  1.00  0.00     0.124 S 
ATOM     48  O   UNL A   1      38.944  27.449  32.868  1.00  0.00    -0.237 OA
ATOM     49  O   UNL A   1      39.240  29.882  33.205  1.00  0.00    -0.237 OA
ATOM     50  O   UNL A   1      37.030  28.978  32.589  1.00  0.00    -0.744 OA
ENDBRANCH  43  47
ENDBRANCH  26  40
BRANCH  27  51
ATOM     51  C   UNL A   1      50.473  28.576  26.660  1.00  0.00     0.023 A 
ATOM     52  C   UNL A   1      50.905  28.853  25.356  1.00  0.00     0.031 A 
ATOM     53  C   UNL A   1      51.442  28.183  27.603  1.00  0.00     0.131 A 
ATOM     54  C   UNL A   1      52.257  28.687  25.015  1.00  0.00     0.055 A 
ATOM     55  C   UNL A   1      52.794  28.074  27.274  1.00  0.00     0.041 A 
ATOM     56  F   UNL A   1      51.089  27.903  28.868  1.00  0.00    -0.206 F 
ATOM     57  C   UNL A   1      53.206  28.312  25.968  1.00  0.00     0.022 A 
BRANCH  54  58
ATOM     58  S   UNL A   1      52.739  28.887  23.279  1.00  0.00     0.124 S 
ATOM     59  O   UNL A   1      52.792  27.501  22.826  1.00  0.00    -0.237 OA
ATOM     60  O   UNL A   1      51.643  29.692  22.752  1.00  0.00    -0.237 OA
ATOM     61  O   UNL A   1      54.028  29.569  23.360  1.00  0.00    -0.744 OA
ENDBRANCH  54  58
ENDBRANCH  27  51
BRANCH  39  62
ATOM     62  C   UNL A   1      46.107  33.724  28.403  1.00  0.00     0.023 A 
ATOM     63  C   UNL A   1      46.300  34.265  29.683  1.00  0.00     0.031 A 
ATOM     64  C   UNL A   1      46.145  34.583  27.293  1.00  0.00     0.131 A 
ATOM     65  C   UNL A   1      46.465  35.646  29.827  1.00  0.00     0.055 A 
ATOM     66  C   UNL A   1      46.379  35.948  27.439  1.00  0.00     0.041 A 
ATOM     67  F   UNL A   1      45.969  34.104  26.051  1.00  0.00    -0.206 F 
ATOM     68  C   UNL A   1      46.527  36.488  28.713  1.00  0.00     0.022 A 
BRANCH  65  69
ATOM     69  S   UNL A   1      46.514  36.332  31.502  1.00  0.00     0.124 S 
ATOM     70  O   UNL A   1      45.279  37.106  31.547  1.00  0.00    -0.237 OA
ATOM     71  O   UNL A   1      46.546  35.133  32.333  1.00  0.00    -0.237 OA
ATOM     72  O   UNL A   1      47.744  37.124  31.510  1.00  0.00    -0.744 OA
ENDBRANCH  65  69
ENDBRANCH  39  62
ENDBRANCH  13  14
ENDBRANCH   6   8
ENDBRANCH   5   6
ENDBRANCH   4   5
ENDBRANCH   3   4
ENDBRANCH   2   3
ENDBRANCH   1   2
BRANCH   1  73
ATOM     73  C   UNL A   1      39.341  21.963  25.819  1.00  0.00     0.261 C 
BRANCH  73  74
ATOM     74  O   UNL A   1      37.933  21.855  26.106  1.00  0.00    -0.463 OA
BRANCH  74  75
ATOM     75  C   UNL A   1      37.207  21.022  25.319  1.00  0.00     0.310 C 
ATOM     76  O   UNL A   1      37.723  20.152  24.626  1.00  0.00    -0.252 OA
BRANCH  75  77
ATOM     77  C   UNL A   1      35.551  21.420  25.354  1.00  0.00     0.119 C 
ATOM     78  C   UNL A   1      34.020  21.462  26.961  1.00  0.00     0.019 C 
ATOM     79  C   UNL A   1      35.596  23.043  24.266  1.00  0.00     0.134 C 
ATOM     80  C   UNL A   1      33.047  23.176  27.065  1.00  0.00     0.022 C 
ATOM     81  N   UNL A   1      34.271  24.074  24.280  1.00  0.00    -0.342 N 
ATOM     82  C   UNL A   1      33.429  24.498  25.757  1.00  0.00     0.119 C 
BRANCH  81  83
ATOM     83  C   UNL A   1      33.600  23.897  23.037  1.00  0.00     0.226 C 
ATOM     84  O   UNL A   1      33.033  22.831  22.783  1.00  0.00    -0.275 OA
BRANCH  83  85
ATOM     85  C   UNL A   1      33.271  25.160  22.168  1.00  0.00     0.141 C 
BRANCH  85  86
ATOM     86  C   UNL A   1      31.745  25.623  22.187  1.00  0.00     0.239 C 
BRANCH  86  87
ATOM     87  O   UNL A   1      31.012  26.117  23.386  1.00  0.00    -0.493 OA
BRANCH  87  88
ATOM     88  C   UNL A   1      30.102  27.101  23.145  1.00  0.00     0.119 A 
ATOM     89  C   UNL A   1      30.747  28.414  22.375  1.00  0.00     0.049 A 
ATOM     90  C   UNL A   1      28.431  27.201  23.511  1.00  0.00     0.049 A 
ATOM     91  C   UNL A   1      29.795  30.062  21.992  1.00  0.00     0.043 A 
ATOM     92  C   UNL A   1      27.444  28.609  23.125  1.00  0.00     0.043 A 
ATOM     93  C   UNL A   1      28.090  30.072  22.403  1.00  0.00     0.123 A 
ATOM     94  F   UNL A   1      27.293  31.080  22.037  1.00  0.00    -0.207 F 
ENDBRANCH  87  88
ENDBRANCH  86  87
ENDBRANCH  85  86
ENDBRANCH  83  85
ENDBRANCH  81  83
ENDBRANCH  75  77
ENDBRANCH  74  75
ENDBRANCH  73  74
ENDBRANCH   1  73
TORSDOF 22
ENDMDL
MODEL 2
REMARK VINA RESULT:      -9.6      6.174     11.987
REMARK SMILES O=C(OCCOCCOC(=O)[C@H]1CCCN(C(=O)CCOc2ccc(F)cc2)C1)c1ccc(-c2c3nc(c(-c4cc(S(=O)(=O)[O-])ccc4F)c4ccc([nH]4)c(-c4cc(S(=O)(=O)[O-])ccc4F)c4nc(c(-c5cc(S(=O)(=O)[O-])ccc5F)c5ccc2[nH]5)C=C4)C=C3)cc1
REMARK SMILES IDX 7 1 6 2 5 3 4 4 3 5 2 6 1 7 30 8 31 9 92 10 32 11 91 12
REMARK SMILES IDX 33 13 34 14 35 15 85 16 36 17 90 18 84 19 86 20 37 21 89 22
REMARK SMILES IDX 83 23 82 24 38 26 70 27 50 28 69 29 51 30 54 31 68 32 87 33
REMARK SMILES IDX 52 34 53 35 67 37 88 38 55 39 39 40 40 41 48 42 41 43 47 44
REMARK SMILES IDX 49 45 46 46 42 47 43 48 44 49 45 50 71 51 72 52 80 53 73 54
REMARK SMILES IDX 79 55 81 56 78 57 74 58 75 59 76 60 77 61 56 62 57 63 65 64
REMARK SMILES IDX 58 65 64 66 66 67 63 68 59 69 60 70 61 71 62 72 8 73 9 74
REMARK SMILES IDX 10 75 11 76 12 77 13 78 29 79 14 80 16 81 15 82 17 83 18 84
REMARK SMILES IDX 19 85 20 86 21 87 22 88 23 89 28 90 24 91 27 92 25 93 26 94
REMARK H PARENT 86 25 54 36
REMARK Flexibility Score: inf
ROOT
ATOM      1  C   UNL A   1      37.347  32.269  38.292  1.00  0.00     0.202 C 
ENDROOT
BRANCH   1   2
ATOM      2  O   UNL A   1      37.600  33.112  39.416  1.00  0.00    -0.374 OA
BRANCH   2   3
ATOM      3  C   UNL A   1      38.950  33.542  39.602  1.00  0.00     0.202 C 
BRANCH   3   4
ATOM      4  C   UNL A   1      39.238  35.014  39.939  1.00  0.00     0.261 C 
BRANCH   4   5
ATOM      5  O   UNL A   1      39.120  35.869  38.797  1.00  0.00    -0.460 OA
BRANCH   5   6
ATOM      6  C   UNL A   1      40.149  36.324  38.039  1.00  0.00     0.338 C 
ATOM      7  O   UNL A   1      40.649  37.414  38.305  1.00  0.00    -0.246 OA
BRANCH   6   8
ATOM      8  C   UNL A   1      40.713  35.536  36.907  1.00  0.00     0.060 A 
ATOM      9  C   UNL A   1      39.962  35.030  35.847  1.00  0.00     0.016 A 
ATOM     10  C   UNL A   1      42.098  35.337  36.877  1.00  0.00     0.016 A 
ATOM     11  C   UNL A   1      40.510  34.327  34.810  1.00  0.00     0.010 A 
ATOM     12  C   UNL A   1      42.683  34.640  35.817  1.00  0.00     0.010 A 
ATOM     13  C   UNL A   1      41.876  34.142  34.789  1.00  0.00    -0.014 A 
BRANCH  13  14
ATOM     14  C   UNL A   1      42.365  33.279  33.726  1.00  0.00     0.031 A 
ATOM     15  C   UNL A   1      42.767  33.938  32.454  1.00  0.00     0.074 A 
ATOM     16  C   UNL A   1      42.630  31.992  34.008  1.00  0.00     0.049 A 
ATOM     17  N   UNL A   1      43.045  33.395  31.308  1.00  0.00    -0.248 NA
ATOM     18  C   UNL A   1      42.883  35.411  32.475  1.00  0.00     0.031 C 
ATOM     19  C   UNL A   1      42.497  31.363  35.331  1.00  0.00     0.029 A 
ATOM     20  N   UNL A   1      43.097  30.989  33.212  1.00  0.00    -0.354 N 
ATOM     21  C   UNL A   1      43.322  34.454  30.458  1.00  0.00     0.074 A 
ATOM     22  C   UNL A   1      43.198  35.676  31.217  1.00  0.00     0.031 C 
ATOM     23  C   UNL A   1      42.872  30.078  35.246  1.00  0.00     0.029 A 
ATOM     24  C   UNL A   1      43.163  29.775  33.853  1.00  0.00     0.049 A 
ATOM     25  H   UNL A   1      43.362  31.121  32.274  1.00  0.00     0.167 HD
ATOM     26  C   UNL A   1      43.632  34.377  29.148  1.00  0.00     0.034 A 
ATOM     27  C   UNL A   1      43.360  28.553  33.329  1.00  0.00     0.034 A 
ATOM     28  C   UNL A   1      43.742  33.116  28.469  1.00  0.00     0.049 A 
ATOM     29  C   UNL A   1      43.534  28.488  31.833  1.00  0.00     0.074 A 
ATOM     30  C   UNL A   1      43.927  32.867  27.126  1.00  0.00     0.029 A 
ATOM     31  N   UNL A   1      43.691  31.883  29.110  1.00  0.00    -0.354 N 
ATOM     32  N   UNL A   1      43.602  29.478  30.968  1.00  0.00    -0.248 NA
ATOM     33  C   UNL A   1      43.627  27.154  31.237  1.00  0.00     0.031 C 
ATOM     34  C   UNL A   1      43.943  31.479  26.949  1.00  0.00     0.029 A 
ATOM     35  C   UNL A   1      43.836  30.865  28.190  1.00  0.00     0.049 A 
ATOM     36  H   UNL A   1      43.569  31.754  30.079  1.00  0.00     0.167 HD
ATOM     37  C   UNL A   1      43.771  28.885  29.725  1.00  0.00     0.074 A 
ATOM     38  C   UNL A   1      43.813  27.452  29.961  1.00  0.00     0.031 C 
ATOM     39  C   UNL A   1      43.874  29.455  28.496  1.00  0.00     0.034 A 
BRANCH  26  40
ATOM     40  C   UNL A   1      43.779  35.659  28.387  1.00  0.00     0.023 A 
ATOM     41  C   UNL A   1      45.033  36.258  28.185  1.00  0.00     0.031 A 
ATOM     42  C   UNL A   1      42.642  36.298  27.866  1.00  0.00     0.131 A 
ATOM     43  C   UNL A   1      45.118  37.472  27.487  1.00  0.00     0.055 A 
ATOM     44  C   UNL A   1      42.737  37.478  27.128  1.00  0.00     0.041 A 
ATOM     45  F   UNL A   1      41.418  35.786  28.071  1.00  0.00    -0.206 F 
ATOM     46  C   UNL A   1      43.982  38.071  26.935  1.00  0.00     0.022 A 
BRANCH  43  47
ATOM     47  S   UNL A   1      46.731  38.288  27.344  1.00  0.00     0.124 S 
ATOM     48  O   UNL A   1      47.228  38.197  28.714  1.00  0.00    -0.237 OA
ATOM     49  O   UNL A   1      47.421  37.464  26.359  1.00  0.00    -0.237 OA
ATOM     50  O   UNL A   1      46.391  39.638  26.897  1.00  0.00    -0.744 OA
ENDBRANCH  43  47
ENDBRANCH  26  40
BRANCH  27  51
ATOM     51  C   UNL A   1      43.300  27.327  34.170  1.00  0.00     0.023 A 
ATOM     52  C   UNL A   1      44.477  26.705  34.609  1.00  0.00     0.031 A 
ATOM     53  C   UNL A   1      42.074  26.722  34.505  1.00  0.00     0.131 A 
ATOM     54  C   UNL A   1      44.409  25.492  35.314  1.00  0.00     0.055 A 
ATOM     55  C   UNL A   1      42.008  25.546  35.254  1.00  0.00     0.041 A 
ATOM     56  F   UNL A   1      40.913  27.270  34.111  1.00  0.00    -0.206 F 
ATOM     57  C   UNL A   1      43.183  24.915  35.650  1.00  0.00     0.022 A 
BRANCH  54  58
ATOM     58  S   UNL A   1      45.957  24.636  35.708  1.00  0.00     0.124 S 
ATOM     59  O   UNL A   1      45.518  23.684  36.723  1.00  0.00    -0.237 OA
ATOM     60  O   UNL A   1      46.327  24.070  34.416  1.00  0.00    -0.237 OA
ATOM     61  O   UNL A   1      46.825  25.707  36.190  1.00  0.00    -0.744 OA
ENDBRANCH  54  58
ENDBRANCH  27  51
BRANCH  39  62
ATOM     62  C   UNL A   1      44.090  28.518  27.347  1.00  0.00     0.023 A 
ATOM     63  C   UNL A   1      45.378  28.252  26.860  1.00  0.00     0.031 A 
ATOM     64  C   UNL A   1      42.994  27.878  26.745  1.00  0.00     0.131 A 
ATOM     65  C   UNL A   1      45.535  27.407  25.757  1.00  0.00     0.055 A 
ATOM     66  C   UNL A   1      43.164  26.985  25.690  1.00  0.00     0.041 A 
ATOM     67  F   UNL A   1      41.745  28.102  27.184  1.00  0.00    -0.206 F 
ATOM     68  C   UNL A   1      44.440  26.756  25.182  1.00  0.00     0.022 A 
BRANCH  65  69
ATOM     69  S   UNL A   1      47.187  27.241  25.033  1.00  0.00     0.124 S 
ATOM     70  O   UNL A   1      47.257  28.414  24.169  1.00  0.00    -0.237 OA
ATOM     71  O   UNL A   1      48.050  27.265  26.210  1.00  0.00    -0.237 OA
ATOM     72  O   UNL A   1      47.126  25.957  24.336  1.00  0.00    -0.744 OA
ENDBRANCH  65  69
ENDBRANCH  39  62
ENDBRANCH  13  14
ENDBRANCH   6   8
ENDBRANCH   5   6
ENDBRANCH   4   5
ENDBRANCH   3   4
ENDBRANCH   2   3
ENDBRANCH   1   2
BRANCH   1  73
ATOM     73  C   UNL A   1      37.386  33.063  36.991  1.00  0.00     0.261 C 
BRANCH  73  74
ATOM     74  O   UNL A   1      37.476  32.113  35.913  1.00  0.00    -0.463 OA
BRANCH  74  75
ATOM     75  C   UNL A   1      36.960  32.489  34.717  1.00  0.00     0.310 C 
ATOM     76  O   UNL A   1      35.941  33.165  34.620  1.00  0.00    -0.252 OA
BRANCH  75  77
ATOM     77  C   UNL A   1      37.841  31.821  33.420  1.00  0.00     0.119 C 
ATOM     78  C   UNL A   1      39.450  30.298  33.288  1.00  0.00     0.019 C 
ATOM     79  C   UNL A   1      36.374  31.529  32.163  1.00  0.00     0.134 C 
ATOM     80  C   UNL A   1      39.060  28.863  31.991  1.00  0.00     0.022 C 
ATOM     81  N   UNL A   1      36.622  30.530  30.835  1.00  0.00    -0.342 N 
ATOM     82  C   UNL A   1      37.475  29.004  30.957  1.00  0.00     0.119 C 
BRANCH  81  83
ATOM     83  C   UNL A   1      36.724  31.379  29.697  1.00  0.00     0.226 C 
ATOM     84  O   UNL A   1      37.811  31.872  29.384  1.00  0.00    -0.275 OA
BRANCH  83  85
ATOM     85  C   UNL A   1      35.556  31.384  28.651  1.00  0.00     0.141 C 
BRANCH  85  86
ATOM     86  C   UNL A   1      35.070  32.828  28.177  1.00  0.00     0.239 C 
BRANCH  86  87
ATOM     87  O   UNL A   1      33.728  33.414  28.450  1.00  0.00    -0.493 OA
BRANCH  87  88
ATOM     88  C   UNL A   1      33.718  34.458  29.324  1.00  0.00     0.119 A 
ATOM     89  C   UNL A   1      34.423  34.102  30.777  1.00  0.00     0.049 A 
ATOM     90  C   UNL A   1      33.098  36.048  29.171  1.00  0.00     0.049 A 
ATOM     91  C   UNL A   1      34.471  35.285  32.315  1.00  0.00     0.043 A 
ATOM     92  C   UNL A   1      33.171  37.239  30.467  1.00  0.00     0.043 A 
ATOM     93  C   UNL A   1      33.812  36.891  32.063  1.00  0.00     0.123 A 
ATOM     94  F   UNL A   1      33.939  37.846  32.988  1.00  0.00    -0.207 F 
ENDBRANCH  87  88
ENDBRANCH  86  87
ENDBRANCH  85  86
ENDBRANCH  83  85
ENDBRANCH  81  83
ENDBRANCH  75  77
ENDBRANCH  74  75
ENDBRANCH  73  74
ENDBRANCH   1  73
TORSDOF 22
ENDMDL
MODEL 3
REMARK VINA RESULT:      -9.6      3.629      9.032
REMARK SMILES O=C(OCCOCCOC(=O)[C@H]1CCCN(C(=O)CCOc2ccc(F)cc2)C1)c1ccc(-c2c3nc(c(-c4cc(S(=O)(=O)[O-])ccc4F)c4ccc([nH]4)c(-c4cc(S(=O)(=O)[O-])ccc4F)c4nc(c(-c5cc(S(=O)(=O)[O-])ccc5F)c5ccc2[nH]5)C=C4)C=C3)cc1
REMARK SMILES IDX 7 1 6 2 5 3 4 4 3 5 2 6 1 7 30 8 31 9 92 10 32 11 91 12
REMARK SMILES IDX 33 13 34 14 35 15 85 16 36 17 90 18 84 19 86 20 37 21 89 22
REMARK SMILES IDX 83 23 82 24 38 26 70 27 50 28 69 29 51 30 54 31 68 32 87 33
REMARK SMILES IDX 52 34 53 35 67 37 88 38 55 39 39 40 40 41 48 42 41 43 47 44
REMARK SMILES IDX 49 45 46 46 42 47 43 48 44 49 45 50 71 51 72 52 80 53 73 54
REMARK SMILES IDX 79 55 81 56 78 57 74 58 75 59 76 60 77 61 56 62 57 63 65 64
REMARK SMILES IDX 58 65 64 66 66 67 63 68 59 69 60 70 61 71 62 72 8 73 9 74
REMARK SMILES IDX 10 75 11 76 12 77 13 78 29 79 14 80 16 81 15 82 17 83 18 84
REMARK SMILES IDX 19 85 20 86 21 87 22 88 23 89 28 90 24 91 27 92 25 93 26 94
REMARK H PARENT 86 25 54 36
REMARK Flexibility Score: inf
ROOT
ATOM      1  C   UNL A   1      39.291  24.862  27.501  1.00  0.00     0.202 C 
ENDROOT
BRANCH   1   2
ATOM      2  O   UNL A   1      40.484  24.190  27.907  1.00  0.00    -0.374 OA
BRANCH   2   3
ATOM      3  C   UNL A   1      40.927  23.115  27.076  1.00  0.00     0.202 C 
BRANCH   3   4
ATOM      4  C   UNL A   1      42.142  23.318  26.156  1.00  0.00     0.261 C 
BRANCH   4   5
ATOM      5  O   UNL A   1      42.894  24.488  26.493  1.00  0.00    -0.460 OA
BRANCH   5   6
ATOM      6  C   UNL A   1      42.800  25.693  25.878  1.00  0.00     0.338 C 
ATOM      7  O   UNL A   1      42.643  25.730  24.660  1.00  0.00    -0.246 OA
BRANCH   6   8
ATOM      8  C   UNL A   1      42.856  26.979  26.630  1.00  0.00     0.060 A 
ATOM      9  C   UNL A   1      42.091  28.104  26.327  1.00  0.00     0.016 A 
ATOM     10  C   UNL A   1      43.693  27.043  27.750  1.00  0.00     0.016 A 
ATOM     11  C   UNL A   1      42.150  29.264  27.048  1.00  0.00     0.010 A 
ATOM     12  C   UNL A   1      43.754  28.211  28.514  1.00  0.00     0.010 A 
ATOM     13  C   UNL A   1      42.974  29.314  28.151  1.00  0.00    -0.014 A 
BRANCH  13  14
ATOM     14  C   UNL A   1      43.077  30.618  28.787  1.00  0.00     0.031 A 
ATOM     15  C   UNL A   1      44.111  31.547  28.255  1.00  0.00     0.074 A 
ATOM     16  C   UNL A   1      42.119  30.994  29.651  1.00  0.00     0.049 A 
ATOM     17  N   UNL A   1      44.533  32.667  28.756  1.00  0.00    -0.248 NA
ATOM     18  C   UNL A   1      44.751  31.170  26.978  1.00  0.00     0.031 C 
ATOM     19  C   UNL A   1      40.929  30.205  30.003  1.00  0.00     0.029 A 
ATOM     20  N   UNL A   1      41.973  32.146  30.364  1.00  0.00    -0.354 N 
ATOM     21  C   UNL A   1      45.520  33.108  27.888  1.00  0.00     0.074 A 
ATOM     22  C   UNL A   1      45.628  32.149  26.815  1.00  0.00     0.031 C 
ATOM     23  C   UNL A   1      40.181  30.902  30.872  1.00  0.00     0.029 A 
ATOM     24  C   UNL A   1      40.892  32.124  31.213  1.00  0.00     0.049 A 
ATOM     25  H   UNL A   1      42.581  32.916  30.281  1.00  0.00     0.167 HD
ATOM     26  C   UNL A   1      46.270  34.220  28.018  1.00  0.00     0.034 A 
ATOM     27  C   UNL A   1      40.579  32.976  32.205  1.00  0.00     0.034 A 
ATOM     28  C   UNL A   1      46.094  35.129  29.116  1.00  0.00     0.049 A 
ATOM     29  C   UNL A   1      41.537  34.117  32.431  1.00  0.00     0.074 A 
ATOM     30  C   UNL A   1      46.847  36.230  29.462  1.00  0.00     0.029 A 
ATOM     31  N   UNL A   1      45.061  35.034  30.043  1.00  0.00    -0.354 N 
ATOM     32  N   UNL A   1      42.604  34.448  31.736  1.00  0.00    -0.248 NA
ATOM     33  C   UNL A   1      41.273  34.980  33.584  1.00  0.00     0.031 C 
ATOM     34  C   UNL A   1      46.295  36.776  30.625  1.00  0.00     0.029 A 
ATOM     35  C   UNL A   1      45.158  36.054  30.966  1.00  0.00     0.049 A 
ATOM     36  H   UNL A   1      44.362  34.339  30.041  1.00  0.00     0.167 HD
ATOM     37  C   UNL A   1      43.128  35.574  32.354  1.00  0.00     0.074 A 
ATOM     38  C   UNL A   1      42.243  35.874  33.467  1.00  0.00     0.031 C 
ATOM     39  C   UNL A   1      44.236  36.297  32.049  1.00  0.00     0.034 A 
BRANCH  26  40
ATOM     40  C   UNL A   1      47.365  34.446  27.020  1.00  0.00     0.023 A 
ATOM     41  C   UNL A   1      48.475  33.591  26.937  1.00  0.00     0.031 A 
ATOM     42  C   UNL A   1      47.301  35.544  26.146  1.00  0.00     0.131 A 
ATOM     43  C   UNL A   1      49.488  33.857  26.002  1.00  0.00     0.055 A 
ATOM     44  C   UNL A   1      48.284  35.774  25.184  1.00  0.00     0.041 A 
ATOM     45  F   UNL A   1      46.280  36.414  26.218  1.00  0.00    -0.206 F 
ATOM     46  C   UNL A   1      49.386  34.927  25.109  1.00  0.00     0.022 A 
BRANCH  43  47
ATOM     47  S   UNL A   1      50.969  32.811  25.996  1.00  0.00     0.124 S 
ATOM     48  O   UNL A   1      51.742  33.391  27.090  1.00  0.00    -0.237 OA
ATOM     49  O   UNL A   1      50.423  31.480  26.236  1.00  0.00    -0.237 OA
ATOM     50  O   UNL A   1      51.529  33.021  24.662  1.00  0.00    -0.744 OA
ENDBRANCH  43  47
ENDBRANCH  26  40
BRANCH  27  51
ATOM     51  C   UNL A   1      39.410  32.739  33.094  1.00  0.00     0.023 A 
ATOM     52  C   UNL A   1      38.154  33.278  32.782  1.00  0.00     0.031 A 
ATOM     53  C   UNL A   1      39.534  32.019  34.298  1.00  0.00     0.131 A 
ATOM     54  C   UNL A   1      37.086  33.134  33.681  1.00  0.00     0.055 A 
ATOM     55  C   UNL A   1      38.455  31.830  35.162  1.00  0.00     0.041 A 
ATOM     56  F   UNL A   1      40.712  31.480  34.652  1.00  0.00    -0.206 F 
ATOM     57  C   UNL A   1      37.224  32.403  34.863  1.00  0.00     0.022 A 
BRANCH  54  58
ATOM     58  S   UNL A   1      35.533  33.994  33.319  1.00  0.00     0.124 S 
ATOM     59  O   UNL A   1      35.458  33.871  31.867  1.00  0.00    -0.237 OA
ATOM     60  O   UNL A   1      34.567  33.210  34.080  1.00  0.00    -0.237 OA
ATOM     61  O   UNL A   1      35.768  35.347  33.820  1.00  0.00    -0.744 OA
ENDBRANCH  54  58
ENDBRANCH  27  51
BRANCH  39  62
ATOM     62  C   UNL A   1      44.502  37.497  32.909  1.00  0.00     0.023 A 
ATOM     63  C   UNL A   1      43.900  38.733  32.634  1.00  0.00     0.031 A 
ATOM     64  C   UNL A   1      45.356  37.392  34.019  1.00  0.00     0.131 A 
ATOM     65  C   UNL A   1      44.208  39.840  33.432  1.00  0.00     0.055 A 
ATOM     66  C   UNL A   1      45.604  38.482  34.850  1.00  0.00     0.041 A 
ATOM     67  F   UNL A   1      45.948  36.224  34.319  1.00  0.00    -0.206 F 
ATOM     68  C   UNL A   1      45.039  39.718  34.549  1.00  0.00     0.022 A 
BRANCH  65  69
ATOM     69  S   UNL A   1      43.571  41.460  32.933  1.00  0.00     0.124 S 
ATOM     70  O   UNL A   1      44.500  41.837  31.874  1.00  0.00    -0.237 OA
ATOM     71  O   UNL A   1      42.212  41.145  32.505  1.00  0.00    -0.237 OA
ATOM     72  O   UNL A   1      43.667  42.255  34.156  1.00  0.00    -0.744 OA
ENDBRANCH  65  69
ENDBRANCH  39  62
ENDBRANCH  13  14
ENDBRANCH   6   8
ENDBRANCH   5   6
ENDBRANCH   4   5
ENDBRANCH   3   4
ENDBRANCH   2   3
ENDBRANCH   1   2
BRANCH   1  73
ATOM     73  C   UNL A   1      38.742  24.272  26.208  1.00  0.00     0.261 C 
BRANCH  73  74
ATOM     74  O   UNL A   1      37.486  23.642  26.524  1.00  0.00    -0.463 OA
BRANCH  74  75
ATOM     75  C   UNL A   1      37.160  22.530  25.821  1.00  0.00     0.310 C 
ATOM     76  O   UNL A   1      38.005  21.789  25.329  1.00  0.00    -0.252 OA
BRANCH  75  77
ATOM     77  C   UNL A   1      35.473  22.379  25.638  1.00  0.00     0.119 C 
ATOM     78  C   UNL A   1      33.842  21.706  26.985  1.00  0.00     0.019 C 
ATOM     79  C   UNL A   1      35.104  24.075  24.739  1.00  0.00     0.134 C 
ATOM     80  C   UNL A   1      32.352  22.994  27.109  1.00  0.00     0.022 C 
ATOM     81  N   UNL A   1      33.519  24.625  24.652  1.00  0.00    -0.342 N 
ATOM     82  C   UNL A   1      32.422  24.544  26.016  1.00  0.00     0.119 C 
BRANCH  81  83
ATOM     83  C   UNL A   1      33.091  24.430  23.309  1.00  0.00     0.226 C 
ATOM     84  O   UNL A   1      32.464  23.413  22.998  1.00  0.00    -0.275 OA
BRANCH  83  85
ATOM     85  C   UNL A   1      33.090  25.654  22.329  1.00  0.00     0.141 C 
BRANCH  85  86
ATOM     86  C   UNL A   1      31.810  26.600  22.418  1.00  0.00     0.239 C 
BRANCH  86  87
ATOM     87  O   UNL A   1      30.992  26.824  23.644  1.00  0.00    -0.493 OA
BRANCH  87  88
ATOM     88  C   UNL A   1      30.052  27.803  23.542  1.00  0.00     0.119 A 
ATOM     89  C   UNL A   1      30.653  29.319  23.821  1.00  0.00     0.049 A 
ATOM     90  C   UNL A   1      28.377  27.723  23.188  1.00  0.00     0.049 A 
ATOM     91  C   UNL A   1      29.592  30.942  23.903  1.00  0.00     0.043 A 
ATOM     92  C   UNL A   1      27.334  29.142  23.141  1.00  0.00     0.043 A 
ATOM     93  C   UNL A   1      27.888  30.761  23.528  1.00  0.00     0.123 A 
ATOM     94  F   UNL A   1      27.092  31.824  23.387  1.00  0.00    -0.207 F 
ENDBRANCH  87  88
ENDBRANCH  86  87
ENDBRANCH  85  86
ENDBRANCH  83  85
ENDBRANCH  81  83
ENDBRANCH  75  77
ENDBRANCH  74  75
ENDBRANCH  73  74
ENDBRANCH   1  73
TORSDOF 22
ENDMDL
