MODEL 1
REMARK VINA RESULT:     -10.0      0.000      0.000
REMARK SMILES CC(C)[C@](C)(CC(=O)NC#N)C(=O)OCCOCCOC(=O)c1ccc(-c2c3nc(c(-c4cc(S(=O)(=O)[O-])ccc4F)c4ccc([nH]4)c(-c4cc(S(=O)(=O)[O-])ccc4F)c4nc(c(-c5cc(S(=O)(=O)[O-])ccc5F)c5ccc2[nH]5)C=C4)C=C3)cc1
REMARK SMILES IDX 17 1 16 2 15 3 14 4 12 5 13 6 4 7 5 8 2 9 1 10 3 11 6 12
REMARK SMILES IDX 7 13 8 14 9 15 10 17 11 18 18 19 19 20 20 21 21 22 22 23
REMARK SMILES IDX 23 24 24 25 85 26 25 27 84 28 26 29 27 30 28 31 78 32 29 33
REMARK SMILES IDX 83 34 77 35 79 36 30 37 82 38 76 39 75 40 31 42 63 43 43 44
REMARK SMILES IDX 62 45 44 46 47 47 61 48 80 49 45 50 46 51 60 53 81 54 48 55
REMARK SMILES IDX 32 56 33 57 41 58 34 59 40 60 42 61 39 62 35 63 36 64 37 65
REMARK SMILES IDX 38 66 64 67 65 68 73 69 66 70 72 71 74 72 71 73 67 74 68 75
REMARK SMILES IDX 69 76 70 77 49 78 50 79 58 80 51 81 57 82 59 83 56 84 52 85
REMARK SMILES IDX 53 86 54 87 55 88
REMARK H PARENT 9 16 79 41 47 52
REMARK Flexibility Score: inf
ROOT
ATOM      1  O   UNL A   1      35.790  21.390  25.426  1.00  0.00    -0.374 OA
ENDROOT
BRANCH   1   2
ATOM      2  C   UNL A   1      35.066  22.228  24.534  1.00  0.00     0.202 C 
BRANCH   2   3
ATOM      3  C   UNL A   1      34.896  23.716  24.877  1.00  0.00     0.261 C 
BRANCH   3   4
ATOM      4  O   UNL A   1      34.216  24.521  23.895  1.00  0.00    -0.463 OA
BRANCH   4   5
ATOM      5  C   UNL A   1      33.520  25.552  24.442  1.00  0.00     0.312 C 
ATOM      6  O   UNL A   1      33.943  26.235  25.372  1.00  0.00    -0.252 OA
BRANCH   5   7
ATOM      7  C   UNL A   1      32.107  25.747  23.864  1.00  0.00     0.076 C 
ATOM      8  C   UNL A   1      31.664  24.316  23.479  1.00  0.00     0.024 C 
BRANCH   7   9
ATOM      9  C   UNL A   1      32.199  26.587  22.503  1.00  0.00     0.000 C 
ATOM     10  C   UNL A   1      32.433  25.764  21.223  1.00  0.00     0.008 C 
ATOM     11  C   UNL A   1      31.009  27.523  22.232  1.00  0.00     0.008 C 
ENDBRANCH   7   9
BRANCH   7  12
ATOM     12  C   UNL A   1      31.064  26.372  24.833  1.00  0.00     0.119 C 
BRANCH  12  13
ATOM     13  C   UNL A   1      30.991  26.114  26.330  1.00  0.00     0.234 C 
ATOM     14  O   UNL A   1      30.768  24.978  26.753  1.00  0.00    -0.274 OA
ATOM     15  N   UNL A   1      31.322  27.050  27.251  1.00  0.00    -0.263 N 
ATOM     16  H   UNL A   1      31.188  26.721  28.170  1.00  0.00     0.182 HD
BRANCH  15  17
ATOM     17  C   UNL A   1      31.785  28.308  27.237  1.00  0.00     0.183 C 
ATOM     18  N   UNL A   1      32.145  29.401  27.261  1.00  0.00    -0.172 NA
ENDBRANCH  15  17
ENDBRANCH  12  13
ENDBRANCH   7  12
ENDBRANCH   5   7
ENDBRANCH   4   5
ENDBRANCH   3   4
ENDBRANCH   2   3
ENDBRANCH   1   2
BRANCH   1  19
ATOM     19  C   UNL A   1      36.211  20.111  24.963  1.00  0.00     0.202 C 
BRANCH  19  20
ATOM     20  C   UNL A   1      37.709  19.789  24.961  1.00  0.00     0.261 C 
BRANCH  20  21
ATOM     21  O   UNL A   1      38.523  20.951  25.202  1.00  0.00    -0.460 OA
BRANCH  21  22
ATOM     22  C   UNL A   1      39.532  20.746  26.081  1.00  0.00     0.338 C 
ATOM     23  O   UNL A   1      40.221  19.744  26.181  1.00  0.00    -0.246 OA
BRANCH  22  24
ATOM     24  C   UNL A   1      39.863  21.988  26.798  1.00  0.00     0.060 A 
ATOM     25  C   UNL A   1      39.183  23.148  26.408  1.00  0.00     0.016 A 
ATOM     26  C   UNL A   1      40.928  22.053  27.698  1.00  0.00     0.016 A 
ATOM     27  C   UNL A   1      39.611  24.391  26.862  1.00  0.00     0.010 A 
ATOM     28  C   UNL A   1      41.360  23.307  28.149  1.00  0.00     0.010 A 
ATOM     29  C   UNL A   1      40.733  24.484  27.695  1.00  0.00    -0.014 A 
BRANCH  29  30
ATOM     30  C   UNL A   1      41.327  25.820  27.953  1.00  0.00     0.031 A 
ATOM     31  C   UNL A   1      42.725  26.109  27.472  1.00  0.00     0.074 A 
ATOM     32  C   UNL A   1      40.601  26.786  28.544  1.00  0.00     0.049 A 
ATOM     33  N   UNL A   1      43.442  27.195  27.610  1.00  0.00    -0.248 NA
ATOM     34  C   UNL A   1      43.401  25.030  26.739  1.00  0.00     0.031 C 
ATOM     35  C   UNL A   1      39.216  26.641  28.992  1.00  0.00     0.029 A 
ATOM     36  N   UNL A   1      40.925  28.080  28.868  1.00  0.00    -0.354 N 
ATOM     37  C   UNL A   1      44.658  26.928  26.986  1.00  0.00     0.074 A 
ATOM     38  C   UNL A   1      44.591  25.562  26.509  1.00  0.00     0.031 C 
ATOM     39  C   UNL A   1      38.810  27.800  29.536  1.00  0.00     0.029 A 
ATOM     40  C   UNL A   1      39.919  28.751  29.522  1.00  0.00     0.049 A 
ATOM     41  H   UNL A   1      41.794  28.489  28.651  1.00  0.00     0.167 HD
ATOM     42  C   UNL A   1      45.723  27.751  26.820  1.00  0.00     0.034 A 
ATOM     43  C   UNL A   1      39.907  29.980  30.078  1.00  0.00     0.034 A 
ATOM     44  C   UNL A   1      45.773  29.107  27.314  1.00  0.00     0.049 A 
ATOM     45  C   UNL A   1      41.143  30.841  29.975  1.00  0.00     0.074 A 
ATOM     46  C   UNL A   1      46.800  30.029  27.199  1.00  0.00     0.029 A 
ATOM     47  N   UNL A   1      44.760  29.732  28.029  1.00  0.00    -0.354 N 
ATOM     48  N   UNL A   1      42.289  30.576  29.389  1.00  0.00    -0.248 NA
ATOM     49  C   UNL A   1      41.081  32.168  30.598  1.00  0.00     0.031 C 
ATOM     50  C   UNL A   1      46.443  31.174  27.918  1.00  0.00     0.029 A 
ATOM     51  C   UNL A   1      45.153  31.010  28.397  1.00  0.00     0.049 A 
ATOM     52  H   UNL A   1      43.889  29.327  28.245  1.00  0.00     0.167 HD
ATOM     53  C   UNL A   1      43.070  31.718  29.546  1.00  0.00     0.074 A 
ATOM     54  C   UNL A   1      42.257  32.677  30.267  1.00  0.00     0.031 C 
ATOM     55  C   UNL A   1      44.340  31.956  29.128  1.00  0.00     0.034 A 
BRANCH  42  56
ATOM     56  C   UNL A   1      46.941  27.184  26.124  1.00  0.00     0.023 A 
ATOM     57  C   UNL A   1      47.921  26.453  26.817  1.00  0.00     0.031 A 
ATOM     58  C   UNL A   1      47.135  27.400  24.747  1.00  0.00     0.131 A 
ATOM     59  C   UNL A   1      49.082  26.030  26.151  1.00  0.00     0.055 A 
ATOM     60  C   UNL A   1      48.250  26.900  24.071  1.00  0.00     0.041 A 
ATOM     61  F   UNL A   1      46.248  28.111  24.034  1.00  0.00    -0.206 F 
ATOM     62  C   UNL A   1      49.240  26.223  24.777  1.00  0.00     0.022 A 
BRANCH  59  63
ATOM     63  S   UNL A   1      50.452  25.363  27.135  1.00  0.00     0.124 S 
ATOM     64  O   UNL A   1      51.410  24.993  26.096  1.00  0.00    -0.237 OA
ATOM     65  O   UNL A   1      50.822  26.499  27.971  1.00  0.00    -0.237 OA
ATOM     66  O   UNL A   1      49.848  24.236  27.844  1.00  0.00    -0.744 OA
ENDBRANCH  59  63
ENDBRANCH  42  56
BRANCH  43  67
ATOM     67  C   UNL A   1      38.707  30.452  30.829  1.00  0.00     0.023 A 
ATOM     68  C   UNL A   1      37.627  31.063  30.173  1.00  0.00     0.031 A 
ATOM     69  C   UNL A   1      38.649  30.346  32.232  1.00  0.00     0.131 A 
ATOM     70  C   UNL A   1      36.560  31.585  30.920  1.00  0.00     0.055 A 
ATOM     71  C   UNL A   1      37.556  30.809  32.964  1.00  0.00     0.041 A 
ATOM     72  F   UNL A   1      39.657  29.778  32.912  1.00  0.00    -0.206 F 
ATOM     73  C   UNL A   1      36.508  31.446  32.309  1.00  0.00     0.022 A 
BRANCH  70  74
ATOM     74  S   UNL A   1      35.282  32.542  30.058  1.00  0.00     0.124 S 
ATOM     75  O   UNL A   1      34.895  31.625  28.992  1.00  0.00    -0.237 OA
ATOM     76  O   UNL A   1      34.297  32.751  31.114  1.00  0.00    -0.237 OA
ATOM     77  O   UNL A   1      35.993  33.743  29.624  1.00  0.00    -0.744 OA
ENDBRANCH  70  74
ENDBRANCH  43  67
BRANCH  55  78
ATOM     78  C   UNL A   1      44.910  33.330  29.395  1.00  0.00     0.023 A 
ATOM     79  C   UNL A   1      44.807  34.375  28.459  1.00  0.00     0.031 A 
ATOM     80  C   UNL A   1      45.575  33.596  30.607  1.00  0.00     0.131 A 
ATOM     81  C   UNL A   1      45.413  35.613  28.723  1.00  0.00     0.055 A 
ATOM     82  C   UNL A   1      46.110  34.852  30.894  1.00  0.00     0.041 A 
ATOM     83  F   UNL A   1      45.710  32.637  31.536  1.00  0.00    -0.206 F 
ATOM     84  C   UNL A   1      46.045  35.865  29.944  1.00  0.00     0.022 A 
BRANCH  81  85
ATOM     85  S   UNL A   1      45.462  36.857  27.404  1.00  0.00     0.124 S 
ATOM     86  O   UNL A   1      46.268  37.910  28.011  1.00  0.00    -0.237 OA
ATOM     87  O   UNL A   1      46.087  36.126  26.307  1.00  0.00    -0.237 OA
ATOM     88  O   UNL A   1      44.053  37.196  27.199  1.00  0.00    -0.744 OA
ENDBRANCH  81  85
ENDBRANCH  55  78
ENDBRANCH  29  30
ENDBRANCH  22  24
ENDBRANCH  21  22
ENDBRANCH  20  21
ENDBRANCH  19  20
ENDBRANCH   1  19
TORSDOF 21
ENDMDL
MODEL 2
REMARK VINA RESULT:      -9.9      4.758     10.330
REMARK SMILES CC(C)[C@](C)(CC(=O)NC#N)C(=O)OCCOCCOC(=O)c1ccc(-c2c3nc(c(-c4cc(S(=O)(=O)[O-])ccc4F)c4ccc([nH]4)c(-c4cc(S(=O)(=O)[O-])ccc4F)c4nc(c(-c5cc(S(=O)(=O)[O-])ccc5F)c5ccc2[nH]5)C=C4)C=C3)cc1
REMARK SMILES IDX 17 1 16 2 15 3 14 4 12 5 13 6 4 7 5 8 2 9 1 10 3 11 6 12
REMARK SMILES IDX 7 13 8 14 9 15 10 17 11 18 18 19 19 20 20 21 21 22 22 23
REMARK SMILES IDX 23 24 24 25 85 26 25 27 84 28 26 29 27 30 28 31 78 32 29 33
REMARK SMILES IDX 83 34 77 35 79 36 30 37 82 38 76 39 75 40 31 42 63 43 43 44
REMARK SMILES IDX 62 45 44 46 47 47 61 48 80 49 45 50 46 51 60 53 81 54 48 55
REMARK SMILES IDX 32 56 33 57 41 58 34 59 40 60 42 61 39 62 35 63 36 64 37 65
REMARK SMILES IDX 38 66 64 67 65 68 73 69 66 70 72 71 74 72 71 73 67 74 68 75
REMARK SMILES IDX 69 76 70 77 49 78 50 79 58 80 51 81 57 82 59 83 56 84 52 85
REMARK SMILES IDX 53 86 54 87 55 88
REMARK H PARENT 9 16 79 41 47 52
REMARK Flexibility Score: inf
ROOT
ATOM      1  O   UNL A   1      32.186  30.043  26.953  1.00  0.00    -0.374 OA
ENDROOT
BRANCH   1   2
ATOM      2  C   UNL A   1      32.790  29.047  26.137  1.00  0.00     0.202 C 
BRANCH   2   3
ATOM      3  C   UNL A   1      32.553  27.565  26.468  1.00  0.00     0.261 C 
BRANCH   3   4
ATOM      4  O   UNL A   1      32.899  26.620  25.436  1.00  0.00    -0.463 OA
BRANCH   4   5
ATOM      5  C   UNL A   1      32.017  25.592  25.338  1.00  0.00     0.312 C 
ATOM      6  O   UNL A   1      31.104  25.406  26.139  1.00  0.00    -0.252 OA
BRANCH   5   7
ATOM      7  C   UNL A   1      32.304  24.613  24.187  1.00  0.00     0.076 C 
ATOM      8  C   UNL A   1      31.475  23.359  24.551  1.00  0.00     0.024 C 
BRANCH   7   9
ATOM      9  C   UNL A   1      33.845  24.179  24.227  1.00  0.00     0.000 C 
ATOM     10  C   UNL A   1      34.361  23.667  25.583  1.00  0.00     0.008 C 
ATOM     11  C   UNL A   1      34.263  23.151  23.162  1.00  0.00     0.008 C 
ENDBRANCH   7   9
BRANCH   7  12
ATOM     12  C   UNL A   1      31.903  25.106  22.767  1.00  0.00     0.119 C 
BRANCH  12  13
ATOM     13  C   UNL A   1      32.592  26.225  22.000  1.00  0.00     0.234 C 
ATOM     14  O   UNL A   1      33.431  25.960  21.136  1.00  0.00    -0.274 OA
ATOM     15  N   UNL A   1      32.215  27.521  22.101  1.00  0.00    -0.263 N 
ATOM     16  H   UNL A   1      32.788  28.112  21.559  1.00  0.00     0.182 HD
BRANCH  15  17
ATOM     17  C   UNL A   1      31.264  28.211  22.746  1.00  0.00     0.183 C 
ATOM     18  N   UNL A   1      30.416  28.757  23.301  1.00  0.00    -0.172 NA
ENDBRANCH  15  17
ENDBRANCH  12  13
ENDBRANCH   7  12
ENDBRANCH   5   7
ENDBRANCH   4   5
ENDBRANCH   3   4
ENDBRANCH   2   3
ENDBRANCH   1   2
BRANCH   1  19
ATOM     19  C   UNL A   1      31.763  31.256  26.339  1.00  0.00     0.202 C 
BRANCH  19  20
ATOM     20  C   UNL A   1      31.609  32.505  27.213  1.00  0.00     0.261 C 
BRANCH  20  21
ATOM     21  O   UNL A   1      32.654  33.467  26.987  1.00  0.00    -0.460 OA
BRANCH  21  22
ATOM     22  C   UNL A   1      33.295  33.861  28.114  1.00  0.00     0.338 C 
ATOM     23  O   UNL A   1      32.860  34.601  28.980  1.00  0.00    -0.246 OA
BRANCH  22  24
ATOM     24  C   UNL A   1      34.545  33.105  28.297  1.00  0.00     0.060 A 
ATOM     25  C   UNL A   1      34.428  31.778  28.730  1.00  0.00     0.016 A 
ATOM     26  C   UNL A   1      35.793  33.723  28.219  1.00  0.00     0.016 A 
ATOM     27  C   UNL A   1      35.556  31.085  29.158  1.00  0.00     0.010 A 
ATOM     28  C   UNL A   1      36.926  33.024  28.655  1.00  0.00     0.010 A 
ATOM     29  C   UNL A   1      36.804  31.719  29.171  1.00  0.00    -0.014 A 
BRANCH  29  30
ATOM     30  C   UNL A   1      37.937  31.059  29.869  1.00  0.00     0.031 A 
ATOM     31  C   UNL A   1      38.227  31.418  31.302  1.00  0.00     0.074 A 
ATOM     32  C   UNL A   1      38.651  30.099  29.253  1.00  0.00     0.049 A 
ATOM     33  N   UNL A   1      39.177  30.984  32.091  1.00  0.00    -0.248 NA
ATOM     34  C   UNL A   1      37.326  32.397  31.927  1.00  0.00     0.031 C 
ATOM     35  C   UNL A   1      38.417  29.623  27.890  1.00  0.00     0.029 A 
ATOM     36  N   UNL A   1      39.714  29.351  29.694  1.00  0.00    -0.354 N 
ATOM     37  C   UNL A   1      38.992  31.641  33.304  1.00  0.00     0.074 A 
ATOM     38  C   UNL A   1      37.865  32.533  33.129  1.00  0.00     0.031 C 
ATOM     39  C   UNL A   1      39.314  28.665  27.605  1.00  0.00     0.029 A 
ATOM     40  C   UNL A   1      40.216  28.496  28.742  1.00  0.00     0.049 A 
ATOM     41  H   UNL A   1      40.080  29.419  30.605  1.00  0.00     0.167 HD
ATOM     42  C   UNL A   1      39.692  31.502  34.458  1.00  0.00     0.034 A 
ATOM     43  C   UNL A   1      41.300  27.694  28.772  1.00  0.00     0.034 A 
ATOM     44  C   UNL A   1      40.820  30.614  34.609  1.00  0.00     0.049 A 
ATOM     45  C   UNL A   1      42.129  27.635  30.033  1.00  0.00     0.074 A 
ATOM     46  C   UNL A   1      41.599  30.392  35.732  1.00  0.00     0.029 A 
ATOM     47  N   UNL A   1      41.341  29.810  33.603  1.00  0.00    -0.354 N 
ATOM     48  N   UNL A   1      41.950  28.266  31.171  1.00  0.00    -0.248 NA
ATOM     49  C   UNL A   1      43.300  26.751  30.014  1.00  0.00     0.031 C 
ATOM     50  C   UNL A   1      42.639  29.526  35.380  1.00  0.00     0.029 A 
ATOM     51  C   UNL A   1      42.455  29.125  34.067  1.00  0.00     0.049 A 
ATOM     52  H   UNL A   1      40.974  29.737  32.692  1.00  0.00     0.167 HD
ATOM     53  C   UNL A   1      42.968  27.826  32.014  1.00  0.00     0.074 A 
ATOM     54  C   UNL A   1      43.745  26.867  31.257  1.00  0.00     0.031 C 
ATOM     55  C   UNL A   1      43.232  28.178  33.299  1.00  0.00     0.034 A 
BRANCH  42  56
ATOM     56  C   UNL A   1      39.290  32.374  35.627  1.00  0.00     0.023 A 
ATOM     57  C   UNL A   1      39.788  33.679  35.787  1.00  0.00     0.031 A 
ATOM     58  C   UNL A   1      38.414  31.882  36.611  1.00  0.00     0.131 A 
ATOM     59  C   UNL A   1      39.465  34.416  36.937  1.00  0.00     0.055 A 
ATOM     60  C   UNL A   1      38.026  32.652  37.708  1.00  0.00     0.041 A 
ATOM     61  F   UNL A   1      37.924  30.634  36.528  1.00  0.00    -0.206 F 
ATOM     62  C   UNL A   1      38.565  33.923  37.885  1.00  0.00     0.022 A 
BRANCH  59  63
ATOM     63  S   UNL A   1      40.359  35.962  37.256  1.00  0.00     0.124 S 
ATOM     64  O   UNL A   1      40.692  36.395  35.901  1.00  0.00    -0.237 OA
ATOM     65  O   UNL A   1      39.364  36.763  37.958  1.00  0.00    -0.237 OA
ATOM     66  O   UNL A   1      41.502  35.537  38.063  1.00  0.00    -0.744 OA
ENDBRANCH  59  63
ENDBRANCH  42  56
BRANCH  43  67
ATOM     67  C   UNL A   1      41.698  26.923  27.559  1.00  0.00     0.023 A 
ATOM     68  C   UNL A   1      41.494  25.538  27.472  1.00  0.00     0.031 A 
ATOM     69  C   UNL A   1      42.343  27.561  26.481  1.00  0.00     0.131 A 
ATOM     70  C   UNL A   1      41.971  24.829  26.359  1.00  0.00     0.055 A 
ATOM     71  C   UNL A   1      42.757  26.861  25.348  1.00  0.00     0.041 A 
ATOM     72  F   UNL A   1      42.570  28.884  26.512  1.00  0.00    -0.206 F 
ATOM     73  C   UNL A   1      42.584  25.483  25.288  1.00  0.00     0.022 A 
BRANCH  70  74
ATOM     74  S   UNL A   1      41.869  23.017  26.373  1.00  0.00     0.124 S 
ATOM     75  O   UNL A   1      40.429  22.803  26.446  1.00  0.00    -0.237 OA
ATOM     76  O   UNL A   1      42.507  22.668  25.108  1.00  0.00    -0.237 OA
ATOM     77  O   UNL A   1      42.618  22.645  27.572  1.00  0.00    -0.744 OA
ENDBRANCH  70  74
ENDBRANCH  43  67
BRANCH  55  78
ATOM     78  C   UNL A   1      44.383  27.479  33.985  1.00  0.00     0.023 A 
ATOM     79  C   UNL A   1      44.220  26.250  34.649  1.00  0.00     0.031 A 
ATOM     80  C   UNL A   1      45.666  28.058  33.978  1.00  0.00     0.131 A 
ATOM     81  C   UNL A   1      45.303  25.673  35.331  1.00  0.00     0.055 A 
ATOM     82  C   UNL A   1      46.756  27.442  34.594  1.00  0.00     0.041 A 
ATOM     83  F   UNL A   1      45.882  29.232  33.365  1.00  0.00    -0.206 F 
ATOM     84  C   UNL A   1      46.576  26.251  35.289  1.00  0.00     0.022 A 
BRANCH  81  85
ATOM     85  S   UNL A   1      45.004  24.216  36.367  1.00  0.00     0.124 S 
ATOM     86  O   UNL A   1      44.542  24.820  37.612  1.00  0.00    -0.237 OA
ATOM     87  O   UNL A   1      43.999  23.487  35.600  1.00  0.00    -0.237 OA
ATOM     88  O   UNL A   1      46.315  23.571  36.441  1.00  0.00    -0.744 OA
ENDBRANCH  81  85
ENDBRANCH  55  78
ENDBRANCH  29  30
ENDBRANCH  22  24
ENDBRANCH  21  22
ENDBRANCH  20  21
ENDBRANCH  19  20
ENDBRANCH   1  19
TORSDOF 21
ENDMDL
MODEL 3
REMARK VINA RESULT:      -9.8      1.956      8.084
REMARK SMILES CC(C)[C@](C)(CC(=O)NC#N)C(=O)OCCOCCOC(=O)c1ccc(-c2c3nc(c(-c4cc(S(=O)(=O)[O-])ccc4F)c4ccc([nH]4)c(-c4cc(S(=O)(=O)[O-])ccc4F)c4nc(c(-c5cc(S(=O)(=O)[O-])ccc5F)c5ccc2[nH]5)C=C4)C=C3)cc1
REMARK SMILES IDX 17 1 16 2 15 3 14 4 12 5 13 6 4 7 5 8 2 9 1 10 3 11 6 12
REMARK SMILES IDX 7 13 8 14 9 15 10 17 11 18 18 19 19 20 20 21 21 22 22 23
REMARK SMILES IDX 23 24 24 25 85 26 25 27 84 28 26 29 27 30 28 31 78 32 29 33
REMARK SMILES IDX 83 34 77 35 79 36 30 37 82 38 76 39 75 40 31 42 63 43 43 44
REMARK SMILES IDX 62 45 44 46 47 47 61 48 80 49 45 50 46 51 60 53 81 54 48 55
REMARK SMILES IDX 32 56 33 57 41 58 34 59 40 60 42 61 39 62 35 63 36 64 37 65
REMARK SMILES IDX 38 66 64 67 65 68 73 69 66 70 72 71 74 72 71 73 67 74 68 75
REMARK SMILES IDX 69 76 70 77 49 78 50 79 58 80 51 81 57 82 59 83 56 84 52 85
REMARK SMILES IDX 53 86 54 87 55 88
REMARK H PARENT 9 16 79 41 47 52
REMARK Flexibility Score: inf
ROOT
ATOM      1  O   UNL A   1      36.642  22.959  23.753  1.00  0.00    -0.374 OA
ENDROOT
BRANCH   1   2
ATOM      2  C   UNL A   1      35.792  24.038  24.123  1.00  0.00     0.202 C 
BRANCH   2   3
ATOM      3  C   UNL A   1      34.851  23.869  25.326  1.00  0.00     0.261 C 
BRANCH   3   4
ATOM      4  O   UNL A   1      34.065  25.023  25.685  1.00  0.00    -0.463 OA
BRANCH   4   5
ATOM      5  C   UNL A   1      32.776  24.940  25.267  1.00  0.00     0.312 C 
ATOM      6  O   UNL A   1      32.032  24.003  25.550  1.00  0.00    -0.252 OA
BRANCH   5   7
ATOM      7  C   UNL A   1      32.336  26.074  24.324  1.00  0.00     0.076 C 
ATOM      8  C   UNL A   1      33.597  26.960  24.197  1.00  0.00     0.024 C 
BRANCH   7   9
ATOM      9  C   UNL A   1      31.214  26.961  25.044  1.00  0.00     0.000 C 
ATOM     10  C   UNL A   1      31.597  27.537  26.419  1.00  0.00     0.008 C 
ATOM     11  C   UNL A   1      30.659  28.122  24.202  1.00  0.00     0.008 C 
ENDBRANCH   7   9
BRANCH   7  12
ATOM     12  C   UNL A   1      31.868  25.629  22.909  1.00  0.00     0.119 C 
BRANCH  12  13
ATOM     13  C   UNL A   1      32.773  25.079  21.818  1.00  0.00     0.234 C 
ATOM     14  O   UNL A   1      33.376  25.847  21.065  1.00  0.00    -0.274 OA
ATOM     15  N   UNL A   1      33.089  23.766  21.722  1.00  0.00    -0.263 N 
ATOM     16  H   UNL A   1      33.660  23.583  20.941  1.00  0.00     0.182 HD
BRANCH  15  17
ATOM     17  C   UNL A   1      32.825  22.649  22.415  1.00  0.00     0.183 C 
ATOM     18  N   UNL A   1      32.621  21.713  23.053  1.00  0.00    -0.172 NA
ENDBRANCH  15  17
ENDBRANCH  12  13
ENDBRANCH   7  12
ENDBRANCH   5   7
ENDBRANCH   4   5
ENDBRANCH   3   4
ENDBRANCH   2   3
ENDBRANCH   1   2
BRANCH   1  19
ATOM     19  C   UNL A   1      36.423  21.687  24.356  1.00  0.00     0.202 C 
BRANCH  19  20
ATOM     20  C   UNL A   1      37.637  20.874  24.814  1.00  0.00     0.261 C 
BRANCH  20  21
ATOM     21  O   UNL A   1      38.108  21.271  26.114  1.00  0.00    -0.460 OA
BRANCH  21  22
ATOM     22  C   UNL A   1      39.448  21.447  26.187  1.00  0.00     0.338 C 
ATOM     23  O   UNL A   1      40.302  20.797  25.608  1.00  0.00    -0.246 OA
BRANCH  22  24
ATOM     24  C   UNL A   1      39.775  22.690  26.905  1.00  0.00     0.060 A 
ATOM     25  C   UNL A   1      39.212  23.875  26.415  1.00  0.00     0.016 A 
ATOM     26  C   UNL A   1      40.739  22.721  27.913  1.00  0.00     0.016 A 
ATOM     27  C   UNL A   1      39.664  25.104  26.882  1.00  0.00     0.010 A 
ATOM     28  C   UNL A   1      41.195  23.962  28.377  1.00  0.00     0.010 A 
ATOM     29  C   UNL A   1      40.693  25.158  27.829  1.00  0.00    -0.014 A 
BRANCH  29  30
ATOM     30  C   UNL A   1      41.336  26.465  28.118  1.00  0.00     0.031 A 
ATOM     31  C   UNL A   1      40.541  27.538  28.814  1.00  0.00     0.074 A 
ATOM     32  C   UNL A   1      42.635  26.665  27.828  1.00  0.00     0.049 A 
ATOM     33  N   UNL A   1      40.896  28.755  29.141  1.00  0.00    -0.248 NA
ATOM     34  C   UNL A   1      39.164  27.191  29.192  1.00  0.00     0.031 C 
ATOM     35  C   UNL A   1      43.519  25.676  27.214  1.00  0.00     0.029 A 
ATOM     36  N   UNL A   1      43.436  27.764  28.013  1.00  0.00    -0.354 N 
ATOM     37  C   UNL A   1      39.784  29.322  29.757  1.00  0.00     0.074 A 
ATOM     38  C   UNL A   1      38.732  28.327  29.718  1.00  0.00     0.031 C 
ATOM     39  C   UNL A   1      44.742  26.215  27.069  1.00  0.00     0.029 A 
ATOM     40  C   UNL A   1      44.713  27.601  27.531  1.00  0.00     0.049 A 
ATOM     41  H   UNL A   1      43.125  28.590  28.449  1.00  0.00     0.167 HD
ATOM     42  C   UNL A   1      39.659  30.553  30.312  1.00  0.00     0.034 A 
ATOM     43  C   UNL A   1      45.732  28.480  27.441  1.00  0.00     0.034 A 
ATOM     44  C   UNL A   1      40.718  31.535  30.330  1.00  0.00     0.049 A 
ATOM     45  C   UNL A   1      45.536  29.881  27.969  1.00  0.00     0.074 A 
ATOM     46  C   UNL A   1      40.701  32.810  30.868  1.00  0.00     0.029 A 
ATOM     47  N   UNL A   1      41.979  31.357  29.775  1.00  0.00    -0.354 N 
ATOM     48  N   UNL A   1      44.479  30.408  28.543  1.00  0.00    -0.248 NA
ATOM     49  C   UNL A   1      46.673  30.800  27.845  1.00  0.00     0.031 C 
ATOM     50  C   UNL A   1      41.916  33.432  30.561  1.00  0.00     0.029 A 
ATOM     51  C   UNL A   1      42.732  32.513  29.921  1.00  0.00     0.049 A 
ATOM     52  H   UNL A   1      42.293  30.531  29.342  1.00  0.00     0.167 HD
ATOM     53  C   UNL A   1      44.838  31.712  28.878  1.00  0.00     0.074 A 
ATOM     54  C   UNL A   1      46.213  31.882  28.455  1.00  0.00     0.031 C 
ATOM     55  C   UNL A   1      44.101  32.678  29.485  1.00  0.00     0.034 A 
BRANCH  42  56
ATOM     56  C   UNL A   1      38.312  30.924  30.891  1.00  0.00     0.023 A 
ATOM     57  C   UNL A   1      37.329  31.578  30.128  1.00  0.00     0.031 A 
ATOM     58  C   UNL A   1      38.015  30.640  32.236  1.00  0.00     0.131 A 
ATOM     59  C   UNL A   1      36.131  31.990  30.733  1.00  0.00     0.055 A 
ATOM     60  C   UNL A   1      36.787  30.974  32.809  1.00  0.00     0.041 A 
ATOM     61  F   UNL A   1      38.921  30.040  33.025  1.00  0.00    -0.206 F 
ATOM     62  C   UNL A   1      35.841  31.668  32.060  1.00  0.00     0.022 A 
BRANCH  59  63
ATOM     63  S   UNL A   1      35.026  33.090  29.806  1.00  0.00     0.124 S 
ATOM     64  O   UNL A   1      34.103  33.531  30.850  1.00  0.00    -0.237 OA
ATOM     65  O   UNL A   1      35.943  34.102  29.295  1.00  0.00    -0.237 OA
ATOM     66  O   UNL A   1      34.437  32.213  28.795  1.00  0.00    -0.744 OA
ENDBRANCH  59  63
ENDBRANCH  42  56
BRANCH  43  67
ATOM     67  C   UNL A   1      47.009  28.084  26.780  1.00  0.00     0.023 A 
ATOM     68  C   UNL A   1      47.153  28.120  25.385  1.00  0.00     0.031 A 
ATOM     69  C   UNL A   1      48.095  27.608  27.542  1.00  0.00     0.131 A 
ATOM     70  C   UNL A   1      48.334  27.647  24.791  1.00  0.00     0.055 A 
ATOM     71  C   UNL A   1      49.290  27.199  26.950  1.00  0.00     0.041 A 
ATOM     72  F   UNL A   1      48.010  27.545  28.879  1.00  0.00    -0.206 F 
ATOM     73  C   UNL A   1      49.409  27.203  25.564  1.00  0.00     0.022 A 
BRANCH  70  74
ATOM     74  S   UNL A   1      48.407  27.521  22.983  1.00  0.00     0.124 S 
ATOM     75  O   UNL A   1      49.687  28.158  22.695  1.00  0.00    -0.237 OA
ATOM     76  O   UNL A   1      48.348  26.078  22.777  1.00  0.00    -0.237 OA
ATOM     77  O   UNL A   1      47.227  28.262  22.543  1.00  0.00    -0.744 OA
ENDBRANCH  70  74
ENDBRANCH  43  67
BRANCH  55  78
ATOM     78  C   UNL A   1      44.788  33.992  29.776  1.00  0.00     0.023 A 
ATOM     79  C   UNL A   1      44.821  35.040  28.840  1.00  0.00     0.031 A 
ATOM     80  C   UNL A   1      45.430  34.194  31.013  1.00  0.00     0.131 A 
ATOM     81  C   UNL A   1      45.531  36.216  29.129  1.00  0.00     0.055 A 
ATOM     82  C   UNL A   1      46.071  35.393  31.324  1.00  0.00     0.041 A 
ATOM     83  F   UNL A   1      45.438  33.227  31.945  1.00  0.00    -0.206 F 
ATOM     84  C   UNL A   1      46.138  36.408  30.374  1.00  0.00     0.022 A 
BRANCH  81  85
ATOM     85  S   UNL A   1      45.748  37.448  27.816  1.00  0.00     0.124 S 
ATOM     86  O   UNL A   1      47.128  37.215  27.407  1.00  0.00    -0.237 OA
ATOM     87  O   UNL A   1      44.722  37.062  26.853  1.00  0.00    -0.237 OA
ATOM     88  O   UNL A   1      45.510  38.721  28.497  1.00  0.00    -0.744 OA
ENDBRANCH  81  85
ENDBRANCH  55  78
ENDBRANCH  29  30
ENDBRANCH  22  24
ENDBRANCH  21  22
ENDBRANCH  20  21
ENDBRANCH  19  20
ENDBRANCH   1  19
TORSDOF 21
ENDMDL
