MODEL 1
REMARK VINA RESULT:     -11.4      0.000      0.000
REMARK SMILES O=C(OCCOCCOC(=O)c1ccc2c(c1)[C@@H](C1CCOCC1)C(=O)N2)c1ccc(-c2c3nc(c(-c4cc(S(=O)(=O)[O-])ccc4F)c4ccc([nH]4)c(-c4cc(S(=O)(=O)[O-])ccc4F)c4nc(c(-c5cc(S(=O)(=O)[O-])ccc5F)c5ccc2[nH]5)C=C4)C=C3)cc1
REMARK SMILES IDX 5 1 4 2 3 3 2 4 1 5 28 6 29 7 90 8 30 9 89 10 31 11 32 12
REMARK SMILES IDX 33 13 83 14 34 15 88 16 82 17 84 18 35 19 87 20 81 21 80 22
REMARK SMILES IDX 36 24 68 25 48 26 67 27 49 28 52 29 66 30 85 31 50 32 51 33
REMARK SMILES IDX 65 35 86 36 53 37 37 38 38 39 46 40 39 41 45 42 47 43 44 44
REMARK SMILES IDX 40 45 41 46 42 47 43 48 69 49 70 50 78 51 71 52 77 53 79 54
REMARK SMILES IDX 76 55 72 56 73 57 74 58 75 59 54 60 55 61 63 62 56 63 62 64
REMARK SMILES IDX 64 65 61 66 57 67 58 68 59 69 60 70 6 71 7 72 8 73 9 74
REMARK SMILES IDX 10 75 11 76 12 77 13 78 17 79 14 80 16 81 15 82 18 83 27 84
REMARK SMILES IDX 25 85 26 87 19 88 20 89 24 90 21 91 23 92 22 93
REMARK H PARENT 84 23 52 34 27 86
REMARK Flexibility Score: inf
ROOT
ATOM      1  C   UNL A   1      31.273  29.515  24.587  1.00  0.00     0.202 C 
ENDROOT
BRANCH   1   2
ATOM      2  C   UNL A   1      31.792  29.685  26.016  1.00  0.00     0.261 C 
BRANCH   2   3
ATOM      3  O   UNL A   1      32.978  30.490  26.014  1.00  0.00    -0.460 OA
BRANCH   3   4
ATOM      4  C   UNL A   1      33.466  31.240  27.030  1.00  0.00     0.338 C 
ATOM      5  O   UNL A   1      32.835  32.236  27.378  1.00  0.00    -0.246 OA
BRANCH   4   6
ATOM      6  C   UNL A   1      34.727  30.919  27.763  1.00  0.00     0.060 A 
ATOM      7  C   UNL A   1      35.089  29.649  28.221  1.00  0.00     0.016 A 
ATOM      8  C   UNL A   1      35.658  31.959  27.901  1.00  0.00     0.016 A 
ATOM      9  C   UNL A   1      36.314  29.406  28.816  1.00  0.00     0.010 A 
ATOM     10  C   UNL A   1      36.905  31.724  28.483  1.00  0.00     0.010 A 
ATOM     11  C   UNL A   1      37.226  30.442  28.943  1.00  0.00    -0.014 A 
BRANCH  11  12
ATOM     12  C   UNL A   1      38.460  30.177  29.690  1.00  0.00     0.031 A 
ATOM     13  C   UNL A   1      39.477  29.295  29.051  1.00  0.00     0.074 A 
ATOM     14  C   UNL A   1      38.677  30.802  30.859  1.00  0.00     0.049 A 
ATOM     15  N   UNL A   1      40.568  28.789  29.551  1.00  0.00    -0.248 NA
ATOM     16  C   UNL A   1      39.221  28.934  27.648  1.00  0.00     0.031 C 
ATOM     17  C   UNL A   1      37.784  31.798  31.457  1.00  0.00     0.029 A 
ATOM     18  N   UNL A   1      39.709  30.698  31.748  1.00  0.00    -0.354 N 
ATOM     19  C   UNL A   1      41.111  28.010  28.536  1.00  0.00     0.074 A 
ATOM     20  C   UNL A   1      40.223  28.109  27.398  1.00  0.00     0.031 C 
ATOM     21  C   UNL A   1      38.300  32.198  32.629  1.00  0.00     0.029 A 
ATOM     22  C   UNL A   1      39.508  31.424  32.898  1.00  0.00     0.049 A 
ATOM     23  H   UNL A   1      40.515  30.156  31.582  1.00  0.00     0.167 HD
ATOM     24  C   UNL A   1      42.243  27.268  28.579  1.00  0.00     0.034 A 
ATOM     25  C   UNL A   1      40.189  31.398  34.059  1.00  0.00     0.034 A 
ATOM     26  C   UNL A   1      43.061  27.194  29.765  1.00  0.00     0.049 A 
ATOM     27  C   UNL A   1      41.378  30.474  34.139  1.00  0.00     0.074 A 
ATOM     28  C   UNL A   1      44.195  26.441  29.994  1.00  0.00     0.029 A 
ATOM     29  N   UNL A   1      42.806  27.902  30.939  1.00  0.00    -0.354 N 
ATOM     30  N   UNL A   1      41.855  29.667  33.215  1.00  0.00    -0.248 NA
ATOM     31  C   UNL A   1      42.113  30.443  35.406  1.00  0.00     0.031 C 
ATOM     32  C   UNL A   1      44.577  26.632  31.327  1.00  0.00     0.029 A 
ATOM     33  C   UNL A   1      43.740  27.578  31.905  1.00  0.00     0.049 A 
ATOM     34  H   UNL A   1      42.067  28.541  31.062  1.00  0.00     0.167 HD
ATOM     35  C   UNL A   1      42.964  29.050  33.779  1.00  0.00     0.074 A 
ATOM     36  C   UNL A   1      43.082  29.580  35.127  1.00  0.00     0.031 C 
ATOM     37  C   UNL A   1      43.814  28.139  33.239  1.00  0.00     0.034 A 
BRANCH  24  38
ATOM     38  C   UNL A   1      42.538  26.412  27.372  1.00  0.00     0.023 A 
ATOM     39  C   UNL A   1      42.145  25.063  27.301  1.00  0.00     0.031 A 
ATOM     40  C   UNL A   1      43.359  26.908  26.343  1.00  0.00     0.131 A 
ATOM     41  C   UNL A   1      42.676  24.229  26.304  1.00  0.00     0.055 A 
ATOM     42  C   UNL A   1      43.798  26.098  25.294  1.00  0.00     0.041 A 
ATOM     43  F   UNL A   1      43.796  28.176  26.369  1.00  0.00    -0.206 F 
ATOM     44  C   UNL A   1      43.480  24.743  25.284  1.00  0.00     0.022 A 
BRANCH  41  45
ATOM     45  S   UNL A   1      42.496  22.432  26.493  1.00  0.00     0.124 S 
ATOM     46  O   UNL A   1      43.536  21.934  25.594  1.00  0.00    -0.237 OA
ATOM     47  O   UNL A   1      42.739  22.237  27.917  1.00  0.00    -0.237 OA
ATOM     48  O   UNL A   1      41.127  22.174  26.050  1.00  0.00    -0.744 OA
ENDBRANCH  41  45
ENDBRANCH  24  38
BRANCH  25  49
ATOM     49  C   UNL A   1      39.700  32.183  35.228  1.00  0.00     0.023 A 
ATOM     50  C   UNL A   1      40.116  33.502  35.461  1.00  0.00     0.031 A 
ATOM     51  C   UNL A   1      38.777  31.616  36.131  1.00  0.00     0.131 A 
ATOM     52  C   UNL A   1      39.622  34.204  36.576  1.00  0.00     0.055 A 
ATOM     53  C   UNL A   1      38.253  32.334  37.207  1.00  0.00     0.041 A 
ATOM     54  F   UNL A   1      38.346  30.357  35.960  1.00  0.00    -0.206 F 
ATOM     55  C   UNL A   1      38.681  33.635  37.438  1.00  0.00     0.022 A 
BRANCH  52  56
ATOM     56  S   UNL A   1      40.266  35.866  36.918  1.00  0.00     0.124 S 
ATOM     57  O   UNL A   1      39.718  36.129  38.244  1.00  0.00    -0.237 OA
ATOM     58  O   UNL A   1      41.707  35.653  36.849  1.00  0.00    -0.237 OA
ATOM     59  O   UNL A   1      39.706  36.677  35.840  1.00  0.00    -0.744 OA
ENDBRANCH  52  56
ENDBRANCH  25  49
BRANCH  37  60
ATOM     60  C   UNL A   1      44.982  27.710  34.086  1.00  0.00     0.023 A 
ATOM     61  C   UNL A   1      44.916  26.594  34.933  1.00  0.00     0.031 A 
ATOM     62  C   UNL A   1      46.201  28.406  33.987  1.00  0.00     0.131 A 
ATOM     63  C   UNL A   1      46.048  26.218  35.671  1.00  0.00     0.055 A 
ATOM     64  C   UNL A   1      47.337  27.993  34.678  1.00  0.00     0.041 A 
ATOM     65  F   UNL A   1      46.309  29.482  33.190  1.00  0.00    -0.206 F 
ATOM     66  C   UNL A   1      47.263  26.896  35.531  1.00  0.00     0.022 A 
BRANCH  63  67
ATOM     67  S   UNL A   1      45.901  24.858  36.862  1.00  0.00     0.124 S 
ATOM     68  O   UNL A   1      47.260  24.769  37.385  1.00  0.00    -0.237 OA
ATOM     69  O   UNL A   1      44.892  25.361  37.789  1.00  0.00    -0.237 OA
ATOM     70  O   UNL A   1      45.478  23.728  36.038  1.00  0.00    -0.744 OA
ENDBRANCH  63  67
ENDBRANCH  37  60
ENDBRANCH  11  12
ENDBRANCH   4   6
ENDBRANCH   3   4
ENDBRANCH   2   3
ENDBRANCH   1   2
BRANCH   1  71
ATOM     71  O   UNL A   1      31.549  28.244  24.004  1.00  0.00    -0.374 OA
BRANCH  71  72
ATOM     72  C   UNL A   1      32.928  27.911  23.810  1.00  0.00     0.202 C 
BRANCH  72  73
ATOM     73  C   UNL A   1      33.146  27.523  22.347  1.00  0.00     0.261 C 
BRANCH  73  74
ATOM     74  O   UNL A   1      32.078  26.645  21.955  1.00  0.00    -0.460 OA
BRANCH  74  75
ATOM     75  C   UNL A   1      32.486  25.426  21.508  1.00  0.00     0.338 C 
ATOM     76  O   UNL A   1      33.038  25.157  20.465  1.00  0.00    -0.246 OA
BRANCH  75  77
ATOM     77  C   UNL A   1      32.301  24.461  22.616  1.00  0.00     0.060 A 
ATOM     78  C   UNL A   1      31.161  24.550  23.439  1.00  0.00     0.018 A 
ATOM     79  C   UNL A   1      33.283  23.471  22.826  1.00  0.00     0.022 A 
ATOM     80  C   UNL A   1      30.944  23.606  24.437  1.00  0.00     0.027 A 
ATOM     81  C   UNL A   1      33.088  22.575  23.862  1.00  0.00    -0.011 A 
ATOM     82  C   UNL A   1      31.900  22.624  24.594  1.00  0.00     0.045 A 
ATOM     83  C   UNL A   1      33.914  21.390  24.327  1.00  0.00     0.114 C 
ATOM     84  N   UNL A   1      31.794  21.499  25.389  1.00  0.00    -0.325 N 
ATOM     85  C   UNL A   1      32.869  20.644  25.200  1.00  0.00     0.232 C 
ATOM     86  H   UNL A   1      31.049  21.327  26.010  1.00  0.00     0.169 HD
ATOM     87  O   UNL A   1      32.945  19.516  25.655  1.00  0.00    -0.274 OA
BRANCH  83  88
ATOM     88  C   UNL A   1      35.194  21.742  25.146  1.00  0.00     0.010 C 
ATOM     89  C   UNL A   1      35.124  23.184  25.702  1.00  0.00     0.033 C 
ATOM     90  C   UNL A   1      36.515  21.547  24.368  1.00  0.00     0.033 C 
ATOM     91  C   UNL A   1      36.426  23.638  26.352  1.00  0.00     0.160 C 
ATOM     92  C   UNL A   1      37.718  22.095  25.129  1.00  0.00     0.160 C 
ATOM     93  O   UNL A   1      37.520  23.467  25.455  1.00  0.00    -0.381 OA
ENDBRANCH  83  88
ENDBRANCH  75  77
ENDBRANCH  74  75
ENDBRANCH  73  74
ENDBRANCH  72  73
ENDBRANCH  71  72
ENDBRANCH   1  71
TORSDOF 18
ENDMDL
MODEL 2
REMARK VINA RESULT:     -11.0      4.484      9.935
REMARK SMILES O=C(OCCOCCOC(=O)c1ccc2c(c1)[C@@H](C1CCOCC1)C(=O)N2)c1ccc(-c2c3nc(c(-c4cc(S(=O)(=O)[O-])ccc4F)c4ccc([nH]4)c(-c4cc(S(=O)(=O)[O-])ccc4F)c4nc(c(-c5cc(S(=O)(=O)[O-])ccc5F)c5ccc2[nH]5)C=C4)C=C3)cc1
REMARK SMILES IDX 5 1 4 2 3 3 2 4 1 5 28 6 29 7 90 8 30 9 89 10 31 11 32 12
REMARK SMILES IDX 33 13 83 14 34 15 88 16 82 17 84 18 35 19 87 20 81 21 80 22
REMARK SMILES IDX 36 24 68 25 48 26 67 27 49 28 52 29 66 30 85 31 50 32 51 33
REMARK SMILES IDX 65 35 86 36 53 37 37 38 38 39 46 40 39 41 45 42 47 43 44 44
REMARK SMILES IDX 40 45 41 46 42 47 43 48 69 49 70 50 78 51 71 52 77 53 79 54
REMARK SMILES IDX 76 55 72 56 73 57 74 58 75 59 54 60 55 61 63 62 56 63 62 64
REMARK SMILES IDX 64 65 61 66 57 67 58 68 59 69 60 70 6 71 7 72 8 73 9 74
REMARK SMILES IDX 10 75 11 76 12 77 13 78 17 79 14 80 16 81 15 82 18 83 27 84
REMARK SMILES IDX 25 85 26 87 19 88 20 89 24 90 21 91 23 92 22 93
REMARK H PARENT 84 23 52 34 27 86
REMARK Flexibility Score: inf
ROOT
ATOM      1  C   UNL A   1      35.759  22.053  24.475  1.00  0.00     0.202 C 
ENDROOT
BRANCH   1   2
ATOM      2  C   UNL A   1      37.021  21.188  24.482  1.00  0.00     0.261 C 
BRANCH   2   3
ATOM      3  O   UNL A   1      37.609  21.189  25.790  1.00  0.00    -0.460 OA
BRANCH   3   4
ATOM      4  C   UNL A   1      38.925  21.262  26.101  1.00  0.00     0.338 C 
ATOM      5  O   UNL A   1      39.598  20.235  26.039  1.00  0.00    -0.246 OA
BRANCH   4   6
ATOM      6  C   UNL A   1      39.610  22.525  26.507  1.00  0.00     0.060 A 
ATOM      7  C   UNL A   1      39.284  23.801  26.041  1.00  0.00     0.016 A 
ATOM      8  C   UNL A   1      40.581  22.419  27.514  1.00  0.00     0.016 A 
ATOM      9  C   UNL A   1      39.902  24.939  26.527  1.00  0.00     0.010 A 
ATOM     10  C   UNL A   1      41.200  23.560  28.026  1.00  0.00     0.010 A 
ATOM     11  C   UNL A   1      40.857  24.821  27.524  1.00  0.00    -0.014 A 
BRANCH  11  12
ATOM     12  C   UNL A   1      41.580  26.033  27.924  1.00  0.00     0.031 A 
ATOM     13  C   UNL A   1      40.833  27.053  28.713  1.00  0.00     0.074 A 
ATOM     14  C   UNL A   1      42.892  26.142  27.659  1.00  0.00     0.049 A 
ATOM     15  N   UNL A   1      41.186  28.258  29.056  1.00  0.00    -0.248 NA
ATOM     16  C   UNL A   1      39.496  26.651  29.176  1.00  0.00     0.031 C 
ATOM     17  C   UNL A   1      43.711  25.105  27.027  1.00  0.00     0.029 A 
ATOM     18  N   UNL A   1      43.766  27.167  27.888  1.00  0.00    -0.354 N 
ATOM     19  C   UNL A   1      40.095  28.780  29.742  1.00  0.00     0.074 A 
ATOM     20  C   UNL A   1      39.071  27.759  29.757  1.00  0.00     0.031 C 
ATOM     21  C   UNL A   1      44.968  25.558  26.900  1.00  0.00     0.029 A 
ATOM     22  C   UNL A   1      45.015  26.941  27.361  1.00  0.00     0.049 A 
ATOM     23  H   UNL A   1      43.525  27.986  28.381  1.00  0.00     0.167 HD
ATOM     24  C   UNL A   1      39.975  30.014  30.285  1.00  0.00     0.034 A 
ATOM     25  C   UNL A   1      46.048  27.792  27.207  1.00  0.00     0.034 A 
ATOM     26  C   UNL A   1      41.032  30.992  30.201  1.00  0.00     0.049 A 
ATOM     27  C   UNL A   1      45.858  29.202  27.704  1.00  0.00     0.074 A 
ATOM     28  C   UNL A   1      41.043  32.301  30.637  1.00  0.00     0.029 A 
ATOM     29  N   UNL A   1      42.275  30.754  29.613  1.00  0.00    -0.354 N 
ATOM     30  N   UNL A   1      44.801  29.735  28.280  1.00  0.00    -0.248 NA
ATOM     31  C   UNL A   1      46.981  30.128  27.528  1.00  0.00     0.031 C 
ATOM     32  C   UNL A   1      42.258  32.875  30.243  1.00  0.00     0.029 A 
ATOM     33  C   UNL A   1      43.046  31.901  29.646  1.00  0.00     0.049 A 
ATOM     34  H   UNL A   1      42.560  29.893  29.231  1.00  0.00     0.167 HD
ATOM     35  C   UNL A   1      45.140  31.053  28.561  1.00  0.00     0.074 A 
ATOM     36  C   UNL A   1      46.502  31.232  28.087  1.00  0.00     0.031 C 
ATOM     37  C   UNL A   1      44.405  32.026  29.160  1.00  0.00     0.034 A 
BRANCH  24  38
ATOM     38  C   UNL A   1      38.628  30.369  30.866  1.00  0.00     0.023 A 
ATOM     39  C   UNL A   1      37.656  31.065  30.123  1.00  0.00     0.031 A 
ATOM     40  C   UNL A   1      38.371  30.146  32.231  1.00  0.00     0.131 A 
ATOM     41  C   UNL A   1      36.543  31.622  30.774  1.00  0.00     0.055 A 
ATOM     42  C   UNL A   1      37.209  30.611  32.850  1.00  0.00     0.041 A 
ATOM     43  F   UNL A   1      39.272  29.518  33.002  1.00  0.00    -0.206 F 
ATOM     44  C   UNL A   1      36.299  31.378  32.128  1.00  0.00     0.022 A 
BRANCH  41  45
ATOM     45  S   UNL A   1      35.552  32.857  29.886  1.00  0.00     0.124 S 
ATOM     46  O   UNL A   1      35.791  32.483  28.493  1.00  0.00    -0.237 OA
ATOM     47  O   UNL A   1      34.207  32.606  30.391  1.00  0.00    -0.237 OA
ATOM     48  O   UNL A   1      36.145  34.131  30.290  1.00  0.00    -0.744 OA
ENDBRANCH  41  45
ENDBRANCH  24  38
BRANCH  25  49
ATOM     49  C   UNL A   1      47.272  27.354  26.477  1.00  0.00     0.023 A 
ATOM     50  C   UNL A   1      48.281  26.607  27.103  1.00  0.00     0.031 A 
ATOM     51  C   UNL A   1      47.438  27.667  25.112  1.00  0.00     0.131 A 
ATOM     52  C   UNL A   1      49.415  26.213  26.370  1.00  0.00     0.055 A 
ATOM     53  C   UNL A   1      48.541  27.231  24.378  1.00  0.00     0.041 A 
ATOM     54  F   UNL A   1      46.506  28.382  24.461  1.00  0.00    -0.206 F 
ATOM     55  C   UNL A   1      49.542  26.504  25.009  1.00  0.00     0.022 A 
BRANCH  52  56
ATOM     56  S   UNL A   1      50.757  25.350  27.234  1.00  0.00     0.124 S 
ATOM     57  O   UNL A   1      51.236  26.382  28.146  1.00  0.00    -0.237 OA
ATOM     58  O   UNL A   1      50.053  24.228  27.846  1.00  0.00    -0.237 OA
ATOM     59  O   UNL A   1      51.680  24.991  26.159  1.00  0.00    -0.744 OA
ENDBRANCH  52  56
ENDBRANCH  25  49
BRANCH  37  60
ATOM     60  C   UNL A   1      45.085  33.348  29.394  1.00  0.00     0.023 A 
ATOM     61  C   UNL A   1      45.061  34.376  28.440  1.00  0.00     0.031 A 
ATOM     62  C   UNL A   1      45.715  33.592  30.628  1.00  0.00     0.131 A 
ATOM     63  C   UNL A   1      45.680  35.600  28.728  1.00  0.00     0.055 A 
ATOM     64  C   UNL A   1      46.278  34.830  30.929  1.00  0.00     0.041 A 
ATOM     65  F   UNL A   1      45.764  32.635  31.570  1.00  0.00    -0.206 F 
ATOM     66  C   UNL A   1      46.267  35.841  29.974  1.00  0.00     0.022 A 
BRANCH  63  67
ATOM     67  S   UNL A   1      45.756  36.866  27.431  1.00  0.00     0.124 S 
ATOM     68  O   UNL A   1      46.949  37.615  27.811  1.00  0.00    -0.237 OA
ATOM     69  O   UNL A   1      45.867  36.063  26.217  1.00  0.00    -0.237 OA
ATOM     70  O   UNL A   1      44.495  37.588  27.584  1.00  0.00    -0.744 OA
ENDBRANCH  63  67
ENDBRANCH  37  60
ENDBRANCH  11  12
ENDBRANCH   4   6
ENDBRANCH   3   4
ENDBRANCH   2   3
ENDBRANCH   1   2
BRANCH   1  71
ATOM     71  O   UNL A   1      35.039  22.062  25.705  1.00  0.00    -0.374 OA
BRANCH  71  72
ATOM     72  C   UNL A   1      34.175  20.948  25.952  1.00  0.00     0.202 C 
BRANCH  72  73
ATOM     73  C   UNL A   1      33.668  20.404  24.615  1.00  0.00     0.261 C 
BRANCH  73  74
ATOM     74  O   UNL A   1      32.288  20.778  24.478  1.00  0.00    -0.460 OA
BRANCH  74  75
ATOM     75  C   UNL A   1      32.065  21.802  23.609  1.00  0.00     0.338 C 
ATOM     76  O   UNL A   1      32.076  21.773  22.400  1.00  0.00    -0.246 OA
BRANCH  75  77
ATOM     77  C   UNL A   1      31.616  22.969  24.402  1.00  0.00     0.060 A 
ATOM     78  C   UNL A   1      30.926  22.768  25.614  1.00  0.00     0.018 A 
ATOM     79  C   UNL A   1      31.888  24.265  23.918  1.00  0.00     0.022 A 
ATOM     80  C   UNL A   1      30.562  23.858  26.400  1.00  0.00     0.027 A 
ATOM     81  C   UNL A   1      31.466  25.342  24.677  1.00  0.00    -0.011 A 
ATOM     82  C   UNL A   1      30.877  25.113  25.922  1.00  0.00     0.045 A 
ATOM     83  C   UNL A   1      31.627  26.836  24.467  1.00  0.00     0.114 C 
ATOM     84  N   UNL A   1      30.774  26.302  26.617  1.00  0.00    -0.325 N 
ATOM     85  C   UNL A   1      31.314  27.356  25.896  1.00  0.00     0.232 C 
ATOM     86  H   UNL A   1      30.370  26.389  27.511  1.00  0.00     0.169 HD
ATOM     87  O   UNL A   1      31.495  28.477  26.340  1.00  0.00    -0.274 OA
BRANCH  83  88
ATOM     88  C   UNL A   1      30.675  27.474  23.408  1.00  0.00     0.010 C 
ATOM     89  C   UNL A   1      31.139  28.899  23.026  1.00  0.00     0.033 C 
ATOM     90  C   UNL A   1      29.190  27.506  23.832  1.00  0.00     0.033 C 
ATOM     91  C   UNL A   1      30.143  29.633  22.135  1.00  0.00     0.160 C 
ATOM     92  C   UNL A   1      28.332  28.317  22.866  1.00  0.00     0.160 C 
ATOM     93  O   UNL A   1      28.847  29.637  22.730  1.00  0.00    -0.381 OA
ENDBRANCH  83  88
ENDBRANCH  75  77
ENDBRANCH  74  75
ENDBRANCH  73  74
ENDBRANCH  72  73
ENDBRANCH  71  72
ENDBRANCH   1  71
TORSDOF 18
ENDMDL
MODEL 3
REMARK VINA RESULT:     -10.9      2.664      8.329
REMARK SMILES O=C(OCCOCCOC(=O)c1ccc2c(c1)[C@@H](C1CCOCC1)C(=O)N2)c1ccc(-c2c3nc(c(-c4cc(S(=O)(=O)[O-])ccc4F)c4ccc([nH]4)c(-c4cc(S(=O)(=O)[O-])ccc4F)c4nc(c(-c5cc(S(=O)(=O)[O-])ccc5F)c5ccc2[nH]5)C=C4)C=C3)cc1
REMARK SMILES IDX 5 1 4 2 3 3 2 4 1 5 28 6 29 7 90 8 30 9 89 10 31 11 32 12
REMARK SMILES IDX 33 13 83 14 34 15 88 16 82 17 84 18 35 19 87 20 81 21 80 22
REMARK SMILES IDX 36 24 68 25 48 26 67 27 49 28 52 29 66 30 85 31 50 32 51 33
REMARK SMILES IDX 65 35 86 36 53 37 37 38 38 39 46 40 39 41 45 42 47 43 44 44
REMARK SMILES IDX 40 45 41 46 42 47 43 48 69 49 70 50 78 51 71 52 77 53 79 54
REMARK SMILES IDX 76 55 72 56 73 57 74 58 75 59 54 60 55 61 63 62 56 63 62 64
REMARK SMILES IDX 64 65 61 66 57 67 58 68 59 69 60 70 6 71 7 72 8 73 9 74
REMARK SMILES IDX 10 75 11 76 12 77 13 78 17 79 14 80 16 81 15 82 18 83 27 84
REMARK SMILES IDX 25 85 26 87 19 88 20 89 24 90 21 91 23 92 22 93
REMARK H PARENT 84 23 52 34 27 86
REMARK Flexibility Score: inf
ROOT
ATOM      1  C   UNL A   1      33.364  32.597  27.932  1.00  0.00     0.202 C 
ENDROOT
BRANCH   1   2
ATOM      2  C   UNL A   1      33.241  34.120  27.868  1.00  0.00     0.261 C 
BRANCH   2   3
ATOM      3  O   UNL A   1      32.664  34.617  29.084  1.00  0.00    -0.460 OA
BRANCH   3   4
ATOM      4  C   UNL A   1      33.309  34.935  30.231  1.00  0.00     0.338 C 
ATOM      5  O   UNL A   1      32.889  35.881  30.895  1.00  0.00    -0.246 OA
BRANCH   4   6
ATOM      6  C   UNL A   1      34.499  34.192  30.744  1.00  0.00     0.060 A 
ATOM      7  C   UNL A   1      35.829  34.528  30.479  1.00  0.00     0.016 A 
ATOM      8  C   UNL A   1      34.249  33.147  31.644  1.00  0.00     0.016 A 
ATOM      9  C   UNL A   1      36.886  33.849  31.059  1.00  0.00     0.010 A 
ATOM     10  C   UNL A   1      35.305  32.465  32.251  1.00  0.00     0.010 A 
ATOM     11  C   UNL A   1      36.625  32.819  31.950  1.00  0.00    -0.014 A 
BRANCH  11  12
ATOM     12  C   UNL A   1      37.765  32.041  32.447  1.00  0.00     0.031 A 
ATOM     13  C   UNL A   1      38.262  32.345  33.819  1.00  0.00     0.074 A 
ATOM     14  C   UNL A   1      38.254  31.032  31.706  1.00  0.00     0.049 A 
ATOM     15  N   UNL A   1      39.330  31.916  34.427  1.00  0.00    -0.248 NA
ATOM     16  C   UNL A   1      37.433  33.266  34.611  1.00  0.00     0.031 C 
ATOM     17  C   UNL A   1      37.705  30.589  30.423  1.00  0.00     0.029 A 
ATOM     18  N   UNL A   1      39.315  30.199  31.925  1.00  0.00    -0.354 N 
ATOM     19  C   UNL A   1      39.328  32.550  35.664  1.00  0.00     0.074 A 
ATOM     20  C   UNL A   1      38.154  33.394  35.710  1.00  0.00     0.031 C 
ATOM     21  C   UNL A   1      38.450  29.575  29.957  1.00  0.00     0.029 A 
ATOM     22  C   UNL A   1      39.571  29.361  30.866  1.00  0.00     0.049 A 
ATOM     23  H   UNL A   1      39.843  30.200  32.756  1.00  0.00     0.167 HD
ATOM     24  C   UNL A   1      40.246  32.436  36.653  1.00  0.00     0.034 A 
ATOM     25  C   UNL A   1      40.636  28.571  30.635  1.00  0.00     0.034 A 
ATOM     26  C   UNL A   1      41.410  31.595  36.519  1.00  0.00     0.049 A 
ATOM     27  C   UNL A   1      41.716  28.547  31.688  1.00  0.00     0.074 A 
ATOM     28  C   UNL A   1      42.464  31.422  37.394  1.00  0.00     0.029 A 
ATOM     29  N   UNL A   1      41.674  30.792  35.410  1.00  0.00    -0.354 N 
ATOM     30  N   UNL A   1      41.768  29.206  32.826  1.00  0.00    -0.248 NA
ATOM     31  C   UNL A   1      42.878  27.692  31.431  1.00  0.00     0.031 C 
ATOM     32  C   UNL A   1      43.399  30.580  36.780  1.00  0.00     0.029 A 
ATOM     33  C   UNL A   1      42.889  30.149  35.563  1.00  0.00     0.049 A 
ATOM     34  H   UNL A   1      41.081  30.697  34.630  1.00  0.00     0.167 HD
ATOM     35  C   UNL A   1      42.957  28.824  33.436  1.00  0.00     0.074 A 
ATOM     36  C   UNL A   1      43.591  27.878  32.535  1.00  0.00     0.031 C 
ATOM     37  C   UNL A   1      43.477  29.209  34.631  1.00  0.00     0.034 A 
BRANCH  24  38
ATOM     38  C   UNL A   1      40.068  33.338  37.849  1.00  0.00     0.023 A 
ATOM     39  C   UNL A   1      39.295  32.956  38.962  1.00  0.00     0.031 A 
ATOM     40  C   UNL A   1      40.550  34.659  37.812  1.00  0.00     0.131 A 
ATOM     41  C   UNL A   1      38.920  33.914  39.917  1.00  0.00     0.055 A 
ATOM     42  C   UNL A   1      40.261  35.580  38.821  1.00  0.00     0.041 A 
ATOM     43  F   UNL A   1      41.265  35.095  36.764  1.00  0.00    -0.206 F 
ATOM     44  C   UNL A   1      39.419  35.218  39.868  1.00  0.00     0.022 A 
BRANCH  41  45
ATOM     45  S   UNL A   1      37.591  33.499  41.082  1.00  0.00     0.124 S 
ATOM     46  O   UNL A   1      36.556  32.991  40.183  1.00  0.00    -0.237 OA
ATOM     47  O   UNL A   1      38.225  32.511  41.947  1.00  0.00    -0.237 OA
ATOM     48  O   UNL A   1      37.277  34.778  41.717  1.00  0.00    -0.744 OA
ENDBRANCH  41  45
ENDBRANCH  24  38
BRANCH  25  49
ATOM     49  C   UNL A   1      40.761  27.846  29.338  1.00  0.00     0.023 A 
ATOM     50  C   UNL A   1      41.707  28.217  28.371  1.00  0.00     0.031 A 
ATOM     51  C   UNL A   1      39.933  26.741  29.057  1.00  0.00     0.131 A 
ATOM     52  C   UNL A   1      41.791  27.498  27.164  1.00  0.00     0.055 A 
ATOM     53  C   UNL A   1      40.054  26.001  27.880  1.00  0.00     0.041 A 
ATOM     54  F   UNL A   1      39.008  26.342  29.945  1.00  0.00    -0.206 F 
ATOM     55  C   UNL A   1      40.984  26.384  26.921  1.00  0.00     0.022 A 
BRANCH  52  56
ATOM     56  S   UNL A   1      42.942  28.071  25.884  1.00  0.00     0.124 S 
ATOM     57  O   UNL A   1      42.029  28.439  24.807  1.00  0.00    -0.237 OA
ATOM     58  O   UNL A   1      43.620  29.175  26.556  1.00  0.00    -0.237 OA
ATOM     59  O   UNL A   1      43.774  26.899  25.623  1.00  0.00    -0.744 OA
ENDBRANCH  52  56
ENDBRANCH  25  49
BRANCH  37  60
ATOM     60  C   UNL A   1      44.763  28.554  35.057  1.00  0.00     0.023 A 
ATOM     61  C   UNL A   1      44.782  27.345  35.769  1.00  0.00     0.031 A 
ATOM     62  C   UNL A   1      45.990  29.131  34.683  1.00  0.00     0.131 A 
ATOM     63  C   UNL A   1      46.010  26.761  36.107  1.00  0.00     0.055 A 
ATOM     64  C   UNL A   1      47.206  28.516  34.972  1.00  0.00     0.041 A 
ATOM     65  F   UNL A   1      46.020  30.289  34.002  1.00  0.00    -0.206 F 
ATOM     66  C   UNL A   1      47.221  27.326  35.693  1.00  0.00     0.022 A 
BRANCH  63  67
ATOM     67  S   UNL A   1      46.013  25.274  37.145  1.00  0.00     0.124 S 
ATOM     68  O   UNL A   1      45.184  25.691  38.271  1.00  0.00    -0.237 OA
ATOM     69  O   UNL A   1      45.428  24.273  36.259  1.00  0.00    -0.237 OA
ATOM     70  O   UNL A   1      47.428  25.076  37.455  1.00  0.00    -0.744 OA
ENDBRANCH  63  67
ENDBRANCH  37  60
ENDBRANCH  11  12
ENDBRANCH   4   6
ENDBRANCH   3   4
ENDBRANCH   2   3
ENDBRANCH   1   2
BRANCH   1  71
ATOM     71  O   UNL A   1      34.705  32.112  27.959  1.00  0.00    -0.374 OA
BRANCH  71  72
ATOM     72  C   UNL A   1      34.910  30.766  27.519  1.00  0.00     0.202 C 
BRANCH  72  73
ATOM     73  C   UNL A   1      33.551  30.086  27.344  1.00  0.00     0.261 C 
BRANCH  73  74
ATOM     74  O   UNL A   1      33.389  29.765  25.953  1.00  0.00    -0.460 OA
BRANCH  74  75
ATOM     75  C   UNL A   1      32.128  29.949  25.475  1.00  0.00     0.338 C 
ATOM     76  O   UNL A   1      31.356  30.846  25.726  1.00  0.00    -0.246 OA
BRANCH  75  77
ATOM     77  C   UNL A   1      31.899  28.934  24.421  1.00  0.00     0.060 A 
ATOM     78  C   UNL A   1      30.689  28.935  23.700  1.00  0.00     0.018 A 
ATOM     79  C   UNL A   1      32.906  27.979  24.167  1.00  0.00     0.022 A 
ATOM     80  C   UNL A   1      30.494  28.029  22.662  1.00  0.00     0.027 A 
ATOM     81  C   UNL A   1      32.674  27.044  23.174  1.00  0.00    -0.011 A 
ATOM     82  C   UNL A   1      31.511  27.133  22.407  1.00  0.00     0.045 A 
ATOM     83  C   UNL A   1      33.545  25.925  22.634  1.00  0.00     0.114 C 
ATOM     84  N   UNL A   1      31.600  26.284  21.321  1.00  0.00    -0.325 N 
ATOM     85  C   UNL A   1      32.821  25.627  21.293  1.00  0.00     0.232 C 
ATOM     86  H   UNL A   1      30.887  26.161  20.653  1.00  0.00     0.169 HD
ATOM     87  O   UNL A   1      33.219  24.946  20.364  1.00  0.00    -0.274 OA
BRANCH  83  88
ATOM     88  C   UNL A   1      33.635  24.649  23.528  1.00  0.00     0.010 C 
ATOM     89  C   UNL A   1      33.753  25.024  25.024  1.00  0.00     0.033 C 
ATOM     90  C   UNL A   1      34.779  23.686  23.141  1.00  0.00     0.033 C 
ATOM     91  C   UNL A   1      34.028  23.822  25.921  1.00  0.00     0.160 C 
ATOM     92  C   UNL A   1      34.959  22.566  24.160  1.00  0.00     0.160 C 
ATOM     93  O   UNL A   1      35.170  23.104  25.461  1.00  0.00    -0.381 OA
ENDBRANCH  83  88
ENDBRANCH  75  77
ENDBRANCH  74  75
ENDBRANCH  73  74
ENDBRANCH  72  73
ENDBRANCH  71  72
ENDBRANCH   1  71
TORSDOF 18
ENDMDL
