MODEL 1
REMARK VINA RESULT:     -11.4      0.000      0.000
REMARK SMILES Cc1ccc(Cn2c(C)c(C[NH2+]Cc3ccco3)c(C(=O)OCCOCCOC(=O)c3ccc(-c4c5nc(c(-c6cc(S(=O)(=O)[O-])ccc6F)c6ccc([nH]6)c(-c6cc(S(=O)(=O)[O-])ccc6F)c6nc(c(-c7cc(S(=O)(=O)[O-])ccc7F)c7ccc4[nH]7)C=C6)C=C5)cc3)c2C)cc1
REMARK SMILES IDX 24 1 23 2 22 3 20 4 21 5 19 6 7 7 8 8 94 9 9 10 10 11 95 12
REMARK SMILES IDX 6 13 5 14 1 15 2 16 3 17 97 18 4 19 96 20 11 21 12 22 13 25
REMARK SMILES IDX 14 26 15 27 18 28 16 29 17 30 25 31 26 32 27 33 28 34 29 35
REMARK SMILES IDX 30 36 31 37 32 38 93 39 33 40 92 41 34 42 35 43 36 44 86 45
REMARK SMILES IDX 37 46 91 47 85 48 87 49 38 50 90 51 84 52 83 53 39 55 71 56
REMARK SMILES IDX 51 57 70 58 52 59 55 60 69 61 88 62 53 63 54 64 68 66 89 67
REMARK SMILES IDX 56 68 40 69 41 70 49 71 42 72 48 73 50 74 47 75 43 76 44 77
REMARK SMILES IDX 45 78 46 79 72 80 73 81 81 82 74 83 80 84 82 85 79 86 75 87
REMARK SMILES IDX 76 88 77 89 78 90 57 91 58 92 66 93 59 94 65 95 67 96 64 97
REMARK SMILES IDX 60 98 61 99 62 100 63 101
REMARK H PARENT 12 23 12 24 87 54 55 65
REMARK Flexibility Score: inf
ROOT
ATOM      1  C   UNL A   1      32.876  28.461  27.207  1.00  0.00     0.202 C 
ENDROOT
BRANCH   1   2
ATOM      2  C   UNL A   1      33.363  28.675  25.812  1.00  0.00     0.261 C 
BRANCH   2   3
ATOM      3  O   UNL A   1      34.046  27.531  25.276  1.00  0.00    -0.460 OA
BRANCH   3   4
ATOM      4  C   UNL A   1      33.528  26.607  24.430  1.00  0.00     0.340 C 
ATOM      5  O   UNL A   1      33.438  26.708  23.212  1.00  0.00    -0.246 OA
BRANCH   4   6
ATOM      6  C   UNL A   1      33.078  25.444  25.198  1.00  0.00     0.089 A 
ATOM      7  N   UNL A   1      33.218  23.467  26.255  1.00  0.00    -0.343 N 
ATOM      8  C   UNL A   1      31.895  23.891  26.358  1.00  0.00     0.025 A 
ATOM      9  C   UNL A   1      33.814  24.273  25.315  1.00  0.00     0.030 A 
ATOM     10  C   UNL A   1      30.780  23.060  26.890  1.00  0.00     0.065 C 
ATOM     11  C   UNL A   1      31.805  25.173  25.794  1.00  0.00     0.042 A 
ATOM     12  C   UNL A   1      35.046  23.900  24.571  1.00  0.00     0.065 C 
BRANCH   7  13
ATOM     13  C   UNL A   1      33.834  22.231  26.775  1.00  0.00     0.157 C 
BRANCH  13  14
ATOM     14  C   UNL A   1      33.770  21.012  25.860  1.00  0.00    -0.028 A 
ATOM     15  C   UNL A   1      33.620  17.529  23.258  1.00  0.00     0.044 C 
ATOM     16  C   UNL A   1      33.679  18.698  24.195  1.00  0.00    -0.051 A 
ATOM     17  C   UNL A   1      32.506  19.319  24.610  1.00  0.00     0.004 A 
ATOM     18  C   UNL A   1      34.900  19.228  24.626  1.00  0.00     0.004 A 
ATOM     19  C   UNL A   1      32.556  20.428  25.460  1.00  0.00     0.006 A 
ATOM     20  C   UNL A   1      34.945  20.376  25.437  1.00  0.00     0.006 A 
ENDBRANCH  13  14
ENDBRANCH   7  13
BRANCH  11  21
ATOM     21  C   UNL A   1      30.598  26.080  25.693  1.00  0.00     0.300 C 
BRANCH  21  22
ATOM     22  N   UNL A   1      29.727  25.555  24.635  1.00  0.00    -0.336 N 
ATOM     23  H   UNL A   1      28.760  25.788  24.864  1.00  0.00     0.346 HD
ATOM     24  H   UNL A   1      29.874  24.546  24.589  1.00  0.00     0.346 HD
BRANCH  22  25
ATOM     25  C   UNL A   1      30.039  26.104  23.314  1.00  0.00     0.337 C 
BRANCH  25  26
ATOM     26  C   UNL A   1      29.698  27.550  23.168  1.00  0.00     0.157 A 
ATOM     27  C   UNL A   1      30.448  28.707  23.101  1.00  0.00     0.052 A 
ATOM     28  O   UNL A   1      28.366  27.861  23.124  1.00  0.00    -0.463 OA
ATOM     29  C   UNL A   1      29.527  29.780  23.013  1.00  0.00     0.042 A 
ATOM     30  C   UNL A   1      28.277  29.212  23.020  1.00  0.00     0.195 A 
ENDBRANCH  25  26
ENDBRANCH  22  25
ENDBRANCH  21  22
ENDBRANCH  11  21
ENDBRANCH   4   6
ENDBRANCH   3   4
ENDBRANCH   2   3
ENDBRANCH   1   2
BRANCH   1  31
ATOM     31  O   UNL A   1      32.841  29.760  27.776  1.00  0.00    -0.374 OA
BRANCH  31  32
ATOM     32  C   UNL A   1      33.010  30.817  26.862  1.00  0.00     0.202 C 
BRANCH  32  33
ATOM     33  C   UNL A   1      33.690  32.023  27.519  1.00  0.00     0.261 C 
BRANCH  33  34
ATOM     34  O   UNL A   1      35.087  31.730  27.748  1.00  0.00    -0.460 OA
BRANCH  34  35
ATOM     35  C   UNL A   1      35.417  31.355  29.019  1.00  0.00     0.338 C 
ATOM     36  O   UNL A   1      35.077  31.942  30.032  1.00  0.00    -0.246 OA
BRANCH  35  37
ATOM     37  C   UNL A   1      36.375  30.210  28.988  1.00  0.00     0.060 A 
ATOM     38  C   UNL A   1      36.643  29.460  30.151  1.00  0.00     0.016 A 
ATOM     39  C   UNL A   1      37.204  30.073  27.878  1.00  0.00     0.016 A 
ATOM     40  C   UNL A   1      37.807  28.674  30.238  1.00  0.00     0.010 A 
ATOM     41  C   UNL A   1      38.387  29.376  28.001  1.00  0.00     0.010 A 
ATOM     42  C   UNL A   1      38.712  28.684  29.174  1.00  0.00    -0.014 A 
BRANCH  42  43
ATOM     43  C   UNL A   1      40.082  28.164  29.203  1.00  0.00     0.031 A 
ATOM     44  C   UNL A   1      40.360  26.802  28.711  1.00  0.00     0.074 A 
ATOM     45  C   UNL A   1      41.123  29.005  29.403  1.00  0.00     0.049 A 
ATOM     46  N   UNL A   1      41.387  26.113  29.070  1.00  0.00    -0.248 NA
ATOM     47  C   UNL A   1      39.489  26.082  27.784  1.00  0.00     0.031 C 
ATOM     48  C   UNL A   1      42.510  28.860  28.967  1.00  0.00     0.029 A 
ATOM     49  N   UNL A   1      41.112  30.232  30.054  1.00  0.00    -0.354 N 
ATOM     50  C   UNL A   1      41.507  25.074  28.177  1.00  0.00     0.074 A 
ATOM     51  C   UNL A   1      40.242  25.021  27.485  1.00  0.00     0.031 C 
ATOM     52  C   UNL A   1      43.253  29.849  29.498  1.00  0.00     0.029 A 
ATOM     53  C   UNL A   1      42.408  30.612  30.408  1.00  0.00     0.049 A 
ATOM     54  H   UNL A   1      40.303  30.761  30.240  1.00  0.00     0.167 HD
ATOM     55  C   UNL A   1      42.726  24.500  27.966  1.00  0.00     0.034 A 
ATOM     56  C   UNL A   1      42.683  30.976  31.689  1.00  0.00     0.034 A 
ATOM     57  C   UNL A   1      43.785  25.224  28.692  1.00  0.00     0.049 A 
ATOM     58  C   UNL A   1      43.495  29.849  32.282  1.00  0.00     0.074 A 
ATOM     59  C   UNL A   1      44.808  26.055  28.260  1.00  0.00     0.029 A 
ATOM     60  N   UNL A   1      43.701  25.414  30.075  1.00  0.00    -0.354 N 
ATOM     61  N   UNL A   1      43.498  28.641  31.778  1.00  0.00    -0.248 NA
ATOM     62  C   UNL A   1      44.442  30.001  33.377  1.00  0.00     0.031 C 
ATOM     63  C   UNL A   1      45.305  26.772  29.382  1.00  0.00     0.029 A 
ATOM     64  C   UNL A   1      44.610  26.363  30.509  1.00  0.00     0.049 A 
ATOM     65  H   UNL A   1      43.076  24.935  30.665  1.00  0.00     0.167 HD
ATOM     66  C   UNL A   1      44.481  27.905  32.361  1.00  0.00     0.074 A 
ATOM     67  C   UNL A   1      45.013  28.782  33.394  1.00  0.00     0.031 C 
ATOM     68  C   UNL A   1      44.807  26.652  31.928  1.00  0.00     0.034 A 
BRANCH  55  69
ATOM     69  C   UNL A   1      42.987  23.525  26.829  1.00  0.00     0.023 A 
ATOM     70  C   UNL A   1      42.680  22.160  26.986  1.00  0.00     0.031 A 
ATOM     71  C   UNL A   1      43.535  23.870  25.574  1.00  0.00     0.131 A 
ATOM     72  C   UNL A   1      43.026  21.207  26.006  1.00  0.00     0.055 A 
ATOM     73  C   UNL A   1      43.945  22.919  24.629  1.00  0.00     0.041 A 
ATOM     74  F   UNL A   1      43.637  25.146  25.178  1.00  0.00    -0.206 F 
ATOM     75  C   UNL A   1      43.704  21.573  24.849  1.00  0.00     0.022 A 
BRANCH  72  76
ATOM     76  S   UNL A   1      42.521  19.480  26.241  1.00  0.00     0.124 S 
ATOM     77  O   UNL A   1      42.273  19.426  27.677  1.00  0.00    -0.237 OA
ATOM     78  O   UNL A   1      41.351  19.379  25.376  1.00  0.00    -0.237 OA
ATOM     79  O   UNL A   1      43.687  18.722  25.786  1.00  0.00    -0.744 OA
ENDBRANCH  72  76
ENDBRANCH  55  69
BRANCH  56  80
ATOM     80  C   UNL A   1      41.598  31.793  32.334  1.00  0.00     0.023 A 
ATOM     81  C   UNL A   1      40.497  31.115  32.928  1.00  0.00     0.031 A 
ATOM     82  C   UNL A   1      41.812  33.123  32.729  1.00  0.00     0.131 A 
ATOM     83  C   UNL A   1      39.723  31.732  33.936  1.00  0.00     0.055 A 
ATOM     84  C   UNL A   1      41.039  33.732  33.733  1.00  0.00     0.041 A 
ATOM     85  F   UNL A   1      42.849  33.820  32.242  1.00  0.00    -0.206 F 
ATOM     86  C   UNL A   1      40.007  33.032  34.355  1.00  0.00     0.022 A 
BRANCH  83  87
ATOM     87  S   UNL A   1      38.504  30.794  34.928  1.00  0.00     0.124 S 
ATOM     88  O   UNL A   1      38.147  29.697  34.036  1.00  0.00    -0.237 OA
ATOM     89  O   UNL A   1      39.243  30.405  36.124  1.00  0.00    -0.237 OA
ATOM     90  O   UNL A   1      37.455  31.789  35.152  1.00  0.00    -0.744 OA
ENDBRANCH  83  87
ENDBRANCH  56  80
BRANCH  68  91
ATOM     91  C   UNL A   1      45.484  25.632  32.799  1.00  0.00     0.023 A 
ATOM     92  C   UNL A   1      46.876  25.584  32.929  1.00  0.00     0.031 A 
ATOM     93  C   UNL A   1      44.752  24.758  33.635  1.00  0.00     0.131 A 
ATOM     94  C   UNL A   1      47.494  24.638  33.754  1.00  0.00     0.055 A 
ATOM     95  C   UNL A   1      45.367  23.887  34.535  1.00  0.00     0.041 A 
ATOM     96  F   UNL A   1      43.412  24.726  33.636  1.00  0.00    -0.206 F 
ATOM     97  C   UNL A   1      46.750  23.806  34.585  1.00  0.00     0.022 A 
BRANCH  94  98
ATOM     98  S   UNL A   1      49.290  24.478  33.635  1.00  0.00     0.124 S 
ATOM     99  O   UNL A   1      49.526  24.830  32.236  1.00  0.00    -0.237 OA
ATOM    100  O   UNL A   1      49.761  25.449  34.618  1.00  0.00    -0.237 OA
ATOM    101  O   UNL A   1      49.532  23.079  33.974  1.00  0.00    -0.744 OA
ENDBRANCH  94  98
ENDBRANCH  68  91
ENDBRANCH  42  43
ENDBRANCH  35  37
ENDBRANCH  34  35
ENDBRANCH  33  34
ENDBRANCH  32  33
ENDBRANCH  31  32
ENDBRANCH   1  31
TORSDOF 23
ENDMDL
MODEL 2
REMARK VINA RESULT:     -11.1      1.676      2.252
REMARK SMILES Cc1ccc(Cn2c(C)c(C[NH2+]Cc3ccco3)c(C(=O)OCCOCCOC(=O)c3ccc(-c4c5nc(c(-c6cc(S(=O)(=O)[O-])ccc6F)c6ccc([nH]6)c(-c6cc(S(=O)(=O)[O-])ccc6F)c6nc(c(-c7cc(S(=O)(=O)[O-])ccc7F)c7ccc4[nH]7)C=C6)C=C5)cc3)c2C)cc1
REMARK SMILES IDX 24 1 23 2 22 3 20 4 21 5 19 6 7 7 8 8 94 9 9 10 10 11 95 12
REMARK SMILES IDX 6 13 5 14 1 15 2 16 3 17 97 18 4 19 96 20 11 21 12 22 13 25
REMARK SMILES IDX 14 26 15 27 18 28 16 29 17 30 25 31 26 32 27 33 28 34 29 35
REMARK SMILES IDX 30 36 31 37 32 38 93 39 33 40 92 41 34 42 35 43 36 44 86 45
REMARK SMILES IDX 37 46 91 47 85 48 87 49 38 50 90 51 84 52 83 53 39 55 71 56
REMARK SMILES IDX 51 57 70 58 52 59 55 60 69 61 88 62 53 63 54 64 68 66 89 67
REMARK SMILES IDX 56 68 40 69 41 70 49 71 42 72 48 73 50 74 47 75 43 76 44 77
REMARK SMILES IDX 45 78 46 79 72 80 73 81 81 82 74 83 80 84 82 85 79 86 75 87
REMARK SMILES IDX 76 88 77 89 78 90 57 91 58 92 66 93 59 94 65 95 67 96 64 97
REMARK SMILES IDX 60 98 61 99 62 100 63 101
REMARK H PARENT 12 23 12 24 87 54 55 65
REMARK Flexibility Score: inf
ROOT
ATOM      1  C   UNL A   1      32.317  29.912  27.181  1.00  0.00     0.202 C 
ENDROOT
BRANCH   1   2
ATOM      2  C   UNL A   1      33.521  29.434  26.439  1.00  0.00     0.261 C 
BRANCH   2   3
ATOM      3  O   UNL A   1      33.647  28.004  26.439  1.00  0.00    -0.460 OA
BRANCH   3   4
ATOM      4  C   UNL A   1      33.539  27.185  25.364  1.00  0.00     0.340 C 
ATOM      5  O   UNL A   1      33.847  27.459  24.210  1.00  0.00    -0.246 OA
BRANCH   4   6
ATOM      6  C   UNL A   1      32.985  25.898  25.787  1.00  0.00     0.089 A 
ATOM      7  N   UNL A   1      32.975  23.734  26.391  1.00  0.00    -0.343 N 
ATOM      8  C   UNL A   1      31.651  24.166  26.404  1.00  0.00     0.025 A 
ATOM      9  C   UNL A   1      33.697  24.706  25.742  1.00  0.00     0.030 A 
ATOM     10  C   UNL A   1      30.472  23.275  26.583  1.00  0.00     0.065 C 
ATOM     11  C   UNL A   1      31.642  25.544  26.130  1.00  0.00     0.042 A 
ATOM     12  C   UNL A   1      35.021  24.467  25.109  1.00  0.00     0.065 C 
BRANCH   7  13
ATOM     13  C   UNL A   1      33.512  22.396  26.704  1.00  0.00     0.157 C 
BRANCH  13  14
ATOM     14  C   UNL A   1      33.199  21.293  25.696  1.00  0.00    -0.028 A 
ATOM     15  C   UNL A   1      32.309  18.175  22.797  1.00  0.00     0.044 C 
ATOM     16  C   UNL A   1      32.663  19.254  23.776  1.00  0.00    -0.051 A 
ATOM     17  C   UNL A   1      32.999  18.924  25.085  1.00  0.00     0.004 A 
ATOM     18  C   UNL A   1      32.610  20.607  23.424  1.00  0.00     0.004 A 
ATOM     19  C   UNL A   1      33.301  19.928  26.011  1.00  0.00     0.006 A 
ATOM     20  C   UNL A   1      32.863  21.612  24.374  1.00  0.00     0.006 A 
ENDBRANCH  13  14
ENDBRANCH   7  13
BRANCH  11  21
ATOM     21  C   UNL A   1      30.461  26.487  26.068  1.00  0.00     0.300 C 
BRANCH  21  22
ATOM     22  N   UNL A   1      29.454  25.893  25.182  1.00  0.00    -0.336 N 
ATOM     23  H   UNL A   1      28.553  26.333  25.371  1.00  0.00     0.346 HD
ATOM     24  H   UNL A   1      29.435  24.890  25.368  1.00  0.00     0.346 HD
BRANCH  22  25
ATOM     25  C   UNL A   1      29.769  26.069  23.763  1.00  0.00     0.337 C 
BRANCH  25  26
ATOM     26  C   UNL A   1      29.614  27.473  23.281  1.00  0.00     0.157 A 
ATOM     27  C   UNL A   1      30.506  28.463  22.918  1.00  0.00     0.052 A 
ATOM     28  O   UNL A   1      28.336  27.953  23.198  1.00  0.00    -0.463 OA
ATOM     29  C   UNL A   1      29.732  29.605  22.598  1.00  0.00     0.042 A 
ATOM     30  C   UNL A   1      28.420  29.239  22.774  1.00  0.00     0.195 A 
ENDBRANCH  25  26
ENDBRANCH  22  25
ENDBRANCH  21  22
ENDBRANCH  11  21
ENDBRANCH   4   6
ENDBRANCH   3   4
ENDBRANCH   2   3
ENDBRANCH   1   2
BRANCH   1  31
ATOM     31  O   UNL A   1      32.366  31.326  27.067  1.00  0.00    -0.374 OA
BRANCH  31  32
ATOM     32  C   UNL A   1      33.546  31.923  27.546  1.00  0.00     0.202 C 
BRANCH  32  33
ATOM     33  C   UNL A   1      33.282  33.334  28.084  1.00  0.00     0.261 C 
BRANCH  33  34
ATOM     34  O   UNL A   1      34.520  33.919  28.549  1.00  0.00    -0.460 OA
BRANCH  34  35
ATOM     35  C   UNL A   1      34.918  33.552  29.802  1.00  0.00     0.338 C 
ATOM     36  O   UNL A   1      34.671  34.169  30.824  1.00  0.00    -0.246 OA
BRANCH  35  37
ATOM     37  C   UNL A   1      35.824  32.366  29.731  1.00  0.00     0.060 A 
ATOM     38  C   UNL A   1      35.850  31.413  30.769  1.00  0.00     0.016 A 
ATOM     39  C   UNL A   1      36.834  32.365  28.774  1.00  0.00     0.016 A 
ATOM     40  C   UNL A   1      36.951  30.548  30.911  1.00  0.00     0.010 A 
ATOM     41  C   UNL A   1      37.950  31.580  28.970  1.00  0.00     0.010 A 
ATOM     42  C   UNL A   1      38.032  30.678  30.037  1.00  0.00    -0.014 A 
BRANCH  42  43
ATOM     43  C   UNL A   1      39.355  30.069  30.207  1.00  0.00     0.031 A 
ATOM     44  C   UNL A   1      39.670  28.798  29.529  1.00  0.00     0.074 A 
ATOM     45  C   UNL A   1      40.371  30.790  30.734  1.00  0.00     0.049 A 
ATOM     46  N   UNL A   1      40.590  27.989  29.928  1.00  0.00    -0.248 NA
ATOM     47  C   UNL A   1      38.958  28.311  28.350  1.00  0.00     0.031 C 
ATOM     48  C   UNL A   1      41.809  30.631  30.525  1.00  0.00     0.029 A 
ATOM     49  N   UNL A   1      40.285  31.884  31.588  1.00  0.00    -0.354 N 
ATOM     50  C   UNL A   1      40.834  27.116  28.894  1.00  0.00     0.074 A 
ATOM     51  C   UNL A   1      39.714  27.270  27.996  1.00  0.00     0.031 C 
ATOM     52  C   UNL A   1      42.477  31.460  31.350  1.00  0.00     0.029 A 
ATOM     53  C   UNL A   1      41.508  32.108  32.224  1.00  0.00     0.049 A 
ATOM     54  H   UNL A   1      39.475  32.425  31.724  1.00  0.00     0.167 HD
ATOM     55  C   UNL A   1      42.049  26.507  28.795  1.00  0.00     0.034 A 
ATOM     56  C   UNL A   1      41.558  32.223  33.578  1.00  0.00     0.034 A 
ATOM     57  C   UNL A   1      42.984  27.020  29.813  1.00  0.00     0.049 A 
ATOM     58  C   UNL A   1      42.208  30.959  34.085  1.00  0.00     0.074 A 
ATOM     59  C   UNL A   1      44.097  27.843  29.724  1.00  0.00     0.029 A 
ATOM     60  N   UNL A   1      42.656  26.972  31.172  1.00  0.00    -0.354 N 
ATOM     61  N   UNL A   1      42.260  29.860  33.377  1.00  0.00    -0.248 NA
ATOM     62  C   UNL A   1      42.944  30.853  35.336  1.00  0.00     0.031 C 
ATOM     63  C   UNL A   1      44.406  28.318  31.027  1.00  0.00     0.029 A 
ATOM     64  C   UNL A   1      43.504  27.767  31.923  1.00  0.00     0.049 A 
ATOM     65  H   UNL A   1      41.917  26.441  31.547  1.00  0.00     0.167 HD
ATOM     66  C   UNL A   1      43.094  28.968  33.975  1.00  0.00     0.074 A 
ATOM     67  C   UNL A   1      43.460  29.614  35.228  1.00  0.00     0.031 C 
ATOM     68  C   UNL A   1      43.449  27.791  33.383  1.00  0.00     0.034 A 
BRANCH  55  69
ATOM     69  C   UNL A   1      42.479  25.729  27.561  1.00  0.00     0.023 A 
ATOM     70  C   UNL A   1      42.213  24.349  27.469  1.00  0.00     0.031 A 
ATOM     71  C   UNL A   1      43.151  26.280  26.448  1.00  0.00     0.131 A 
ATOM     72  C   UNL A   1      42.707  23.570  26.403  1.00  0.00     0.055 A 
ATOM     73  C   UNL A   1      43.706  25.499  25.423  1.00  0.00     0.041 A 
ATOM     74  F   UNL A   1      43.244  27.605  26.268  1.00  0.00    -0.206 F 
ATOM     75  C   UNL A   1      43.497  24.130  25.404  1.00  0.00     0.022 A 
BRANCH  72  76
ATOM     76  S   UNL A   1      42.252  21.817  26.308  1.00  0.00     0.124 S 
ATOM     77  O   UNL A   1      40.852  21.886  25.904  1.00  0.00    -0.237 OA
ATOM     78  O   UNL A   1      43.189  21.306  25.314  1.00  0.00    -0.237 OA
ATOM     79  O   UNL A   1      42.479  21.334  27.670  1.00  0.00    -0.744 OA
ENDBRANCH  72  76
ENDBRANCH  55  69
BRANCH  56  80
ATOM     80  C   UNL A   1      40.402  32.987  34.164  1.00  0.00     0.023 A 
ATOM     81  C   UNL A   1      39.554  32.328  35.096  1.00  0.00     0.031 A 
ATOM     82  C   UNL A   1      40.365  34.391  34.154  1.00  0.00     0.131 A 
ATOM     83  C   UNL A   1      38.786  33.065  36.025  1.00  0.00     0.055 A 
ATOM     84  C   UNL A   1      39.600  35.119  35.080  1.00  0.00     0.041 A 
ATOM     85  F   UNL A   1      41.161  35.088  33.329  1.00  0.00    -0.206 F 
ATOM     86  C   UNL A   1      38.826  34.460  36.034  1.00  0.00     0.022 A 
BRANCH  83  87
ATOM     87  S   UNL A   1      37.925  32.256  37.424  1.00  0.00     0.124 S 
ATOM     88  O   UNL A   1      38.855  32.461  38.528  1.00  0.00    -0.237 OA
ATOM     89  O   UNL A   1      36.664  32.983  37.532  1.00  0.00    -0.237 OA
ATOM     90  O   UNL A   1      37.799  30.876  36.955  1.00  0.00    -0.744 OA
ENDBRANCH  83  87
ENDBRANCH  56  80
BRANCH  68  91
ATOM     91  C   UNL A   1      43.920  26.591  34.156  1.00  0.00     0.023 A 
ATOM     92  C   UNL A   1      45.280  26.341  34.369  1.00  0.00     0.031 A 
ATOM     93  C   UNL A   1      43.019  25.729  34.821  1.00  0.00     0.131 A 
ATOM     94  C   UNL A   1      45.705  25.228  35.102  1.00  0.00     0.055 A 
ATOM     95  C   UNL A   1      43.444  24.682  35.639  1.00  0.00     0.041 A 
ATOM     96  F   UNL A   1      41.690  25.878  34.732  1.00  0.00    -0.206 F 
ATOM     97  C   UNL A   1      44.798  24.410  35.767  1.00  0.00     0.022 A 
BRANCH  94  98
ATOM     98  S   UNL A   1      47.470  24.844  35.080  1.00  0.00     0.124 S 
ATOM     99  O   UNL A   1      47.709  24.465  36.471  1.00  0.00    -0.237 OA
ATOM    100  O   UNL A   1      47.546  23.757  34.108  1.00  0.00    -0.237 OA
ATOM    101  O   UNL A   1      48.088  26.099  34.663  1.00  0.00    -0.744 OA
ENDBRANCH  94  98
ENDBRANCH  68  91
ENDBRANCH  42  43
ENDBRANCH  35  37
ENDBRANCH  34  35
ENDBRANCH  33  34
ENDBRANCH  32  33
ENDBRANCH  31  32
ENDBRANCH   1  31
TORSDOF 23
ENDMDL
MODEL 3
REMARK VINA RESULT:     -10.8      6.051     10.748
REMARK SMILES Cc1ccc(Cn2c(C)c(C[NH2+]Cc3ccco3)c(C(=O)OCCOCCOC(=O)c3ccc(-c4c5nc(c(-c6cc(S(=O)(=O)[O-])ccc6F)c6ccc([nH]6)c(-c6cc(S(=O)(=O)[O-])ccc6F)c6nc(c(-c7cc(S(=O)(=O)[O-])ccc7F)c7ccc4[nH]7)C=C6)C=C5)cc3)c2C)cc1
REMARK SMILES IDX 24 1 23 2 22 3 20 4 21 5 19 6 7 7 8 8 94 9 9 10 10 11 95 12
REMARK SMILES IDX 6 13 5 14 1 15 2 16 3 17 97 18 4 19 96 20 11 21 12 22 13 25
REMARK SMILES IDX 14 26 15 27 18 28 16 29 17 30 25 31 26 32 27 33 28 34 29 35
REMARK SMILES IDX 30 36 31 37 32 38 93 39 33 40 92 41 34 42 35 43 36 44 86 45
REMARK SMILES IDX 37 46 91 47 85 48 87 49 38 50 90 51 84 52 83 53 39 55 71 56
REMARK SMILES IDX 51 57 70 58 52 59 55 60 69 61 88 62 53 63 54 64 68 66 89 67
REMARK SMILES IDX 56 68 40 69 41 70 49 71 42 72 48 73 50 74 47 75 43 76 44 77
REMARK SMILES IDX 45 78 46 79 72 80 73 81 81 82 74 83 80 84 82 85 79 86 75 87
REMARK SMILES IDX 76 88 77 89 78 90 57 91 58 92 66 93 59 94 65 95 67 96 64 97
REMARK SMILES IDX 60 98 61 99 62 100 63 101
REMARK H PARENT 12 23 12 24 87 54 55 65
REMARK Flexibility Score: inf
ROOT
ATOM      1  C   UNL A   1      32.787  30.080  26.756  1.00  0.00     0.202 C 
ENDROOT
BRANCH   1   2
ATOM      2  C   UNL A   1      33.461  28.933  26.080  1.00  0.00     0.261 C 
BRANCH   2   3
ATOM      3  O   UNL A   1      33.044  27.658  26.591  1.00  0.00    -0.460 OA
BRANCH   3   4
ATOM      4  C   UNL A   1      31.898  27.002  26.280  1.00  0.00     0.340 C 
ATOM      5  O   UNL A   1      30.844  27.046  26.903  1.00  0.00    -0.246 OA
BRANCH   4   6
ATOM      6  C   UNL A   1      32.108  26.209  25.067  1.00  0.00     0.089 A 
ATOM      7  N   UNL A   1      32.549  24.396  23.816  1.00  0.00    -0.343 N 
ATOM      8  C   UNL A   1      32.353  25.460  22.937  1.00  0.00     0.025 A 
ATOM      9  C   UNL A   1      32.681  24.944  25.069  1.00  0.00     0.030 A 
ATOM     10  C   UNL A   1      32.607  25.403  21.471  1.00  0.00     0.065 C 
ATOM     11  C   UNL A   1      31.974  26.581  23.692  1.00  0.00     0.042 A 
ATOM     12  C   UNL A   1      33.343  24.252  26.206  1.00  0.00     0.065 C 
BRANCH   7  13
ATOM     13  C   UNL A   1      32.871  22.990  23.506  1.00  0.00     0.157 C 
BRANCH  13  14
ATOM     14  C   UNL A   1      34.267  22.517  23.902  1.00  0.00    -0.028 A 
ATOM     15  C   UNL A   1      38.231  21.139  25.047  1.00  0.00     0.044 C 
ATOM     16  C   UNL A   1      36.861  21.575  24.618  1.00  0.00    -0.051 A 
ATOM     17  C   UNL A   1      36.713  22.653  23.751  1.00  0.00     0.004 A 
ATOM     18  C   UNL A   1      35.709  20.959  25.116  1.00  0.00     0.004 A 
ATOM     19  C   UNL A   1      35.438  23.083  23.371  1.00  0.00     0.006 A 
ATOM     20  C   UNL A   1      34.430  21.431  24.773  1.00  0.00     0.006 A 
ENDBRANCH  13  14
ENDBRANCH   7  13
BRANCH  11  21
ATOM     21  C   UNL A   1      31.612  27.968  23.207  1.00  0.00     0.300 C 
BRANCH  21  22
ATOM     22  N   UNL A   1      30.332  28.341  23.822  1.00  0.00    -0.336 N 
ATOM     23  H   UNL A   1      30.435  29.257  24.257  1.00  0.00     0.346 HD
ATOM     24  H   UNL A   1      30.098  27.619  24.504  1.00  0.00     0.346 HD
BRANCH  22  25
ATOM     25  C   UNL A   1      29.233  28.404  22.856  1.00  0.00     0.337 C 
BRANCH  25  26
ATOM     26  C   UNL A   1      28.759  29.790  22.573  1.00  0.00     0.157 A 
ATOM     27  C   UNL A   1      28.277  30.815  23.363  1.00  0.00     0.052 A 
ATOM     28  O   UNL A   1      28.736  30.172  21.259  1.00  0.00    -0.463 OA
ATOM     29  C   UNL A   1      27.943  31.877  22.486  1.00  0.00     0.042 A 
ATOM     30  C   UNL A   1      28.251  31.438  21.221  1.00  0.00     0.195 A 
ENDBRANCH  25  26
ENDBRANCH  22  25
ENDBRANCH  21  22
ENDBRANCH  11  21
ENDBRANCH   4   6
ENDBRANCH   3   4
ENDBRANCH   2   3
ENDBRANCH   1   2
BRANCH   1  31
ATOM     31  O   UNL A   1      33.797  30.663  27.563  1.00  0.00    -0.374 OA
BRANCH  31  32
ATOM     32  C   UNL A   1      33.756  32.067  27.652  1.00  0.00     0.202 C 
BRANCH  32  33
ATOM     33  C   UNL A   1      34.678  32.586  28.760  1.00  0.00     0.261 C 
BRANCH  33  34
ATOM     34  O   UNL A   1      36.051  32.555  28.308  1.00  0.00    -0.460 OA
BRANCH  34  35
ATOM     35  C   UNL A   1      36.871  31.675  28.953  1.00  0.00     0.338 C 
ATOM     36  O   UNL A   1      36.568  30.536  29.265  1.00  0.00    -0.246 OA
BRANCH  35  37
ATOM     37  C   UNL A   1      38.141  32.350  29.355  1.00  0.00     0.060 A 
ATOM     38  C   UNL A   1      39.233  31.604  29.842  1.00  0.00     0.016 A 
ATOM     39  C   UNL A   1      38.132  33.733  29.508  1.00  0.00     0.016 A 
ATOM     40  C   UNL A   1      40.247  32.234  30.587  1.00  0.00     0.010 A 
ATOM     41  C   UNL A   1      39.078  34.329  30.314  1.00  0.00     0.010 A 
ATOM     42  C   UNL A   1      40.132  33.596  30.873  1.00  0.00    -0.014 A 
BRANCH  42  43
ATOM     43  C   UNL A   1      40.927  34.342  31.852  1.00  0.00     0.031 A 
ATOM     44  C   UNL A   1      40.382  34.594  33.200  1.00  0.00     0.074 A 
ATOM     45  C   UNL A   1      42.247  34.549  31.639  1.00  0.00     0.049 A 
ATOM     46  N   UNL A   1      40.780  35.557  33.958  1.00  0.00    -0.248 NA
ATOM     47  C   UNL A   1      39.321  33.795  33.806  1.00  0.00     0.031 C 
ATOM     48  C   UNL A   1      43.309  34.759  32.620  1.00  0.00     0.029 A 
ATOM     49  N   UNL A   1      42.917  34.584  30.421  1.00  0.00    -0.354 N 
ATOM     50  C   UNL A   1      40.326  35.284  35.227  1.00  0.00     0.074 A 
ATOM     51  C   UNL A   1      39.323  34.260  35.058  1.00  0.00     0.031 C 
ATOM     52  C   UNL A   1      44.454  35.072  31.983  1.00  0.00     0.029 A 
ATOM     53  C   UNL A   1      44.160  35.203  30.562  1.00  0.00     0.049 A 
ATOM     54  H   UNL A   1      42.564  34.222  29.577  1.00  0.00     0.167 HD
ATOM     55  C   UNL A   1      40.984  35.795  36.305  1.00  0.00     0.034 A 
ATOM     56  C   UNL A   1      44.508  36.223  29.733  1.00  0.00     0.034 A 
ATOM     57  C   UNL A   1      42.214  36.496  35.893  1.00  0.00     0.049 A 
ATOM     58  C   UNL A   1      44.458  37.481  30.568  1.00  0.00     0.074 A 
ATOM     59  C   UNL A   1      43.557  36.174  36.025  1.00  0.00     0.029 A 
ATOM     60  N   UNL A   1      42.164  37.539  34.962  1.00  0.00    -0.354 N 
ATOM     61  N   UNL A   1      43.784  37.558  31.687  1.00  0.00    -0.248 NA
ATOM     62  C   UNL A   1      45.235  38.682  30.299  1.00  0.00     0.031 C 
ATOM     63  C   UNL A   1      44.302  36.999  35.139  1.00  0.00     0.029 A 
ATOM     64  C   UNL A   1      43.425  37.848  34.484  1.00  0.00     0.049 A 
ATOM     65  H   UNL A   1      41.338  37.995  34.683  1.00  0.00     0.167 HD
ATOM     66  C   UNL A   1      44.102  38.710  32.334  1.00  0.00     0.074 A 
ATOM     67  C   UNL A   1      44.977  39.408  31.402  1.00  0.00     0.031 C 
ATOM     68  C   UNL A   1      43.657  38.984  33.595  1.00  0.00     0.034 A 
BRANCH  55  69
ATOM     69  C   UNL A   1      40.699  35.345  37.729  1.00  0.00     0.023 A 
ATOM     70  C   UNL A   1      41.388  34.244  38.273  1.00  0.00     0.031 A 
ATOM     71  C   UNL A   1      39.766  35.949  38.600  1.00  0.00     0.131 A 
ATOM     72  C   UNL A   1      41.062  33.718  39.539  1.00  0.00     0.055 A 
ATOM     73  C   UNL A   1      39.387  35.388  39.828  1.00  0.00     0.041 A 
ATOM     74  F   UNL A   1      39.227  37.146  38.330  1.00  0.00    -0.206 F 
ATOM     75  C   UNL A   1      40.028  34.255  40.300  1.00  0.00     0.022 A 
BRANCH  72  76
ATOM     76  S   UNL A   1      42.051  32.353  40.208  1.00  0.00     0.124 S 
ATOM     77  O   UNL A   1      43.122  33.061  40.901  1.00  0.00    -0.237 OA
ATOM     78  O   UNL A   1      41.087  31.654  41.049  1.00  0.00    -0.237 OA
ATOM     79  O   UNL A   1      42.467  31.619  39.013  1.00  0.00    -0.744 OA
ENDBRANCH  72  76
ENDBRANCH  55  69
BRANCH  56  80
ATOM     80  C   UNL A   1      44.071  36.023  28.308  1.00  0.00     0.023 A 
ATOM     81  C   UNL A   1      44.706  35.010  27.537  1.00  0.00     0.031 A 
ATOM     82  C   UNL A   1      42.828  36.487  27.846  1.00  0.00     0.131 A 
ATOM     83  C   UNL A   1      44.063  34.442  26.415  1.00  0.00     0.055 A 
ATOM     84  C   UNL A   1      42.192  35.918  26.730  1.00  0.00     0.041 A 
ATOM     85  F   UNL A   1      42.148  37.414  28.536  1.00  0.00    -0.206 F 
ATOM     86  C   UNL A   1      42.797  34.879  26.024  1.00  0.00     0.022 A 
BRANCH  83  87
ATOM     87  S   UNL A   1      44.710  32.943  25.587  1.00  0.00     0.124 S 
ATOM     88  O   UNL A   1      44.298  33.143  24.203  1.00  0.00    -0.237 OA
ATOM     89  O   UNL A   1      46.149  33.002  25.820  1.00  0.00    -0.237 OA
ATOM     90  O   UNL A   1      44.017  31.870  26.301  1.00  0.00    -0.744 OA
ENDBRANCH  83  87
ENDBRANCH  56  80
BRANCH  68  91
ATOM     91  C   UNL A   1      43.542  40.380  34.140  1.00  0.00     0.023 A 
ATOM     92  C   UNL A   1      44.279  40.797  35.254  1.00  0.00     0.031 A 
ATOM     93  C   UNL A   1      42.792  41.381  33.481  1.00  0.00     0.131 A 
ATOM     94  C   UNL A   1      44.173  42.103  35.744  1.00  0.00     0.055 A 
ATOM     95  C   UNL A   1      42.771  42.709  33.909  1.00  0.00     0.041 A 
ATOM     96  F   UNL A   1      42.070  41.125  32.382  1.00  0.00    -0.206 F 
ATOM     97  C   UNL A   1      43.448  43.075  35.062  1.00  0.00     0.022 A 
BRANCH  94  98
ATOM     98  S   UNL A   1      44.942  42.457  37.340  1.00  0.00     0.124 S 
ATOM     99  O   UNL A   1      45.765  41.267  37.542  1.00  0.00    -0.237 OA
ATOM    100  O   UNL A   1      45.673  43.692  37.074  1.00  0.00    -0.237 OA
ATOM    101  O   UNL A   1      43.805  42.587  38.246  1.00  0.00    -0.744 OA
ENDBRANCH  94  98
ENDBRANCH  68  91
ENDBRANCH  42  43
ENDBRANCH  35  37
ENDBRANCH  34  35
ENDBRANCH  33  34
ENDBRANCH  32  33
ENDBRANCH  31  32
ENDBRANCH   1  31
TORSDOF 23
ENDMDL
