MODEL 1
REMARK VINA RESULT:     -10.0      0.000      0.000
REMARK SMILES CCN(CC(C)(C)O)C(=O)[C@H]1CC=CC[C@H]1C(=O)OCCOCCOC(=O)c1ccc(-c2c3nc(c(-c4cc(S(=O)(=O)[O-])ccc4F)c4ccc([nH]4)c(-c4cc(S(=O)(=O)[O-])ccc4F)c4nc(c(-c5cc(S(=O)(=O)[O-])ccc5F)c5ccc2[nH]5)C=C4)C=C3)cc1
REMARK SMILES IDX 21 1 20 2 19 3 17 4 18 5 16 6 11 7 12 8 13 9 15 10 14 11
REMARK SMILES IDX 9 12 10 13 3 14 2 15 1 16 4 17 5 18 6 19 7 20 8 21 22 23
REMARK SMILES IDX 23 24 24 25 25 26 26 27 27 28 28 29 29 30 90 31 30 32 89 33
REMARK SMILES IDX 31 34 32 35 33 36 83 37 34 38 88 39 82 40 84 41 35 42 87 43
REMARK SMILES IDX 81 44 80 45 36 47 68 48 48 49 67 50 49 51 52 52 66 53 85 54
REMARK SMILES IDX 50 55 51 56 65 58 86 59 53 60 37 61 38 62 46 63 39 64 45 65
REMARK SMILES IDX 47 66 44 67 40 68 41 69 42 70 43 71 69 72 70 73 78 74 71 75
REMARK SMILES IDX 77 76 79 77 76 78 72 79 73 80 74 81 75 82 54 83 55 84 63 85
REMARK SMILES IDX 56 86 62 87 64 88 61 89 57 90 58 91 59 92 60 93
REMARK H PARENT 8 22 84 46 52 57
REMARK Flexibility Score: inf
ROOT
ATOM      1  C   UNL A   1      35.154  22.266  23.715  1.00  0.00     0.202 C 
ENDROOT
BRANCH   1   2
ATOM      2  C   UNL A   1      35.599  23.723  23.514  1.00  0.00     0.261 C 
BRANCH   2   3
ATOM      3  O   UNL A   1      34.567  24.731  23.561  1.00  0.00    -0.463 OA
BRANCH   3   4
ATOM      4  C   UNL A   1      34.520  25.399  24.739  1.00  0.00     0.310 C 
ATOM      5  O   UNL A   1      35.249  25.149  25.698  1.00  0.00    -0.252 OA
BRANCH   4   6
ATOM      6  C   UNL A   1      33.438  26.448  24.863  1.00  0.00     0.115 C 
ATOM      7  C   UNL A   1      32.161  26.451  24.003  1.00  0.00     0.097 C 
ATOM      8  C   UNL A   1      31.576  27.894  24.084  1.00  0.00     0.041 C 
ATOM      9  C   UNL A   1      31.594  28.485  25.476  1.00  0.00    -0.030 C 
ATOM     10  C   UNL A   1      33.136  26.713  26.342  1.00  0.00     0.043 C 
ATOM     11  C   UNL A   1      32.264  27.929  26.500  1.00  0.00    -0.030 C 
BRANCH   7  12
ATOM     12  C   UNL A   1      31.050  25.495  24.482  1.00  0.00     0.226 C 
ATOM     13  O   UNL A   1      29.995  25.951  24.931  1.00  0.00    -0.275 OA
BRANCH  12  14
ATOM     14  N   UNL A   1      31.234  24.126  24.404  1.00  0.00    -0.340 N 
BRANCH  14  15
ATOM     15  C   UNL A   1      30.673  23.425  23.232  1.00  0.00     0.116 C 
ATOM     16  C   UNL A   1      31.587  22.348  22.646  1.00  0.00     0.027 C 
ENDBRANCH  14  15
BRANCH  14  17
ATOM     17  C   UNL A   1      32.195  23.364  25.218  1.00  0.00     0.154 C 
BRANCH  17  18
ATOM     18  C   UNL A   1      31.579  22.480  26.354  1.00  0.00     0.077 C 
ATOM     19  C   UNL A   1      32.360  22.633  27.661  1.00  0.00     0.043 C 
ATOM     20  C   UNL A   1      30.115  22.847  26.642  1.00  0.00     0.043 C 
BRANCH  18  21
ATOM     21  O   UNL A   1      31.591  21.106  25.956  1.00  0.00    -0.389 OA
ATOM     22  H   UNL A   1      30.682  20.802  25.816  1.00  0.00     0.211 HD
ENDBRANCH  18  21
ENDBRANCH  17  18
ENDBRANCH  14  17
ENDBRANCH  12  14
ENDBRANCH   7  12
ENDBRANCH   4   6
ENDBRANCH   3   4
ENDBRANCH   2   3
ENDBRANCH   1   2
BRANCH   1  23
ATOM     23  O   UNL A   1      34.708  21.890  25.011  1.00  0.00    -0.374 OA
BRANCH  23  24
ATOM     24  C   UNL A   1      35.533  20.981  25.737  1.00  0.00     0.202 C 
BRANCH  24  25
ATOM     25  C   UNL A   1      36.732  20.407  24.972  1.00  0.00     0.261 C 
BRANCH  25  26
ATOM     26  O   UNL A   1      37.830  21.349  24.902  1.00  0.00    -0.460 OA
BRANCH  26  27
ATOM     27  C   UNL A   1      38.880  21.059  25.714  1.00  0.00     0.338 C 
ATOM     28  O   UNL A   1      39.443  19.974  25.795  1.00  0.00    -0.246 OA
BRANCH  27  29
ATOM     29  C   UNL A   1      39.365  22.256  26.438  1.00  0.00     0.060 A 
ATOM     30  C   UNL A   1      38.799  23.495  26.135  1.00  0.00     0.016 A 
ATOM     31  C   UNL A   1      40.456  22.200  27.308  1.00  0.00     0.016 A 
ATOM     32  C   UNL A   1      39.363  24.667  26.655  1.00  0.00     0.010 A 
ATOM     33  C   UNL A   1      40.981  23.360  27.877  1.00  0.00     0.010 A 
ATOM     34  C   UNL A   1      40.482  24.609  27.503  1.00  0.00    -0.014 A 
BRANCH  34  35
ATOM     35  C   UNL A   1      41.189  25.847  27.918  1.00  0.00     0.031 A 
ATOM     36  C   UNL A   1      42.603  26.104  27.459  1.00  0.00     0.074 A 
ATOM     37  C   UNL A   1      40.570  26.734  28.718  1.00  0.00     0.049 A 
ATOM     38  N   UNL A   1      43.344  27.173  27.609  1.00  0.00    -0.248 NA
ATOM     39  C   UNL A   1      43.284  25.000  26.765  1.00  0.00     0.031 C 
ATOM     40  C   UNL A   1      39.238  26.557  29.296  1.00  0.00     0.029 A 
ATOM     41  N   UNL A   1      40.977  27.960  29.177  1.00  0.00    -0.354 N 
ATOM     42  C   UNL A   1      44.573  26.873  27.028  1.00  0.00     0.074 A 
ATOM     43  C   UNL A   1      44.500  25.494  26.593  1.00  0.00     0.031 C 
ATOM     44  C   UNL A   1      38.920  27.656  30.000  1.00  0.00     0.029 A 
ATOM     45  C   UNL A   1      40.027  28.606  29.931  1.00  0.00     0.049 A 
ATOM     46  H   UNL A   1      41.865  28.341  28.985  1.00  0.00     0.167 HD
ATOM     47  C   UNL A   1      45.650  27.679  26.845  1.00  0.00     0.034 A 
ATOM     48  C   UNL A   1      40.039  29.836  30.479  1.00  0.00     0.034 A 
ATOM     49  C   UNL A   1      45.700  29.052  27.290  1.00  0.00     0.049 A 
ATOM     50  C   UNL A   1      41.231  30.728  30.250  1.00  0.00     0.074 A 
ATOM     51  C   UNL A   1      46.697  29.991  27.091  1.00  0.00     0.029 A 
ATOM     52  N   UNL A   1      44.716  29.677  28.047  1.00  0.00    -0.354 N 
ATOM     53  N   UNL A   1      42.339  30.476  29.592  1.00  0.00    -0.248 NA
ATOM     54  C   UNL A   1      41.158  32.082  30.814  1.00  0.00     0.031 C 
ATOM     55  C   UNL A   1      46.348  31.157  27.782  1.00  0.00     0.029 A 
ATOM     56  C   UNL A   1      45.097  30.975  28.351  1.00  0.00     0.049 A 
ATOM     57  H   UNL A   1      43.870  29.258  28.326  1.00  0.00     0.167 HD
ATOM     58  C   UNL A   1      43.081  31.654  29.634  1.00  0.00     0.074 A 
ATOM     59  C   UNL A   1      42.288  32.616  30.372  1.00  0.00     0.031 C 
ATOM     60  C   UNL A   1      44.302  31.919  29.102  1.00  0.00     0.034 A 
BRANCH  47  61
ATOM     61  C   UNL A   1      46.859  27.084  26.155  1.00  0.00     0.023 A 
ATOM     62  C   UNL A   1      47.855  26.395  26.873  1.00  0.00     0.031 A 
ATOM     63  C   UNL A   1      47.042  27.235  24.769  1.00  0.00     0.131 A 
ATOM     64  C   UNL A   1      49.023  25.967  26.223  1.00  0.00     0.055 A 
ATOM     65  C   UNL A   1      48.166  26.727  24.113  1.00  0.00     0.041 A 
ATOM     66  F   UNL A   1      46.139  27.897  24.027  1.00  0.00    -0.206 F 
ATOM     67  C   UNL A   1      49.174  26.106  24.843  1.00  0.00     0.022 A 
BRANCH  64  68
ATOM     68  S   UNL A   1      50.411  25.381  27.234  1.00  0.00     0.124 S 
ATOM     69  O   UNL A   1      50.782  26.595  27.959  1.00  0.00    -0.237 OA
ATOM     70  O   UNL A   1      49.798  24.324  28.030  1.00  0.00    -0.237 OA
ATOM     71  O   UNL A   1      51.390  24.933  26.247  1.00  0.00    -0.744 OA
ENDBRANCH  64  68
ENDBRANCH  47  61
BRANCH  48  72
ATOM     72  C   UNL A   1      38.857  30.318  31.247  1.00  0.00     0.023 A 
ATOM     73  C   UNL A   1      37.804  30.985  30.603  1.00  0.00     0.031 A 
ATOM     74  C   UNL A   1      38.766  30.119  32.636  1.00  0.00     0.131 A 
ATOM     75  C   UNL A   1      36.717  31.461  31.351  1.00  0.00     0.055 A 
ATOM     76  C   UNL A   1      37.663  30.558  33.370  1.00  0.00     0.041 A 
ATOM     77  F   UNL A   1      39.742  29.475  33.295  1.00  0.00    -0.206 F 
ATOM     78  C   UNL A   1      36.634  31.243  32.728  1.00  0.00     0.022 A 
BRANCH  75  79
ATOM     79  S   UNL A   1      35.433  32.419  30.501  1.00  0.00     0.124 S 
ATOM     80  O   UNL A   1      35.166  31.588  29.332  1.00  0.00    -0.237 OA
ATOM     81  O   UNL A   1      34.377  32.469  31.507  1.00  0.00    -0.237 OA
ATOM     82  O   UNL A   1      36.088  33.695  30.224  1.00  0.00    -0.744 OA
ENDBRANCH  75  79
ENDBRANCH  48  72
BRANCH  60  83
ATOM     83  C   UNL A   1      44.829  33.324  29.267  1.00  0.00     0.023 A 
ATOM     84  C   UNL A   1      44.412  34.376  28.432  1.00  0.00     0.031 A 
ATOM     85  C   UNL A   1      45.780  33.609  30.263  1.00  0.00     0.131 A 
ATOM     86  C   UNL A   1      44.990  35.647  28.567  1.00  0.00     0.055 A 
ATOM     87  C   UNL A   1      46.307  34.889  30.433  1.00  0.00     0.041 A 
ATOM     88  F   UNL A   1      46.215  32.643  31.088  1.00  0.00    -0.206 F 
ATOM     89  C   UNL A   1      45.923  35.914  29.573  1.00  0.00     0.022 A 
BRANCH  86  90
ATOM     90  S   UNL A   1      44.581  36.925  27.347  1.00  0.00     0.124 S 
ATOM     91  O   UNL A   1      45.898  37.276  26.822  1.00  0.00    -0.237 OA
ATOM     92  O   UNL A   1      43.700  36.210  26.430  1.00  0.00    -0.237 OA
ATOM     93  O   UNL A   1      43.934  37.966  28.142  1.00  0.00    -0.744 OA
ENDBRANCH  86  90
ENDBRANCH  60  83
ENDBRANCH  34  35
ENDBRANCH  27  29
ENDBRANCH  26  27
ENDBRANCH  25  26
ENDBRANCH  24  25
ENDBRANCH  23  24
ENDBRANCH   1  23
TORSDOF 23
ENDMDL
MODEL 2
REMARK VINA RESULT:      -9.7      2.042      3.283
REMARK SMILES CCN(CC(C)(C)O)C(=O)[C@H]1CC=CC[C@H]1C(=O)OCCOCCOC(=O)c1ccc(-c2c3nc(c(-c4cc(S(=O)(=O)[O-])ccc4F)c4ccc([nH]4)c(-c4cc(S(=O)(=O)[O-])ccc4F)c4nc(c(-c5cc(S(=O)(=O)[O-])ccc5F)c5ccc2[nH]5)C=C4)C=C3)cc1
REMARK SMILES IDX 21 1 20 2 19 3 17 4 18 5 16 6 11 7 12 8 13 9 15 10 14 11
REMARK SMILES IDX 9 12 10 13 3 14 2 15 1 16 4 17 5 18 6 19 7 20 8 21 22 23
REMARK SMILES IDX 23 24 24 25 25 26 26 27 27 28 28 29 29 30 90 31 30 32 89 33
REMARK SMILES IDX 31 34 32 35 33 36 83 37 34 38 88 39 82 40 84 41 35 42 87 43
REMARK SMILES IDX 81 44 80 45 36 47 68 48 48 49 67 50 49 51 52 52 66 53 85 54
REMARK SMILES IDX 50 55 51 56 65 58 86 59 53 60 37 61 38 62 46 63 39 64 45 65
REMARK SMILES IDX 47 66 44 67 40 68 41 69 42 70 43 71 69 72 70 73 78 74 71 75
REMARK SMILES IDX 77 76 79 77 76 78 72 79 73 80 74 81 75 82 54 83 55 84 63 85
REMARK SMILES IDX 56 86 62 87 64 88 61 89 57 90 58 91 59 92 60 93
REMARK H PARENT 8 22 84 46 52 57
REMARK Flexibility Score: inf
ROOT
ATOM      1  C   UNL A   1      35.098  22.271  23.782  1.00  0.00     0.202 C 
ENDROOT
BRANCH   1   2
ATOM      2  C   UNL A   1      35.142  23.632  23.068  1.00  0.00     0.261 C 
BRANCH   2   3
ATOM      3  O   UNL A   1      34.755  24.786  23.843  1.00  0.00    -0.463 OA
BRANCH   3   4
ATOM      4  C   UNL A   1      33.591  25.344  23.433  1.00  0.00     0.310 C 
ATOM      5  O   UNL A   1      33.217  25.367  22.261  1.00  0.00    -0.252 OA
BRANCH   4   6
ATOM      6  C   UNL A   1      32.774  26.037  24.501  1.00  0.00     0.115 C 
ATOM      7  C   UNL A   1      33.397  26.900  25.613  1.00  0.00     0.097 C 
ATOM      8  C   UNL A   1      32.325  27.015  26.739  1.00  0.00     0.041 C 
ATOM      9  C   UNL A   1      30.926  27.273  26.226  1.00  0.00    -0.030 C 
ATOM     10  C   UNL A   1      31.552  26.709  23.869  1.00  0.00     0.043 C 
ATOM     11  C   UNL A   1      30.589  27.175  24.928  1.00  0.00    -0.030 C 
BRANCH   7  12
ATOM     12  C   UNL A   1      33.759  28.339  25.197  1.00  0.00     0.226 C 
ATOM     13  O   UNL A   1      34.233  28.557  24.078  1.00  0.00    -0.275 OA
BRANCH  12  14
ATOM     14  N   UNL A   1      33.548  29.388  26.074  1.00  0.00    -0.340 N 
BRANCH  14  15
ATOM     15  C   UNL A   1      32.521  30.386  25.714  1.00  0.00     0.116 C 
ATOM     16  C   UNL A   1      31.642  30.835  26.882  1.00  0.00     0.027 C 
ENDBRANCH  14  15
BRANCH  14  17
ATOM     17  C   UNL A   1      34.030  29.426  27.464  1.00  0.00     0.154 C 
BRANCH  17  18
ATOM     18  C   UNL A   1      35.454  30.038  27.678  1.00  0.00     0.077 C 
ATOM     19  C   UNL A   1      35.379  31.548  27.912  1.00  0.00     0.043 C 
ATOM     20  C   UNL A   1      36.176  29.416  28.883  1.00  0.00     0.043 C 
BRANCH  18  21
ATOM     21  O   UNL A   1      36.267  29.780  26.529  1.00  0.00    -0.389 OA
ATOM     22  H   UNL A   1      35.767  29.247  25.893  1.00  0.00     0.211 HD
ENDBRANCH  18  21
ENDBRANCH  17  18
ENDBRANCH  14  17
ENDBRANCH  12  14
ENDBRANCH   7  12
ENDBRANCH   4   6
ENDBRANCH   3   4
ENDBRANCH   2   3
ENDBRANCH   1   2
BRANCH   1  23
ATOM     23  O   UNL A   1      34.745  22.266  25.159  1.00  0.00    -0.374 OA
BRANCH  23  24
ATOM     24  C   UNL A   1      35.695  21.710  26.065  1.00  0.00     0.202 C 
BRANCH  24  25
ATOM     25  C   UNL A   1      36.930  21.062  25.426  1.00  0.00     0.261 C 
BRANCH  25  26
ATOM     26  O   UNL A   1      38.039  21.988  25.330  1.00  0.00    -0.460 OA
BRANCH  26  27
ATOM     27  C   UNL A   1      39.113  21.671  26.101  1.00  0.00     0.338 C 
ATOM     28  O   UNL A   1      39.637  20.567  26.175  1.00  0.00    -0.246 OA
BRANCH  27  29
ATOM     29  C   UNL A   1      39.674  22.859  26.782  1.00  0.00     0.060 A 
ATOM     30  C   UNL A   1      39.166  24.118  26.457  1.00  0.00     0.016 A 
ATOM     31  C   UNL A   1      40.778  22.769  27.632  1.00  0.00     0.016 A 
ATOM     32  C   UNL A   1      39.800  25.272  26.934  1.00  0.00     0.010 A 
ATOM     33  C   UNL A   1      41.374  23.915  28.159  1.00  0.00     0.010 A 
ATOM     34  C   UNL A   1      40.932  25.178  27.762  1.00  0.00    -0.014 A 
BRANCH  34  35
ATOM     35  C   UNL A   1      41.711  26.387  28.129  1.00  0.00     0.031 A 
ATOM     36  C   UNL A   1      43.097  26.597  27.573  1.00  0.00     0.074 A 
ATOM     37  C   UNL A   1      41.182  27.291  28.975  1.00  0.00     0.049 A 
ATOM     38  N   UNL A   1      43.885  27.638  27.673  1.00  0.00    -0.248 NA
ATOM     39  C   UNL A   1      43.687  25.473  26.829  1.00  0.00     0.031 C 
ATOM     40  C   UNL A   1      39.889  27.159  29.645  1.00  0.00     0.029 A 
ATOM     41  N   UNL A   1      41.664  28.499  29.407  1.00  0.00    -0.354 N 
ATOM     42  C   UNL A   1      45.058  27.298  27.006  1.00  0.00     0.074 A 
ATOM     43  C   UNL A   1      44.905  25.925  26.573  1.00  0.00     0.031 C 
ATOM     44  C   UNL A   1      39.661  28.264  30.373  1.00  0.00     0.029 A 
ATOM     45  C   UNL A   1      40.794  29.175  30.228  1.00  0.00     0.049 A 
ATOM     46  H   UNL A   1      42.549  28.850  29.154  1.00  0.00     0.167 HD
ATOM     47  C   UNL A   1      46.147  28.066  26.749  1.00  0.00     0.034 A 
ATOM     48  C   UNL A   1      40.887  30.401  30.778  1.00  0.00     0.034 A 
ATOM     49  C   UNL A   1      46.278  29.434  27.194  1.00  0.00     0.049 A 
ATOM     50  C   UNL A   1      42.092  31.251  30.468  1.00  0.00     0.074 A 
ATOM     51  C   UNL A   1      47.291  30.338  26.928  1.00  0.00     0.029 A 
ATOM     52  N   UNL A   1      45.373  30.089  28.020  1.00  0.00    -0.354 N 
ATOM     53  N   UNL A   1      43.141  30.964  29.732  1.00  0.00    -0.248 NA
ATOM     54  C   UNL A   1      42.107  32.603  31.039  1.00  0.00     0.031 C 
ATOM     55  C   UNL A   1      47.033  31.512  27.645  1.00  0.00     0.029 A 
ATOM     56  C   UNL A   1      45.820  31.371  28.300  1.00  0.00     0.049 A 
ATOM     57  H   UNL A   1      44.534  29.699  28.357  1.00  0.00     0.167 HD
ATOM     58  C   UNL A   1      43.926  32.115  29.725  1.00  0.00     0.074 A 
ATOM     59  C   UNL A   1      43.221  33.100  30.520  1.00  0.00     0.031 C 
ATOM     60  C   UNL A   1      45.115  32.339  29.108  1.00  0.00     0.034 A 
BRANCH  47  61
ATOM     61  C   UNL A   1      47.282  27.433  25.974  1.00  0.00     0.023 A 
ATOM     62  C   UNL A   1      48.273  26.662  26.611  1.00  0.00     0.031 A 
ATOM     63  C   UNL A   1      47.401  27.627  24.586  1.00  0.00     0.131 A 
ATOM     64  C   UNL A   1      49.380  26.196  25.884  1.00  0.00     0.055 A 
ATOM     65  C   UNL A   1      48.458  27.084  23.852  1.00  0.00     0.041 A 
ATOM     66  F   UNL A   1      46.500  28.366  23.919  1.00  0.00    -0.206 F 
ATOM     67  C   UNL A   1      49.466  26.379  24.503  1.00  0.00     0.022 A 
BRANCH  64  68
ATOM     68  S   UNL A   1      50.783  25.495  26.796  1.00  0.00     0.124 S 
ATOM     69  O   UNL A   1      51.686  25.122  25.709  1.00  0.00    -0.237 OA
ATOM     70  O   UNL A   1      51.211  26.614  27.626  1.00  0.00    -0.237 OA
ATOM     71  O   UNL A   1      50.195  24.369  27.519  1.00  0.00    -0.744 OA
ENDBRANCH  64  68
ENDBRANCH  47  61
BRANCH  48  72
ATOM     72  C   UNL A   1      39.782  30.920  31.629  1.00  0.00     0.023 A 
ATOM     73  C   UNL A   1      39.887  30.910  33.029  1.00  0.00     0.031 A 
ATOM     74  C   UNL A   1      38.604  31.432  31.056  1.00  0.00     0.131 A 
ATOM     75  C   UNL A   1      38.820  31.372  33.813  1.00  0.00     0.055 A 
ATOM     76  C   UNL A   1      37.561  31.928  31.840  1.00  0.00     0.041 A 
ATOM     77  F   UNL A   1      38.462  31.475  29.722  1.00  0.00    -0.206 F 
ATOM     78  C   UNL A   1      37.662  31.891  33.228  1.00  0.00     0.022 A 
BRANCH  75  79
ATOM     79  S   UNL A   1      38.947  31.236  35.617  1.00  0.00     0.124 S 
ATOM     80  O   UNL A   1      37.544  31.243  36.017  1.00  0.00    -0.237 OA
ATOM     81  O   UNL A   1      39.653  29.968  35.776  1.00  0.00    -0.237 OA
ATOM     82  O   UNL A   1      39.711  32.423  35.994  1.00  0.00    -0.744 OA
ENDBRANCH  75  79
ENDBRANCH  48  72
BRANCH  60  83
ATOM     83  C   UNL A   1      45.702  33.723  29.240  1.00  0.00     0.023 A 
ATOM     84  C   UNL A   1      45.404  34.746  28.322  1.00  0.00     0.031 A 
ATOM     85  C   UNL A   1      46.591  34.016  30.290  1.00  0.00     0.131 A 
ATOM     86  C   UNL A   1      46.037  35.993  28.435  1.00  0.00     0.055 A 
ATOM     87  C   UNL A   1      47.171  35.277  30.432  1.00  0.00     0.041 A 
ATOM     88  F   UNL A   1      46.913  33.077  31.194  1.00  0.00    -0.206 F 
ATOM     89  C   UNL A   1      46.906  36.270  29.494  1.00  0.00     0.022 A 
BRANCH  86  90
ATOM     90  S   UNL A   1      45.787  37.219  27.123  1.00  0.00     0.124 S 
ATOM     91  O   UNL A   1      46.556  36.646  26.022  1.00  0.00    -0.237 OA
ATOM     92  O   UNL A   1      44.337  37.211  26.960  1.00  0.00    -0.237 OA
ATOM     93  O   UNL A   1      46.339  38.448  27.690  1.00  0.00    -0.744 OA
ENDBRANCH  86  90
ENDBRANCH  60  83
ENDBRANCH  34  35
ENDBRANCH  27  29
ENDBRANCH  26  27
ENDBRANCH  25  26
ENDBRANCH  24  25
ENDBRANCH  23  24
ENDBRANCH   1  23
TORSDOF 23
ENDMDL
MODEL 3
REMARK VINA RESULT:      -9.3      1.962      3.168
REMARK SMILES CCN(CC(C)(C)O)C(=O)[C@H]1CC=CC[C@H]1C(=O)OCCOCCOC(=O)c1ccc(-c2c3nc(c(-c4cc(S(=O)(=O)[O-])ccc4F)c4ccc([nH]4)c(-c4cc(S(=O)(=O)[O-])ccc4F)c4nc(c(-c5cc(S(=O)(=O)[O-])ccc5F)c5ccc2[nH]5)C=C4)C=C3)cc1
REMARK SMILES IDX 21 1 20 2 19 3 17 4 18 5 16 6 11 7 12 8 13 9 15 10 14 11
REMARK SMILES IDX 9 12 10 13 3 14 2 15 1 16 4 17 5 18 6 19 7 20 8 21 22 23
REMARK SMILES IDX 23 24 24 25 25 26 26 27 27 28 28 29 29 30 90 31 30 32 89 33
REMARK SMILES IDX 31 34 32 35 33 36 83 37 34 38 88 39 82 40 84 41 35 42 87 43
REMARK SMILES IDX 81 44 80 45 36 47 68 48 48 49 67 50 49 51 52 52 66 53 85 54
REMARK SMILES IDX 50 55 51 56 65 58 86 59 53 60 37 61 38 62 46 63 39 64 45 65
REMARK SMILES IDX 47 66 44 67 40 68 41 69 42 70 43 71 69 72 70 73 78 74 71 75
REMARK SMILES IDX 77 76 79 77 76 78 72 79 73 80 74 81 75 82 54 83 55 84 63 85
REMARK SMILES IDX 56 86 62 87 64 88 61 89 57 90 58 91 59 92 60 93
REMARK H PARENT 8 22 84 46 52 57
REMARK Flexibility Score: inf
ROOT
ATOM      1  C   UNL A   1      35.458  22.216  23.755  1.00  0.00     0.202 C 
ENDROOT
BRANCH   1   2
ATOM      2  C   UNL A   1      35.132  23.448  22.896  1.00  0.00     0.261 C 
BRANCH   2   3
ATOM      3  O   UNL A   1      34.469  24.546  23.559  1.00  0.00    -0.463 OA
BRANCH   3   4
ATOM      4  C   UNL A   1      33.119  24.503  23.452  1.00  0.00     0.310 C 
ATOM      5  O   UNL A   1      32.521  23.894  22.566  1.00  0.00    -0.252 OA
BRANCH   4   6
ATOM      6  C   UNL A   1      32.348  25.333  24.454  1.00  0.00     0.115 C 
ATOM      7  C   UNL A   1      33.021  26.280  25.463  1.00  0.00     0.097 C 
ATOM      8  C   UNL A   1      31.972  26.551  26.585  1.00  0.00     0.041 C 
ATOM      9  C   UNL A   1      30.576  26.811  26.065  1.00  0.00    -0.030 C 
ATOM     10  C   UNL A   1      31.141  25.985  23.771  1.00  0.00     0.043 C 
ATOM     11  C   UNL A   1      30.215  26.594  24.789  1.00  0.00    -0.030 C 
BRANCH   7  12
ATOM     12  C   UNL A   1      33.430  27.654  24.897  1.00  0.00     0.226 C 
ATOM     13  O   UNL A   1      33.557  27.806  23.678  1.00  0.00    -0.275 OA
BRANCH  12  14
ATOM     14  N   UNL A   1      33.650  28.719  25.752  1.00  0.00    -0.340 N 
BRANCH  14  15
ATOM     15  C   UNL A   1      33.048  30.019  25.397  1.00  0.00     0.116 C 
ATOM     16  C   UNL A   1      31.560  30.136  25.728  1.00  0.00     0.027 C 
ENDBRANCH  14  15
BRANCH  14  17
ATOM     17  C   UNL A   1      34.163  28.595  27.126  1.00  0.00     0.154 C 
BRANCH  17  18
ATOM     18  C   UNL A   1      35.281  29.612  27.533  1.00  0.00     0.077 C 
ATOM     19  C   UNL A   1      35.604  29.515  29.025  1.00  0.00     0.043 C 
ATOM     20  C   UNL A   1      36.587  29.376  26.759  1.00  0.00     0.043 C 
BRANCH  18  21
ATOM     21  O   UNL A   1      34.854  30.944  27.230  1.00  0.00    -0.389 OA
ATOM     22  H   UNL A   1      34.691  31.022  26.277  1.00  0.00     0.211 HD
ENDBRANCH  18  21
ENDBRANCH  17  18
ENDBRANCH  14  17
ENDBRANCH  12  14
ENDBRANCH   7  12
ENDBRANCH   4   6
ENDBRANCH   3   4
ENDBRANCH   2   3
ENDBRANCH   1   2
BRANCH   1  23
ATOM     23  O   UNL A   1      35.041  22.236  25.114  1.00  0.00    -0.374 OA
BRANCH  23  24
ATOM     24  C   UNL A   1      35.985  21.786  26.084  1.00  0.00     0.202 C 
BRANCH  24  25
ATOM     25  C   UNL A   1      37.200  21.029  25.534  1.00  0.00     0.261 C 
BRANCH  25  26
ATOM     26  O   UNL A   1      38.329  21.907  25.310  1.00  0.00    -0.460 OA
BRANCH  26  27
ATOM     27  C   UNL A   1      39.369  21.727  26.167  1.00  0.00     0.338 C 
ATOM     28  O   UNL A   1      40.017  20.696  26.296  1.00  0.00    -0.246 OA
BRANCH  27  29
ATOM     29  C   UNL A   1      39.723  22.977  26.876  1.00  0.00     0.060 A 
ATOM     30  C   UNL A   1      39.129  24.171  26.463  1.00  0.00     0.016 A 
ATOM     31  C   UNL A   1      40.727  23.016  27.846  1.00  0.00     0.016 A 
ATOM     32  C   UNL A   1      39.583  25.391  26.978  1.00  0.00     0.010 A 
ATOM     33  C   UNL A   1      41.138  24.225  28.406  1.00  0.00     0.010 A 
ATOM     34  C   UNL A   1      40.617  25.429  27.928  1.00  0.00    -0.014 A 
BRANCH  34  35
ATOM     35  C   UNL A   1      41.220  26.719  28.349  1.00  0.00     0.031 A 
ATOM     36  C   UNL A   1      42.647  27.045  27.983  1.00  0.00     0.074 A 
ATOM     37  C   UNL A   1      40.495  27.591  29.073  1.00  0.00     0.049 A 
ATOM     38  N   UNL A   1      43.313  28.161  28.147  1.00  0.00    -0.248 NA
ATOM     39  C   UNL A   1      43.438  25.963  27.377  1.00  0.00     0.031 C 
ATOM     40  C   UNL A   1      39.138  27.353  29.561  1.00  0.00     0.029 A 
ATOM     41  N   UNL A   1      40.797  28.853  29.516  1.00  0.00    -0.354 N 
ATOM     42  C   UNL A   1      44.596  27.917  27.665  1.00  0.00     0.074 A 
ATOM     43  C   UNL A   1      44.634  26.523  27.275  1.00  0.00     0.031 C 
ATOM     44  C   UNL A   1      38.707  28.452  30.202  1.00  0.00     0.029 A 
ATOM     45  C   UNL A   1      39.760  29.464  30.178  1.00  0.00     0.049 A 
ATOM     46  H   UNL A   1      41.673  29.280  29.374  1.00  0.00     0.167 HD
ATOM     47  C   UNL A   1      45.635  28.779  27.531  1.00  0.00     0.034 A 
ATOM     48  C   UNL A   1      39.661  30.709  30.682  1.00  0.00     0.034 A 
ATOM     49  C   UNL A   1      45.575  30.166  27.930  1.00  0.00     0.049 A 
ATOM     50  C   UNL A   1      40.814  31.663  30.507  1.00  0.00     0.074 A 
ATOM     51  C   UNL A   1      46.528  31.156  27.770  1.00  0.00     0.029 A 
ATOM     52  N   UNL A   1      44.504  30.754  28.593  1.00  0.00    -0.354 N 
ATOM     53  N   UNL A   1      41.980  31.457  29.938  1.00  0.00    -0.248 NA
ATOM     54  C   UNL A   1      40.623  33.027  31.017  1.00  0.00     0.031 C 
ATOM     55  C   UNL A   1      46.063  32.320  28.393  1.00  0.00     0.029 A 
ATOM     56  C   UNL A   1      44.787  32.081  28.878  1.00  0.00     0.049 A 
ATOM     57  H   UNL A   1      43.665  30.294  28.827  1.00  0.00     0.167 HD
ATOM     58  C   UNL A   1      42.648  32.678  29.992  1.00  0.00     0.074 A 
ATOM     59  C   UNL A   1      41.749  33.614  30.638  1.00  0.00     0.031 C 
ATOM     60  C   UNL A   1      43.887  32.999  29.538  1.00  0.00     0.034 A 
BRANCH  47  61
ATOM     61  C   UNL A   1      46.923  28.237  26.949  1.00  0.00     0.023 A 
ATOM     62  C   UNL A   1      47.176  28.259  25.564  1.00  0.00     0.031 A 
ATOM     63  C   UNL A   1      47.899  27.658  27.780  1.00  0.00     0.131 A 
ATOM     64  C   UNL A   1      48.321  27.634  25.047  1.00  0.00     0.055 A 
ATOM     65  C   UNL A   1      49.080  27.117  27.266  1.00  0.00     0.041 A 
ATOM     66  F   UNL A   1      47.714  27.589  29.108  1.00  0.00    -0.206 F 
ATOM     67  C   UNL A   1      49.288  27.086  25.890  1.00  0.00     0.022 A 
BRANCH  64  68
ATOM     68  S   UNL A   1      48.444  27.401  23.252  1.00  0.00     0.124 S 
ATOM     69  O   UNL A   1      47.273  28.136  22.778  1.00  0.00    -0.237 OA
ATOM     70  O   UNL A   1      49.739  27.995  22.944  1.00  0.00    -0.237 OA
ATOM     71  O   UNL A   1      48.366  25.951  23.087  1.00  0.00    -0.744 OA
ENDBRANCH  64  68
ENDBRANCH  47  61
BRANCH  48  72
ATOM     72  C   UNL A   1      38.402  31.143  31.348  1.00  0.00     0.023 A 
ATOM     73  C   UNL A   1      37.428  31.866  30.642  1.00  0.00     0.031 A 
ATOM     74  C   UNL A   1      38.155  30.842  32.699  1.00  0.00     0.131 A 
ATOM     75  C   UNL A   1      36.264  32.295  31.298  1.00  0.00     0.055 A 
ATOM     76  C   UNL A   1      36.977  31.235  33.336  1.00  0.00     0.041 A 
ATOM     77  F   UNL A   1      39.050  30.141  33.412  1.00  0.00    -0.206 F 
ATOM     78  C   UNL A   1      36.027  31.975  32.637  1.00  0.00     0.022 A 
BRANCH  75  79
ATOM     79  S   UNL A   1      35.084  33.325  30.385  1.00  0.00     0.124 S 
ATOM     80  O   UNL A   1      34.291  33.901  31.465  1.00  0.00    -0.237 OA
ATOM     81  O   UNL A   1      35.969  34.245  29.677  1.00  0.00    -0.237 OA
ATOM     82  O   UNL A   1      34.381  32.366  29.536  1.00  0.00    -0.744 OA
ENDBRANCH  75  79
ENDBRANCH  48  72
BRANCH  60  83
ATOM     83  C   UNL A   1      44.319  34.437  29.690  1.00  0.00     0.023 A 
ATOM     84  C   UNL A   1      44.331  35.328  28.603  1.00  0.00     0.031 A 
ATOM     85  C   UNL A   1      44.746  34.917  30.943  1.00  0.00     0.131 A 
ATOM     86  C   UNL A   1      44.820  36.633  28.773  1.00  0.00     0.055 A 
ATOM     87  C   UNL A   1      45.173  36.233  31.119  1.00  0.00     0.041 A 
ATOM     88  F   UNL A   1      44.757  34.110  32.016  1.00  0.00    -0.206 F 
ATOM     89  C   UNL A   1      45.225  37.095  30.028  1.00  0.00     0.022 A 
BRANCH  86  90
ATOM     90  S   UNL A   1      45.013  37.688  27.311  1.00  0.00     0.124 S 
ATOM     91  O   UNL A   1      43.650  38.170  27.102  1.00  0.00    -0.237 OA
ATOM     92  O   UNL A   1      45.977  38.682  27.769  1.00  0.00    -0.237 OA
ATOM     93  O   UNL A   1      45.508  36.770  26.287  1.00  0.00    -0.744 OA
ENDBRANCH  86  90
ENDBRANCH  60  83
ENDBRANCH  34  35
ENDBRANCH  27  29
ENDBRANCH  26  27
ENDBRANCH  25  26
ENDBRANCH  24  25
ENDBRANCH  23  24
ENDBRANCH   1  23
TORSDOF 23
ENDMDL
