MODEL 1
REMARK VINA RESULT:     -10.4      0.000      0.000
REMARK SMILES CCC(CC)COc1cc2c(cc1Cl)C=C(C(=O)OCCOCCOC(=O)c1ccc(-c3c4nc(c(-c5cc(S(=O)(=O)[O-])ccc5F)c5ccc([nH]5)c(-c5cc(S(=O)(=O)[O-])ccc5F)c5nc(c(-c6cc(S(=O)(=O)[O-])ccc6F)c6ccc3[nH]6)C=C5)C=C4)cc1)[C@@H](C(F)(F)F)O2
REMARK SMILES IDX 21 1 20 2 19 3 17 4 18 5 16 6 8 7 9 8 13 9 10 10 12 11 14 12
REMARK SMILES IDX 11 13 96 14 15 15 91 16 7 17 6 18 3 19 2 20 1 21 4 22 5 23
REMARK SMILES IDX 92 24 93 25 94 26 95 27 22 28 23 29 24 30 25 31 26 32 27 33
REMARK SMILES IDX 28 34 29 35 90 36 30 37 89 38 31 39 32 40 33 41 83 42 34 43
REMARK SMILES IDX 88 44 82 45 84 46 35 47 87 48 81 49 80 50 36 52 68 53 48 54
REMARK SMILES IDX 67 55 49 56 52 57 66 58 85 59 50 60 51 61 65 63 86 64 53 65
REMARK SMILES IDX 37 66 38 67 46 68 39 69 45 70 47 71 44 72 40 73 41 74 42 75
REMARK SMILES IDX 43 76 69 77 70 78 78 79 71 80 77 81 79 82 76 83 72 84 73 85
REMARK SMILES IDX 74 86 75 87 54 88 55 89 63 90 56 91 62 92 64 93 61 94 57 95
REMARK SMILES IDX 58 96 59 97 60 98
REMARK H PARENT 84 51 52 62
REMARK Flexibility Score: inf
ROOT
ATOM      1  C   UNL A   1      32.005  29.867  25.668  1.00  0.00     0.202 C 
ENDROOT
BRANCH   1   2
ATOM      2  C   UNL A   1      31.987  28.529  24.921  1.00  0.00     0.261 C 
BRANCH   2   3
ATOM      3  O   UNL A   1      30.762  27.799  25.101  1.00  0.00    -0.460 OA
BRANCH   3   4
ATOM      4  C   UNL A   1      30.344  27.176  23.977  1.00  0.00     0.338 C 
ATOM      5  O   UNL A   1      29.886  27.710  22.976  1.00  0.00    -0.246 OA
BRANCH   4   6
ATOM      6  C   UNL A   1      30.626  25.733  24.027  1.00  0.00     0.087 C 
ATOM      7  C   UNL A   1      32.617  21.554  25.835  1.00  0.00     0.141 A 
ATOM      8  C   UNL A   1      32.108  21.869  24.565  1.00  0.00     0.095 A 
ATOM      9  C   UNL A   1      32.618  22.529  26.840  1.00  0.00     0.083 A 
ATOM     10  C   UNL A   1      31.517  23.121  24.355  1.00  0.00     0.131 A 
ATOM     11  C   UNL A   1      31.869  23.686  26.680  1.00  0.00     0.036 A 
ATOM     12  Cl  UNL A   1      33.567  22.402  28.276  1.00  0.00    -0.080 Cl
ATOM     13  C   UNL A   1      31.308  23.971  25.441  1.00  0.00     0.019 A 
ATOM     14  O   UNL A   1      31.167  23.496  23.080  1.00  0.00    -0.475 OA
ATOM     15  C   UNL A   1      30.635  25.236  25.268  1.00  0.00     0.027 C 
ATOM     16  C   UNL A   1      31.084  24.948  22.830  1.00  0.00     0.316 C 
BRANCH   7  17
ATOM     17  O   UNL A   1      33.201  20.333  26.057  1.00  0.00    -0.492 OA
BRANCH  17  18
ATOM     18  C   UNL A   1      33.623  19.660  24.844  1.00  0.00     0.233 C 
BRANCH  18  19
ATOM     19  C   UNL A   1      33.786  18.125  25.015  1.00  0.00     0.026 C 
BRANCH  19  20
ATOM     20  C   UNL A   1      32.413  17.413  25.056  1.00  0.00     0.003 C 
ATOM     21  C   UNL A   1      32.454  16.074  25.781  1.00  0.00     0.004 C 
ENDBRANCH  19  20
BRANCH  19  22
ATOM     22  C   UNL A   1      34.729  17.492  23.967  1.00  0.00     0.003 C 
ATOM     23  C   UNL A   1      34.052  16.774  22.812  1.00  0.00     0.004 C 
ENDBRANCH  19  22
ENDBRANCH  18  19
ENDBRANCH  17  18
ENDBRANCH   7  17
BRANCH  16  24
ATOM     24  C   UNL A   1      32.413  25.499  22.289  1.00  0.00     0.430 C 
ATOM     25  F   UNL A   1      33.219  24.509  21.842  1.00  0.00    -0.167 F 
ATOM     26  F   UNL A   1      32.204  26.341  21.249  1.00  0.00    -0.167 F 
ATOM     27  F   UNL A   1      33.097  26.187  23.232  1.00  0.00    -0.167 F 
ENDBRANCH  16  24
ENDBRANCH   4   6
ENDBRANCH   3   4
ENDBRANCH   2   3
ENDBRANCH   1   2
BRANCH   1  28
ATOM     28  O   UNL A   1      33.251  30.374  26.137  1.00  0.00    -0.374 OA
BRANCH  28  29
ATOM     29  C   UNL A   1      33.293  31.109  27.355  1.00  0.00     0.202 C 
BRANCH  29  30
ATOM     30  C   UNL A   1      32.593  32.471  27.451  1.00  0.00     0.261 C 
BRANCH  30  31
ATOM     31  O   UNL A   1      33.489  33.577  27.631  1.00  0.00    -0.460 OA
BRANCH  31  32
ATOM     32  C   UNL A   1      33.513  34.080  28.894  1.00  0.00     0.338 C 
ATOM     33  O   UNL A   1      32.618  34.679  29.462  1.00  0.00    -0.246 OA
BRANCH  32  34
ATOM     34  C   UNL A   1      34.737  33.621  29.578  1.00  0.00     0.060 A 
ATOM     35  C   UNL A   1      34.679  32.647  30.572  1.00  0.00     0.016 A 
ATOM     36  C   UNL A   1      35.969  34.145  29.160  1.00  0.00     0.016 A 
ATOM     37  C   UNL A   1      35.867  32.175  31.132  1.00  0.00     0.010 A 
ATOM     38  C   UNL A   1      37.155  33.668  29.718  1.00  0.00     0.010 A 
ATOM     39  C   UNL A   1      37.114  32.664  30.695  1.00  0.00    -0.014 A 
BRANCH  39  40
ATOM     40  C   UNL A   1      38.363  32.009  31.158  1.00  0.00     0.031 A 
ATOM     41  C   UNL A   1      39.012  32.377  32.457  1.00  0.00     0.074 A 
ATOM     42  C   UNL A   1      38.910  31.060  30.373  1.00  0.00     0.049 A 
ATOM     43  N   UNL A   1      40.020  31.800  33.057  1.00  0.00    -0.248 NA
ATOM     44  C   UNL A   1      38.472  33.542  33.171  1.00  0.00     0.031 C 
ATOM     45  C   UNL A   1      38.393  30.675  29.059  1.00  0.00     0.029 A 
ATOM     46  N   UNL A   1      39.996  30.244  30.559  1.00  0.00    -0.354 N 
ATOM     47  C   UNL A   1      40.224  32.512  34.232  1.00  0.00     0.074 A 
ATOM     48  C   UNL A   1      39.272  33.603  34.229  1.00  0.00     0.031 C 
ATOM     49  C   UNL A   1      39.132  29.665  28.578  1.00  0.00     0.029 A 
ATOM     50  C   UNL A   1      40.197  29.352  29.529  1.00  0.00     0.049 A 
ATOM     51  H   UNL A   1      40.577  30.290  31.352  1.00  0.00     0.167 HD
ATOM     52  C   UNL A   1      41.110  32.258  35.225  1.00  0.00     0.034 A 
ATOM     53  C   UNL A   1      41.121  28.382  29.372  1.00  0.00     0.034 A 
ATOM     54  C   UNL A   1      42.060  31.171  35.193  1.00  0.00     0.049 A 
ATOM     55  C   UNL A   1      42.099  28.122  30.488  1.00  0.00     0.074 A 
ATOM     56  C   UNL A   1      42.965  30.802  36.173  1.00  0.00     0.029 A 
ATOM     57  N   UNL A   1      42.240  30.291  34.135  1.00  0.00    -0.354 N 
ATOM     58  N   UNL A   1      42.199  28.724  31.651  1.00  0.00    -0.248 NA
ATOM     59  C   UNL A   1      43.074  27.042  30.290  1.00  0.00     0.031 C 
ATOM     60  C   UNL A   1      43.746  29.759  35.677  1.00  0.00     0.029 A 
ATOM     61  C   UNL A   1      43.264  29.403  34.427  1.00  0.00     0.049 A 
ATOM     62  H   UNL A   1      41.718  30.296  33.301  1.00  0.00     0.167 HD
ATOM     63  C   UNL A   1      43.223  28.073  32.335  1.00  0.00     0.074 A 
ATOM     64  C   UNL A   1      43.695  27.019  31.463  1.00  0.00     0.031 C 
ATOM     65  C   UNL A   1      43.721  28.333  33.570  1.00  0.00     0.034 A 
BRANCH  52  66
ATOM     66  C   UNL A   1      41.095  33.131  36.457  1.00  0.00     0.023 A 
ATOM     67  C   UNL A   1      40.303  32.776  37.566  1.00  0.00     0.031 A 
ATOM     68  C   UNL A   1      41.726  34.388  36.469  1.00  0.00     0.131 A 
ATOM     69  C   UNL A   1      40.124  33.686  38.616  1.00  0.00     0.055 A 
ATOM     70  C   UNL A   1      41.584  35.271  37.540  1.00  0.00     0.041 A 
ATOM     71  F   UNL A   1      42.485  34.780  35.433  1.00  0.00    -0.206 F 
ATOM     72  C   UNL A   1      40.767  34.929  38.612  1.00  0.00     0.022 A 
BRANCH  69  73
ATOM     73  S   UNL A   1      38.983  33.332  39.981  1.00  0.00     0.124 S 
ATOM     74  O   UNL A   1      39.092  34.548  40.785  1.00  0.00    -0.237 OA
ATOM     75  O   UNL A   1      37.714  33.160  39.281  1.00  0.00    -0.237 OA
ATOM     76  O   UNL A   1      39.534  32.130  40.597  1.00  0.00    -0.744 OA
ENDBRANCH  69  73
ENDBRANCH  52  66
BRANCH  53  77
ATOM     77  C   UNL A   1      41.085  27.544  28.137  1.00  0.00     0.023 A 
ATOM     78  C   UNL A   1      40.605  26.222  28.177  1.00  0.00     0.031 A 
ATOM     79  C   UNL A   1      41.639  28.008  26.932  1.00  0.00     0.131 A 
ATOM     80  C   UNL A   1      40.758  25.390  27.061  1.00  0.00     0.055 A 
ATOM     81  C   UNL A   1      41.715  27.199  25.795  1.00  0.00     0.041 A 
ATOM     82  F   UNL A   1      42.129  29.255  26.847  1.00  0.00    -0.206 F 
ATOM     83  C   UNL A   1      41.290  25.876  25.863  1.00  0.00     0.022 A 
BRANCH  80  84
ATOM     84  S   UNL A   1      40.407  23.613  27.174  1.00  0.00     0.124 S 
ATOM     85  O   UNL A   1      38.966  23.601  27.400  1.00  0.00    -0.237 OA
ATOM     86  O   UNL A   1      40.845  23.141  25.863  1.00  0.00    -0.237 OA
ATOM     87  O   UNL A   1      41.227  23.170  28.298  1.00  0.00    -0.744 OA
ENDBRANCH  80  84
ENDBRANCH  53  77
BRANCH  65  88
ATOM     88  C   UNL A   1      44.835  27.461  34.107  1.00  0.00     0.023 A 
ATOM     89  C   UNL A   1      44.517  26.285  34.818  1.00  0.00     0.031 A 
ATOM     90  C   UNL A   1      46.178  27.870  34.073  1.00  0.00     0.131 A 
ATOM     91  C   UNL A   1      45.519  25.594  35.509  1.00  0.00     0.055 A 
ATOM     92  C   UNL A   1      47.183  27.141  34.714  1.00  0.00     0.041 A 
ATOM     93  F   UNL A   1      46.535  28.990  33.424  1.00  0.00    -0.206 F 
ATOM     94  C   UNL A   1      46.853  26.008  35.451  1.00  0.00     0.022 A 
BRANCH  91  95
ATOM     95  S   UNL A   1      45.113  24.197  36.596  1.00  0.00     0.124 S 
ATOM     96  O   UNL A   1      46.426  23.596  36.818  1.00  0.00    -0.237 OA
ATOM     97  O   UNL A   1      44.532  24.871  37.754  1.00  0.00    -0.237 OA
ATOM     98  O   UNL A   1      44.187  23.393  35.806  1.00  0.00    -0.744 OA
ENDBRANCH  91  95
ENDBRANCH  65  88
ENDBRANCH  39  40
ENDBRANCH  32  34
ENDBRANCH  31  32
ENDBRANCH  30  31
ENDBRANCH  29  30
ENDBRANCH  28  29
ENDBRANCH   1  28
TORSDOF 23
ENDMDL
MODEL 2
REMARK VINA RESULT:     -10.0      5.051     10.102
REMARK SMILES CCC(CC)COc1cc2c(cc1Cl)C=C(C(=O)OCCOCCOC(=O)c1ccc(-c3c4nc(c(-c5cc(S(=O)(=O)[O-])ccc5F)c5ccc([nH]5)c(-c5cc(S(=O)(=O)[O-])ccc5F)c5nc(c(-c6cc(S(=O)(=O)[O-])ccc6F)c6ccc3[nH]6)C=C5)C=C4)cc1)[C@@H](C(F)(F)F)O2
REMARK SMILES IDX 21 1 20 2 19 3 17 4 18 5 16 6 8 7 9 8 13 9 10 10 12 11 14 12
REMARK SMILES IDX 11 13 96 14 15 15 91 16 7 17 6 18 3 19 2 20 1 21 4 22 5 23
REMARK SMILES IDX 92 24 93 25 94 26 95 27 22 28 23 29 24 30 25 31 26 32 27 33
REMARK SMILES IDX 28 34 29 35 90 36 30 37 89 38 31 39 32 40 33 41 83 42 34 43
REMARK SMILES IDX 88 44 82 45 84 46 35 47 87 48 81 49 80 50 36 52 68 53 48 54
REMARK SMILES IDX 67 55 49 56 52 57 66 58 85 59 50 60 51 61 65 63 86 64 53 65
REMARK SMILES IDX 37 66 38 67 46 68 39 69 45 70 47 71 44 72 40 73 41 74 42 75
REMARK SMILES IDX 43 76 69 77 70 78 78 79 71 80 77 81 79 82 76 83 72 84 73 85
REMARK SMILES IDX 74 86 75 87 54 88 55 89 63 90 56 91 62 92 64 93 61 94 57 95
REMARK SMILES IDX 58 96 59 97 60 98
REMARK H PARENT 84 51 52 62
REMARK Flexibility Score: inf
ROOT
ATOM      1  C   UNL A   1      37.852  20.288  25.250  1.00  0.00     0.202 C 
ENDROOT
BRANCH   1   2
ATOM      2  C   UNL A   1      36.499  19.680  24.861  1.00  0.00     0.261 C 
BRANCH   2   3
ATOM      3  O   UNL A   1      35.423  20.632  24.892  1.00  0.00    -0.460 OA
BRANCH   3   4
ATOM      4  C   UNL A   1      34.207  20.066  24.730  1.00  0.00     0.338 C 
ATOM      5  O   UNL A   1      33.942  18.874  24.813  1.00  0.00    -0.246 OA
BRANCH   4   6
ATOM      6  C   UNL A   1      33.159  21.084  24.564  1.00  0.00     0.087 C 
ATOM      7  C   UNL A   1      31.250  25.448  23.145  1.00  0.00     0.141 A 
ATOM      8  C   UNL A   1      30.813  24.503  24.088  1.00  0.00     0.095 A 
ATOM      9  C   UNL A   1      32.432  25.216  22.432  1.00  0.00     0.083 A 
ATOM     10  C   UNL A   1      31.513  23.298  24.224  1.00  0.00     0.131 A 
ATOM     11  C   UNL A   1      33.005  23.954  22.437  1.00  0.00     0.036 A 
ATOM     12  Cl  UNL A   1      33.273  26.455  21.573  1.00  0.00    -0.080 Cl
ATOM     13  C   UNL A   1      32.533  22.992  23.323  1.00  0.00     0.019 A 
ATOM     14  O   UNL A   1      31.190  22.444  25.251  1.00  0.00    -0.475 OA
ATOM     15  C   UNL A   1      33.222  21.726  23.392  1.00  0.00     0.027 C 
ATOM     16  C   UNL A   1      32.255  21.518  25.684  1.00  0.00     0.316 C 
BRANCH   7  17
ATOM     17  O   UNL A   1      30.578  26.635  23.001  1.00  0.00    -0.492 OA
BRANCH  17  18
ATOM     18  C   UNL A   1      30.097  27.188  24.252  1.00  0.00     0.233 C 
BRANCH  18  19
ATOM     19  C   UNL A   1      31.061  28.236  24.875  1.00  0.00     0.026 C 
BRANCH  19  20
ATOM     20  C   UNL A   1      31.906  27.616  26.013  1.00  0.00     0.003 C 
ATOM     21  C   UNL A   1      31.391  27.970  27.402  1.00  0.00     0.004 C 
ENDBRANCH  19  20
BRANCH  19  22
ATOM     22  C   UNL A   1      31.944  28.950  23.827  1.00  0.00     0.003 C 
ATOM     23  C   UNL A   1      33.417  29.080  24.177  1.00  0.00     0.004 C 
ENDBRANCH  19  22
ENDBRANCH  18  19
ENDBRANCH  17  18
ENDBRANCH   7  17
BRANCH  16  24
ATOM     24  C   UNL A   1      33.069  22.108  26.848  1.00  0.00     0.430 C 
ATOM     25  F   UNL A   1      34.014  22.970  26.410  1.00  0.00    -0.167 F 
ATOM     26  F   UNL A   1      32.271  22.792  27.702  1.00  0.00    -0.167 F 
ATOM     27  F   UNL A   1      33.694  21.146  27.566  1.00  0.00    -0.167 F 
ENDBRANCH  16  24
ENDBRANCH   4   6
ENDBRANCH   3   4
ENDBRANCH   2   3
ENDBRANCH   1   2
BRANCH   1  28
ATOM     28  O   UNL A   1      39.039  19.550  24.974  1.00  0.00    -0.374 OA
BRANCH  28  29
ATOM     29  C   UNL A   1      40.038  19.433  25.982  1.00  0.00     0.202 C 
BRANCH  29  30
ATOM     30  C   UNL A   1      40.425  20.658  26.821  1.00  0.00     0.261 C 
BRANCH  30  31
ATOM     31  O   UNL A   1      40.552  21.869  26.063  1.00  0.00    -0.460 OA
BRANCH  31  32
ATOM     32  C   UNL A   1      41.807  22.393  26.048  1.00  0.00     0.338 C 
ATOM     33  O   UNL A   1      42.771  21.969  25.436  1.00  0.00    -0.246 OA
BRANCH  32  34
ATOM     34  C   UNL A   1      41.801  23.694  26.742  1.00  0.00     0.060 A 
ATOM     35  C   UNL A   1      41.987  23.771  28.121  1.00  0.00     0.016 A 
ATOM     36  C   UNL A   1      41.666  24.858  25.973  1.00  0.00     0.016 A 
ATOM     37  C   UNL A   1      42.065  25.025  28.729  1.00  0.00     0.010 A 
ATOM     38  C   UNL A   1      41.748  26.111  26.582  1.00  0.00     0.010 A 
ATOM     39  C   UNL A   1      41.968  26.203  27.963  1.00  0.00    -0.014 A 
BRANCH  39  40
ATOM     40  C   UNL A   1      42.253  27.516  28.596  1.00  0.00     0.031 A 
ATOM     41  C   UNL A   1      43.652  28.023  28.764  1.00  0.00     0.074 A 
ATOM     42  C   UNL A   1      41.209  28.253  29.023  1.00  0.00     0.049 A 
ATOM     43  N   UNL A   1      44.049  29.201  29.169  1.00  0.00    -0.248 NA
ATOM     44  C   UNL A   1      44.746  27.093  28.449  1.00  0.00     0.031 C 
ATOM     45  C   UNL A   1      39.812  27.821  28.966  1.00  0.00     0.029 A 
ATOM     46  N   UNL A   1      41.149  29.510  29.570  1.00  0.00    -0.354 N 
ATOM     47  C   UNL A   1      45.438  29.169  29.135  1.00  0.00     0.074 A 
ATOM     48  C   UNL A   1      45.814  27.831  28.729  1.00  0.00     0.031 C 
ATOM     49  C   UNL A   1      39.030  28.814  29.413  1.00  0.00     0.029 A 
ATOM     50  C   UNL A   1      39.866  29.939  29.822  1.00  0.00     0.049 A 
ATOM     51  H   UNL A   1      41.948  30.053  29.763  1.00  0.00     0.167 HD
ATOM     52  C   UNL A   1      46.307  30.173  29.398  1.00  0.00     0.034 A 
ATOM     53  C   UNL A   1      39.410  31.111  30.312  1.00  0.00     0.034 A 
ATOM     54  C   UNL A   1      45.903  31.494  29.818  1.00  0.00     0.049 A 
ATOM     55  C   UNL A   1      40.398  32.211  30.601  1.00  0.00     0.074 A 
ATOM     56  C   UNL A   1      46.707  32.594  30.061  1.00  0.00     0.029 A 
ATOM     57  N   UNL A   1      44.598  31.895  30.069  1.00  0.00    -0.354 N 
ATOM     58  N   UNL A   1      41.701  32.208  30.446  1.00  0.00    -0.248 NA
ATOM     59  C   UNL A   1      39.861  33.479  31.111  1.00  0.00     0.031 C 
ATOM     60  C   UNL A   1      45.903  33.628  30.537  1.00  0.00     0.029 A 
ATOM     61  C   UNL A   1      44.581  33.214  30.495  1.00  0.00     0.049 A 
ATOM     62  H   UNL A   1      43.802  31.327  29.959  1.00  0.00     0.167 HD
ATOM     63  C   UNL A   1      42.135  33.482  30.803  1.00  0.00     0.074 A 
ATOM     64  C   UNL A   1      40.952  34.234  31.163  1.00  0.00     0.031 C 
ATOM     65  C   UNL A   1      43.399  33.975  30.831  1.00  0.00     0.034 A 
BRANCH  52  66
ATOM     66  C   UNL A   1      47.786  29.925  29.217  1.00  0.00     0.023 A 
ATOM     67  C   UNL A   1      48.324  29.775  27.923  1.00  0.00     0.031 A 
ATOM     68  C   UNL A   1      48.625  29.671  30.317  1.00  0.00     0.131 A 
ATOM     69  C   UNL A   1      49.645  29.336  27.764  1.00  0.00     0.055 A 
ATOM     70  C   UNL A   1      49.954  29.281  30.152  1.00  0.00     0.041 A 
ATOM     71  F   UNL A   1      48.159  29.790  31.571  1.00  0.00    -0.206 F 
ATOM     72  C   UNL A   1      50.465  29.096  28.872  1.00  0.00     0.022 A 
BRANCH  69  73
ATOM     73  S   UNL A   1      50.321  28.974  26.120  1.00  0.00     0.124 S 
ATOM     74  O   UNL A   1      50.898  30.264  25.745  1.00  0.00    -0.237 OA
ATOM     75  O   UNL A   1      51.288  27.921  26.414  1.00  0.00    -0.237 OA
ATOM     76  O   UNL A   1      49.157  28.566  25.343  1.00  0.00    -0.744 OA
ENDBRANCH  69  73
ENDBRANCH  52  66
BRANCH  53  77
ATOM     77  C   UNL A   1      37.938  31.305  30.465  1.00  0.00     0.023 A 
ATOM     78  C   UNL A   1      37.118  31.513  29.340  1.00  0.00     0.031 A 
ATOM     79  C   UNL A   1      37.350  31.407  31.737  1.00  0.00     0.131 A 
ATOM     80  C   UNL A   1      35.779  31.885  29.512  1.00  0.00     0.055 A 
ATOM     81  C   UNL A   1      35.994  31.698  31.902  1.00  0.00     0.041 A 
ATOM     82  F   UNL A   1      38.093  31.238  32.842  1.00  0.00    -0.206 F 
ATOM     83  C   UNL A   1      35.206  31.959  30.785  1.00  0.00     0.022 A 
BRANCH  80  84
ATOM     84  S   UNL A   1      34.779  32.428  28.099  1.00  0.00     0.124 S 
ATOM     85  O   UNL A   1      35.542  33.568  27.605  1.00  0.00    -0.237 OA
ATOM     86  O   UNL A   1      34.797  31.239  27.250  1.00  0.00    -0.237 OA
ATOM     87  O   UNL A   1      33.484  32.744  28.694  1.00  0.00    -0.744 OA
ENDBRANCH  80  84
ENDBRANCH  53  77
BRANCH  65  88
ATOM     88  C   UNL A   1      43.613  35.416  31.241  1.00  0.00     0.023 A 
ATOM     89  C   UNL A   1      43.592  36.430  30.262  1.00  0.00     0.031 A 
ATOM     90  C   UNL A   1      44.006  35.764  32.545  1.00  0.00     0.131 A 
ATOM     91  C   UNL A   1      44.008  37.726  30.588  1.00  0.00     0.055 A 
ATOM     92  C   UNL A   1      44.362  37.073  32.879  1.00  0.00     0.041 A 
ATOM     93  F   UNL A   1      44.059  34.835  33.513  1.00  0.00    -0.206 F 
ATOM     94  C   UNL A   1      44.381  38.057  31.894  1.00  0.00     0.022 A 
BRANCH  91  95
ATOM     95  S   UNL A   1      44.185  39.002  29.309  1.00  0.00     0.124 S 
ATOM     96  O   UNL A   1      44.749  38.239  28.198  1.00  0.00    -0.237 OA
ATOM     97  O   UNL A   1      42.804  39.443  29.125  1.00  0.00    -0.237 OA
ATOM     98  O   UNL A   1      45.083  39.982  29.910  1.00  0.00    -0.744 OA
ENDBRANCH  91  95
ENDBRANCH  65  88
ENDBRANCH  39  40
ENDBRANCH  32  34
ENDBRANCH  31  32
ENDBRANCH  30  31
ENDBRANCH  29  30
ENDBRANCH  28  29
ENDBRANCH   1  28
TORSDOF 23
ENDMDL
MODEL 3
REMARK VINA RESULT:      -9.8      4.792      9.954
REMARK SMILES CCC(CC)COc1cc2c(cc1Cl)C=C(C(=O)OCCOCCOC(=O)c1ccc(-c3c4nc(c(-c5cc(S(=O)(=O)[O-])ccc5F)c5ccc([nH]5)c(-c5cc(S(=O)(=O)[O-])ccc5F)c5nc(c(-c6cc(S(=O)(=O)[O-])ccc6F)c6ccc3[nH]6)C=C5)C=C4)cc1)[C@@H](C(F)(F)F)O2
REMARK SMILES IDX 21 1 20 2 19 3 17 4 18 5 16 6 8 7 9 8 13 9 10 10 12 11 14 12
REMARK SMILES IDX 11 13 96 14 15 15 91 16 7 17 6 18 3 19 2 20 1 21 4 22 5 23
REMARK SMILES IDX 92 24 93 25 94 26 95 27 22 28 23 29 24 30 25 31 26 32 27 33
REMARK SMILES IDX 28 34 29 35 90 36 30 37 89 38 31 39 32 40 33 41 83 42 34 43
REMARK SMILES IDX 88 44 82 45 84 46 35 47 87 48 81 49 80 50 36 52 68 53 48 54
REMARK SMILES IDX 67 55 49 56 52 57 66 58 85 59 50 60 51 61 65 63 86 64 53 65
REMARK SMILES IDX 37 66 38 67 46 68 39 69 45 70 47 71 44 72 40 73 41 74 42 75
REMARK SMILES IDX 43 76 69 77 70 78 78 79 71 80 77 81 79 82 76 83 72 84 73 85
REMARK SMILES IDX 74 86 75 87 54 88 55 89 63 90 56 91 62 92 64 93 61 94 57 95
REMARK SMILES IDX 58 96 59 97 60 98
REMARK H PARENT 84 51 52 62
REMARK Flexibility Score: inf
ROOT
ATOM      1  C   UNL A   1      38.003  20.282  25.193  1.00  0.00     0.202 C 
ENDROOT
BRANCH   1   2
ATOM      2  C   UNL A   1      36.674  19.661  24.751  1.00  0.00     0.261 C 
BRANCH   2   3
ATOM      3  O   UNL A   1      35.550  20.535  24.950  1.00  0.00    -0.460 OA
BRANCH   3   4
ATOM      4  C   UNL A   1      34.360  19.909  24.814  1.00  0.00     0.338 C 
ATOM      5  O   UNL A   1      34.158  18.704  24.888  1.00  0.00    -0.246 OA
BRANCH   4   6
ATOM      6  C   UNL A   1      33.257  20.874  24.690  1.00  0.00     0.087 C 
ATOM      7  C   UNL A   1      31.052  25.093  23.260  1.00  0.00     0.141 A 
ATOM      8  C   UNL A   1      30.730  24.169  24.267  1.00  0.00     0.095 A 
ATOM      9  C   UNL A   1      32.188  24.882  22.467  1.00  0.00     0.083 A 
ATOM     10  C   UNL A   1      31.492  23.001  24.395  1.00  0.00     0.131 A 
ATOM     11  C   UNL A   1      32.816  23.646  22.476  1.00  0.00     0.036 A 
ATOM     12  Cl  UNL A   1      32.905  26.120  21.502  1.00  0.00    -0.080 Cl
ATOM     13  C   UNL A   1      32.455  22.702  23.431  1.00  0.00     0.019 A 
ATOM     14  O   UNL A   1      31.285  22.176  25.474  1.00  0.00    -0.475 OA
ATOM     15  C   UNL A   1      33.204  21.470  23.494  1.00  0.00     0.027 C 
ATOM     16  C   UNL A   1      32.420  21.314  25.859  1.00  0.00     0.316 C 
BRANCH   7  17
ATOM     17  O   UNL A   1      30.319  26.243  23.123  1.00  0.00    -0.492 OA
BRANCH  17  18
ATOM     18  C   UNL A   1      30.203  27.009  24.348  1.00  0.00     0.233 C 
BRANCH  18  19
ATOM     19  C   UNL A   1      31.274  28.127  24.481  1.00  0.00     0.026 C 
BRANCH  19  20
ATOM     20  C   UNL A   1      30.723  29.493  24.006  1.00  0.00     0.003 C 
ATOM     21  C   UNL A   1      30.294  29.491  22.545  1.00  0.00     0.004 C 
ENDBRANCH  19  20
BRANCH  19  22
ATOM     22  C   UNL A   1      31.890  28.216  25.895  1.00  0.00     0.003 C 
ATOM     23  C   UNL A   1      33.326  28.707  25.964  1.00  0.00     0.004 C 
ENDBRANCH  19  22
ENDBRANCH  18  19
ENDBRANCH  17  18
ENDBRANCH   7  17
BRANCH  16  24
ATOM     24  C   UNL A   1      33.291  21.984  26.935  1.00  0.00     0.430 C 
ATOM     25  F   UNL A   1      32.542  22.670  27.827  1.00  0.00    -0.167 F 
ATOM     26  F   UNL A   1      33.998  21.063  27.633  1.00  0.00    -0.167 F 
ATOM     27  F   UNL A   1      34.181  22.850  26.398  1.00  0.00    -0.167 F 
ENDBRANCH  16  24
ENDBRANCH   4   6
ENDBRANCH   3   4
ENDBRANCH   2   3
ENDBRANCH   1   2
BRANCH   1  28
ATOM     28  O   UNL A   1      39.202  19.531  25.020  1.00  0.00    -0.374 OA
BRANCH  28  29
ATOM     29  C   UNL A   1      40.156  19.485  26.076  1.00  0.00     0.202 C 
BRANCH  29  30
ATOM     30  C   UNL A   1      40.519  20.767  26.836  1.00  0.00     0.261 C 
BRANCH  30  31
ATOM     31  O   UNL A   1      40.642  21.927  26.000  1.00  0.00    -0.460 OA
BRANCH  31  32
ATOM     32  C   UNL A   1      41.898  22.444  25.940  1.00  0.00     0.338 C 
ATOM     33  O   UNL A   1      42.845  21.999  25.317  1.00  0.00    -0.246 OA
BRANCH  32  34
ATOM     34  C   UNL A   1      41.914  23.765  26.597  1.00  0.00     0.060 A 
ATOM     35  C   UNL A   1      42.156  23.881  27.965  1.00  0.00     0.016 A 
ATOM     36  C   UNL A   1      41.740  24.906  25.802  1.00  0.00     0.016 A 
ATOM     37  C   UNL A   1      42.251  25.153  28.533  1.00  0.00     0.010 A 
ATOM     38  C   UNL A   1      41.840  26.176  26.371  1.00  0.00     0.010 A 
ATOM     39  C   UNL A   1      42.117  26.308  27.739  1.00  0.00    -0.014 A 
BRANCH  39  40
ATOM     40  C   UNL A   1      42.420  27.640  28.322  1.00  0.00     0.031 A 
ATOM     41  C   UNL A   1      43.819  28.171  28.387  1.00  0.00     0.074 A 
ATOM     42  C   UNL A   1      41.394  28.370  28.801  1.00  0.00     0.049 A 
ATOM     43  N   UNL A   1      44.221  29.365  28.738  1.00  0.00    -0.248 NA
ATOM     44  C   UNL A   1      44.905  27.252  28.022  1.00  0.00     0.031 C 
ATOM     45  C   UNL A   1      40.004  27.916  28.846  1.00  0.00     0.029 A 
ATOM     46  N   UNL A   1      41.349  29.638  29.322  1.00  0.00    -0.354 N 
ATOM     47  C   UNL A   1      45.605  29.353  28.614  1.00  0.00     0.074 A 
ATOM     48  C   UNL A   1      45.976  28.012  28.213  1.00  0.00     0.031 C 
ATOM     49  C   UNL A   1      39.236  28.906  29.321  1.00  0.00     0.029 A 
ATOM     50  C   UNL A   1      40.078  30.054  29.649  1.00  0.00     0.049 A 
ATOM     51  H   UNL A   1      42.149  30.198  29.451  1.00  0.00     0.167 HD
ATOM     52  C   UNL A   1      46.473  30.377  28.797  1.00  0.00     0.034 A 
ATOM     53  C   UNL A   1      39.635  31.230  30.141  1.00  0.00     0.034 A 
ATOM     54  C   UNL A   1      46.075  31.701  29.213  1.00  0.00     0.049 A 
ATOM     55  C   UNL A   1      40.621  32.351  30.341  1.00  0.00     0.074 A 
ATOM     56  C   UNL A   1      46.874  32.819  29.378  1.00  0.00     0.029 A 
ATOM     57  N   UNL A   1      44.782  32.087  29.540  1.00  0.00    -0.354 N 
ATOM     58  N   UNL A   1      41.912  32.364  30.100  1.00  0.00    -0.248 NA
ATOM     59  C   UNL A   1      40.098  33.623  30.856  1.00  0.00     0.031 C 
ATOM     60  C   UNL A   1      46.085  33.851  29.883  1.00  0.00     0.029 A 
ATOM     61  C   UNL A   1      44.771  33.415  29.937  1.00  0.00     0.049 A 
ATOM     62  H   UNL A   1      43.990  31.504  29.496  1.00  0.00     0.167 HD
ATOM     63  C   UNL A   1      42.346  33.653  30.400  1.00  0.00     0.074 A 
ATOM     64  C   UNL A   1      41.177  34.395  30.820  1.00  0.00     0.031 C 
ATOM     65  C   UNL A   1      43.601  34.166  30.333  1.00  0.00     0.034 A 
BRANCH  52  66
ATOM     66  C   UNL A   1      47.940  30.147  28.524  1.00  0.00     0.023 A 
ATOM     67  C   UNL A   1      48.815  29.833  29.582  1.00  0.00     0.031 A 
ATOM     68  C   UNL A   1      48.497  30.402  27.257  1.00  0.00     0.131 A 
ATOM     69  C   UNL A   1      50.199  29.830  29.364  1.00  0.00     0.055 A 
ATOM     70  C   UNL A   1      49.873  30.350  27.036  1.00  0.00     0.041 A 
ATOM     71  F   UNL A   1      47.707  30.716  26.217  1.00  0.00    -0.206 F 
ATOM     72  C   UNL A   1      50.733  30.079  28.095  1.00  0.00     0.022 A 
BRANCH  69  73
ATOM     73  S   UNL A   1      51.364  29.592  30.735  1.00  0.00     0.124 S 
ATOM     74  O   UNL A   1      50.479  29.674  31.896  1.00  0.00    -0.237 OA
ATOM     75  O   UNL A   1      51.899  28.263  30.453  1.00  0.00    -0.237 OA
ATOM     76  O   UNL A   1      52.305  30.697  30.593  1.00  0.00    -0.744 OA
ENDBRANCH  69  73
ENDBRANCH  52  66
BRANCH  53  77
ATOM     77  C   UNL A   1      38.173  31.405  30.387  1.00  0.00     0.023 A 
ATOM     78  C   UNL A   1      37.342  31.975  29.406  1.00  0.00     0.031 A 
ATOM     79  C   UNL A   1      37.611  31.118  31.642  1.00  0.00     0.131 A 
ATOM     80  C   UNL A   1      36.019  32.310  29.721  1.00  0.00     0.055 A 
ATOM     81  C   UNL A   1      36.269  31.378  31.926  1.00  0.00     0.041 A 
ATOM     82  F   UNL A   1      38.367  30.591  32.619  1.00  0.00    -0.206 F 
ATOM     83  C   UNL A   1      35.470  31.996  30.968  1.00  0.00     0.022 A 
BRANCH  80  84
ATOM     84  S   UNL A   1      35.013  33.294  28.576  1.00  0.00     0.124 S 
ATOM     85  O   UNL A   1      34.858  34.548  29.305  1.00  0.00    -0.237 OA
ATOM     86  O   UNL A   1      35.876  33.351  27.398  1.00  0.00    -0.237 OA
ATOM     87  O   UNL A   1      33.797  32.502  28.416  1.00  0.00    -0.744 OA
ENDBRANCH  80  84
ENDBRANCH  53  77
BRANCH  65  88
ATOM     88  C   UNL A   1      43.817  35.619  30.696  1.00  0.00     0.023 A 
ATOM     89  C   UNL A   1      43.927  35.990  32.051  1.00  0.00     0.031 A 
ATOM     90  C   UNL A   1      43.741  36.642  29.736  1.00  0.00     0.131 A 
ATOM     91  C   UNL A   1      43.901  37.343  32.412  1.00  0.00     0.055 A 
ATOM     92  C   UNL A   1      43.777  37.991  30.096  1.00  0.00     0.041 A 
ATOM     93  F   UNL A   1      43.620  36.346  28.431  1.00  0.00    -0.206 F 
ATOM     94  C   UNL A   1      43.839  38.346  31.440  1.00  0.00     0.022 A 
BRANCH  91  95
ATOM     95  S   UNL A   1      43.837  37.846  34.154  1.00  0.00     0.124 S 
ATOM     96  O   UNL A   1      45.143  38.476  34.335  1.00  0.00    -0.237 OA
ATOM     97  O   UNL A   1      42.698  38.761  34.166  1.00  0.00    -0.237 OA
ATOM     98  O   UNL A   1      43.645  36.594  34.877  1.00  0.00    -0.744 OA
ENDBRANCH  91  95
ENDBRANCH  65  88
ENDBRANCH  39  40
ENDBRANCH  32  34
ENDBRANCH  31  32
ENDBRANCH  30  31
ENDBRANCH  29  30
ENDBRANCH  28  29
ENDBRANCH   1  28
TORSDOF 23
ENDMDL
