MODEL 1
REMARK VINA RESULT:     -11.3      0.000      0.000
REMARK SMILES COc1ccc([C@H](C(=O)OCCOCCOC(=O)c2ccc(-c3c4nc(c(-c5cc(S(=O)(=O)[O-])ccc5F)c5ccc([nH]5)c(-c5cc(S(=O)(=O)[O-])ccc5F)c5nc(c(-c6cc(S(=O)(=O)[O-])ccc6F)c6ccc3[nH]6)C=C5)C=C4)cc2)c2ccc(O)nn2)cc1
REMARK SMILES IDX 14 1 13 2 12 3 11 4 10 5 8 6 9 7 7 8 6 9 3 10 4 11 90 12
REMARK SMILES IDX 5 13 89 14 2 15 1 16 82 17 83 18 88 19 84 20 87 21 85 22
REMARK SMILES IDX 86 23 15 25 16 26 17 27 18 28 19 29 20 30 81 31 21 32 80 33
REMARK SMILES IDX 22 34 23 35 24 36 74 37 25 38 79 39 73 40 75 41 26 42 78 43
REMARK SMILES IDX 72 44 71 45 27 47 59 48 39 49 58 50 40 51 43 52 57 53 76 54
REMARK SMILES IDX 41 55 42 56 56 58 77 59 44 60 28 61 29 62 37 63 30 64 36 65
REMARK SMILES IDX 38 66 35 67 31 68 32 69 33 70 34 71 60 72 61 73 69 74 62 75
REMARK SMILES IDX 68 76 70 77 67 78 63 79 64 80 65 81 66 82 45 83 46 84 54 85
REMARK SMILES IDX 47 86 53 87 55 88 52 89 48 90 49 91 50 92 51 93
REMARK H PARENT 86 24 75 46 43 57
REMARK Flexibility Score: inf
ROOT
ATOM      1  C   UNL A   1      36.452  22.377  23.819  1.00  0.00     0.202 C 
ENDROOT
BRANCH   1   2
ATOM      2  O   UNL A   1      35.467  23.117  24.542  1.00  0.00    -0.374 OA
BRANCH   2   3
ATOM      3  C   UNL A   1      34.567  23.938  23.803  1.00  0.00     0.202 C 
BRANCH   3   4
ATOM      4  C   UNL A   1      34.237  25.304  24.407  1.00  0.00     0.261 C 
BRANCH   4   5
ATOM      5  O   UNL A   1      33.492  26.113  23.485  1.00  0.00    -0.462 OA
BRANCH   5   6
ATOM      6  C   UNL A   1      32.185  25.758  23.313  1.00  0.00     0.319 C 
ATOM      7  O   UNL A   1      31.760  25.097  22.372  1.00  0.00    -0.251 OA
BRANCH   6   8
ATOM      8  C   UNL A   1      31.314  26.348  24.428  1.00  0.00     0.180 C 
BRANCH   8   9
ATOM      9  C   UNL A   1      30.297  27.359  23.901  1.00  0.00    -0.027 A 
ATOM     10  C   UNL A   1      28.373  29.241  23.053  1.00  0.00     0.118 A 
ATOM     11  C   UNL A   1      29.704  29.621  23.221  1.00  0.00     0.047 A 
ATOM     12  C   UNL A   1      28.021  27.906  23.208  1.00  0.00     0.047 A 
ATOM     13  C   UNL A   1      30.662  28.688  23.632  1.00  0.00     0.009 A 
ATOM     14  C   UNL A   1      28.973  26.975  23.622  1.00  0.00     0.009 A 
BRANCH  10  15
ATOM     15  O   UNL A   1      27.500  30.240  22.720  1.00  0.00    -0.497 OA
ATOM     16  C   UNL A   1      27.627  31.426  23.503  1.00  0.00     0.278 C 
ENDBRANCH  10  15
ENDBRANCH   8   9
BRANCH   8  17
ATOM     17  C   UNL A   1      30.744  25.160  25.195  1.00  0.00     0.082 A 
ATOM     18  C   UNL A   1      31.105  23.844  24.908  1.00  0.00     0.032 A 
ATOM     19  N   UNL A   1      29.983  25.450  26.284  1.00  0.00    -0.151 NA
ATOM     20  C   UNL A   1      30.699  22.830  25.764  1.00  0.00     0.072 A 
ATOM     21  N   UNL A   1      29.594  24.456  27.134  1.00  0.00    -0.112 NA
ATOM     22  C   UNL A   1      29.966  23.192  26.867  1.00  0.00     0.230 A 
BRANCH  22  23
ATOM     23  O   UNL A   1      29.603  22.263  27.790  1.00  0.00    -0.492 OA
ATOM     24  H   UNL A   1      29.457  21.374  27.529  1.00  0.00     0.295 HD
ENDBRANCH  22  23
ENDBRANCH   8  17
ENDBRANCH   6   8
ENDBRANCH   5   6
ENDBRANCH   4   5
ENDBRANCH   3   4
ENDBRANCH   2   3
ENDBRANCH   1   2
BRANCH   1  25
ATOM     25  C   UNL A   1      37.052  21.138  24.496  1.00  0.00     0.261 C 
BRANCH  25  26
ATOM     26  O   UNL A   1      37.489  21.386  25.845  1.00  0.00    -0.460 OA
BRANCH  26  27
ATOM     27  C   UNL A   1      38.822  21.245  26.042  1.00  0.00     0.338 C 
ATOM     28  O   UNL A   1      39.536  20.344  25.617  1.00  0.00    -0.246 OA
BRANCH  27  29
ATOM     29  C   UNL A   1      39.371  22.438  26.710  1.00  0.00     0.060 A 
ATOM     30  C   UNL A   1      38.860  23.690  26.344  1.00  0.00     0.016 A 
ATOM     31  C   UNL A   1      40.445  22.341  27.596  1.00  0.00     0.016 A 
ATOM     32  C   UNL A   1      39.452  24.856  26.827  1.00  0.00     0.010 A 
ATOM     33  C   UNL A   1      41.046  23.512  28.069  1.00  0.00     0.010 A 
ATOM     34  C   UNL A   1      40.576  24.774  27.658  1.00  0.00    -0.014 A 
BRANCH  34  35
ATOM     35  C   UNL A   1      41.376  25.989  27.952  1.00  0.00     0.031 A 
ATOM     36  C   UNL A   1      40.715  27.120  28.693  1.00  0.00     0.074 A 
ATOM     37  C   UNL A   1      42.661  26.086  27.569  1.00  0.00     0.049 A 
ATOM     38  N   UNL A   1      41.162  28.321  28.949  1.00  0.00    -0.248 NA
ATOM     39  C   UNL A   1      39.362  26.856  29.208  1.00  0.00     0.031 C 
ATOM     40  C   UNL A   1      43.426  25.031  26.907  1.00  0.00     0.029 A 
ATOM     41  N   UNL A   1      43.545  27.131  27.669  1.00  0.00    -0.354 N 
ATOM     42  C   UNL A   1      40.143  28.963  29.645  1.00  0.00     0.074 A 
ATOM     43  C   UNL A   1      39.045  28.025  29.743  1.00  0.00     0.031 C 
ATOM     44  C   UNL A   1      44.660  25.491  26.640  1.00  0.00     0.029 A 
ATOM     45  C   UNL A   1      44.757  26.886  27.067  1.00  0.00     0.049 A 
ATOM     46  H   UNL A   1      43.332  27.975  28.129  1.00  0.00     0.167 HD
ATOM     47  C   UNL A   1      40.127  30.218  30.156  1.00  0.00     0.034 A 
ATOM     48  C   UNL A   1      45.806  27.707  26.852  1.00  0.00     0.034 A 
ATOM     49  C   UNL A   1      41.228  31.144  30.037  1.00  0.00     0.049 A 
ATOM     50  C   UNL A   1      45.729  29.136  27.337  1.00  0.00     0.074 A 
ATOM     51  C   UNL A   1      41.320  32.441  30.510  1.00  0.00     0.029 A 
ATOM     52  N   UNL A   1      42.426  30.872  29.388  1.00  0.00    -0.354 N 
ATOM     53  N   UNL A   1      44.753  29.741  27.976  1.00  0.00    -0.248 NA
ATOM     54  C   UNL A   1      46.894  29.993  27.076  1.00  0.00     0.031 C 
ATOM     55  C   UNL A   1      42.544  32.974  30.091  1.00  0.00     0.029 A 
ATOM     56  C   UNL A   1      43.250  31.985  29.426  1.00  0.00     0.049 A 
ATOM     57  H   UNL A   1      42.656  30.013  28.964  1.00  0.00     0.167 HD
ATOM     58  C   UNL A   1      45.206  31.034  28.228  1.00  0.00     0.074 A 
ATOM     59  C   UNL A   1      46.539  31.123  27.671  1.00  0.00     0.031 C 
ATOM     60  C   UNL A   1      44.582  32.053  28.872  1.00  0.00     0.034 A 
BRANCH  47  61
ATOM     61  C   UNL A   1      38.860  30.676  30.835  1.00  0.00     0.023 A 
ATOM     62  C   UNL A   1      37.795  31.241  30.113  1.00  0.00     0.031 A 
ATOM     63  C   UNL A   1      38.727  30.573  32.231  1.00  0.00     0.131 A 
ATOM     64  C   UNL A   1      36.675  31.742  30.795  1.00  0.00     0.055 A 
ATOM     65  C   UNL A   1      37.577  31.003  32.896  1.00  0.00     0.041 A 
ATOM     66  F   UNL A   1      39.722  30.064  32.977  1.00  0.00    -0.206 F 
ATOM     67  C   UNL A   1      36.549  31.605  32.179  1.00  0.00     0.022 A 
BRANCH  64  68
ATOM     68  S   UNL A   1      35.449  32.700  29.861  1.00  0.00     0.124 S 
ATOM     69  O   UNL A   1      36.208  33.903  29.527  1.00  0.00    -0.237 OA
ATOM     70  O   UNL A   1      35.136  31.812  28.748  1.00  0.00    -0.237 OA
ATOM     71  O   UNL A   1      34.368  32.902  30.824  1.00  0.00    -0.744 OA
ENDBRANCH  64  68
ENDBRANCH  47  61
BRANCH  48  72
ATOM     72  C   UNL A   1      47.001  27.228  26.098  1.00  0.00     0.023 A 
ATOM     73  C   UNL A   1      48.050  26.560  26.747  1.00  0.00     0.031 A 
ATOM     74  C   UNL A   1      47.138  27.489  24.722  1.00  0.00     0.131 A 
ATOM     75  C   UNL A   1      49.209  26.216  26.034  1.00  0.00     0.055 A 
ATOM     76  C   UNL A   1      48.270  27.097  24.005  1.00  0.00     0.041 A 
ATOM     77  F   UNL A   1      46.166  28.128  24.050  1.00  0.00    -0.206 F 
ATOM     78  C   UNL A   1      49.320  26.469  24.665  1.00  0.00     0.022 A 
BRANCH  75  79
ATOM     79  S   UNL A   1      50.613  25.516  26.944  1.00  0.00     0.124 S 
ATOM     80  O   UNL A   1      50.958  26.611  27.844  1.00  0.00    -0.237 OA
ATOM     81  O   UNL A   1      50.013  24.339  27.564  1.00  0.00    -0.237 OA
ATOM     82  O   UNL A   1      51.592  25.236  25.896  1.00  0.00    -0.744 OA
ENDBRANCH  75  79
ENDBRANCH  48  72
BRANCH  60  83
ATOM     83  C   UNL A   1      45.362  33.329  29.076  1.00  0.00     0.023 A 
ATOM     84  C   UNL A   1      45.304  34.394  28.163  1.00  0.00     0.031 A 
ATOM     85  C   UNL A   1      46.159  33.481  30.225  1.00  0.00     0.131 A 
ATOM     86  C   UNL A   1      46.060  35.553  28.397  1.00  0.00     0.055 A 
ATOM     87  C   UNL A   1      46.868  34.655  30.478  1.00  0.00     0.041 A 
ATOM     88  F   UNL A   1      46.249  32.491  31.130  1.00  0.00    -0.206 F 
ATOM     89  C   UNL A   1      46.827  35.696  29.557  1.00  0.00     0.022 A 
BRANCH  86  90
ATOM     90  S   UNL A   1      46.076  36.857  27.136  1.00  0.00     0.124 S 
ATOM     91  O   UNL A   1      44.662  37.208  27.043  1.00  0.00    -0.237 OA
ATOM     92  O   UNL A   1      46.945  37.865  27.737  1.00  0.00    -0.237 OA
ATOM     93  O   UNL A   1      46.628  36.190  25.959  1.00  0.00    -0.744 OA
ENDBRANCH  86  90
ENDBRANCH  60  83
ENDBRANCH  34  35
ENDBRANCH  27  29
ENDBRANCH  26  27
ENDBRANCH  25  26
ENDBRANCH   1  25
TORSDOF 21
ENDMDL
MODEL 2
REMARK VINA RESULT:     -11.1      5.103      8.235
REMARK SMILES COc1ccc([C@H](C(=O)OCCOCCOC(=O)c2ccc(-c3c4nc(c(-c5cc(S(=O)(=O)[O-])ccc5F)c5ccc([nH]5)c(-c5cc(S(=O)(=O)[O-])ccc5F)c5nc(c(-c6cc(S(=O)(=O)[O-])ccc6F)c6ccc3[nH]6)C=C5)C=C4)cc2)c2ccc(O)nn2)cc1
REMARK SMILES IDX 14 1 13 2 12 3 11 4 10 5 8 6 9 7 7 8 6 9 3 10 4 11 90 12
REMARK SMILES IDX 5 13 89 14 2 15 1 16 82 17 83 18 88 19 84 20 87 21 85 22
REMARK SMILES IDX 86 23 15 25 16 26 17 27 18 28 19 29 20 30 81 31 21 32 80 33
REMARK SMILES IDX 22 34 23 35 24 36 74 37 25 38 79 39 73 40 75 41 26 42 78 43
REMARK SMILES IDX 72 44 71 45 27 47 59 48 39 49 58 50 40 51 43 52 57 53 76 54
REMARK SMILES IDX 41 55 42 56 56 58 77 59 44 60 28 61 29 62 37 63 30 64 36 65
REMARK SMILES IDX 38 66 35 67 31 68 32 69 33 70 34 71 60 72 61 73 69 74 62 75
REMARK SMILES IDX 68 76 70 77 67 78 63 79 64 80 65 81 66 82 45 83 46 84 54 85
REMARK SMILES IDX 47 86 53 87 55 88 52 89 48 90 49 91 50 92 51 93
REMARK H PARENT 86 24 75 46 43 57
REMARK Flexibility Score: inf
ROOT
ATOM      1  C   UNL A   1      31.437  31.279  26.193  1.00  0.00     0.202 C 
ENDROOT
BRANCH   1   2
ATOM      2  O   UNL A   1      32.490  30.428  25.738  1.00  0.00    -0.374 OA
BRANCH   2   3
ATOM      3  C   UNL A   1      32.504  29.076  26.190  1.00  0.00     0.202 C 
BRANCH   3   4
ATOM      4  C   UNL A   1      33.571  28.165  25.581  1.00  0.00     0.261 C 
BRANCH   4   5
ATOM      5  O   UNL A   1      33.766  26.989  26.379  1.00  0.00    -0.462 OA
BRANCH   5   6
ATOM      6  C   UNL A   1      33.338  25.820  25.820  1.00  0.00     0.319 C 
ATOM      7  O   UNL A   1      32.359  25.184  26.196  1.00  0.00    -0.251 OA
BRANCH   6   8
ATOM      8  C   UNL A   1      34.281  25.383  24.693  1.00  0.00     0.180 C 
BRANCH   8   9
ATOM      9  C   UNL A   1      35.038  24.098  25.030  1.00  0.00    -0.027 A 
ATOM     10  C   UNL A   1      36.472  21.719  25.524  1.00  0.00     0.118 A 
ATOM     11  C   UNL A   1      37.010  22.954  25.883  1.00  0.00     0.047 A 
ATOM     12  C   UNL A   1      35.180  21.661  25.015  1.00  0.00     0.047 A 
ATOM     13  C   UNL A   1      36.298  24.135  25.648  1.00  0.00     0.009 A 
ATOM     14  C   UNL A   1      34.470  22.837  24.776  1.00  0.00     0.009 A 
BRANCH  10  15
ATOM     15  O   UNL A   1      37.275  20.630  25.728  1.00  0.00    -0.497 OA
ATOM     16  C   UNL A   1      37.651  19.938  24.538  1.00  0.00     0.278 C 
ENDBRANCH  10  15
ENDBRANCH   8   9
BRANCH   8  17
ATOM     17  C   UNL A   1      33.441  25.353  23.422  1.00  0.00     0.082 A 
ATOM     18  C   UNL A   1      32.046  25.336  23.451  1.00  0.00     0.032 A 
ATOM     19  N   UNL A   1      34.110  25.503  22.248  1.00  0.00    -0.151 NA
ATOM     20  C   UNL A   1      31.345  25.502  22.265  1.00  0.00     0.072 A 
ATOM     21  N   UNL A   1      33.421  25.679  21.083  1.00  0.00    -0.112 NA
ATOM     22  C   UNL A   1      32.078  25.688  21.120  1.00  0.00     0.230 A 
BRANCH  22  23
ATOM     23  O   UNL A   1      31.457  25.937  19.936  1.00  0.00    -0.492 OA
ATOM     24  H   UNL A   1      30.711  25.429  19.682  1.00  0.00     0.295 HD
ENDBRANCH  22  23
ENDBRANCH   8  17
ENDBRANCH   6   8
ENDBRANCH   5   6
ENDBRANCH   4   5
ENDBRANCH   3   4
ENDBRANCH   2   3
ENDBRANCH   1   2
BRANCH   1  25
ATOM     25  C   UNL A   1      31.821  32.668  26.720  1.00  0.00     0.261 C 
BRANCH  25  26
ATOM     26  O   UNL A   1      32.658  32.618  27.890  1.00  0.00    -0.460 OA
BRANCH  26  27
ATOM     27  C   UNL A   1      33.748  33.420  27.840  1.00  0.00     0.338 C 
ATOM     28  O   UNL A   1      33.758  34.640  27.723  1.00  0.00    -0.246 OA
BRANCH  27  29
ATOM     29  C   UNL A   1      34.969  32.646  28.127  1.00  0.00     0.060 A 
ATOM     30  C   UNL A   1      34.834  31.275  28.383  1.00  0.00     0.016 A 
ATOM     31  C   UNL A   1      36.209  33.273  28.254  1.00  0.00     0.016 A 
ATOM     32  C   UNL A   1      35.931  30.532  28.813  1.00  0.00     0.010 A 
ATOM     33  C   UNL A   1      37.306  32.528  28.699  1.00  0.00     0.010 A 
ATOM     34  C   UNL A   1      37.164  31.164  29.016  1.00  0.00    -0.014 A 
BRANCH  34  35
ATOM     35  C   UNL A   1      38.256  30.456  29.729  1.00  0.00     0.031 A 
ATOM     36  C   UNL A   1      38.555  30.846  31.151  1.00  0.00     0.074 A 
ATOM     37  C   UNL A   1      38.968  29.487  29.126  1.00  0.00     0.049 A 
ATOM     38  N   UNL A   1      39.534  30.467  31.930  1.00  0.00    -0.248 NA
ATOM     39  C   UNL A   1      37.622  31.798  31.773  1.00  0.00     0.031 C 
ATOM     40  C   UNL A   1      38.726  28.978  27.777  1.00  0.00     0.029 A 
ATOM     41  N   UNL A   1      40.051  28.769  29.568  1.00  0.00    -0.354 N 
ATOM     42  C   UNL A   1      39.344  31.143  33.131  1.00  0.00     0.074 A 
ATOM     43  C   UNL A   1      38.172  31.976  32.964  1.00  0.00     0.031 C 
ATOM     44  C   UNL A   1      39.650  28.044  27.493  1.00  0.00     0.029 A 
ATOM     45  C   UNL A   1      40.575  27.924  28.617  1.00  0.00     0.049 A 
ATOM     46  H   UNL A   1      40.417  28.851  30.478  1.00  0.00     0.167 HD
ATOM     47  C   UNL A   1      40.078  31.071  34.268  1.00  0.00     0.034 A 
ATOM     48  C   UNL A   1      41.696  27.173  28.642  1.00  0.00     0.034 A 
ATOM     49  C   UNL A   1      41.251  30.244  34.411  1.00  0.00     0.049 A 
ATOM     50  C   UNL A   1      42.560  27.187  29.882  1.00  0.00     0.074 A 
ATOM     51  C   UNL A   1      42.075  30.097  35.514  1.00  0.00     0.029 A 
ATOM     52  N   UNL A   1      41.773  29.428  33.415  1.00  0.00    -0.354 N 
ATOM     53  N   UNL A   1      42.384  27.845  31.005  1.00  0.00    -0.248 NA
ATOM     54  C   UNL A   1      43.772  26.356  29.859  1.00  0.00     0.031 C 
ATOM     55  C   UNL A   1      43.129  29.247  35.163  1.00  0.00     0.029 A 
ATOM     56  C   UNL A   1      42.921  28.799  33.868  1.00  0.00     0.049 A 
ATOM     57  H   UNL A   1      41.383  29.314  32.517  1.00  0.00     0.167 HD
ATOM     58  C   UNL A   1      43.440  27.473  31.834  1.00  0.00     0.074 A 
ATOM     59  C   UNL A   1      44.249  26.537  31.083  1.00  0.00     0.031 C 
ATOM     60  C   UNL A   1      43.711  27.861  33.106  1.00  0.00     0.034 A 
BRANCH  47  61
ATOM     61  C   UNL A   1      39.665  31.955  35.418  1.00  0.00     0.023 A 
ATOM     62  C   UNL A   1      38.871  31.475  36.475  1.00  0.00     0.031 A 
ATOM     63  C   UNL A   1      40.044  33.309  35.444  1.00  0.00     0.131 A 
ATOM     64  C   UNL A   1      38.428  32.355  37.474  1.00  0.00     0.055 A 
ATOM     65  C   UNL A   1      39.665  34.162  36.483  1.00  0.00     0.041 A 
ATOM     66  F   UNL A   1      40.782  33.831  34.451  1.00  0.00    -0.206 F 
ATOM     67  C   UNL A   1      38.839  33.690  37.498  1.00  0.00     0.022 A 
BRANCH  64  68
ATOM     68  S   UNL A   1      37.192  31.764  38.664  1.00  0.00     0.124 S 
ATOM     69  O   UNL A   1      36.109  32.723  38.464  1.00  0.00    -0.237 OA
ATOM     70  O   UNL A   1      36.937  30.404  38.204  1.00  0.00    -0.237 OA
ATOM     71  O   UNL A   1      37.879  31.870  39.950  1.00  0.00    -0.744 OA
ENDBRANCH  64  68
ENDBRANCH  47  61
BRANCH  48  72
ATOM     72  C   UNL A   1      42.105  26.384  27.444  1.00  0.00     0.023 A 
ATOM     73  C   UNL A   1      41.811  25.017  27.339  1.00  0.00     0.031 A 
ATOM     74  C   UNL A   1      42.854  26.978  26.410  1.00  0.00     0.131 A 
ATOM     75  C   UNL A   1      42.301  24.275  26.252  1.00  0.00     0.055 A 
ATOM     76  C   UNL A   1      43.293  26.248  25.304  1.00  0.00     0.041 A 
ATOM     77  F   UNL A   1      43.167  28.282  26.460  1.00  0.00    -0.206 F 
ATOM     78  C   UNL A   1      43.029  24.885  25.228  1.00  0.00     0.022 A 
BRANCH  75  79
ATOM     79  S   UNL A   1      42.053  22.478  26.244  1.00  0.00     0.124 S 
ATOM     80  O   UNL A   1      42.637  22.092  27.523  1.00  0.00    -0.237 OA
ATOM     81  O   UNL A   1      40.600  22.376  26.142  1.00  0.00    -0.237 OA
ATOM     82  O   UNL A   1      42.791  22.039  25.061  1.00  0.00    -0.744 OA
ENDBRANCH  75  79
ENDBRANCH  48  72
BRANCH  60  83
ATOM     83  C   UNL A   1      44.890  27.215  33.794  1.00  0.00     0.023 A 
ATOM     84  C   UNL A   1      44.787  25.977  34.448  1.00  0.00     0.031 A 
ATOM     85  C   UNL A   1      46.144  27.850  33.767  1.00  0.00     0.131 A 
ATOM     86  C   UNL A   1      45.913  25.428  35.081  1.00  0.00     0.055 A 
ATOM     87  C   UNL A   1      47.272  27.276  34.353  1.00  0.00     0.041 A 
ATOM     88  F   UNL A   1      46.296  29.036  33.154  1.00  0.00    -0.206 F 
ATOM     89  C   UNL A   1      47.157  26.062  35.022  1.00  0.00     0.022 A 
BRANCH  86  90
ATOM     90  S   UNL A   1      45.722  23.898  36.035  1.00  0.00     0.124 S 
ATOM     91  O   UNL A   1      46.993  23.224  35.787  1.00  0.00    -0.237 OA
ATOM     92  O   UNL A   1      45.519  24.397  37.392  1.00  0.00    -0.237 OA
ATOM     93  O   UNL A   1      44.554  23.260  35.431  1.00  0.00    -0.744 OA
ENDBRANCH  86  90
ENDBRANCH  60  83
ENDBRANCH  34  35
ENDBRANCH  27  29
ENDBRANCH  26  27
ENDBRANCH  25  26
ENDBRANCH   1  25
TORSDOF 21
ENDMDL
MODEL 3
REMARK VINA RESULT:     -11.1      5.224     10.038
REMARK SMILES COc1ccc([C@H](C(=O)OCCOCCOC(=O)c2ccc(-c3c4nc(c(-c5cc(S(=O)(=O)[O-])ccc5F)c5ccc([nH]5)c(-c5cc(S(=O)(=O)[O-])ccc5F)c5nc(c(-c6cc(S(=O)(=O)[O-])ccc6F)c6ccc3[nH]6)C=C5)C=C4)cc2)c2ccc(O)nn2)cc1
REMARK SMILES IDX 14 1 13 2 12 3 11 4 10 5 8 6 9 7 7 8 6 9 3 10 4 11 90 12
REMARK SMILES IDX 5 13 89 14 2 15 1 16 82 17 83 18 88 19 84 20 87 21 85 22
REMARK SMILES IDX 86 23 15 25 16 26 17 27 18 28 19 29 20 30 81 31 21 32 80 33
REMARK SMILES IDX 22 34 23 35 24 36 74 37 25 38 79 39 73 40 75 41 26 42 78 43
REMARK SMILES IDX 72 44 71 45 27 47 59 48 39 49 58 50 40 51 43 52 57 53 76 54
REMARK SMILES IDX 41 55 42 56 56 58 77 59 44 60 28 61 29 62 37 63 30 64 36 65
REMARK SMILES IDX 38 66 35 67 31 68 32 69 33 70 34 71 60 72 61 73 69 74 62 75
REMARK SMILES IDX 68 76 70 77 67 78 63 79 64 80 65 81 66 82 45 83 46 84 54 85
REMARK SMILES IDX 47 86 53 87 55 88 52 89 48 90 49 91 50 92 51 93
REMARK H PARENT 86 24 75 46 43 57
REMARK Flexibility Score: inf
ROOT
ATOM      1  C   UNL A   1      31.792  28.034  27.561  1.00  0.00     0.202 C 
ENDROOT
BRANCH   1   2
ATOM      2  O   UNL A   1      31.096  26.956  26.934  1.00  0.00    -0.374 OA
BRANCH   2   3
ATOM      3  C   UNL A   1      31.866  25.886  26.390  1.00  0.00     0.202 C 
BRANCH   3   4
ATOM      4  C   UNL A   1      31.154  24.540  26.245  1.00  0.00     0.261 C 
BRANCH   4   5
ATOM      5  O   UNL A   1      32.087  23.488  25.960  1.00  0.00    -0.462 OA
BRANCH   5   6
ATOM      6  C   UNL A   1      31.556  22.371  25.383  1.00  0.00     0.319 C 
ATOM      7  O   UNL A   1      30.500  21.846  25.719  1.00  0.00    -0.251 OA
BRANCH   6   8
ATOM      8  C   UNL A   1      32.491  21.830  24.294  1.00  0.00     0.180 C 
BRANCH   8   9
ATOM      9  C   UNL A   1      33.921  22.350  24.442  1.00  0.00    -0.027 A 
ATOM     10  C   UNL A   1      36.516  23.396  24.807  1.00  0.00     0.118 A 
ATOM     11  C   UNL A   1      36.151  22.191  25.407  1.00  0.00     0.047 A 
ATOM     12  C   UNL A   1      35.625  24.025  23.945  1.00  0.00     0.047 A 
ATOM     13  C   UNL A   1      34.868  21.665  25.221  1.00  0.00     0.009 A 
ATOM     14  C   UNL A   1      34.345  23.505  23.762  1.00  0.00     0.009 A 
BRANCH  10  15
ATOM     15  O   UNL A   1      37.766  23.863  25.108  1.00  0.00    -0.497 OA
ATOM     16  C   UNL A   1      38.017  24.032  26.503  1.00  0.00     0.278 C 
ENDBRANCH  10  15
ENDBRANCH   8   9
BRANCH   8  17
ATOM     17  C   UNL A   1      32.324  20.315  24.304  1.00  0.00     0.082 A 
ATOM     18  C   UNL A   1      32.307  19.559  23.132  1.00  0.00     0.032 A 
ATOM     19  N   UNL A   1      32.351  19.709  25.522  1.00  0.00    -0.151 NA
ATOM     20  C   UNL A   1      32.345  18.174  23.221  1.00  0.00     0.072 A 
ATOM     21  N   UNL A   1      32.401  18.348  25.610  1.00  0.00    -0.112 NA
ATOM     22  C   UNL A   1      32.411  17.625  24.477  1.00  0.00     0.230 A 
BRANCH  22  23
ATOM     23  O   UNL A   1      32.532  16.281  24.637  1.00  0.00    -0.492 OA
ATOM     24  H   UNL A   1      31.982  15.830  25.249  1.00  0.00     0.295 HD
ENDBRANCH  22  23
ENDBRANCH   8  17
ENDBRANCH   6   8
ENDBRANCH   5   6
ENDBRANCH   4   5
ENDBRANCH   3   4
ENDBRANCH   2   3
ENDBRANCH   1   2
BRANCH   1  25
ATOM     25  C   UNL A   1      31.710  29.416  26.899  1.00  0.00     0.261 C 
BRANCH  25  26
ATOM     26  O   UNL A   1      32.987  29.908  26.455  1.00  0.00    -0.460 OA
BRANCH  26  27
ATOM     27  C   UNL A   1      33.445  30.988  27.132  1.00  0.00     0.338 C 
ATOM     28  O   UNL A   1      32.789  31.955  27.501  1.00  0.00    -0.246 OA
BRANCH  27  29
ATOM     29  C   UNL A   1      34.845  30.782  27.542  1.00  0.00     0.060 A 
ATOM     30  C   UNL A   1      35.313  29.465  27.647  1.00  0.00     0.016 A 
ATOM     31  C   UNL A   1      35.652  31.854  27.924  1.00  0.00     0.016 A 
ATOM     32  C   UNL A   1      36.575  29.211  28.182  1.00  0.00     0.010 A 
ATOM     33  C   UNL A   1      36.913  31.597  28.472  1.00  0.00     0.010 A 
ATOM     34  C   UNL A   1      37.364  30.274  28.638  1.00  0.00    -0.014 A 
BRANCH  34  35
ATOM     35  C   UNL A   1      38.576  30.006  29.452  1.00  0.00     0.031 A 
ATOM     36  C   UNL A   1      39.566  28.989  28.951  1.00  0.00     0.074 A 
ATOM     37  C   UNL A   1      38.792  30.650  30.612  1.00  0.00     0.049 A 
ATOM     38  N   UNL A   1      40.622  28.494  29.541  1.00  0.00    -0.248 NA
ATOM     39  C   UNL A   1      39.324  28.457  27.600  1.00  0.00     0.031 C 
ATOM     40  C   UNL A   1      37.940  31.701  31.164  1.00  0.00     0.029 A 
ATOM     41  N   UNL A   1      39.789  30.502  31.543  1.00  0.00    -0.354 N 
ATOM     42  C   UNL A   1      41.165  27.583  28.641  1.00  0.00     0.074 A 
ATOM     43  C   UNL A   1      40.303  27.576  27.478  1.00  0.00     0.031 C 
ATOM     44  C   UNL A   1      38.439  32.088  32.350  1.00  0.00     0.029 A 
ATOM     45  C   UNL A   1      39.616  31.280  32.663  1.00  0.00     0.049 A 
ATOM     46  H   UNL A   1      40.556  29.896  31.420  1.00  0.00     0.167 HD
ATOM     47  C   UNL A   1      42.282  26.826  28.773  1.00  0.00     0.034 A 
ATOM     48  C   UNL A   1      40.307  31.306  33.823  1.00  0.00     0.034 A 
ATOM     49  C   UNL A   1      43.122  26.838  29.946  1.00  0.00     0.049 A 
ATOM     50  C   UNL A   1      41.488  30.378  33.992  1.00  0.00     0.074 A 
ATOM     51  C   UNL A   1      44.273  26.109  30.191  1.00  0.00     0.029 A 
ATOM     52  N   UNL A   1      42.895  27.614  31.076  1.00  0.00    -0.354 N 
ATOM     53  N   UNL A   1      41.983  29.505  33.144  1.00  0.00    -0.248 NA
ATOM     54  C   UNL A   1      42.206  30.440  35.273  1.00  0.00     0.031 C 
ATOM     55  C   UNL A   1      44.702  26.394  31.492  1.00  0.00     0.029 A 
ATOM     56  C   UNL A   1      43.867  27.360  32.029  1.00  0.00     0.049 A 
ATOM     57  H   UNL A   1      42.151  28.251  31.183  1.00  0.00     0.167 HD
ATOM     58  C   UNL A   1      43.092  28.947  33.775  1.00  0.00     0.074 A 
ATOM     59  C   UNL A   1      43.193  29.579  35.073  1.00  0.00     0.031 C 
ATOM     60  C   UNL A   1      43.957  28.006  33.317  1.00  0.00     0.034 A 
BRANCH  47  61
ATOM     61  C   UNL A   1      42.618  25.883  27.645  1.00  0.00     0.023 A 
ATOM     62  C   UNL A   1      42.095  24.579  27.586  1.00  0.00     0.031 A 
ATOM     63  C   UNL A   1      43.502  26.283  26.626  1.00  0.00     0.131 A 
ATOM     64  C   UNL A   1      42.510  23.703  26.572  1.00  0.00     0.055 A 
ATOM     65  C   UNL A   1      43.850  25.431  25.576  1.00  0.00     0.041 A 
ATOM     66  F   UNL A   1      44.052  27.508  26.641  1.00  0.00    -0.206 F 
ATOM     67  C   UNL A   1      43.366  24.127  25.554  1.00  0.00     0.022 A 
BRANCH  64  68
ATOM     68  S   UNL A   1      42.026  21.958  26.683  1.00  0.00     0.124 S 
ATOM     69  O   UNL A   1      42.705  21.541  27.907  1.00  0.00    -0.237 OA
ATOM     70  O   UNL A   1      40.572  22.038  26.754  1.00  0.00    -0.237 OA
ATOM     71  O   UNL A   1      42.561  21.376  25.453  1.00  0.00    -0.744 OA
ENDBRANCH  64  68
ENDBRANCH  47  61
BRANCH  48  72
ATOM     72  C   UNL A   1      39.879  32.196  34.940  1.00  0.00     0.023 A 
ATOM     73  C   UNL A   1      39.121  31.703  36.013  1.00  0.00     0.031 A 
ATOM     74  C   UNL A   1      40.172  33.573  34.918  1.00  0.00     0.131 A 
ATOM     75  C   UNL A   1      38.640  32.584  36.994  1.00  0.00     0.055 A 
ATOM     76  C   UNL A   1      39.737  34.436  35.926  1.00  0.00     0.041 A 
ATOM     77  F   UNL A   1      40.891  34.100  33.915  1.00  0.00    -0.206 F 
ATOM     78  C   UNL A   1      38.954  33.944  36.965  1.00  0.00     0.022 A 
BRANCH  75  79
ATOM     79  S   UNL A   1      37.516  31.940  38.264  1.00  0.00     0.124 S 
ATOM     80  O   UNL A   1      38.320  32.087  39.473  1.00  0.00    -0.237 OA
ATOM     81  O   UNL A   1      36.373  32.840  38.139  1.00  0.00    -0.237 OA
ATOM     82  O   UNL A   1      37.274  30.564  37.837  1.00  0.00    -0.744 OA
ENDBRANCH  75  79
ENDBRANCH  48  72
BRANCH  60  83
ATOM     83  C   UNL A   1      45.133  27.657  34.197  1.00  0.00     0.023 A 
ATOM     84  C   UNL A   1      45.072  26.630  35.153  1.00  0.00     0.031 A 
ATOM     85  C   UNL A   1      46.344  28.357  34.050  1.00  0.00     0.131 A 
ATOM     86  C   UNL A   1      46.193  26.355  35.952  1.00  0.00     0.055 A 
ATOM     87  C   UNL A   1      47.471  28.045  34.812  1.00  0.00     0.041 A 
ATOM     88  F   UNL A   1      46.455  29.348  33.151  1.00  0.00    -0.206 F 
ATOM     89  C   UNL A   1      47.395  27.045  35.775  1.00  0.00     0.022 A 
BRANCH  86  90
ATOM     90  S   UNL A   1      46.044  25.119  37.272  1.00  0.00     0.124 S 
ATOM     91  O   UNL A   1      44.715  25.403  37.806  1.00  0.00    -0.237 OA
ATOM     92  O   UNL A   1      46.184  23.863  36.542  1.00  0.00    -0.237 OA
ATOM     93  O   UNL A   1      47.153  25.439  38.168  1.00  0.00    -0.744 OA
ENDBRANCH  86  90
ENDBRANCH  60  83
ENDBRANCH  34  35
ENDBRANCH  27  29
ENDBRANCH  26  27
ENDBRANCH  25  26
ENDBRANCH   1  25
TORSDOF 21
ENDMDL
