MODEL 1
REMARK VINA RESULT:     -11.4      0.000      0.000
REMARK SMILES O=C(OCCOCCOC(=O)c1ccc(-c2c3nc(c(-c4cc(S(=O)(=O)[O-])ccc4F)c4ccc([nH]4)c(-c4cc(S(=O)(=O)[O-])ccc4F)c4nc(c(-c5cc(S(=O)(=O)[O-])ccc5F)c5ccc2[nH]5)C=C4)C=C3)cc1)/C(=C/c1ccccc1Cl)NC(=O)c1ccccc1
REMARK SMILES IDX 7 1 6 2 5 3 4 4 3 5 2 6 1 7 75 8 76 9 84 10 85 11 86 13
REMARK SMILES IDX 87 14 88 15 92 16 89 17 91 18 90 19 77 20 78 21 82 22 79 23
REMARK SMILES IDX 81 24 83 25 80 26 8 27 9 28 10 29 11 30 12 31 13 32 74 33
REMARK SMILES IDX 14 34 73 35 15 36 16 37 17 38 67 39 18 40 72 41 66 42 68 43
REMARK SMILES IDX 19 44 71 45 65 46 64 47 20 49 52 50 32 51 51 52 33 53 36 54
REMARK SMILES IDX 50 55 69 56 34 57 35 58 49 60 70 61 37 62 21 63 22 64 30 65
REMARK SMILES IDX 23 66 29 67 31 68 28 69 24 70 25 71 26 72 27 73 53 74 54 75
REMARK SMILES IDX 62 76 55 77 61 78 63 79 60 80 56 81 57 82 58 83 59 84 38 85
REMARK SMILES IDX 39 86 47 87 40 88 46 89 48 90 45 91 41 92 42 93 43 94 44 95
REMARK H PARENT 84 12 68 48 36 59
REMARK Flexibility Score: inf
ROOT
ATOM      1  C   UNL A   1      34.445  34.354  29.922  1.00  0.00     0.202 C 
ENDROOT
BRANCH   1   2
ATOM      2  O   UNL A   1      33.287  33.821  29.280  1.00  0.00    -0.374 OA
BRANCH   2   3
ATOM      3  C   UNL A   1      33.563  33.234  28.017  1.00  0.00     0.202 C 
BRANCH   3   4
ATOM      4  C   UNL A   1      34.169  31.833  28.118  1.00  0.00     0.261 C 
BRANCH   4   5
ATOM      5  O   UNL A   1      34.071  31.084  26.906  1.00  0.00    -0.459 OA
BRANCH   5   6
ATOM      6  C   UNL A   1      33.982  29.734  27.090  1.00  0.00     0.354 C 
ATOM      7  O   UNL A   1      34.651  29.130  27.917  1.00  0.00    -0.244 OA
BRANCH   6   8
ATOM      8  C   UNL A   1      33.356  29.056  25.914  1.00  0.00     0.128 C 
ATOM      9  C   UNL A   1      32.226  28.411  26.293  1.00  0.00     0.043 C 
BRANCH   8  10
ATOM     10  N   UNL A   1      33.804  29.169  24.614  1.00  0.00    -0.316 N 
ATOM     11  C   UNL A   1      34.055  28.334  23.534  1.00  0.00     0.255 C 
ATOM     12  H   UNL A   1      34.002  30.107  24.389  1.00  0.00     0.170 HD
ATOM     13  O   UNL A   1      34.686  28.819  22.590  1.00  0.00    -0.269 OA
BRANCH  11  14
ATOM     14  C   UNL A   1      33.571  26.944  23.337  1.00  0.00     0.040 A 
ATOM     15  C   UNL A   1      34.099  25.905  24.115  1.00  0.00     0.014 A 
ATOM     16  C   UNL A   1      32.881  26.583  22.176  1.00  0.00     0.014 A 
ATOM     17  C   UNL A   1      33.797  24.562  23.830  1.00  0.00     0.001 A 
ATOM     18  C   UNL A   1      32.501  25.253  21.935  1.00  0.00     0.001 A 
ATOM     19  C   UNL A   1      32.948  24.240  22.774  1.00  0.00     0.000 A 
ENDBRANCH  11  14
ENDBRANCH   8  10
BRANCH   9  20
ATOM     20  C   UNL A   1      31.164  27.630  25.615  1.00  0.00    -0.005 A 
ATOM     21  C   UNL A   1      31.082  26.277  26.013  1.00  0.00     0.010 A 
ATOM     22  C   UNL A   1      30.391  28.027  24.512  1.00  0.00     0.048 A 
ATOM     23  C   UNL A   1      30.271  25.356  25.343  1.00  0.00     0.001 A 
ATOM     24  C   UNL A   1      29.577  27.098  23.839  1.00  0.00     0.021 A 
ATOM     25  Cl  UNL A   1      30.425  29.627  23.874  1.00  0.00    -0.084 Cl
ATOM     26  C   UNL A   1      29.521  25.766  24.249  1.00  0.00     0.002 A 
ENDBRANCH   9  20
ENDBRANCH   6   8
ENDBRANCH   5   6
ENDBRANCH   4   5
ENDBRANCH   3   4
ENDBRANCH   2   3
ENDBRANCH   1   2
BRANCH   1  27
ATOM     27  C   UNL A   1      34.480  34.132  31.444  1.00  0.00     0.261 C 
BRANCH  27  28
ATOM     28  O   UNL A   1      34.507  32.730  31.817  1.00  0.00    -0.460 OA
BRANCH  28  29
ATOM     29  C   UNL A   1      35.528  32.346  32.636  1.00  0.00     0.338 C 
ATOM     30  O   UNL A   1      35.575  32.530  33.844  1.00  0.00    -0.246 OA
BRANCH  29  31
ATOM     31  C   UNL A   1      36.566  31.560  31.908  1.00  0.00     0.060 A 
ATOM     32  C   UNL A   1      37.656  31.060  32.640  1.00  0.00     0.016 A 
ATOM     33  C   UNL A   1      36.518  31.338  30.528  1.00  0.00     0.016 A 
ATOM     34  C   UNL A   1      38.706  30.386  31.999  1.00  0.00     0.010 A 
ATOM     35  C   UNL A   1      37.570  30.659  29.887  1.00  0.00     0.010 A 
ATOM     36  C   UNL A   1      38.689  30.206  30.609  1.00  0.00    -0.014 A 
BRANCH  36  37
ATOM     37  C   UNL A   1      39.903  29.698  29.900  1.00  0.00     0.031 A 
ATOM     38  C   UNL A   1      41.085  30.619  29.727  1.00  0.00     0.074 A 
ATOM     39  C   UNL A   1      39.983  28.436  29.431  1.00  0.00     0.049 A 
ATOM     40  N   UNL A   1      42.237  30.399  29.146  1.00  0.00    -0.248 NA
ATOM     41  C   UNL A   1      40.943  31.971  30.287  1.00  0.00     0.031 C 
ATOM     42  C   UNL A   1      38.940  27.423  29.559  1.00  0.00     0.029 A 
ATOM     43  N   UNL A   1      40.984  27.790  28.742  1.00  0.00    -0.354 N 
ATOM     44  C   UNL A   1      42.968  31.573  29.293  1.00  0.00     0.074 A 
ATOM     45  C   UNL A   1      42.099  32.525  29.955  1.00  0.00     0.031 C 
ATOM     46  C   UNL A   1      39.337  26.297  28.942  1.00  0.00     0.029 A 
ATOM     47  C   UNL A   1      40.665  26.504  28.368  1.00  0.00     0.049 A 
ATOM     48  H   UNL A   1      41.851  28.211  28.534  1.00  0.00     0.167 HD
ATOM     49  C   UNL A   1      44.252  31.829  28.941  1.00  0.00     0.034 A 
ATOM     50  C   UNL A   1      41.357  25.597  27.645  1.00  0.00     0.034 A 
ATOM     51  C   UNL A   1      45.110  30.891  28.258  1.00  0.00     0.049 A 
ATOM     52  C   UNL A   1      42.754  25.938  27.178  1.00  0.00     0.074 A 
ATOM     53  C   UNL A   1      46.424  31.060  27.854  1.00  0.00     0.029 A 
ATOM     54  N   UNL A   1      44.741  29.611  27.867  1.00  0.00    -0.354 N 
ATOM     55  N   UNL A   1      43.441  27.044  27.357  1.00  0.00    -0.248 NA
ATOM     56  C   UNL A   1      43.480  24.896  26.438  1.00  0.00     0.031 C 
ATOM     57  C   UNL A   1      46.824  29.912  27.160  1.00  0.00     0.029 A 
ATOM     58  C   UNL A   1      45.789  28.993  27.201  1.00  0.00     0.049 A 
ATOM     59  H   UNL A   1      43.862  29.201  28.038  1.00  0.00     0.167 HD
ATOM     60  C   UNL A   1      44.690  26.813  26.783  1.00  0.00     0.074 A 
ATOM     61  C   UNL A   1      44.669  25.456  26.278  1.00  0.00     0.031 C 
ATOM     62  C   UNL A   1      45.759  27.645  26.683  1.00  0.00     0.034 A 
BRANCH  49  63
ATOM     63  C   UNL A   1      44.794  33.201  29.271  1.00  0.00     0.023 A 
ATOM     64  C   UNL A   1      44.633  34.283  28.387  1.00  0.00     0.031 A 
ATOM     65  C   UNL A   1      45.496  33.425  30.467  1.00  0.00     0.131 A 
ATOM     66  C   UNL A   1      45.226  35.520  28.681  1.00  0.00     0.055 A 
ATOM     67  C   UNL A   1      46.015  34.680  30.790  1.00  0.00     0.041 A 
ATOM     68  F   UNL A   1      45.701  32.424  31.338  1.00  0.00    -0.206 F 
ATOM     69  C   UNL A   1      45.893  35.734  29.888  1.00  0.00     0.022 A 
BRANCH  66  70
ATOM     70  S   UNL A   1      45.228  36.805  27.401  1.00  0.00     0.124 S 
ATOM     71  O   UNL A   1      46.175  36.255  26.434  1.00  0.00    -0.237 OA
ATOM     72  O   UNL A   1      43.832  36.838  26.982  1.00  0.00    -0.237 OA
ATOM     73  O   UNL A   1      45.695  37.995  28.111  1.00  0.00    -0.744 OA
ENDBRANCH  66  70
ENDBRANCH  49  63
BRANCH  50  74
ATOM     74  C   UNL A   1      40.748  24.280  27.280  1.00  0.00     0.023 A 
ATOM     75  C   UNL A   1      39.574  24.199  26.513  1.00  0.00     0.031 A 
ATOM     76  C   UNL A   1      41.287  23.080  27.781  1.00  0.00     0.131 A 
ATOM     77  C   UNL A   1      38.941  22.959  26.326  1.00  0.00     0.055 A 
ATOM     78  C   UNL A   1      40.686  21.842  27.543  1.00  0.00     0.041 A 
ATOM     79  F   UNL A   1      42.406  23.096  28.523  1.00  0.00    -0.206 F 
ATOM     80  C   UNL A   1      39.496  21.779  26.825  1.00  0.00     0.022 A 
BRANCH  77  81
ATOM     81  S   UNL A   1      37.316  22.923  25.517  1.00  0.00     0.124 S 
ATOM     82  O   UNL A   1      36.515  23.737  26.424  1.00  0.00    -0.237 OA
ATOM     83  O   UNL A   1      37.613  23.513  24.216  1.00  0.00    -0.237 OA
ATOM     84  O   UNL A   1      36.980  21.501  25.492  1.00  0.00    -0.744 OA
ENDBRANCH  77  81
ENDBRANCH  50  74
BRANCH  62  85
ATOM     85  C   UNL A   1      47.006  27.089  26.031  1.00  0.00     0.023 A 
ATOM     86  C   UNL A   1      47.977  26.389  26.768  1.00  0.00     0.031 A 
ATOM     87  C   UNL A   1      47.246  27.298  24.660  1.00  0.00     0.131 A 
ATOM     88  C   UNL A   1      49.176  25.995  26.153  1.00  0.00     0.055 A 
ATOM     89  C   UNL A   1      48.409  26.838  24.037  1.00  0.00     0.041 A 
ATOM     90  F   UNL A   1      46.357  27.959  23.902  1.00  0.00    -0.206 F 
ATOM     91  C   UNL A   1      49.390  26.200  24.788  1.00  0.00     0.022 A 
BRANCH  88  92
ATOM     92  S   UNL A   1      50.507  25.327  27.190  1.00  0.00     0.124 S 
ATOM     93  O   UNL A   1      49.849  24.195  27.836  1.00  0.00    -0.237 OA
ATOM     94  O   UNL A   1      51.530  24.992  26.205  1.00  0.00    -0.237 OA
ATOM     95  O   UNL A   1      50.842  26.438  28.078  1.00  0.00    -0.744 OA
ENDBRANCH  88  92
ENDBRANCH  62  85
ENDBRANCH  36  37
ENDBRANCH  29  31
ENDBRANCH  28  29
ENDBRANCH  27  28
ENDBRANCH   1  27
TORSDOF 20
ENDMDL
MODEL 2
REMARK VINA RESULT:     -11.3      4.718      6.871
REMARK SMILES O=C(OCCOCCOC(=O)c1ccc(-c2c3nc(c(-c4cc(S(=O)(=O)[O-])ccc4F)c4ccc([nH]4)c(-c4cc(S(=O)(=O)[O-])ccc4F)c4nc(c(-c5cc(S(=O)(=O)[O-])ccc5F)c5ccc2[nH]5)C=C4)C=C3)cc1)/C(=C/c1ccccc1Cl)NC(=O)c1ccccc1
REMARK SMILES IDX 7 1 6 2 5 3 4 4 3 5 2 6 1 7 75 8 76 9 84 10 85 11 86 13
REMARK SMILES IDX 87 14 88 15 92 16 89 17 91 18 90 19 77 20 78 21 82 22 79 23
REMARK SMILES IDX 81 24 83 25 80 26 8 27 9 28 10 29 11 30 12 31 13 32 74 33
REMARK SMILES IDX 14 34 73 35 15 36 16 37 17 38 67 39 18 40 72 41 66 42 68 43
REMARK SMILES IDX 19 44 71 45 65 46 64 47 20 49 52 50 32 51 51 52 33 53 36 54
REMARK SMILES IDX 50 55 69 56 34 57 35 58 49 60 70 61 37 62 21 63 22 64 30 65
REMARK SMILES IDX 23 66 29 67 31 68 28 69 24 70 25 71 26 72 27 73 53 74 54 75
REMARK SMILES IDX 62 76 55 77 61 78 63 79 60 80 56 81 57 82 58 83 59 84 38 85
REMARK SMILES IDX 39 86 47 87 40 88 46 89 48 90 45 91 41 92 42 93 43 94 44 95
REMARK H PARENT 84 12 68 48 36 59
REMARK Flexibility Score: inf
ROOT
ATOM      1  C   UNL A   1      31.417  31.441  26.282  1.00  0.00     0.202 C 
ENDROOT
BRANCH   1   2
ATOM      2  O   UNL A   1      32.002  30.324  26.950  1.00  0.00    -0.374 OA
BRANCH   2   3
ATOM      3  C   UNL A   1      31.792  29.091  26.278  1.00  0.00     0.202 C 
BRANCH   3   4
ATOM      4  C   UNL A   1      31.415  27.945  27.218  1.00  0.00     0.261 C 
BRANCH   4   5
ATOM      5  O   UNL A   1      32.023  26.700  26.867  1.00  0.00    -0.459 OA
BRANCH   5   6
ATOM      6  C   UNL A   1      31.232  25.888  26.106  1.00  0.00     0.354 C 
ATOM      7  O   UNL A   1      30.042  25.719  26.330  1.00  0.00    -0.244 OA
BRANCH   6   8
ATOM      8  C   UNL A   1      32.043  24.922  25.305  1.00  0.00     0.128 C 
ATOM      9  C   UNL A   1      32.014  23.696  25.882  1.00  0.00     0.043 C 
BRANCH   8  10
ATOM     10  N   UNL A   1      32.639  25.212  24.095  1.00  0.00    -0.316 N 
ATOM     11  C   UNL A   1      33.895  25.112  23.514  1.00  0.00     0.255 C 
ATOM     12  H   UNL A   1      31.989  25.600  23.466  1.00  0.00     0.170 HD
ATOM     13  O   UNL A   1      34.066  25.714  22.450  1.00  0.00    -0.269 OA
BRANCH  11  14
ATOM     14  C   UNL A   1      35.039  24.285  23.976  1.00  0.00     0.040 A 
ATOM     15  C   UNL A   1      35.386  23.121  23.277  1.00  0.00     0.014 A 
ATOM     16  C   UNL A   1      35.550  24.426  25.270  1.00  0.00     0.014 A 
ATOM     17  C   UNL A   1      36.340  22.226  23.789  1.00  0.00     0.001 A 
ATOM     18  C   UNL A   1      36.568  23.586  25.750  1.00  0.00     0.001 A 
ATOM     19  C   UNL A   1      36.976  22.490  24.999  1.00  0.00     0.000 A 
ENDBRANCH  11  14
ENDBRANCH   8  10
BRANCH   9  20
ATOM     20  C   UNL A   1      32.550  22.351  25.561  1.00  0.00    -0.005 A 
ATOM     21  C   UNL A   1      32.043  21.783  24.371  1.00  0.00     0.010 A 
ATOM     22  C   UNL A   1      33.328  21.528  26.390  1.00  0.00     0.048 A 
ATOM     23  C   UNL A   1      32.293  20.453  24.021  1.00  0.00     0.001 A 
ATOM     24  C   UNL A   1      33.576  20.189  26.035  1.00  0.00     0.021 A 
ATOM     25  Cl  UNL A   1      33.971  22.058  27.897  1.00  0.00    -0.084 Cl
ATOM     26  C   UNL A   1      33.057  19.651  24.858  1.00  0.00     0.002 A 
ENDBRANCH   9  20
ENDBRANCH   6   8
ENDBRANCH   5   6
ENDBRANCH   4   5
ENDBRANCH   3   4
ENDBRANCH   2   3
ENDBRANCH   1   2
BRANCH   1  27
ATOM     27  C   UNL A   1      31.869  32.808  26.825  1.00  0.00     0.261 C 
BRANCH  27  28
ATOM     28  O   UNL A   1      32.786  32.703  27.946  1.00  0.00    -0.460 OA
BRANCH  28  29
ATOM     29  C   UNL A   1      33.881  33.514  27.904  1.00  0.00     0.338 C 
ATOM     30  O   UNL A   1      33.863  34.718  27.693  1.00  0.00    -0.246 OA
BRANCH  29  31
ATOM     31  C   UNL A   1      35.134  32.786  28.259  1.00  0.00     0.060 A 
ATOM     32  C   UNL A   1      35.037  31.431  28.620  1.00  0.00     0.016 A 
ATOM     33  C   UNL A   1      36.387  33.406  28.286  1.00  0.00     0.016 A 
ATOM     34  C   UNL A   1      36.167  30.717  29.043  1.00  0.00     0.010 A 
ATOM     35  C   UNL A   1      37.520  32.687  28.708  1.00  0.00     0.010 A 
ATOM     36  C   UNL A   1      37.416  31.346  29.123  1.00  0.00    -0.014 A 
BRANCH  36  37
ATOM     37  C   UNL A   1      38.566  30.659  29.787  1.00  0.00     0.031 A 
ATOM     38  C   UNL A   1      38.929  31.047  31.199  1.00  0.00     0.074 A 
ATOM     39  C   UNL A   1      39.273  29.690  29.173  1.00  0.00     0.049 A 
ATOM     40  N   UNL A   1      39.883  30.592  31.970  1.00  0.00    -0.248 NA
ATOM     41  C   UNL A   1      38.099  32.090  31.821  1.00  0.00     0.031 C 
ATOM     42  C   UNL A   1      39.014  29.182  27.829  1.00  0.00     0.029 A 
ATOM     43  N   UNL A   1      40.362  28.960  29.594  1.00  0.00    -0.354 N 
ATOM     44  C   UNL A   1      39.754  31.272  33.177  1.00  0.00     0.074 A 
ATOM     45  C   UNL A   1      38.674  32.222  33.007  1.00  0.00     0.031 C 
ATOM     46  C   UNL A   1      39.935  28.253  27.520  1.00  0.00     0.029 A 
ATOM     47  C   UNL A   1      40.856  28.095  28.644  1.00  0.00     0.049 A 
ATOM     48  H   UNL A   1      40.752  29.051  30.494  1.00  0.00     0.167 HD
ATOM     49  C   UNL A   1      40.447  31.104  34.330  1.00  0.00     0.034 A 
ATOM     50  C   UNL A   1      41.927  27.272  28.670  1.00  0.00     0.034 A 
ATOM     51  C   UNL A   1      41.541  30.177  34.493  1.00  0.00     0.049 A 
ATOM     52  C   UNL A   1      42.746  27.170  29.938  1.00  0.00     0.074 A 
ATOM     53  C   UNL A   1      42.308  29.938  35.621  1.00  0.00     0.029 A 
ATOM     54  N   UNL A   1      42.034  29.342  33.500  1.00  0.00    -0.354 N 
ATOM     55  N   UNL A   1      42.586  27.798  31.081  1.00  0.00    -0.248 NA
ATOM     56  C   UNL A   1      43.871  26.224  29.927  1.00  0.00     0.031 C 
ATOM     57  C   UNL A   1      43.305  29.013  35.290  1.00  0.00     0.029 A 
ATOM     58  C   UNL A   1      43.112  28.611  33.979  1.00  0.00     0.049 A 
ATOM     59  H   UNL A   1      41.670  29.277  32.586  1.00  0.00     0.167 HD
ATOM     60  C   UNL A   1      43.568  27.294  31.932  1.00  0.00     0.074 A 
ATOM     61  C   UNL A   1      44.295  26.292  31.180  1.00  0.00     0.031 C 
ATOM     62  C   UNL A   1      43.845  27.625  33.220  1.00  0.00     0.034 A 
BRANCH  49  63
ATOM     63  C   UNL A   1      40.049  31.970  35.503  1.00  0.00     0.023 A 
ATOM     64  C   UNL A   1      39.142  31.513  36.476  1.00  0.00     0.031 A 
ATOM     65  C   UNL A   1      40.562  33.271  35.640  1.00  0.00     0.131 A 
ATOM     66  C   UNL A   1      38.723  32.373  37.502  1.00  0.00     0.055 A 
ATOM     67  C   UNL A   1      40.202  34.094  36.709  1.00  0.00     0.041 A 
ATOM     68  F   UNL A   1      41.413  33.770  34.729  1.00  0.00    -0.206 F 
ATOM     69  C   UNL A   1      39.267  33.652  37.640  1.00  0.00     0.022 A 
BRANCH  66  70
ATOM     70  S   UNL A   1      37.358  31.845  38.572  1.00  0.00     0.124 S 
ATOM     71  O   UNL A   1      37.959  31.966  39.897  1.00  0.00    -0.237 OA
ATOM     72  O   UNL A   1      36.313  32.811  38.253  1.00  0.00    -0.237 OA
ATOM     73  O   UNL A   1      37.093  30.474  38.139  1.00  0.00    -0.744 OA
ENDBRANCH  66  70
ENDBRANCH  49  63
BRANCH  50  74
ATOM     74  C   UNL A   1      42.325  26.491  27.459  1.00  0.00     0.023 A 
ATOM     75  C   UNL A   1      41.974  25.139  27.307  1.00  0.00     0.031 A 
ATOM     76  C   UNL A   1      43.150  27.067  26.475  1.00  0.00     0.131 A 
ATOM     77  C   UNL A   1      42.499  24.392  26.239  1.00  0.00     0.055 A 
ATOM     78  C   UNL A   1      43.622  26.336  25.383  1.00  0.00     0.041 A 
ATOM     79  F   UNL A   1      43.520  28.354  26.569  1.00  0.00    -0.206 F 
ATOM     80  C   UNL A   1      43.310  24.985  25.269  1.00  0.00     0.022 A 
BRANCH  77  81
ATOM     81  S   UNL A   1      42.201  22.602  26.198  1.00  0.00     0.124 S 
ATOM     82  O   UNL A   1      42.722  22.244  24.884  1.00  0.00    -0.237 OA
ATOM     83  O   UNL A   1      42.977  22.140  27.344  1.00  0.00    -0.237 OA
ATOM     84  O   UNL A   1      40.751  22.495  26.346  1.00  0.00    -0.744 OA
ENDBRANCH  77  81
ENDBRANCH  50  74
BRANCH  62  85
ATOM     85  C   UNL A   1      44.962  26.866  33.902  1.00  0.00     0.023 A 
ATOM     86  C   UNL A   1      44.717  25.696  34.642  1.00  0.00     0.031 A 
ATOM     87  C   UNL A   1      46.285  27.343  33.846  1.00  0.00     0.131 A 
ATOM     88  C   UNL A   1      45.759  25.089  35.360  1.00  0.00     0.055 A 
ATOM     89  C   UNL A   1      47.331  26.693  34.503  1.00  0.00     0.041 A 
ATOM     90  F   UNL A   1      46.583  28.456  33.156  1.00  0.00    -0.206 F 
ATOM     91  C   UNL A   1      47.068  25.570  35.281  1.00  0.00     0.022 A 
BRANCH  88  92
ATOM     92  S   UNL A   1      45.356  23.738  36.503  1.00  0.00     0.124 S 
ATOM     93  O   UNL A   1      44.487  22.898  35.685  1.00  0.00    -0.237 OA
ATOM     94  O   UNL A   1      46.672  23.186  36.809  1.00  0.00    -0.237 OA
ATOM     95  O   UNL A   1      44.694  24.416  37.616  1.00  0.00    -0.744 OA
ENDBRANCH  88  92
ENDBRANCH  62  85
ENDBRANCH  36  37
ENDBRANCH  29  31
ENDBRANCH  28  29
ENDBRANCH  27  28
ENDBRANCH   1  27
TORSDOF 20
ENDMDL
MODEL 3
REMARK VINA RESULT:     -11.3      2.448      8.635
REMARK SMILES O=C(OCCOCCOC(=O)c1ccc(-c2c3nc(c(-c4cc(S(=O)(=O)[O-])ccc4F)c4ccc([nH]4)c(-c4cc(S(=O)(=O)[O-])ccc4F)c4nc(c(-c5cc(S(=O)(=O)[O-])ccc5F)c5ccc2[nH]5)C=C4)C=C3)cc1)/C(=C/c1ccccc1Cl)NC(=O)c1ccccc1
REMARK SMILES IDX 7 1 6 2 5 3 4 4 3 5 2 6 1 7 75 8 76 9 84 10 85 11 86 13
REMARK SMILES IDX 87 14 88 15 92 16 89 17 91 18 90 19 77 20 78 21 82 22 79 23
REMARK SMILES IDX 81 24 83 25 80 26 8 27 9 28 10 29 11 30 12 31 13 32 74 33
REMARK SMILES IDX 14 34 73 35 15 36 16 37 17 38 67 39 18 40 72 41 66 42 68 43
REMARK SMILES IDX 19 44 71 45 65 46 64 47 20 49 52 50 32 51 51 52 33 53 36 54
REMARK SMILES IDX 50 55 69 56 34 57 35 58 49 60 70 61 37 62 21 63 22 64 30 65
REMARK SMILES IDX 23 66 29 67 31 68 28 69 24 70 25 71 26 72 27 73 53 74 54 75
REMARK SMILES IDX 62 76 55 77 61 78 63 79 60 80 56 81 57 82 58 83 59 84 38 85
REMARK SMILES IDX 39 86 47 87 40 88 46 89 48 90 45 91 41 92 42 93 43 94 44 95
REMARK H PARENT 84 12 68 48 36 59
REMARK Flexibility Score: inf
ROOT
ATOM      1  C   UNL A   1      38.236  20.162  24.998  1.00  0.00     0.202 C 
ENDROOT
BRANCH   1   2
ATOM      2  O   UNL A   1      37.994  21.408  25.651  1.00  0.00    -0.374 OA
BRANCH   2   3
ATOM      3  C   UNL A   1      36.661  21.873  25.504  1.00  0.00     0.202 C 
BRANCH   3   4
ATOM      4  C   UNL A   1      36.467  22.784  24.291  1.00  0.00     0.261 C 
BRANCH   4   5
ATOM      5  O   UNL A   1      35.201  22.613  23.650  1.00  0.00    -0.459 OA
BRANCH   5   6
ATOM      6  C   UNL A   1      34.132  22.948  24.430  1.00  0.00     0.354 C 
ATOM      7  O   UNL A   1      33.363  22.118  24.897  1.00  0.00    -0.244 OA
BRANCH   6   8
ATOM      8  C   UNL A   1      33.758  24.386  24.267  1.00  0.00     0.128 C 
ATOM      9  C   UNL A   1      33.332  24.895  25.448  1.00  0.00     0.043 C 
BRANCH   8  10
ATOM     10  N   UNL A   1      33.932  25.115  23.109  1.00  0.00    -0.316 N 
ATOM     11  C   UNL A   1      33.260  26.102  22.402  1.00  0.00     0.255 C 
ATOM     12  H   UNL A   1      34.768  24.862  22.655  1.00  0.00     0.170 HD
ATOM     13  O   UNL A   1      33.654  26.331  21.254  1.00  0.00    -0.269 OA
BRANCH  11  14
ATOM     14  C   UNL A   1      32.177  26.988  22.899  1.00  0.00     0.040 A 
ATOM     15  C   UNL A   1      30.843  26.565  22.830  1.00  0.00     0.014 A 
ATOM     16  C   UNL A   1      32.402  28.354  23.097  1.00  0.00     0.014 A 
ATOM     17  C   UNL A   1      29.788  27.447  23.121  1.00  0.00     0.001 A 
ATOM     18  C   UNL A   1      31.363  29.219  23.476  1.00  0.00     0.001 A 
ATOM     19  C   UNL A   1      30.052  28.760  23.503  1.00  0.00     0.000 A 
ENDBRANCH  11  14
ENDBRANCH   8  10
BRANCH   9  20
ATOM     20  C   UNL A   1      32.891  26.221  25.943  1.00  0.00    -0.005 A 
ATOM     21  C   UNL A   1      33.937  27.144  26.167  1.00  0.00     0.010 A 
ATOM     22  C   UNL A   1      31.609  26.578  26.388  1.00  0.00     0.048 A 
ATOM     23  C   UNL A   1      33.721  28.367  26.810  1.00  0.00     0.001 A 
ATOM     24  C   UNL A   1      31.394  27.808  27.036  1.00  0.00     0.021 A 
ATOM     25  Cl  UNL A   1      30.244  25.538  26.236  1.00  0.00    -0.084 Cl
ATOM     26  C   UNL A   1      32.446  28.698  27.251  1.00  0.00     0.002 A 
ENDBRANCH   9  20
ENDBRANCH   6   8
ENDBRANCH   5   6
ENDBRANCH   4   5
ENDBRANCH   3   4
ENDBRANCH   2   3
ENDBRANCH   1   2
BRANCH   1  27
ATOM     27  C   UNL A   1      39.205  19.234  25.750  1.00  0.00     0.261 C 
BRANCH  27  28
ATOM     28  O   UNL A   1      40.586  19.387  25.330  1.00  0.00    -0.460 OA
BRANCH  28  29
ATOM     29  C   UNL A   1      41.498  19.583  26.325  1.00  0.00     0.338 C 
ATOM     30  O   UNL A   1      42.251  18.731  26.774  1.00  0.00    -0.246 OA
BRANCH  29  31
ATOM     31  C   UNL A   1      41.564  21.011  26.754  1.00  0.00     0.060 A 
ATOM     32  C   UNL A   1      41.429  22.007  25.773  1.00  0.00     0.016 A 
ATOM     33  C   UNL A   1      41.795  21.392  28.080  1.00  0.00     0.016 A 
ATOM     34  C   UNL A   1      41.566  23.363  26.101  1.00  0.00     0.010 A 
ATOM     35  C   UNL A   1      41.928  22.753  28.408  1.00  0.00     0.010 A 
ATOM     36  C   UNL A   1      41.849  23.750  27.418  1.00  0.00    -0.014 A 
BRANCH  36  37
ATOM     37  C   UNL A   1      42.220  25.165  27.725  1.00  0.00     0.031 A 
ATOM     38  C   UNL A   1      43.603  25.650  27.365  1.00  0.00     0.074 A 
ATOM     39  C   UNL A   1      41.353  26.026  28.294  1.00  0.00     0.049 A 
ATOM     40  N   UNL A   1      44.145  26.828  27.538  1.00  0.00    -0.248 NA
ATOM     41  C   UNL A   1      44.489  24.668  26.722  1.00  0.00     0.031 C 
ATOM     42  C   UNL A   1      39.975  25.714  28.659  1.00  0.00     0.029 A 
ATOM     43  N   UNL A   1      41.502  27.341  28.672  1.00  0.00    -0.354 N 
ATOM     44  C   UNL A   1      45.426  26.740  27.002  1.00  0.00     0.074 A 
ATOM     45  C   UNL A   1      45.602  25.370  26.565  1.00  0.00     0.031 C 
ATOM     46  C   UNL A   1      39.415  26.789  29.240  1.00  0.00     0.029 A 
ATOM     47  C   UNL A   1      40.393  27.874  29.291  1.00  0.00     0.049 A 
ATOM     48  H   UNL A   1      42.328  27.855  28.515  1.00  0.00     0.167 HD
ATOM     49  C   UNL A   1      46.360  27.712  26.857  1.00  0.00     0.034 A 
ATOM     50  C   UNL A   1      40.188  29.090  29.841  1.00  0.00     0.034 A 
ATOM     51  C   UNL A   1      46.197  29.070  27.316  1.00  0.00     0.049 A 
ATOM     52  C   UNL A   1      41.280  30.132  29.753  1.00  0.00     0.074 A 
ATOM     53  C   UNL A   1      47.089  30.126  27.220  1.00  0.00     0.029 A 
ATOM     54  N   UNL A   1      45.075  29.563  27.968  1.00  0.00    -0.354 N 
ATOM     55  N   UNL A   1      42.474  30.039  29.211  1.00  0.00    -0.248 NA
ATOM     56  C   UNL A   1      40.984  31.454  30.324  1.00  0.00     0.031 C 
ATOM     57  C   UNL A   1      46.535  31.233  27.873  1.00  0.00     0.029 A 
ATOM     58  C   UNL A   1      45.263  30.895  28.306  1.00  0.00     0.049 A 
ATOM     59  H   UNL A   1      44.262  29.041  28.162  1.00  0.00     0.167 HD
ATOM     60  C   UNL A   1      43.052  31.300  29.347  1.00  0.00     0.074 A 
ATOM     61  C   UNL A   1      42.067  32.140  29.994  1.00  0.00     0.031 C 
ATOM     62  C   UNL A   1      44.285  31.727  28.968  1.00  0.00     0.034 A 
BRANCH  49  63
ATOM     63  C   UNL A   1      47.660  27.322  26.192  1.00  0.00     0.023 A 
ATOM     64  C   UNL A   1      47.888  27.577  24.827  1.00  0.00     0.031 A 
ATOM     65  C   UNL A   1      48.671  26.671  26.919  1.00  0.00     0.131 A 
ATOM     66  C   UNL A   1      49.067  27.122  24.219  1.00  0.00     0.055 A 
ATOM     67  C   UNL A   1      49.876  26.292  26.325  1.00  0.00     0.041 A 
ATOM     68  F   UNL A   1      48.499  26.380  28.219  1.00  0.00    -0.206 F 
ATOM     69  C   UNL A   1      50.074  26.504  24.963  1.00  0.00     0.022 A 
BRANCH  66  70
ATOM     70  S   UNL A   1      49.206  27.227  22.414  1.00  0.00     0.124 S 
ATOM     71  O   UNL A   1      48.643  25.945  22.000  1.00  0.00    -0.237 OA
ATOM     72  O   UNL A   1      48.409  28.407  22.102  1.00  0.00    -0.237 OA
ATOM     73  O   UNL A   1      50.644  27.368  22.188  1.00  0.00    -0.744 OA
ENDBRANCH  66  70
ENDBRANCH  49  63
BRANCH  50  74
ATOM     74  C   UNL A   1      38.911  29.404  30.555  1.00  0.00     0.023 A 
ATOM     75  C   UNL A   1      37.937  30.241  29.986  1.00  0.00     0.031 A 
ATOM     76  C   UNL A   1      38.693  28.942  31.867  1.00  0.00     0.131 A 
ATOM     77  C   UNL A   1      36.827  30.645  30.748  1.00  0.00     0.055 A 
ATOM     78  C   UNL A   1      37.559  29.299  32.598  1.00  0.00     0.041 A 
ATOM     79  F   UNL A   1      39.591  28.142  32.462  1.00  0.00    -0.206 F 
ATOM     80  C   UNL A   1      36.625  30.170  32.045  1.00  0.00     0.022 A 
BRANCH  77  81
ATOM     81  S   UNL A   1      35.706  31.897  30.059  1.00  0.00     0.124 S 
ATOM     82  O   UNL A   1      35.116  31.180  28.934  1.00  0.00    -0.237 OA
ATOM     83  O   UNL A   1      34.821  32.163  31.187  1.00  0.00    -0.237 OA
ATOM     84  O   UNL A   1      36.602  32.994  29.700  1.00  0.00    -0.744 OA
ENDBRANCH  77  81
ENDBRANCH  50  74
BRANCH  62  85
ATOM     85  C   UNL A   1      44.616  33.181  29.217  1.00  0.00     0.023 A 
ATOM     86  C   UNL A   1      44.369  34.172  28.251  1.00  0.00     0.031 A 
ATOM     87  C   UNL A   1      45.227  33.577  30.422  1.00  0.00     0.131 A 
ATOM     88  C   UNL A   1      44.802  35.490  28.470  1.00  0.00     0.055 A 
ATOM     89  C   UNL A   1      45.588  34.903  30.665  1.00  0.00     0.041 A 
ATOM     90  F   UNL A   1      45.489  32.677  31.384  1.00  0.00    -0.206 F 
ATOM     91  C   UNL A   1      45.394  35.865  29.678  1.00  0.00     0.022 A 
BRANCH  88  92
ATOM     92  S   UNL A   1      44.698  36.678  27.103  1.00  0.00     0.124 S 
ATOM     93  O   UNL A   1      43.340  36.462  26.616  1.00  0.00    -0.237 OA
ATOM     94  O   UNL A   1      44.938  37.950  27.778  1.00  0.00    -0.237 OA
ATOM     95  O   UNL A   1      45.759  36.250  26.194  1.00  0.00    -0.744 OA
ENDBRANCH  88  92
ENDBRANCH  62  85
ENDBRANCH  36  37
ENDBRANCH  29  31
ENDBRANCH  28  29
ENDBRANCH  27  28
ENDBRANCH   1  27
TORSDOF 20
ENDMDL
