MODEL 1
REMARK VINA RESULT:     -10.1      0.000      0.000
REMARK SMILES O=C(OCCOCCOC(=O)[C@@]1([NH2+]C2CC2)CC[C@H](OC2CCC2)C1)c1ccc(-c2c3nc(c(-c4cc(S(=O)(=O)[O-])ccc4F)c4ccc([nH]4)c(-c4cc(S(=O)(=O)[O-])ccc4F)c4nc(c(-c5cc(S(=O)(=O)[O-])ccc5F)c5ccc2[nH]5)C=C4)C=C3)cc1
REMARK SMILES IDX 5 1 4 2 3 3 2 4 1 5 26 6 27 7 88 8 28 9 87 10 29 11 30 12
REMARK SMILES IDX 31 13 81 14 32 15 86 16 80 17 82 18 33 19 85 20 79 21 78 22
REMARK SMILES IDX 34 24 66 25 46 26 65 27 47 28 50 29 64 30 83 31 48 32 49 33
REMARK SMILES IDX 63 35 84 36 51 37 35 38 36 39 44 40 37 41 43 42 45 43 42 44
REMARK SMILES IDX 38 45 39 46 40 47 41 48 67 49 68 50 76 51 69 52 75 53 77 54
REMARK SMILES IDX 74 55 70 56 71 57 72 58 73 59 52 60 53 61 61 62 54 63 60 64
REMARK SMILES IDX 62 65 59 66 55 67 56 68 57 69 58 70 6 71 7 72 8 73 9 74
REMARK SMILES IDX 10 75 11 76 12 77 17 78 25 79 18 80 19 81 13 82 14 85 15 86
REMARK SMILES IDX 16 87 20 88 21 89 22 90 24 91 23 92
REMARK H PARENT 82 23 50 34 13 83 13 84
REMARK Flexibility Score: inf
ROOT
ATOM      1  C   UNL A   1      31.961  29.026  25.230  1.00  0.00     0.202 C 
ENDROOT
BRANCH   1   2
ATOM      2  C   UNL A   1      33.222  29.281  26.051  1.00  0.00     0.261 C 
BRANCH   2   3
ATOM      3  O   UNL A   1      32.923  30.267  27.051  1.00  0.00    -0.460 OA
BRANCH   3   4
ATOM      4  C   UNL A   1      33.780  31.243  27.450  1.00  0.00     0.338 C 
ATOM      5  O   UNL A   1      33.448  32.421  27.354  1.00  0.00    -0.246 OA
BRANCH   4   6
ATOM      6  C   UNL A   1      35.059  30.899  28.129  1.00  0.00     0.060 A 
ATOM      7  C   UNL A   1      35.251  29.729  28.859  1.00  0.00     0.016 A 
ATOM      8  C   UNL A   1      36.137  31.782  28.008  1.00  0.00     0.016 A 
ATOM      9  C   UNL A   1      36.410  29.456  29.522  1.00  0.00     0.010 A 
ATOM     10  C   UNL A   1      37.368  31.462  28.590  1.00  0.00     0.010 A 
ATOM     11  C   UNL A   1      37.497  30.281  29.332  1.00  0.00    -0.014 A 
BRANCH  11  12
ATOM     12  C   UNL A   1      38.700  29.853  30.045  1.00  0.00     0.031 A 
ATOM     13  C   UNL A   1      39.637  28.950  29.326  1.00  0.00     0.074 A 
ATOM     14  C   UNL A   1      39.019  30.482  31.194  1.00  0.00     0.049 A 
ATOM     15  N   UNL A   1      40.708  28.366  29.768  1.00  0.00    -0.248 NA
ATOM     16  C   UNL A   1      39.324  28.671  27.913  1.00  0.00     0.031 C 
ATOM     17  C   UNL A   1      38.227  31.553  31.826  1.00  0.00     0.029 A 
ATOM     18  N   UNL A   1      40.112  30.372  32.003  1.00  0.00    -0.354 N 
ATOM     19  C   UNL A   1      41.178  27.610  28.705  1.00  0.00     0.074 A 
ATOM     20  C   UNL A   1      40.267  27.798  27.600  1.00  0.00     0.031 C 
ATOM     21  C   UNL A   1      38.881  32.014  32.900  1.00  0.00     0.029 A 
ATOM     22  C   UNL A   1      40.059  31.191  33.108  1.00  0.00     0.049 A 
ATOM     23  H   UNL A   1      40.865  29.766  31.815  1.00  0.00     0.167 HD
ATOM     24  C   UNL A   1      42.278  26.826  28.686  1.00  0.00     0.034 A 
ATOM     25  C   UNL A   1      40.845  31.206  34.199  1.00  0.00     0.034 A 
ATOM     26  C   UNL A   1      43.133  26.690  29.836  1.00  0.00     0.049 A 
ATOM     27  C   UNL A   1      41.974  30.207  34.214  1.00  0.00     0.074 A 
ATOM     28  C   UNL A   1      44.202  25.841  30.031  1.00  0.00     0.029 A 
ATOM     29  N   UNL A   1      43.003  27.449  30.999  1.00  0.00    -0.354 N 
ATOM     30  N   UNL A   1      42.337  29.362  33.272  1.00  0.00    -0.248 NA
ATOM     31  C   UNL A   1      42.788  30.148  35.428  1.00  0.00     0.031 C 
ATOM     32  C   UNL A   1      44.680  26.044  31.331  1.00  0.00     0.029 A 
ATOM     33  C   UNL A   1      43.965  27.079  31.920  1.00  0.00     0.049 A 
ATOM     34  H   UNL A   1      42.325  28.147  31.143  1.00  0.00     0.167 HD
ATOM     35  C   UNL A   1      43.438  28.683  33.774  1.00  0.00     0.074 A 
ATOM     36  C   UNL A   1      43.696  29.247  35.088  1.00  0.00     0.031 C 
ATOM     37  C   UNL A   1      44.170  27.681  33.218  1.00  0.00     0.034 A 
BRANCH  24  38
ATOM     38  C   UNL A   1      42.502  26.010  27.442  1.00  0.00     0.023 A 
ATOM     39  C   UNL A   1      41.998  24.704  27.311  1.00  0.00     0.031 A 
ATOM     40  C   UNL A   1      43.342  26.499  26.427  1.00  0.00     0.131 A 
ATOM     41  C   UNL A   1      42.408  23.903  26.235  1.00  0.00     0.055 A 
ATOM     42  C   UNL A   1      43.676  25.726  25.313  1.00  0.00     0.041 A 
ATOM     43  F   UNL A   1      43.891  27.721  26.522  1.00  0.00    -0.206 F 
ATOM     44  C   UNL A   1      43.222  24.414  25.221  1.00  0.00     0.022 A 
BRANCH  41  45
ATOM     45  S   UNL A   1      42.006  22.134  26.267  1.00  0.00     0.124 S 
ATOM     46  O   UNL A   1      42.854  21.620  25.193  1.00  0.00    -0.237 OA
ATOM     47  O   UNL A   1      42.387  21.747  27.620  1.00  0.00    -0.237 OA
ATOM     48  O   UNL A   1      40.572  22.102  25.990  1.00  0.00    -0.744 OA
ENDBRANCH  41  45
ENDBRANCH  24  38
BRANCH  25  49
ATOM     49  C   UNL A   1      40.530  32.069  35.378  1.00  0.00     0.023 A 
ATOM     50  C   UNL A   1      39.467  31.769  36.242  1.00  0.00     0.031 A 
ATOM     51  C   UNL A   1      41.240  33.265  35.611  1.00  0.00     0.131 A 
ATOM     52  C   UNL A   1      39.103  32.677  37.251  1.00  0.00     0.055 A 
ATOM     53  C   UNL A   1      40.922  34.129  36.661  1.00  0.00     0.041 A 
ATOM     54  F   UNL A   1      42.261  33.621  34.815  1.00  0.00    -0.206 F 
ATOM     55  C   UNL A   1      39.832  33.847  37.476  1.00  0.00     0.022 A 
BRANCH  52  56
ATOM     56  S   UNL A   1      37.572  32.379  38.177  1.00  0.00     0.124 S 
ATOM     57  O   UNL A   1      37.907  32.924  39.487  1.00  0.00    -0.237 OA
ATOM     58  O   UNL A   1      36.596  33.134  37.398  1.00  0.00    -0.237 OA
ATOM     59  O   UNL A   1      37.420  30.927  38.125  1.00  0.00    -0.744 OA
ENDBRANCH  52  56
ENDBRANCH  25  49
BRANCH  37  60
ATOM     60  C   UNL A   1      45.339  27.193  34.028  1.00  0.00     0.023 A 
ATOM     61  C   UNL A   1      46.612  27.773  33.907  1.00  0.00     0.031 A 
ATOM     62  C   UNL A   1      45.174  26.117  34.917  1.00  0.00     0.131 A 
ATOM     63  C   UNL A   1      47.691  27.225  34.609  1.00  0.00     0.055 A 
ATOM     64  C   UNL A   1      46.236  25.628  35.674  1.00  0.00     0.041 A 
ATOM     65  F   UNL A   1      43.977  25.527  35.064  1.00  0.00    -0.206 F 
ATOM     66  C   UNL A   1      47.508  26.171  35.509  1.00  0.00     0.022 A 
BRANCH  63  67
ATOM     67  S   UNL A   1      49.357  27.829  34.236  1.00  0.00     0.124 S 
ATOM     68  O   UNL A   1      50.186  26.695  34.635  1.00  0.00    -0.237 OA
ATOM     69  O   UNL A   1      49.282  28.089  32.803  1.00  0.00    -0.237 OA
ATOM     70  O   UNL A   1      49.484  29.018  35.077  1.00  0.00    -0.744 OA
ENDBRANCH  63  67
ENDBRANCH  37  60
ENDBRANCH  11  12
ENDBRANCH   4   6
ENDBRANCH   3   4
ENDBRANCH   2   3
ENDBRANCH   1   2
BRANCH   1  71
ATOM     71  O   UNL A   1      31.989  27.833  24.455  1.00  0.00    -0.374 OA
BRANCH  71  72
ATOM     72  C   UNL A   1      30.884  26.960  24.593  1.00  0.00     0.202 C 
BRANCH  72  73
ATOM     73  C   UNL A   1      30.857  26.357  25.992  1.00  0.00     0.261 C 
BRANCH  73  74
ATOM     74  O   UNL A   1      32.026  25.539  26.168  1.00  0.00    -0.459 OA
BRANCH  74  75
ATOM     75  C   UNL A   1      31.846  24.233  26.564  1.00  0.00     0.368 C 
ATOM     76  O   UNL A   1      30.935  23.855  27.295  1.00  0.00    -0.245 OA
BRANCH  75  77
ATOM     77  C   UNL A   1      32.978  23.357  25.961  1.00  0.00     0.197 C 
ATOM     78  C   UNL A   1      34.078  22.996  26.973  1.00  0.00     0.084 C 
ATOM     79  C   UNL A   1      32.309  21.959  25.785  1.00  0.00     0.113 C 
ATOM     80  C   UNL A   1      34.622  21.670  26.524  1.00  0.00     0.039 C 
ATOM     81  C   UNL A   1      33.420  20.924  25.968  1.00  0.00     0.125 C 
BRANCH  77  82
ATOM     82  N   UNL A   1      33.407  23.778  24.607  1.00  0.00    -0.330 N 
ATOM     83  H   UNL A   1      34.276  23.264  24.465  1.00  0.00     0.347 HD
ATOM     84  H   UNL A   1      33.257  24.776  24.754  1.00  0.00     0.347 HD
BRANCH  82  85
ATOM     85  C   UNL A   1      32.764  23.721  23.293  1.00  0.00     0.183 C 
ATOM     86  C   UNL A   1      32.927  24.591  22.089  1.00  0.00     0.071 C 
ATOM     87  C   UNL A   1      33.328  23.142  22.032  1.00  0.00     0.071 C 
ENDBRANCH  82  85
ENDBRANCH  77  82
BRANCH  81  88
ATOM     88  O   UNL A   1      33.730  20.344  24.710  1.00  0.00    -0.375 OA
BRANCH  88  89
ATOM     89  C   UNL A   1      33.383  18.969  24.445  1.00  0.00     0.118 C 
ATOM     90  C   UNL A   1      34.506  17.906  24.353  1.00  0.00     0.032 C 
ATOM     91  C   UNL A   1      32.752  18.103  25.562  1.00  0.00     0.032 C 
ATOM     92  C   UNL A   1      33.524  16.903  24.983  1.00  0.00     0.005 C 
ENDBRANCH  88  89
ENDBRANCH  81  88
ENDBRANCH  75  77
ENDBRANCH  74  75
ENDBRANCH  73  74
ENDBRANCH  72  73
ENDBRANCH  71  72
ENDBRANCH   1  71
TORSDOF 21
ENDMDL
MODEL 2
REMARK VINA RESULT:     -10.0      2.228      2.729
REMARK SMILES O=C(OCCOCCOC(=O)[C@@]1([NH2+]C2CC2)CC[C@H](OC2CCC2)C1)c1ccc(-c2c3nc(c(-c4cc(S(=O)(=O)[O-])ccc4F)c4ccc([nH]4)c(-c4cc(S(=O)(=O)[O-])ccc4F)c4nc(c(-c5cc(S(=O)(=O)[O-])ccc5F)c5ccc2[nH]5)C=C4)C=C3)cc1
REMARK SMILES IDX 5 1 4 2 3 3 2 4 1 5 26 6 27 7 88 8 28 9 87 10 29 11 30 12
REMARK SMILES IDX 31 13 81 14 32 15 86 16 80 17 82 18 33 19 85 20 79 21 78 22
REMARK SMILES IDX 34 24 66 25 46 26 65 27 47 28 50 29 64 30 83 31 48 32 49 33
REMARK SMILES IDX 63 35 84 36 51 37 35 38 36 39 44 40 37 41 43 42 45 43 42 44
REMARK SMILES IDX 38 45 39 46 40 47 41 48 67 49 68 50 76 51 69 52 75 53 77 54
REMARK SMILES IDX 74 55 70 56 71 57 72 58 73 59 52 60 53 61 61 62 54 63 60 64
REMARK SMILES IDX 62 65 59 66 55 67 56 68 57 69 58 70 6 71 7 72 8 73 9 74
REMARK SMILES IDX 10 75 11 76 12 77 17 78 25 79 18 80 19 81 13 82 14 85 15 86
REMARK SMILES IDX 16 87 20 88 21 89 22 90 24 91 23 92
REMARK H PARENT 82 23 50 34 13 83 13 84
REMARK Flexibility Score: inf
ROOT
ATOM      1  C   UNL A   1      32.671  28.181  25.070  1.00  0.00     0.202 C 
ENDROOT
BRANCH   1   2
ATOM      2  C   UNL A   1      32.476  29.695  25.067  1.00  0.00     0.261 C 
BRANCH   2   3
ATOM      3  O   UNL A   1      32.362  30.142  26.427  1.00  0.00    -0.460 OA
BRANCH   3   4
ATOM      4  C   UNL A   1      33.050  31.189  26.952  1.00  0.00     0.338 C 
ATOM      5  O   UNL A   1      32.580  32.321  26.888  1.00  0.00    -0.246 OA
BRANCH   4   6
ATOM      6  C   UNL A   1      34.301  30.963  27.728  1.00  0.00     0.060 A 
ATOM      7  C   UNL A   1      34.722  29.707  28.157  1.00  0.00     0.016 A 
ATOM      8  C   UNL A   1      35.112  32.064  28.019  1.00  0.00     0.016 A 
ATOM      9  C   UNL A   1      35.840  29.525  28.914  1.00  0.00     0.010 A 
ATOM     10  C   UNL A   1      36.320  31.877  28.700  1.00  0.00     0.010 A 
ATOM     11  C   UNL A   1      36.683  30.594  29.127  1.00  0.00    -0.014 A 
BRANCH  11  12
ATOM     12  C   UNL A   1      37.879  30.262  29.901  1.00  0.00     0.031 A 
ATOM     13  C   UNL A   1      38.936  29.468  29.220  1.00  0.00     0.074 A 
ATOM     14  C   UNL A   1      38.073  30.890  31.078  1.00  0.00     0.049 A 
ATOM     15  N   UNL A   1      40.032  28.976  29.711  1.00  0.00    -0.248 NA
ATOM     16  C   UNL A   1      38.730  29.197  27.786  1.00  0.00     0.031 C 
ATOM     17  C   UNL A   1      37.149  31.866  31.683  1.00  0.00     0.029 A 
ATOM     18  N   UNL A   1      39.125  30.862  31.947  1.00  0.00    -0.354 N 
ATOM     19  C   UNL A   1      40.629  28.293  28.663  1.00  0.00     0.074 A 
ATOM     20  C   UNL A   1      39.767  28.423  27.511  1.00  0.00     0.031 C 
ATOM     21  C   UNL A   1      37.697  32.360  32.802  1.00  0.00     0.029 A 
ATOM     22  C   UNL A   1      38.934  31.646  33.062  1.00  0.00     0.049 A 
ATOM     23  H   UNL A   1      39.941  30.334  31.790  1.00  0.00     0.167 HD
ATOM     24  C   UNL A   1      41.798  27.616  28.693  1.00  0.00     0.034 A 
ATOM     25  C   UNL A   1      39.653  31.706  34.196  1.00  0.00     0.034 A 
ATOM     26  C   UNL A   1      42.596  27.532  29.887  1.00  0.00     0.049 A 
ATOM     27  C   UNL A   1      40.868  30.817  34.257  1.00  0.00     0.074 A 
ATOM     28  C   UNL A   1      43.728  26.781  30.127  1.00  0.00     0.029 A 
ATOM     29  N   UNL A   1      42.331  28.247  31.055  1.00  0.00    -0.354 N 
ATOM     30  N   UNL A   1      41.361  30.033  33.322  1.00  0.00    -0.248 NA
ATOM     31  C   UNL A   1      41.616  30.805  35.515  1.00  0.00     0.031 C 
ATOM     32  C   UNL A   1      44.112  26.996  31.456  1.00  0.00     0.029 A 
ATOM     33  C   UNL A   1      43.270  27.945  32.023  1.00  0.00     0.049 A 
ATOM     34  H   UNL A   1      41.582  28.875  31.173  1.00  0.00     0.167 HD
ATOM     35  C   UNL A   1      42.492  29.447  33.874  1.00  0.00     0.074 A 
ATOM     36  C   UNL A   1      42.621  30.000  35.210  1.00  0.00     0.031 C 
ATOM     37  C   UNL A   1      43.345  28.532  33.342  1.00  0.00     0.034 A 
BRANCH  24  38
ATOM     38  C   UNL A   1      42.167  26.855  27.448  1.00  0.00     0.023 A 
ATOM     39  C   UNL A   1      42.028  25.458  27.365  1.00  0.00     0.031 A 
ATOM     40  C   UNL A   1      42.787  27.523  26.378  1.00  0.00     0.131 A 
ATOM     41  C   UNL A   1      42.581  24.767  26.276  1.00  0.00     0.055 A 
ATOM     42  C   UNL A   1      43.257  26.837  25.256  1.00  0.00     0.041 A 
ATOM     43  F   UNL A   1      42.988  28.850  26.424  1.00  0.00    -0.206 F 
ATOM     44  C   UNL A   1      43.170  25.449  25.208  1.00  0.00     0.022 A 
BRANCH  41  45
ATOM     45  S   UNL A   1      42.675  22.956  26.355  1.00  0.00     0.124 S 
ATOM     46  O   UNL A   1      41.323  22.574  25.955  1.00  0.00    -0.237 OA
ATOM     47  O   UNL A   1      43.733  22.652  25.398  1.00  0.00    -0.237 OA
ATOM     48  O   UNL A   1      43.005  22.690  27.753  1.00  0.00    -0.744 OA
ENDBRANCH  41  45
ENDBRANCH  24  38
BRANCH  25  49
ATOM     49  C   UNL A   1      39.192  32.507  35.372  1.00  0.00     0.023 A 
ATOM     50  C   UNL A   1      39.621  33.827  35.572  1.00  0.00     0.031 A 
ATOM     51  C   UNL A   1      38.376  31.931  36.367  1.00  0.00     0.131 A 
ATOM     52  C   UNL A   1      39.292  34.501  36.761  1.00  0.00     0.055 A 
ATOM     53  C   UNL A   1      37.989  32.630  37.512  1.00  0.00     0.041 A 
ATOM     54  F   UNL A   1      37.939  30.666  36.246  1.00  0.00    -0.206 F 
ATOM     55  C   UNL A   1      38.467  33.917  37.725  1.00  0.00     0.022 A 
BRANCH  52  56
ATOM     56  S   UNL A   1      40.076  36.102  37.098  1.00  0.00     0.124 S 
ATOM     57  O   UNL A   1      39.920  36.783  35.818  1.00  0.00    -0.237 OA
ATOM     58  O   UNL A   1      39.265  36.610  38.199  1.00  0.00    -0.237 OA
ATOM     59  O   UNL A   1      41.448  35.741  37.450  1.00  0.00    -0.744 OA
ENDBRANCH  52  56
ENDBRANCH  25  49
BRANCH  37  60
ATOM     60  C   UNL A   1      44.508  28.135  34.208  1.00  0.00     0.023 A 
ATOM     61  C   UNL A   1      44.422  27.060  35.108  1.00  0.00     0.031 A 
ATOM     62  C   UNL A   1      45.710  28.860  34.143  1.00  0.00     0.131 A 
ATOM     63  C   UNL A   1      45.496  26.786  35.962  1.00  0.00     0.055 A 
ATOM     64  C   UNL A   1      46.804  28.530  34.939  1.00  0.00     0.041 A 
ATOM     65  F   UNL A   1      45.839  29.898  33.300  1.00  0.00    -0.206 F 
ATOM     66  C   UNL A   1      46.695  27.499  35.868  1.00  0.00     0.022 A 
BRANCH  63  67
ATOM     67  S   UNL A   1      45.259  25.567  37.280  1.00  0.00     0.124 S 
ATOM     68  O   UNL A   1      43.805  25.454  37.329  1.00  0.00    -0.237 OA
ATOM     69  O   UNL A   1      45.971  24.404  36.761  1.00  0.00    -0.237 OA
ATOM     70  O   UNL A   1      45.873  26.201  38.445  1.00  0.00    -0.744 OA
ENDBRANCH  63  67
ENDBRANCH  37  60
ENDBRANCH  11  12
ENDBRANCH   4   6
ENDBRANCH   3   4
ENDBRANCH   2   3
ENDBRANCH   1   2
BRANCH   1  71
ATOM     71  O   UNL A   1      33.452  27.681  23.991  1.00  0.00    -0.374 OA
BRANCH  71  72
ATOM     72  C   UNL A   1      32.925  26.576  23.284  1.00  0.00     0.202 C 
BRANCH  72  73
ATOM     73  C   UNL A   1      32.414  25.518  24.256  1.00  0.00     0.261 C 
BRANCH  73  74
ATOM     74  O   UNL A   1      33.088  24.277  23.987  1.00  0.00    -0.459 OA
BRANCH  74  75
ATOM     75  C   UNL A   1      34.038  23.852  24.887  1.00  0.00     0.368 C 
ATOM     76  O   UNL A   1      34.785  24.604  25.508  1.00  0.00    -0.245 OA
BRANCH  75  77
ATOM     77  C   UNL A   1      34.017  22.300  24.958  1.00  0.00     0.197 C 
ATOM     78  C   UNL A   1      33.323  21.752  26.215  1.00  0.00     0.084 C 
ATOM     79  C   UNL A   1      32.968  21.896  23.876  1.00  0.00     0.113 C 
ATOM     80  C   UNL A   1      32.752  20.422  25.816  1.00  0.00     0.039 C 
ATOM     81  C   UNL A   1      32.318  20.602  24.370  1.00  0.00     0.125 C 
BRANCH  77  82
ATOM     82  N   UNL A   1      35.291  21.664  24.549  1.00  0.00    -0.330 N 
ATOM     83  H   UNL A   1      35.657  22.301  23.843  1.00  0.00     0.347 HD
ATOM     84  H   UNL A   1      34.911  20.723  24.444  1.00  0.00     0.347 HD
BRANCH  82  85
ATOM     85  C   UNL A   1      36.488  21.259  25.289  1.00  0.00     0.183 C 
ATOM     86  C   UNL A   1      37.597  20.330  24.917  1.00  0.00     0.071 C 
ATOM     87  C   UNL A   1      37.878  21.793  25.126  1.00  0.00     0.071 C 
ENDBRANCH  82  85
ENDBRANCH  77  82
BRANCH  81  88
ATOM     88  O   UNL A   1      32.771  19.519  23.574  1.00  0.00    -0.375 OA
BRANCH  88  89
ATOM     89  C   UNL A   1      33.242  18.308  24.203  1.00  0.00     0.118 C 
ATOM     90  C   UNL A   1      33.134  16.964  23.442  1.00  0.00     0.032 C 
ATOM     91  C   UNL A   1      34.761  18.040  24.320  1.00  0.00     0.032 C 
ATOM     92  C   UNL A   1      34.450  16.545  24.120  1.00  0.00     0.005 C 
ENDBRANCH  88  89
ENDBRANCH  81  88
ENDBRANCH  75  77
ENDBRANCH  74  75
ENDBRANCH  73  74
ENDBRANCH  72  73
ENDBRANCH  71  72
ENDBRANCH   1  71
TORSDOF 21
ENDMDL
MODEL 3
REMARK VINA RESULT:     -10.0      1.838      7.915
REMARK SMILES O=C(OCCOCCOC(=O)[C@@]1([NH2+]C2CC2)CC[C@H](OC2CCC2)C1)c1ccc(-c2c3nc(c(-c4cc(S(=O)(=O)[O-])ccc4F)c4ccc([nH]4)c(-c4cc(S(=O)(=O)[O-])ccc4F)c4nc(c(-c5cc(S(=O)(=O)[O-])ccc5F)c5ccc2[nH]5)C=C4)C=C3)cc1
REMARK SMILES IDX 5 1 4 2 3 3 2 4 1 5 26 6 27 7 88 8 28 9 87 10 29 11 30 12
REMARK SMILES IDX 31 13 81 14 32 15 86 16 80 17 82 18 33 19 85 20 79 21 78 22
REMARK SMILES IDX 34 24 66 25 46 26 65 27 47 28 50 29 64 30 83 31 48 32 49 33
REMARK SMILES IDX 63 35 84 36 51 37 35 38 36 39 44 40 37 41 43 42 45 43 42 44
REMARK SMILES IDX 38 45 39 46 40 47 41 48 67 49 68 50 76 51 69 52 75 53 77 54
REMARK SMILES IDX 74 55 70 56 71 57 72 58 73 59 52 60 53 61 61 62 54 63 60 64
REMARK SMILES IDX 62 65 59 66 55 67 56 68 57 69 58 70 6 71 7 72 8 73 9 74
REMARK SMILES IDX 10 75 11 76 12 77 17 78 25 79 18 80 19 81 13 82 14 85 15 86
REMARK SMILES IDX 16 87 20 88 21 89 22 90 24 91 23 92
REMARK H PARENT 82 23 50 34 13 83 13 84
REMARK Flexibility Score: inf
ROOT
ATOM      1  C   UNL A   1      32.654  30.686  26.687  1.00  0.00     0.202 C 
ENDROOT
BRANCH   1   2
ATOM      2  C   UNL A   1      31.886  31.901  27.199  1.00  0.00     0.261 C 
BRANCH   2   3
ATOM      3  O   UNL A   1      32.710  33.065  27.031  1.00  0.00    -0.460 OA
BRANCH   3   4
ATOM      4  C   UNL A   1      33.384  33.682  28.036  1.00  0.00     0.338 C 
ATOM      5  O   UNL A   1      32.912  34.686  28.560  1.00  0.00    -0.246 OA
BRANCH   4   6
ATOM      6  C   UNL A   1      34.620  33.077  28.605  1.00  0.00     0.060 A 
ATOM      7  C   UNL A   1      34.614  31.979  29.461  1.00  0.00     0.016 A 
ATOM      8  C   UNL A   1      35.857  33.619  28.240  1.00  0.00     0.016 A 
ATOM      9  C   UNL A   1      35.751  31.473  30.018  1.00  0.00     0.010 A 
ATOM     10  C   UNL A   1      37.038  33.040  28.715  1.00  0.00     0.010 A 
ATOM     11  C   UNL A   1      36.972  31.950  29.592  1.00  0.00    -0.014 A 
BRANCH  11  12
ATOM     12  C   UNL A   1      38.117  31.288  30.215  1.00  0.00     0.031 A 
ATOM     13  C   UNL A   1      38.357  31.550  31.658  1.00  0.00     0.074 A 
ATOM     14  C   UNL A   1      38.734  30.302  29.532  1.00  0.00     0.049 A 
ATOM     15  N   UNL A   1      39.345  31.161  32.405  1.00  0.00    -0.248 NA
ATOM     16  C   UNL A   1      37.340  32.357  32.356  1.00  0.00     0.031 C 
ATOM     17  C   UNL A   1      38.374  29.854  28.175  1.00  0.00     0.029 A 
ATOM     18  N   UNL A   1      39.739  29.454  29.894  1.00  0.00    -0.354 N 
ATOM     19  C   UNL A   1      39.099  31.714  33.653  1.00  0.00     0.074 A 
ATOM     20  C   UNL A   1      37.876  32.476  33.559  1.00  0.00     0.031 C 
ATOM     21  C   UNL A   1      39.128  28.797  27.842  1.00  0.00     0.029 A 
ATOM     22  C   UNL A   1      40.104  28.580  28.895  1.00  0.00     0.049 A 
ATOM     23  H   UNL A   1      40.162  29.465  30.783  1.00  0.00     0.167 HD
ATOM     24  C   UNL A   1      39.856  31.583  34.765  1.00  0.00     0.034 A 
ATOM     25  C   UNL A   1      41.163  27.756  28.826  1.00  0.00     0.034 A 
ATOM     26  C   UNL A   1      41.067  30.806  34.772  1.00  0.00     0.049 A 
ATOM     27  C   UNL A   1      42.077  27.752  30.025  1.00  0.00     0.074 A 
ATOM     28  C   UNL A   1      42.016  30.681  35.764  1.00  0.00     0.029 A 
ATOM     29  N   UNL A   1      41.488  30.007  33.708  1.00  0.00    -0.354 N 
ATOM     30  N   UNL A   1      41.944  28.400  31.163  1.00  0.00    -0.248 NA
ATOM     31  C   UNL A   1      43.281  26.926  29.935  1.00  0.00     0.031 C 
ATOM     32  C   UNL A   1      43.038  29.856  35.280  1.00  0.00     0.029 A 
ATOM     33  C   UNL A   1      42.689  29.396  34.016  1.00  0.00     0.049 A 
ATOM     34  H   UNL A   1      41.000  29.895  32.861  1.00  0.00     0.167 HD
ATOM     35  C   UNL A   1      43.041  28.044  31.935  1.00  0.00     0.074 A 
ATOM     36  C   UNL A   1      43.802  27.096  31.140  1.00  0.00     0.031 C 
ATOM     37  C   UNL A   1      43.401  28.458  33.178  1.00  0.00     0.034 A 
BRANCH  24  38
ATOM     38  C   UNL A   1      39.434  32.386  35.965  1.00  0.00     0.023 A 
ATOM     39  C   UNL A   1      38.694  31.815  37.016  1.00  0.00     0.031 A 
ATOM     40  C   UNL A   1      39.662  33.773  35.995  1.00  0.00     0.131 A 
ATOM     41  C   UNL A   1      38.137  32.640  38.005  1.00  0.00     0.055 A 
ATOM     42  C   UNL A   1      39.179  34.575  37.030  1.00  0.00     0.041 A 
ATOM     43  F   UNL A   1      40.321  34.379  34.994  1.00  0.00    -0.206 F 
ATOM     44  C   UNL A   1      38.397  34.013  38.034  1.00  0.00     0.022 A 
BRANCH  41  45
ATOM     45  S   UNL A   1      36.927  31.924  39.152  1.00  0.00     0.124 S 
ATOM     46  O   UNL A   1      35.747  32.742  38.881  1.00  0.00    -0.237 OA
ATOM     47  O   UNL A   1      36.856  30.536  38.712  1.00  0.00    -0.237 OA
ATOM     48  O   UNL A   1      37.534  32.131  40.465  1.00  0.00    -0.744 OA
ENDBRANCH  41  45
ENDBRANCH  24  38
BRANCH  25  49
ATOM     49  C   UNL A   1      41.482  26.995  27.579  1.00  0.00     0.023 A 
ATOM     50  C   UNL A   1      41.269  25.612  27.490  1.00  0.00     0.031 A 
ATOM     51  C   UNL A   1      42.091  27.632  26.478  1.00  0.00     0.131 A 
ATOM     52  C   UNL A   1      41.717  24.903  26.362  1.00  0.00     0.055 A 
ATOM     53  C   UNL A   1      42.467  26.935  25.328  1.00  0.00     0.041 A 
ATOM     54  F   UNL A   1      42.336  28.952  26.500  1.00  0.00    -0.206 F 
ATOM     55  C   UNL A   1      42.301  25.556  25.275  1.00  0.00     0.022 A 
BRANCH  52  56
ATOM     56  S   UNL A   1      41.658  23.090  26.396  1.00  0.00     0.124 S 
ATOM     57  O   UNL A   1      40.223  22.840  26.324  1.00  0.00    -0.237 OA
ATOM     58  O   UNL A   1      42.431  22.740  25.210  1.00  0.00    -0.237 OA
ATOM     59  O   UNL A   1      42.287  22.753  27.671  1.00  0.00    -0.744 OA
ENDBRANCH  52  56
ENDBRANCH  25  49
BRANCH  37  60
ATOM     60  C   UNL A   1      44.646  27.833  33.746  1.00  0.00     0.023 A 
ATOM     61  C   UNL A   1      44.612  26.593  34.402  1.00  0.00     0.031 A 
ATOM     62  C   UNL A   1      45.876  28.504  33.642  1.00  0.00     0.131 A 
ATOM     63  C   UNL A   1      45.775  26.094  34.998  1.00  0.00     0.055 A 
ATOM     64  C   UNL A   1      47.047  27.963  34.167  1.00  0.00     0.041 A 
ATOM     65  F   UNL A   1      45.958  29.695  33.026  1.00  0.00    -0.206 F 
ATOM     66  C   UNL A   1      46.998  26.759  34.865  1.00  0.00     0.022 A 
BRANCH  63  67
ATOM     67  S   UNL A   1      45.643  24.627  36.052  1.00  0.00     0.124 S 
ATOM     68  O   UNL A   1      44.584  25.014  36.977  1.00  0.00    -0.237 OA
ATOM     69  O   UNL A   1      45.301  23.583  35.092  1.00  0.00    -0.237 OA
ATOM     70  O   UNL A   1      46.975  24.512  36.644  1.00  0.00    -0.744 OA
ENDBRANCH  63  67
ENDBRANCH  37  60
ENDBRANCH  11  12
ENDBRANCH   4   6
ENDBRANCH   3   4
ENDBRANCH   2   3
ENDBRANCH   1   2
BRANCH   1  71
ATOM     71  O   UNL A   1      31.860  29.521  26.493  1.00  0.00    -0.374 OA
BRANCH  71  72
ATOM     72  C   UNL A   1      31.439  29.253  25.169  1.00  0.00     0.202 C 
BRANCH  72  73
ATOM     73  C   UNL A   1      31.043  27.788  25.025  1.00  0.00     0.261 C 
BRANCH  73  74
ATOM     74  O   UNL A   1      31.738  27.020  26.022  1.00  0.00    -0.459 OA
BRANCH  74  75
ATOM     75  C   UNL A   1      31.525  25.660  26.051  1.00  0.00     0.368 C 
ATOM     76  O   UNL A   1      30.570  25.124  26.606  1.00  0.00    -0.245 OA
BRANCH  75  77
ATOM     77  C   UNL A   1      32.684  24.946  25.303  1.00  0.00     0.197 C 
ATOM     78  C   UNL A   1      34.073  25.515  25.637  1.00  0.00     0.084 C 
ATOM     79  C   UNL A   1      32.786  23.562  26.014  1.00  0.00     0.113 C 
ATOM     80  C   UNL A   1      35.030  24.370  25.476  1.00  0.00     0.039 C 
ATOM     81  C   UNL A   1      34.256  23.147  25.940  1.00  0.00     0.125 C 
BRANCH  77  82
ATOM     82  N   UNL A   1      32.391  24.655  23.880  1.00  0.00    -0.330 N 
ATOM     83  H   UNL A   1      31.482  24.193  23.917  1.00  0.00     0.347 HD
ATOM     84  H   UNL A   1      33.309  24.269  23.659  1.00  0.00     0.347 HD
BRANCH  82  85
ATOM     85  C   UNL A   1      32.291  25.498  22.687  1.00  0.00     0.183 C 
ATOM     86  C   UNL A   1      33.310  26.357  22.013  1.00  0.00     0.071 C 
ATOM     87  C   UNL A   1      32.741  25.161  21.300  1.00  0.00     0.071 C 
ENDBRANCH  82  85
ENDBRANCH  77  82
BRANCH  81  88
ATOM     88  O   UNL A   1      34.396  22.084  25.011  1.00  0.00    -0.375 OA
BRANCH  88  89
ATOM     89  C   UNL A   1      33.392  21.049  24.943  1.00  0.00     0.118 C 
ATOM     90  C   UNL A   1      32.626  20.819  23.616  1.00  0.00     0.032 C 
ATOM     91  C   UNL A   1      33.818  19.564  24.873  1.00  0.00     0.032 C 
ATOM     92  C   UNL A   1      32.600  19.321  23.963  1.00  0.00     0.005 C 
ENDBRANCH  88  89
ENDBRANCH  81  88
ENDBRANCH  75  77
ENDBRANCH  74  75
ENDBRANCH  73  74
ENDBRANCH  72  73
ENDBRANCH  71  72
ENDBRANCH   1  71
TORSDOF 21
ENDMDL
