MODEL 1
REMARK VINA RESULT:      -9.1      0.000      0.000
REMARK SMILES O=C(CCCC(=O)OCCOCCOC(=O)c1ccc(-c2c3nc(c(-c4cc(S(=O)(=O)[O-])ccc4F)c4ccc([nH]4)c(-c4cc(S(=O)(=O)[O-])ccc4F)c4nc(c(-c5cc(S(=O)(=O)[O-])ccc5F)c5ccc2[nH]5)C=C4)C=C3)cc1)NCc1ccco1
REMARK SMILES IDX 10 1 9 2 8 3 6 4 7 5 5 6 4 7 3 8 2 9 1 10 80 11 81 13 82 14
REMARK SMILES IDX 83 15 86 16 84 17 85 18 11 19 12 20 13 21 14 22 15 23 16 24
REMARK SMILES IDX 17 25 18 26 79 27 19 28 78 29 20 30 21 31 22 32 72 33 23 34
REMARK SMILES IDX 77 35 71 36 73 37 24 38 76 39 70 40 69 41 25 43 57 44 37 45
REMARK SMILES IDX 56 46 38 47 41 48 55 49 74 50 39 51 40 52 54 54 75 55 42 56
REMARK SMILES IDX 26 57 27 58 35 59 28 60 34 61 36 62 33 63 29 64 30 65 31 66
REMARK SMILES IDX 32 67 58 68 59 69 67 70 60 71 66 72 68 73 65 74 61 75 62 76
REMARK SMILES IDX 63 77 64 78 43 79 44 80 52 81 45 82 51 83 53 84 50 85 46 86
REMARK SMILES IDX 47 87 48 88 49 89
REMARK H PARENT 80 12 73 42 41 53
REMARK Flexibility Score: inf
ROOT
ATOM      1  C   UNL A   1      36.431  21.394  25.006  1.00  0.00     0.202 C 
ENDROOT
BRANCH   1   2
ATOM      2  C   UNL A   1      35.967  22.676  25.706  1.00  0.00     0.261 C 
BRANCH   2   3
ATOM      3  O   UNL A   1      34.875  22.413  26.612  1.00  0.00    -0.463 OA
BRANCH   3   4
ATOM      4  C   UNL A   1      33.851  23.304  26.599  1.00  0.00     0.305 C 
ATOM      5  O   UNL A   1      33.904  24.427  26.112  1.00  0.00    -0.252 OA
BRANCH   4   6
ATOM      6  C   UNL A   1      32.611  22.779  27.298  1.00  0.00     0.123 C 
BRANCH   6   7
ATOM      7  C   UNL A   1      31.227  23.104  26.713  1.00  0.00     0.022 C 
BRANCH   7   8
ATOM      8  C   UNL A   1      30.987  22.807  25.231  1.00  0.00     0.100 C 
BRANCH   8   9
ATOM      9  C   UNL A   1      30.692  24.074  24.467  1.00  0.00     0.220 C 
ATOM     10  O   UNL A   1      30.432  24.075  23.269  1.00  0.00    -0.275 OA
ATOM     11  N   UNL A   1      30.836  25.204  25.226  1.00  0.00    -0.349 N 
ATOM     12  H   UNL A   1      31.014  25.108  26.190  1.00  0.00     0.163 HD
BRANCH  11  13
ATOM     13  C   UNL A   1      30.738  26.532  24.668  1.00  0.00     0.191 C 
BRANCH  13  14
ATOM     14  C   UNL A   1      31.274  27.480  25.669  1.00  0.00     0.122 A 
ATOM     15  C   UNL A   1      31.718  27.325  26.967  1.00  0.00     0.047 A 
ATOM     16  O   UNL A   1      31.397  28.782  25.284  1.00  0.00    -0.467 OA
ATOM     17  C   UNL A   1      32.129  28.605  27.402  1.00  0.00     0.042 A 
ATOM     18  C   UNL A   1      31.905  29.459  26.348  1.00  0.00     0.195 A 
ENDBRANCH  13  14
ENDBRANCH  11  13
ENDBRANCH   8   9
ENDBRANCH   7   8
ENDBRANCH   6   7
ENDBRANCH   4   6
ENDBRANCH   3   4
ENDBRANCH   2   3
ENDBRANCH   1   2
BRANCH   1  19
ATOM     19  O   UNL A   1      37.843  21.181  24.953  1.00  0.00    -0.374 OA
BRANCH  19  20
ATOM     20  C   UNL A   1      38.292  19.828  24.982  1.00  0.00     0.202 C 
BRANCH  20  21
ATOM     21  C   UNL A   1      39.353  19.470  26.030  1.00  0.00     0.261 C 
BRANCH  21  22
ATOM     22  O   UNL A   1      40.670  19.362  25.463  1.00  0.00    -0.460 OA
BRANCH  22  23
ATOM     23  C   UNL A   1      41.678  19.526  26.355  1.00  0.00     0.338 C 
ATOM     24  O   UNL A   1      42.488  18.678  26.709  1.00  0.00    -0.246 OA
BRANCH  23  25
ATOM     25  C   UNL A   1      41.808  20.949  26.722  1.00  0.00     0.060 A 
ATOM     26  C   UNL A   1      41.563  21.895  25.718  1.00  0.00     0.016 A 
ATOM     27  C   UNL A   1      42.210  21.355  27.996  1.00  0.00     0.016 A 
ATOM     28  C   UNL A   1      41.751  23.251  25.976  1.00  0.00     0.010 A 
ATOM     29  C   UNL A   1      42.405  22.719  28.250  1.00  0.00     0.010 A 
ATOM     30  C   UNL A   1      42.199  23.671  27.235  1.00  0.00    -0.014 A 
BRANCH  30  31
ATOM     31  C   UNL A   1      42.540  25.100  27.455  1.00  0.00     0.031 A 
ATOM     32  C   UNL A   1      43.903  25.603  27.069  1.00  0.00     0.074 A 
ATOM     33  C   UNL A   1      41.630  25.944  27.974  1.00  0.00     0.049 A 
ATOM     34  N   UNL A   1      44.426  26.792  27.228  1.00  0.00    -0.248 NA
ATOM     35  C   UNL A   1      44.794  24.633  26.416  1.00  0.00     0.031 C 
ATOM     36  C   UNL A   1      40.261  25.583  28.341  1.00  0.00     0.029 A 
ATOM     37  N   UNL A   1      41.723  27.276  28.290  1.00  0.00    -0.354 N 
ATOM     38  C   UNL A   1      45.707  26.717  26.693  1.00  0.00     0.074 A 
ATOM     39  C   UNL A   1      45.894  25.351  26.247  1.00  0.00     0.031 C 
ATOM     40  C   UNL A   1      39.648  26.664  28.852  1.00  0.00     0.029 A 
ATOM     41  C   UNL A   1      40.593  27.779  28.890  1.00  0.00     0.049 A 
ATOM     42  H   UNL A   1      42.523  27.820  28.106  1.00  0.00     0.167 HD
ATOM     43  C   UNL A   1      46.636  27.699  26.576  1.00  0.00     0.034 A 
ATOM     44  C   UNL A   1      40.359  28.987  29.442  1.00  0.00     0.034 A 
ATOM     45  C   UNL A   1      46.441  29.049  27.049  1.00  0.00     0.049 A 
ATOM     46  C   UNL A   1      41.446  30.033  29.408  1.00  0.00     0.074 A 
ATOM     47  C   UNL A   1      47.310  30.125  26.972  1.00  0.00     0.029 A 
ATOM     48  N   UNL A   1      45.306  29.507  27.707  1.00  0.00    -0.354 N 
ATOM     49  N   UNL A   1      42.652  29.955  28.890  1.00  0.00    -0.248 NA
ATOM     50  C   UNL A   1      41.143  31.328  30.028  1.00  0.00     0.031 C 
ATOM     51  C   UNL A   1      46.735  31.205  27.652  1.00  0.00     0.029 A 
ATOM     52  C   UNL A   1      45.470  30.834  28.080  1.00  0.00     0.049 A 
ATOM     53  H   UNL A   1      44.501  28.969  27.882  1.00  0.00     0.167 HD
ATOM     54  C   UNL A   1      43.241  31.199  29.109  1.00  0.00     0.074 A 
ATOM     55  C   UNL A   1      42.252  32.012  29.784  1.00  0.00     0.031 C 
ATOM     56  C   UNL A   1      44.486  31.629  28.778  1.00  0.00     0.034 A 
BRANCH  43  57
ATOM     57  C   UNL A   1      47.964  27.326  25.958  1.00  0.00     0.023 A 
ATOM     58  C   UNL A   1      48.239  27.564  24.600  1.00  0.00     0.031 A 
ATOM     59  C   UNL A   1      48.956  26.694  26.728  1.00  0.00     0.131 A 
ATOM     60  C   UNL A   1      49.439  27.102  24.036  1.00  0.00     0.055 A 
ATOM     61  C   UNL A   1      50.183  26.312  26.179  1.00  0.00     0.041 A 
ATOM     62  F   UNL A   1      48.745  26.419  28.024  1.00  0.00    -0.206 F 
ATOM     63  C   UNL A   1      50.424  26.501  24.822  1.00  0.00     0.022 A 
BRANCH  60  64
ATOM     64  S   UNL A   1      49.623  27.155  22.232  1.00  0.00     0.124 S 
ATOM     65  O   UNL A   1      48.715  26.090  21.811  1.00  0.00    -0.237 OA
ATOM     66  O   UNL A   1      49.205  28.515  21.912  1.00  0.00    -0.237 OA
ATOM     67  O   UNL A   1      51.042  26.872  22.024  1.00  0.00    -0.744 OA
ENDBRANCH  60  64
ENDBRANCH  43  57
BRANCH  44  68
ATOM     68  C   UNL A   1      39.066  29.253  30.135  1.00  0.00     0.023 A 
ATOM     69  C   UNL A   1      38.093  30.094  29.572  1.00  0.00     0.031 A 
ATOM     70  C   UNL A   1      38.800  28.690  31.398  1.00  0.00     0.131 A 
ATOM     71  C   UNL A   1      36.918  30.377  30.286  1.00  0.00     0.055 A 
ATOM     72  C   UNL A   1      37.607  28.932  32.079  1.00  0.00     0.041 A 
ATOM     73  F   UNL A   1      39.697  27.878  31.981  1.00  0.00    -0.206 F 
ATOM     74  C   UNL A   1      36.662  29.791  31.529  1.00  0.00     0.022 A 
BRANCH  71  75
ATOM     75  S   UNL A   1      35.755  31.587  29.599  1.00  0.00     0.124 S 
ATOM     76  O   UNL A   1      34.959  30.757  28.701  1.00  0.00    -0.237 OA
ATOM     77  O   UNL A   1      35.078  32.068  30.799  1.00  0.00    -0.237 OA
ATOM     78  O   UNL A   1      36.624  32.561  28.943  1.00  0.00    -0.744 OA
ENDBRANCH  71  75
ENDBRANCH  44  68
BRANCH  56  79
ATOM     79  C   UNL A   1      44.836  33.058  29.123  1.00  0.00     0.023 A 
ATOM     80  C   UNL A   1      45.467  33.391  30.335  1.00  0.00     0.031 A 
ATOM     81  C   UNL A   1      44.534  34.101  28.229  1.00  0.00     0.131 A 
ATOM     82  C   UNL A   1      45.729  34.736  30.641  1.00  0.00     0.055 A 
ATOM     83  C   UNL A   1      44.854  35.429  28.511  1.00  0.00     0.041 A 
ATOM     84  F   UNL A   1      43.928  33.842  27.058  1.00  0.00    -0.206 F 
ATOM     85  C   UNL A   1      45.444  35.755  29.729  1.00  0.00     0.022 A 
BRANCH  82  86
ATOM     86  S   UNL A   1      46.370  35.148  32.288  1.00  0.00     0.124 S 
ATOM     87  O   UNL A   1      47.714  34.580  32.239  1.00  0.00    -0.237 OA
ATOM     88  O   UNL A   1      46.292  36.605  32.300  1.00  0.00    -0.237 OA
ATOM     89  O   UNL A   1      45.445  34.471  33.195  1.00  0.00    -0.744 OA
ENDBRANCH  82  86
ENDBRANCH  56  79
ENDBRANCH  30  31
ENDBRANCH  23  25
ENDBRANCH  22  23
ENDBRANCH  21  22
ENDBRANCH  20  21
ENDBRANCH  19  20
ENDBRANCH   1  19
TORSDOF 22
ENDMDL
MODEL 2
REMARK VINA RESULT:      -9.1      3.330      4.478
REMARK SMILES O=C(CCCC(=O)OCCOCCOC(=O)c1ccc(-c2c3nc(c(-c4cc(S(=O)(=O)[O-])ccc4F)c4ccc([nH]4)c(-c4cc(S(=O)(=O)[O-])ccc4F)c4nc(c(-c5cc(S(=O)(=O)[O-])ccc5F)c5ccc2[nH]5)C=C4)C=C3)cc1)NCc1ccco1
REMARK SMILES IDX 10 1 9 2 8 3 6 4 7 5 5 6 4 7 3 8 2 9 1 10 80 11 81 13 82 14
REMARK SMILES IDX 83 15 86 16 84 17 85 18 11 19 12 20 13 21 14 22 15 23 16 24
REMARK SMILES IDX 17 25 18 26 79 27 19 28 78 29 20 30 21 31 22 32 72 33 23 34
REMARK SMILES IDX 77 35 71 36 73 37 24 38 76 39 70 40 69 41 25 43 57 44 37 45
REMARK SMILES IDX 56 46 38 47 41 48 55 49 74 50 39 51 40 52 54 54 75 55 42 56
REMARK SMILES IDX 26 57 27 58 35 59 28 60 34 61 36 62 33 63 29 64 30 65 31 66
REMARK SMILES IDX 32 67 58 68 59 69 67 70 60 71 66 72 68 73 65 74 61 75 62 76
REMARK SMILES IDX 63 77 64 78 43 79 44 80 52 81 45 82 51 83 53 84 50 85 46 86
REMARK SMILES IDX 47 87 48 88 49 89
REMARK H PARENT 80 12 73 42 41 53
REMARK Flexibility Score: inf
ROOT
ATOM      1  C   UNL A   1      35.018  23.967  24.504  1.00  0.00     0.202 C 
ENDROOT
BRANCH   1   2
ATOM      2  C   UNL A   1      33.993  24.854  23.788  1.00  0.00     0.261 C 
BRANCH   2   3
ATOM      3  O   UNL A   1      33.936  24.554  22.377  1.00  0.00    -0.463 OA
BRANCH   3   4
ATOM      4  C   UNL A   1      32.990  25.210  21.657  1.00  0.00     0.305 C 
ATOM      5  O   UNL A   1      33.172  25.715  20.556  1.00  0.00    -0.252 OA
BRANCH   4   6
ATOM      6  C   UNL A   1      31.659  25.295  22.380  1.00  0.00     0.123 C 
BRANCH   6   7
ATOM      7  C   UNL A   1      31.100  26.675  22.761  1.00  0.00     0.022 C 
BRANCH   7   8
ATOM      8  C   UNL A   1      30.227  26.773  24.014  1.00  0.00     0.100 C 
BRANCH   8   9
ATOM      9  C   UNL A   1      28.843  27.269  23.671  1.00  0.00     0.220 C 
ATOM     10  O   UNL A   1      27.845  26.568  23.786  1.00  0.00    -0.275 OA
ATOM     11  N   UNL A   1      28.842  28.532  23.142  1.00  0.00    -0.349 N 
ATOM     12  H   UNL A   1      29.688  29.037  23.118  1.00  0.00     0.163 HD
BRANCH  11  13
ATOM     13  C   UNL A   1      27.649  29.152  22.616  1.00  0.00     0.191 C 
BRANCH  13  14
ATOM     14  C   UNL A   1      27.953  30.580  22.379  1.00  0.00     0.122 A 
ATOM     15  C   UNL A   1      28.434  31.587  23.192  1.00  0.00     0.047 A 
ATOM     16  O   UNL A   1      27.758  31.053  21.115  1.00  0.00    -0.467 OA
ATOM     17  C   UNL A   1      28.532  32.740  22.382  1.00  0.00     0.042 A 
ATOM     18  C   UNL A   1      28.101  32.368  21.130  1.00  0.00     0.195 A 
ENDBRANCH  13  14
ENDBRANCH  11  13
ENDBRANCH   8   9
ENDBRANCH   7   8
ENDBRANCH   6   7
ENDBRANCH   4   6
ENDBRANCH   3   4
ENDBRANCH   2   3
ENDBRANCH   1   2
BRANCH   1  19
ATOM     19  O   UNL A   1      34.939  22.566  24.230  1.00  0.00    -0.374 OA
BRANCH  19  20
ATOM     20  C   UNL A   1      36.019  21.758  24.689  1.00  0.00     0.202 C 
BRANCH  20  21
ATOM     21  C   UNL A   1      37.405  22.413  24.738  1.00  0.00     0.261 C 
BRANCH  21  22
ATOM     22  O   UNL A   1      37.735  22.906  26.048  1.00  0.00    -0.460 OA
BRANCH  22  23
ATOM     23  C   UNL A   1      39.029  22.718  26.406  1.00  0.00     0.338 C 
ATOM     24  O   UNL A   1      39.684  21.692  26.272  1.00  0.00    -0.246 OA
BRANCH  23  25
ATOM     25  C   UNL A   1      39.635  23.998  26.819  1.00  0.00     0.060 A 
ATOM     26  C   UNL A   1      39.734  24.247  28.193  1.00  0.00     0.016 A 
ATOM     27  C   UNL A   1      40.052  24.956  25.892  1.00  0.00     0.016 A 
ATOM     28  C   UNL A   1      40.219  25.472  28.648  1.00  0.00     0.010 A 
ATOM     29  C   UNL A   1      40.532  26.189  26.352  1.00  0.00     0.010 A 
ATOM     30  C   UNL A   1      40.596  26.462  27.732  1.00  0.00    -0.014 A 
BRANCH  30  31
ATOM     31  C   UNL A   1      40.968  27.814  28.220  1.00  0.00     0.031 A 
ATOM     32  C   UNL A   1      42.419  28.200  28.298  1.00  0.00     0.074 A 
ATOM     33  C   UNL A   1      40.015  28.697  28.568  1.00  0.00     0.049 A 
ATOM     34  N   UNL A   1      42.963  29.301  28.748  1.00  0.00    -0.248 NA
ATOM     35  C   UNL A   1      43.383  27.207  27.801  1.00  0.00     0.031 C 
ATOM     36  C   UNL A   1      38.575  28.454  28.489  1.00  0.00     0.029 A 
ATOM     37  N   UNL A   1      40.115  29.971  29.066  1.00  0.00    -0.354 N 
ATOM     38  C   UNL A   1      44.335  29.138  28.587  1.00  0.00     0.074 A 
ATOM     39  C   UNL A   1      44.538  27.813  28.039  1.00  0.00     0.031 C 
ATOM     40  C   UNL A   1      37.925  29.540  28.943  1.00  0.00     0.029 A 
ATOM     41  C   UNL A   1      38.902  30.534  29.386  1.00  0.00     0.049 A 
ATOM     42  H   UNL A   1      40.974  30.439  29.184  1.00  0.00     0.167 HD
ATOM     43  C   UNL A   1      45.331  30.019  28.861  1.00  0.00     0.034 A 
ATOM     44  C   UNL A   1      38.611  31.698  30.001  1.00  0.00     0.034 A 
ATOM     45  C   UNL A   1      45.112  31.328  29.429  1.00  0.00     0.049 A 
ATOM     46  C   UNL A   1      39.739  32.615  30.406  1.00  0.00     0.074 A 
ATOM     47  C   UNL A   1      46.046  32.302  29.737  1.00  0.00     0.029 A 
ATOM     48  N   UNL A   1      43.874  31.840  29.798  1.00  0.00    -0.354 N 
ATOM     49  N   UNL A   1      41.034  32.457  30.240  1.00  0.00    -0.248 NA
ATOM     50  C   UNL A   1      39.370  33.867  31.078  1.00  0.00     0.031 C 
ATOM     51  C   UNL A   1      45.384  33.365  30.362  1.00  0.00     0.029 A 
ATOM     52  C   UNL A   1      44.025  33.095  30.369  1.00  0.00     0.049 A 
ATOM     53  H   UNL A   1      43.014  31.379  29.671  1.00  0.00     0.167 HD
ATOM     54  C   UNL A   1      41.628  33.599  30.772  1.00  0.00     0.074 A 
ATOM     55  C   UNL A   1      40.551  34.445  31.243  1.00  0.00     0.031 C 
ATOM     56  C   UNL A   1      42.945  33.921  30.860  1.00  0.00     0.034 A 
BRANCH  43  57
ATOM     57  C   UNL A   1      46.749  29.566  28.595  1.00  0.00     0.023 A 
ATOM     58  C   UNL A   1      47.528  28.953  29.592  1.00  0.00     0.031 A 
ATOM     59  C   UNL A   1      47.341  29.780  27.338  1.00  0.00     0.131 A 
ATOM     60  C   UNL A   1      48.875  28.649  29.342  1.00  0.00     0.055 A 
ATOM     61  C   UNL A   1      48.657  29.398  27.069  1.00  0.00     0.041 A 
ATOM     62  F   UNL A   1      46.656  30.381  26.353  1.00  0.00    -0.206 F 
ATOM     63  C   UNL A   1      49.438  28.844  28.079  1.00  0.00     0.022 A 
BRANCH  60  64
ATOM     64  S   UNL A   1      49.922  28.146  30.735  1.00  0.00     0.124 S 
ATOM     65  O   UNL A   1      51.196  27.885  30.067  1.00  0.00    -0.237 OA
ATOM     66  O   UNL A   1      49.882  29.320  31.599  1.00  0.00    -0.237 OA
ATOM     67  O   UNL A   1      49.248  26.961  31.260  1.00  0.00    -0.744 OA
ENDBRANCH  60  64
ENDBRANCH  43  57
BRANCH  44  68
ATOM     68  C   UNL A   1      37.197  32.035  30.333  1.00  0.00     0.023 A 
ATOM     69  C   UNL A   1      36.331  32.586  29.376  1.00  0.00     0.031 A 
ATOM     70  C   UNL A   1      36.701  31.839  31.636  1.00  0.00     0.131 A 
ATOM     71  C   UNL A   1      35.028  32.955  29.745  1.00  0.00     0.055 A 
ATOM     72  C   UNL A   1      35.388  32.158  31.983  1.00  0.00     0.041 A 
ATOM     73  F   UNL A   1      37.488  31.315  32.590  1.00  0.00    -0.206 F 
ATOM     74  C   UNL A   1      34.547  32.732  31.037  1.00  0.00     0.022 A 
BRANCH  71  75
ATOM     75  S   UNL A   1      33.988  33.804  28.525  1.00  0.00     0.124 S 
ATOM     76  O   UNL A   1      34.951  34.690  27.879  1.00  0.00    -0.237 OA
ATOM     77  O   UNL A   1      33.499  32.690  27.720  1.00  0.00    -0.237 OA
ATOM     78  O   UNL A   1      32.978  34.469  29.344  1.00  0.00    -0.744 OA
ENDBRANCH  71  75
ENDBRANCH  44  68
BRANCH  56  79
ATOM     79  C   UNL A   1      43.289  35.259  31.470  1.00  0.00     0.023 A 
ATOM     80  C   UNL A   1      43.277  35.462  32.861  1.00  0.00     0.031 A 
ATOM     81  C   UNL A   1      43.632  36.348  30.648  1.00  0.00     0.131 A 
ATOM     82  C   UNL A   1      43.553  36.735  33.386  1.00  0.00     0.055 A 
ATOM     83  C   UNL A   1      43.967  37.595  31.179  1.00  0.00     0.041 A 
ATOM     84  F   UNL A   1      43.657  36.215  29.312  1.00  0.00    -0.206 F 
ATOM     85  C   UNL A   1      43.916  37.797  32.555  1.00  0.00     0.022 A 
BRANCH  82  86
ATOM     86  S   UNL A   1      43.346  37.008  35.168  1.00  0.00     0.124 S 
ATOM     87  O   UNL A   1      44.264  36.024  35.732  1.00  0.00    -0.237 OA
ATOM     88  O   UNL A   1      43.736  38.406  35.318  1.00  0.00    -0.237 OA
ATOM     89  O   UNL A   1      41.928  36.733  35.395  1.00  0.00    -0.744 OA
ENDBRANCH  82  86
ENDBRANCH  56  79
ENDBRANCH  30  31
ENDBRANCH  23  25
ENDBRANCH  22  23
ENDBRANCH  21  22
ENDBRANCH  20  21
ENDBRANCH  19  20
ENDBRANCH   1  19
TORSDOF 22
ENDMDL
MODEL 3
REMARK VINA RESULT:      -9.0      3.180      4.435
REMARK SMILES O=C(CCCC(=O)OCCOCCOC(=O)c1ccc(-c2c3nc(c(-c4cc(S(=O)(=O)[O-])ccc4F)c4ccc([nH]4)c(-c4cc(S(=O)(=O)[O-])ccc4F)c4nc(c(-c5cc(S(=O)(=O)[O-])ccc5F)c5ccc2[nH]5)C=C4)C=C3)cc1)NCc1ccco1
REMARK SMILES IDX 10 1 9 2 8 3 6 4 7 5 5 6 4 7 3 8 2 9 1 10 80 11 81 13 82 14
REMARK SMILES IDX 83 15 86 16 84 17 85 18 11 19 12 20 13 21 14 22 15 23 16 24
REMARK SMILES IDX 17 25 18 26 79 27 19 28 78 29 20 30 21 31 22 32 72 33 23 34
REMARK SMILES IDX 77 35 71 36 73 37 24 38 76 39 70 40 69 41 25 43 57 44 37 45
REMARK SMILES IDX 56 46 38 47 41 48 55 49 74 50 39 51 40 52 54 54 75 55 42 56
REMARK SMILES IDX 26 57 27 58 35 59 28 60 34 61 36 62 33 63 29 64 30 65 31 66
REMARK SMILES IDX 32 67 58 68 59 69 67 70 60 71 66 72 68 73 65 74 61 75 62 76
REMARK SMILES IDX 63 77 64 78 43 79 44 80 52 81 45 82 51 83 53 84 50 85 46 86
REMARK SMILES IDX 47 87 48 88 49 89
REMARK H PARENT 80 12 73 42 41 53
REMARK Flexibility Score: inf
ROOT
ATOM      1  C   UNL A   1      34.542  24.030  24.673  1.00  0.00     0.202 C 
ENDROOT
BRANCH   1   2
ATOM      2  C   UNL A   1      33.711  25.009  23.834  1.00  0.00     0.261 C 
BRANCH   2   3
ATOM      3  O   UNL A   1      33.699  24.626  22.443  1.00  0.00    -0.463 OA
BRANCH   3   4
ATOM      4  C   UNL A   1      32.988  25.421  21.603  1.00  0.00     0.305 C 
ATOM      5  O   UNL A   1      33.155  25.487  20.391  1.00  0.00    -0.252 OA
BRANCH   4   6
ATOM      6  C   UNL A   1      31.965  26.272  22.330  1.00  0.00     0.123 C 
BRANCH   6   7
ATOM      7  C   UNL A   1      32.139  27.800  22.350  1.00  0.00     0.022 C 
BRANCH   7   8
ATOM      8  C   UNL A   1      32.643  28.447  23.642  1.00  0.00     0.100 C 
BRANCH   8   9
ATOM      9  C   UNL A   1      31.552  29.253  24.304  1.00  0.00     0.220 C 
ATOM     10  O   UNL A   1      31.396  29.277  25.519  1.00  0.00    -0.275 OA
ATOM     11  N   UNL A   1      30.720  29.867  23.406  1.00  0.00    -0.349 N 
ATOM     12  H   UNL A   1      30.941  29.822  22.448  1.00  0.00     0.163 HD
BRANCH  11  13
ATOM     13  C   UNL A   1      29.529  30.576  23.812  1.00  0.00     0.191 C 
BRANCH  13  14
ATOM     14  C   UNL A   1      28.910  31.144  22.594  1.00  0.00     0.122 A 
ATOM     15  C   UNL A   1      28.602  32.433  22.210  1.00  0.00     0.047 A 
ATOM     16  O   UNL A   1      28.569  30.267  21.607  1.00  0.00    -0.467 OA
ATOM     17  C   UNL A   1      28.037  32.339  20.919  1.00  0.00     0.042 A 
ATOM     18  C   UNL A   1      28.029  31.002  20.599  1.00  0.00     0.195 A 
ENDBRANCH  13  14
ENDBRANCH  11  13
ENDBRANCH   8   9
ENDBRANCH   7   8
ENDBRANCH   6   7
ENDBRANCH   4   6
ENDBRANCH   3   4
ENDBRANCH   2   3
ENDBRANCH   1   2
BRANCH   1  19
ATOM     19  O   UNL A   1      34.621  22.691  24.182  1.00  0.00    -0.374 OA
BRANCH  19  20
ATOM     20  C   UNL A   1      35.843  21.992  24.411  1.00  0.00     0.202 C 
BRANCH  20  21
ATOM     21  C   UNL A   1      37.113  22.840  24.547  1.00  0.00     0.261 C 
BRANCH  21  22
ATOM     22  O   UNL A   1      37.477  23.068  25.920  1.00  0.00    -0.460 OA
BRANCH  22  23
ATOM     23  C   UNL A   1      38.784  22.835  26.198  1.00  0.00     0.338 C 
ATOM     24  O   UNL A   1      39.419  21.824  25.930  1.00  0.00    -0.246 OA
BRANCH  23  25
ATOM     25  C   UNL A   1      39.423  24.062  26.709  1.00  0.00     0.060 A 
ATOM     26  C   UNL A   1      39.283  24.337  28.075  1.00  0.00     0.016 A 
ATOM     27  C   UNL A   1      40.101  24.952  25.872  1.00  0.00     0.016 A 
ATOM     28  C   UNL A   1      39.790  25.521  28.605  1.00  0.00     0.010 A 
ATOM     29  C   UNL A   1      40.604  26.145  26.406  1.00  0.00     0.010 A 
ATOM     30  C   UNL A   1      40.431  26.446  27.770  1.00  0.00    -0.014 A 
BRANCH  30  31
ATOM     31  C   UNL A   1      40.834  27.769  28.311  1.00  0.00     0.031 A 
ATOM     32  C   UNL A   1      42.293  28.079  28.498  1.00  0.00     0.074 A 
ATOM     33  C   UNL A   1      39.904  28.695  28.608  1.00  0.00     0.049 A 
ATOM     34  N   UNL A   1      42.859  29.143  29.007  1.00  0.00    -0.248 NA
ATOM     35  C   UNL A   1      43.240  27.046  28.050  1.00  0.00     0.031 C 
ATOM     36  C   UNL A   1      38.463  28.527  28.424  1.00  0.00     0.029 A 
ATOM     37  N   UNL A   1      40.032  29.954  29.138  1.00  0.00    -0.354 N 
ATOM     38  C   UNL A   1      44.229  28.913  28.940  1.00  0.00     0.074 A 
ATOM     39  C   UNL A   1      44.403  27.588  28.381  1.00  0.00     0.031 C 
ATOM     40  C   UNL A   1      37.838  29.637  28.852  1.00  0.00     0.029 A 
ATOM     41  C   UNL A   1      38.829  30.573  29.383  1.00  0.00     0.049 A 
ATOM     42  H   UNL A   1      40.903  30.375  29.324  1.00  0.00     0.167 HD
ATOM     43  C   UNL A   1      45.246  29.736  29.301  1.00  0.00     0.034 A 
ATOM     44  C   UNL A   1      38.554  31.740  29.999  1.00  0.00     0.034 A 
ATOM     45  C   UNL A   1      45.053  31.046  29.878  1.00  0.00     0.049 A 
ATOM     46  C   UNL A   1      39.695  32.591  30.501  1.00  0.00     0.074 A 
ATOM     47  C   UNL A   1      46.010  31.966  30.270  1.00  0.00     0.029 A 
ATOM     48  N   UNL A   1      43.818  31.614  30.169  1.00  0.00    -0.354 N 
ATOM     49  N   UNL A   1      40.988  32.369  30.423  1.00  0.00    -0.248 NA
ATOM     50  C   UNL A   1      39.342  33.849  31.170  1.00  0.00     0.031 C 
ATOM     51  C   UNL A   1      45.359  33.051  30.868  1.00  0.00     0.029 A 
ATOM     52  C   UNL A   1      43.991  32.851  30.774  1.00  0.00     0.049 A 
ATOM     53  H   UNL A   1      42.947  31.201  29.972  1.00  0.00     0.167 HD
ATOM     54  C   UNL A   1      41.600  33.471  31.018  1.00  0.00     0.074 A 
ATOM     55  C   UNL A   1      40.536  34.363  31.429  1.00  0.00     0.031 C 
ATOM     56  C   UNL A   1      42.922  33.723  31.205  1.00  0.00     0.034 A 
BRANCH  43  57
ATOM     57  C   UNL A   1      46.654  29.215  29.126  1.00  0.00     0.023 A 
ATOM     58  C   UNL A   1      47.281  29.190  27.869  1.00  0.00     0.031 A 
ATOM     59  C   UNL A   1      47.366  28.706  30.226  1.00  0.00     0.131 A 
ATOM     60  C   UNL A   1      48.545  28.596  27.727  1.00  0.00     0.055 A 
ATOM     61  C   UNL A   1      48.658  28.192  30.093  1.00  0.00     0.041 A 
ATOM     62  F   UNL A   1      46.813  28.681  31.448  1.00  0.00    -0.206 F 
ATOM     63  C   UNL A   1      49.249  28.119  28.836  1.00  0.00     0.022 A 
BRANCH  60  64
ATOM     64  S   UNL A   1      49.185  28.309  26.054  1.00  0.00     0.124 S 
ATOM     65  O   UNL A   1      48.029  28.662  25.232  1.00  0.00    -0.237 OA
ATOM     66  O   UNL A   1      50.318  29.224  25.989  1.00  0.00    -0.237 OA
ATOM     67  O   UNL A   1      49.527  26.888  26.057  1.00  0.00    -0.744 OA
ENDBRANCH  60  64
ENDBRANCH  43  57
BRANCH  44  68
ATOM     68  C   UNL A   1      37.139  32.143  30.238  1.00  0.00     0.023 A 
ATOM     69  C   UNL A   1      36.384  32.790  29.247  1.00  0.00     0.031 A 
ATOM     70  C   UNL A   1      36.529  31.915  31.486  1.00  0.00     0.131 A 
ATOM     71  C   UNL A   1      35.079  33.218  29.532  1.00  0.00     0.055 A 
ATOM     72  C   UNL A   1      35.212  32.294  31.747  1.00  0.00     0.041 A 
ATOM     73  F   UNL A   1      37.206  31.299  32.469  1.00  0.00    -0.206 F 
ATOM     74  C   UNL A   1      34.483  32.962  30.769  1.00  0.00     0.022 A 
BRANCH  71  75
ATOM     75  S   UNL A   1      34.189  34.185  28.281  1.00  0.00     0.124 S 
ATOM     76  O   UNL A   1      33.756  35.344  29.054  1.00  0.00    -0.237 OA
ATOM     77  O   UNL A   1      35.232  34.426  27.290  1.00  0.00    -0.237 OA
ATOM     78  O   UNL A   1      33.121  33.285  27.852  1.00  0.00    -0.744 OA
ENDBRANCH  71  75
ENDBRANCH  44  68
BRANCH  56  79
ATOM     79  C   UNL A   1      43.288  35.032  31.864  1.00  0.00     0.023 A 
ATOM     80  C   UNL A   1      43.556  36.188  31.111  1.00  0.00     0.031 A 
ATOM     81  C   UNL A   1      43.370  35.124  33.266  1.00  0.00     0.131 A 
ATOM     82  C   UNL A   1      43.942  37.372  31.760  1.00  0.00     0.055 A 
ATOM     83  C   UNL A   1      43.693  36.319  33.908  1.00  0.00     0.041 A 
ATOM     84  F   UNL A   1      43.128  34.050  34.036  1.00  0.00    -0.206 F 
ATOM     85  C   UNL A   1      43.995  37.450  33.154  1.00  0.00     0.022 A 
BRANCH  82  86
ATOM     86  S   UNL A   1      44.462  38.789  30.753  1.00  0.00     0.124 S 
ATOM     87  O   UNL A   1      43.837  39.904  31.456  1.00  0.00    -0.237 OA
ATOM     88  O   UNL A   1      45.917  38.717  30.837  1.00  0.00    -0.237 OA
ATOM     89  O   UNL A   1      43.902  38.496  29.434  1.00  0.00    -0.744 OA
ENDBRANCH  82  86
ENDBRANCH  56  79
ENDBRANCH  30  31
ENDBRANCH  23  25
ENDBRANCH  22  23
ENDBRANCH  21  22
ENDBRANCH  20  21
ENDBRANCH  19  20
ENDBRANCH   1  19
TORSDOF 22
ENDMDL
