MODEL 1
REMARK VINA RESULT:      -7.9      0.000      0.000
REMARK SMILES C#CCN(CC(=O)OCCOCCOC(=O)c1ccc(-c2c3nc(c(-c4cc(S(=O)(=O)[O-])ccc4F)c4ccc([nH]4)c(-c4cc(S(=O)(=O)[O-])ccc4F)c4nc(c(-c5cc(S(=O)(=O)[O-])ccc5F)c5ccc2[nH]5)C=C4)C=C3)cc1)C(=O)CCNC(=O)C(C)(C)C
REMARK SMILES IDX 9 1 8 2 6 3 7 4 5 5 4 6 3 7 2 8 1 9 80 10 81 11 82 12 83 13
REMARK SMILES IDX 84 14 85 15 86 17 87 18 88 19 89 20 90 21 10 22 11 23 12 24
REMARK SMILES IDX 13 25 14 26 15 27 16 28 17 29 18 30 79 31 19 32 78 33 20 34
REMARK SMILES IDX 21 35 22 36 72 37 23 38 77 39 71 40 73 41 24 42 76 43 70 44
REMARK SMILES IDX 69 45 25 47 57 48 37 49 56 50 38 51 41 52 55 53 74 54 39 55
REMARK SMILES IDX 40 56 54 58 75 59 42 60 26 61 27 62 35 63 28 64 34 65 36 66
REMARK SMILES IDX 33 67 29 68 30 69 31 70 32 71 58 72 59 73 67 74 60 75 66 76
REMARK SMILES IDX 68 77 65 78 61 79 62 80 63 81 64 82 43 83 44 84 52 85 45 86
REMARK SMILES IDX 51 87 53 88 50 89 46 90 47 91 48 92 49 93
REMARK H PARENT 84 16 73 46 41 57
REMARK Flexibility Score: inf
ROOT
ATOM      1  C   UNL A   1      32.841  36.018  28.966  1.00  0.00     0.261 C 
ENDROOT
BRANCH   1   2
ATOM      2  O   UNL A   1      32.668  34.629  28.594  1.00  0.00    -0.462 OA
BRANCH   2   3
ATOM      3  C   UNL A   1      33.803  34.005  28.189  1.00  0.00     0.325 C 
ATOM      4  O   UNL A   1      34.599  34.478  27.382  1.00  0.00    -0.250 OA
BRANCH   3   5
ATOM      5  C   UNL A   1      34.023  32.614  28.791  1.00  0.00     0.243 C 
BRANCH   5   6
ATOM      6  N   UNL A   1      34.555  31.478  28.026  1.00  0.00    -0.320 N 
BRANCH   6   7
ATOM      7  C   UNL A   1      36.023  31.344  27.972  1.00  0.00     0.210 C 
BRANCH   7   8
ATOM      8  C   UNL A   1      36.544  31.467  29.395  1.00  0.00    -0.085 C 
ATOM      9  C   UNL A   1      36.990  31.572  30.615  1.00  0.00     0.006 C 
ENDBRANCH   7   8
ENDBRANCH   6   7
BRANCH   6  10
ATOM     10  C   UNL A   1      33.803  30.475  27.415  1.00  0.00     0.225 C 
ATOM     11  O   UNL A   1      34.291  29.370  27.150  1.00  0.00    -0.275 OA
BRANCH  10  12
ATOM     12  C   UNL A   1      32.353  30.701  27.009  1.00  0.00     0.121 C 
BRANCH  12  13
ATOM     13  C   UNL A   1      31.861  30.190  25.666  1.00  0.00     0.125 C 
BRANCH  13  14
ATOM     14  N   UNL A   1      32.943  29.769  24.795  1.00  0.00    -0.355 N 
ATOM     15  C   UNL A   1      33.103  28.747  23.912  1.00  0.00     0.225 C 
ATOM     16  H   UNL A   1      33.736  30.350  24.858  1.00  0.00     0.163 HD
ATOM     17  O   UNL A   1      34.276  28.541  23.580  1.00  0.00    -0.275 OA
BRANCH  15  18
ATOM     18  C   UNL A   1      31.943  27.937  23.286  1.00  0.00     0.041 C 
ATOM     19  C   UNL A   1      32.364  26.888  22.259  1.00  0.00     0.021 C 
ATOM     20  C   UNL A   1      31.128  27.280  24.405  1.00  0.00     0.021 C 
ATOM     21  C   UNL A   1      31.021  28.930  22.535  1.00  0.00     0.021 C 
ENDBRANCH  15  18
ENDBRANCH  13  14
ENDBRANCH  12  13
ENDBRANCH  10  12
ENDBRANCH   6  10
ENDBRANCH   5   6
ENDBRANCH   3   5
ENDBRANCH   2   3
ENDBRANCH   1   2
BRANCH   1  22
ATOM     22  C   UNL A   1      32.927  36.202  30.487  1.00  0.00     0.202 C 
BRANCH  22  23
ATOM     23  O   UNL A   1      33.125  37.535  30.970  1.00  0.00    -0.374 OA
BRANCH  23  24
ATOM     24  C   UNL A   1      33.717  37.662  32.255  1.00  0.00     0.202 C 
BRANCH  24  25
ATOM     25  C   UNL A   1      33.898  36.412  33.116  1.00  0.00     0.261 C 
BRANCH  25  26
ATOM     26  O   UNL A   1      35.234  35.929  33.075  1.00  0.00    -0.460 OA
BRANCH  26  27
ATOM     27  C   UNL A   1      35.300  34.612  32.788  1.00  0.00     0.338 C 
ATOM     28  O   UNL A   1      34.525  33.966  32.089  1.00  0.00    -0.246 OA
BRANCH  27  29
ATOM     29  C   UNL A   1      36.582  34.090  33.262  1.00  0.00     0.060 A 
ATOM     30  C   UNL A   1      36.524  33.152  34.297  1.00  0.00     0.016 A 
ATOM     31  C   UNL A   1      37.802  34.503  32.716  1.00  0.00     0.016 A 
ATOM     32  C   UNL A   1      37.697  32.695  34.866  1.00  0.00     0.010 A 
ATOM     33  C   UNL A   1      38.983  34.042  33.289  1.00  0.00     0.010 A 
ATOM     34  C   UNL A   1      38.922  33.189  34.404  1.00  0.00    -0.014 A 
BRANCH  34  35
ATOM     35  C   UNL A   1      40.104  32.980  35.260  1.00  0.00     0.031 A 
ATOM     36  C   UNL A   1      40.939  31.756  35.015  1.00  0.00     0.074 A 
ATOM     37  C   UNL A   1      40.457  33.919  36.149  1.00  0.00     0.049 A 
ATOM     38  N   UNL A   1      42.063  31.394  35.570  1.00  0.00    -0.248 NA
ATOM     39  C   UNL A   1      40.431  30.811  34.007  1.00  0.00     0.031 C 
ATOM     40  C   UNL A   1      39.707  35.148  36.415  1.00  0.00     0.029 A 
ATOM     41  N   UNL A   1      41.538  33.993  36.981  1.00  0.00    -0.354 N 
ATOM     42  C   UNL A   1      42.397  30.179  34.981  1.00  0.00     0.074 A 
ATOM     43  C   UNL A   1      41.329  29.841  34.068  1.00  0.00     0.031 C 
ATOM     44  C   UNL A   1      40.355  35.856  37.354  1.00  0.00     0.029 A 
ATOM     45  C   UNL A   1      41.544  35.117  37.770  1.00  0.00     0.049 A 
ATOM     46  H   UNL A   1      42.245  33.309  37.012  1.00  0.00     0.167 HD
ATOM     47  C   UNL A   1      43.505  29.424  35.183  1.00  0.00     0.034 A 
ATOM     48  C   UNL A   1      42.409  35.489  38.731  1.00  0.00     0.034 A 
ATOM     49  C   UNL A   1      44.537  29.794  36.118  1.00  0.00     0.049 A 
ATOM     50  C   UNL A   1      43.612  34.616  38.975  1.00  0.00     0.074 A 
ATOM     51  C   UNL A   1      45.716  29.136  36.413  1.00  0.00     0.029 A 
ATOM     52  N   UNL A   1      44.499  30.925  36.931  1.00  0.00    -0.354 N 
ATOM     53  N   UNL A   1      43.941  33.483  38.393  1.00  0.00    -0.248 NA
ATOM     54  C   UNL A   1      44.571  35.079  39.981  1.00  0.00     0.031 C 
ATOM     55  C   UNL A   1      46.349  29.824  37.456  1.00  0.00     0.029 A 
ATOM     56  C   UNL A   1      45.613  30.962  37.754  1.00  0.00     0.049 A 
ATOM     57  H   UNL A   1      43.784  31.601  36.922  1.00  0.00     0.167 HD
ATOM     58  C   UNL A   1      45.158  33.105  38.953  1.00  0.00     0.074 A 
ATOM     59  C   UNL A   1      45.509  34.147  39.901  1.00  0.00     0.031 C 
ATOM     60  C   UNL A   1      45.918  32.005  38.709  1.00  0.00     0.034 A 
BRANCH  47  61
ATOM     61  C   UNL A   1      43.593  28.113  34.433  1.00  0.00     0.023 A 
ATOM     62  C   UNL A   1      43.089  26.911  34.965  1.00  0.00     0.031 A 
ATOM     63  C   UNL A   1      44.268  28.049  33.202  1.00  0.00     0.131 A 
ATOM     64  C   UNL A   1      43.351  25.692  34.319  1.00  0.00     0.055 A 
ATOM     65  C   UNL A   1      44.447  26.844  32.519  1.00  0.00     0.041 A 
ATOM     66  F   UNL A   1      44.797  29.154  32.653  1.00  0.00    -0.206 F 
ATOM     67  C   UNL A   1      44.005  25.653  33.087  1.00  0.00     0.022 A 
BRANCH  64  68
ATOM     68  S   UNL A   1      42.991  24.145  35.200  1.00  0.00     0.124 S 
ATOM     69  O   UNL A   1      41.587  24.331  35.562  1.00  0.00    -0.237 OA
ATOM     70  O   UNL A   1      43.261  23.135  34.184  1.00  0.00    -0.237 OA
ATOM     71  O   UNL A   1      43.923  24.166  36.326  1.00  0.00    -0.744 OA
ENDBRANCH  64  68
ENDBRANCH  47  61
BRANCH  48  72
ATOM     72  C   UNL A   1      42.139  36.713  39.536  1.00  0.00     0.023 A 
ATOM     73  C   UNL A   1      41.436  36.661  40.748  1.00  0.00     0.031 A 
ATOM     74  C   UNL A   1      42.605  37.967  39.096  1.00  0.00     0.131 A 
ATOM     75  C   UNL A   1      41.198  37.845  41.467  1.00  0.00     0.055 A 
ATOM     76  C   UNL A   1      42.406  39.132  39.836  1.00  0.00     0.041 A 
ATOM     77  F   UNL A   1      43.291  38.070  37.945  1.00  0.00    -0.206 F 
ATOM     78  C   UNL A   1      41.691  39.076  41.026  1.00  0.00     0.022 A 
BRANCH  75  79
ATOM     79  S   UNL A   1      40.190  37.763  42.973  1.00  0.00     0.124 S 
ATOM     80  O   UNL A   1      41.194  37.473  43.990  1.00  0.00    -0.237 OA
ATOM     81  O   UNL A   1      39.599  39.097  43.015  1.00  0.00    -0.237 OA
ATOM     82  O   UNL A   1      39.251  36.678  42.694  1.00  0.00    -0.744 OA
ENDBRANCH  75  79
ENDBRANCH  48  72
BRANCH  60  83
ATOM     83  C   UNL A   1      47.216  31.901  39.473  1.00  0.00     0.023 A 
ATOM     84  C   UNL A   1      48.413  32.437  38.968  1.00  0.00     0.031 A 
ATOM     85  C   UNL A   1      47.256  31.243  40.714  1.00  0.00     0.131 A 
ATOM     86  C   UNL A   1      49.612  32.246  39.668  1.00  0.00     0.055 A 
ATOM     87  C   UNL A   1      48.441  31.118  41.441  1.00  0.00     0.041 A 
ATOM     88  F   UNL A   1      46.142  30.709  41.243  1.00  0.00    -0.206 F 
ATOM     89  C   UNL A   1      49.630  31.607  40.910  1.00  0.00     0.022 A 
BRANCH  86  90
ATOM     90  S   UNL A   1      51.166  32.738  38.874  1.00  0.00     0.124 S 
ATOM     91  O   UNL A   1      50.828  32.636  37.459  1.00  0.00    -0.237 OA
ATOM     92  O   UNL A   1      51.364  34.090  39.388  1.00  0.00    -0.237 OA
ATOM     93  O   UNL A   1      52.125  31.746  39.356  1.00  0.00    -0.744 OA
ENDBRANCH  86  90
ENDBRANCH  60  83
ENDBRANCH  34  35
ENDBRANCH  27  29
ENDBRANCH  26  27
ENDBRANCH  25  26
ENDBRANCH  24  25
ENDBRANCH  23  24
ENDBRANCH  22  23
ENDBRANCH   1  22
TORSDOF 25
ENDMDL
MODEL 2
REMARK VINA RESULT:      -7.5      5.548      9.731
REMARK SMILES C#CCN(CC(=O)OCCOCCOC(=O)c1ccc(-c2c3nc(c(-c4cc(S(=O)(=O)[O-])ccc4F)c4ccc([nH]4)c(-c4cc(S(=O)(=O)[O-])ccc4F)c4nc(c(-c5cc(S(=O)(=O)[O-])ccc5F)c5ccc2[nH]5)C=C4)C=C3)cc1)C(=O)CCNC(=O)C(C)(C)C
REMARK SMILES IDX 9 1 8 2 6 3 7 4 5 5 4 6 3 7 2 8 1 9 80 10 81 11 82 12 83 13
REMARK SMILES IDX 84 14 85 15 86 17 87 18 88 19 89 20 90 21 10 22 11 23 12 24
REMARK SMILES IDX 13 25 14 26 15 27 16 28 17 29 18 30 79 31 19 32 78 33 20 34
REMARK SMILES IDX 21 35 22 36 72 37 23 38 77 39 71 40 73 41 24 42 76 43 70 44
REMARK SMILES IDX 69 45 25 47 57 48 37 49 56 50 38 51 41 52 55 53 74 54 39 55
REMARK SMILES IDX 40 56 54 58 75 59 42 60 26 61 27 62 35 63 28 64 34 65 36 66
REMARK SMILES IDX 33 67 29 68 30 69 31 70 32 71 58 72 59 73 67 74 60 75 66 76
REMARK SMILES IDX 68 77 65 78 61 79 62 80 63 81 64 82 43 83 44 84 52 85 45 86
REMARK SMILES IDX 51 87 53 88 50 89 46 90 47 91 48 92 49 93
REMARK H PARENT 84 16 73 46 41 57
REMARK Flexibility Score: inf
ROOT
ATOM      1  C   UNL A   1      36.592  33.830  36.203  1.00  0.00     0.261 C 
ENDROOT
BRANCH   1   2
ATOM      2  O   UNL A   1      36.418  32.953  35.063  1.00  0.00    -0.462 OA
BRANCH   2   3
ATOM      3  C   UNL A   1      35.979  33.568  33.936  1.00  0.00     0.325 C 
ATOM      4  O   UNL A   1      34.795  33.692  33.635  1.00  0.00    -0.250 OA
BRANCH   3   5
ATOM      5  C   UNL A   1      37.086  34.086  33.013  1.00  0.00     0.243 C 
BRANCH   5   6
ATOM      6  N   UNL A   1      37.833  33.225  32.086  1.00  0.00    -0.320 N 
BRANCH   6   7
ATOM      7  C   UNL A   1      37.458  33.302  30.661  1.00  0.00     0.210 C 
BRANCH   7   8
ATOM      8  C   UNL A   1      38.453  34.227  29.979  1.00  0.00    -0.085 C 
ATOM      9  C   UNL A   1      39.307  35.021  29.394  1.00  0.00     0.006 C 
ENDBRANCH   7   8
ENDBRANCH   6   7
BRANCH   6  10
ATOM     10  C   UNL A   1      38.910  32.403  32.416  1.00  0.00     0.225 C 
ATOM     11  O   UNL A   1      40.025  32.558  31.901  1.00  0.00    -0.275 OA
BRANCH  10  12
ATOM     12  C   UNL A   1      38.762  31.249  33.399  1.00  0.00     0.121 C 
BRANCH  12  13
ATOM     13  C   UNL A   1      37.580  30.304  33.274  1.00  0.00     0.125 C 
BRANCH  13  14
ATOM     14  N   UNL A   1      37.971  28.907  33.317  1.00  0.00    -0.355 N 
ATOM     15  C   UNL A   1      38.304  27.989  32.371  1.00  0.00     0.225 C 
ATOM     16  H   UNL A   1      38.003  28.544  34.233  1.00  0.00     0.163 HD
ATOM     17  O   UNL A   1      38.288  26.818  32.771  1.00  0.00    -0.275 OA
BRANCH  15  18
ATOM     18  C   UNL A   1      38.750  28.333  30.930  1.00  0.00     0.041 C 
ATOM     19  C   UNL A   1      37.728  29.109  30.103  1.00  0.00     0.021 C 
ATOM     20  C   UNL A   1      40.075  29.101  30.985  1.00  0.00     0.021 C 
ATOM     21  C   UNL A   1      38.994  27.001  30.177  1.00  0.00     0.021 C 
ENDBRANCH  15  18
ENDBRANCH  13  14
ENDBRANCH  12  13
ENDBRANCH  10  12
ENDBRANCH   6  10
ENDBRANCH   5   6
ENDBRANCH   3   5
ENDBRANCH   2   3
ENDBRANCH   1   2
BRANCH   1  22
ATOM     22  C   UNL A   1      37.625  33.285  37.198  1.00  0.00     0.202 C 
BRANCH  22  23
ATOM     23  O   UNL A   1      37.877  34.071  38.369  1.00  0.00    -0.374 OA
BRANCH  23  24
ATOM     24  C   UNL A   1      38.574  33.427  39.426  1.00  0.00     0.202 C 
BRANCH  24  25
ATOM     25  C   UNL A   1      39.616  34.216  40.219  1.00  0.00     0.261 C 
BRANCH  25  26
ATOM     26  O   UNL A   1      40.897  34.169  39.604  1.00  0.00    -0.460 OA
BRANCH  26  27
ATOM     27  C   UNL A   1      41.197  35.309  38.947  1.00  0.00     0.338 C 
ATOM     28  O   UNL A   1      41.231  36.444  39.412  1.00  0.00    -0.246 OA
BRANCH  27  29
ATOM     29  C   UNL A   1      41.706  34.968  37.618  1.00  0.00     0.060 A 
ATOM     30  C   UNL A   1      40.747  34.656  36.650  1.00  0.00     0.016 A 
ATOM     31  C   UNL A   1      43.074  34.950  37.326  1.00  0.00     0.016 A 
ATOM     32  C   UNL A   1      41.156  34.222  35.404  1.00  0.00     0.010 A 
ATOM     33  C   UNL A   1      43.485  34.514  36.070  1.00  0.00     0.010 A 
ATOM     34  C   UNL A   1      42.524  34.091  35.138  1.00  0.00    -0.014 A 
BRANCH  34  35
ATOM     35  C   UNL A   1      42.912  33.286  33.966  1.00  0.00     0.031 A 
ATOM     36  C   UNL A   1      42.973  31.794  34.128  1.00  0.00     0.074 A 
ATOM     37  C   UNL A   1      43.095  33.883  32.779  1.00  0.00     0.049 A 
ATOM     38  N   UNL A   1      43.202  30.871  33.235  1.00  0.00    -0.248 NA
ATOM     39  C   UNL A   1      42.748  31.276  35.488  1.00  0.00     0.031 C 
ATOM     40  C   UNL A   1      43.019  35.326  32.544  1.00  0.00     0.029 A 
ATOM     41  N   UNL A   1      43.370  33.352  31.550  1.00  0.00    -0.354 N 
ATOM     42  C   UNL A   1      43.151  29.663  33.923  1.00  0.00     0.074 A 
ATOM     43  C   UNL A   1      42.924  29.977  35.316  1.00  0.00     0.031 C 
ATOM     44  C   UNL A   1      43.246  35.566  31.243  1.00  0.00     0.029 A 
ATOM     45  C   UNL A   1      43.508  34.299  30.565  1.00  0.00     0.049 A 
ATOM     46  H   UNL A   1      43.459  32.386  31.386  1.00  0.00     0.167 HD
ATOM     47  C   UNL A   1      43.273  28.408  33.427  1.00  0.00     0.034 A 
ATOM     48  C   UNL A   1      43.830  34.149  29.267  1.00  0.00     0.034 A 
ATOM     49  C   UNL A   1      43.516  28.145  32.030  1.00  0.00     0.049 A 
ATOM     50  C   UNL A   1      44.007  32.749  28.740  1.00  0.00     0.074 A 
ATOM     51  C   UNL A   1      43.646  26.928  31.388  1.00  0.00     0.029 A 
ATOM     52  N   UNL A   1      43.686  29.128  31.059  1.00  0.00    -0.354 N 
ATOM     53  N   UNL A   1      43.926  31.607  29.389  1.00  0.00    -0.248 NA
ATOM     54  C   UNL A   1      44.292  32.613  27.310  1.00  0.00     0.031 C 
ATOM     55  C   UNL A   1      43.973  27.177  30.049  1.00  0.00     0.029 A 
ATOM     56  C   UNL A   1      43.959  28.548  29.831  1.00  0.00     0.049 A 
ATOM     57  H   UNL A   1      43.622  30.097  31.221  1.00  0.00     0.167 HD
ATOM     58  C   UNL A   1      44.135  30.613  28.438  1.00  0.00     0.074 A 
ATOM     59  C   UNL A   1      44.321  31.296  27.170  1.00  0.00     0.031 C 
ATOM     60  C   UNL A   1      44.167  29.263  28.591  1.00  0.00     0.034 A 
BRANCH  47  61
ATOM     61  C   UNL A   1      43.219  27.265  34.417  1.00  0.00     0.023 A 
ATOM     62  C   UNL A   1      44.382  26.711  34.985  1.00  0.00     0.031 A 
ATOM     63  C   UNL A   1      41.988  26.666  34.735  1.00  0.00     0.131 A 
ATOM     64  C   UNL A   1      44.298  25.541  35.758  1.00  0.00     0.055 A 
ATOM     65  C   UNL A   1      41.902  25.555  35.577  1.00  0.00     0.041 A 
ATOM     66  F   UNL A   1      40.844  27.128  34.204  1.00  0.00    -0.206 F 
ATOM     67  C   UNL A   1      43.063  24.974  36.077  1.00  0.00     0.022 A 
BRANCH  64  68
ATOM     68  S   UNL A   1      45.831  24.666  36.181  1.00  0.00     0.124 S 
ATOM     69  O   UNL A   1      46.844  25.555  35.615  1.00  0.00    -0.237 OA
ATOM     70  O   UNL A   1      45.770  24.611  37.636  1.00  0.00    -0.237 OA
ATOM     71  O   UNL A   1      45.693  23.380  35.500  1.00  0.00    -0.744 OA
ENDBRANCH  64  68
ENDBRANCH  47  61
BRANCH  48  72
ATOM     72  C   UNL A   1      44.032  35.351  28.412  1.00  0.00     0.023 A 
ATOM     73  C   UNL A   1      45.304  35.907  28.204  1.00  0.00     0.031 A 
ATOM     74  C   UNL A   1      42.934  35.958  27.772  1.00  0.00     0.131 A 
ATOM     75  C   UNL A   1      45.442  37.047  27.395  1.00  0.00     0.055 A 
ATOM     76  C   UNL A   1      43.083  37.062  26.934  1.00  0.00     0.041 A 
ATOM     77  F   UNL A   1      41.697  35.461  27.932  1.00  0.00    -0.206 F 
ATOM     78  C   UNL A   1      44.343  37.619  26.748  1.00  0.00     0.022 A 
BRANCH  75  79
ATOM     79  S   UNL A   1      47.080  37.808  27.235  1.00  0.00     0.124 S 
ATOM     80  O   UNL A   1      46.740  39.208  27.012  1.00  0.00    -0.237 OA
ATOM     81  O   UNL A   1      47.689  37.492  28.523  1.00  0.00    -0.237 OA
ATOM     82  O   UNL A   1      47.665  37.118  26.087  1.00  0.00    -0.744 OA
ENDBRANCH  75  79
ENDBRANCH  48  72
BRANCH  60  83
ATOM     83  C   UNL A   1      44.391  28.448  27.339  1.00  0.00     0.023 A 
ATOM     84  C   UNL A   1      45.674  28.026  26.954  1.00  0.00     0.031 A 
ATOM     85  C   UNL A   1      43.305  28.104  26.516  1.00  0.00     0.131 A 
ATOM     86  C   UNL A   1      45.849  27.344  25.742  1.00  0.00     0.055 A 
ATOM     87  C   UNL A   1      43.476  27.362  25.347  1.00  0.00     0.041 A 
ATOM     88  F   UNL A   1      42.056  28.483  26.835  1.00  0.00    -0.206 F 
ATOM     89  C   UNL A   1      44.756  26.992  24.946  1.00  0.00     0.022 A 
BRANCH  86  90
ATOM     90  S   UNL A   1      47.537  27.028  25.162  1.00  0.00     0.124 S 
ATOM     91  O   UNL A   1      47.305  26.149  24.021  1.00  0.00    -0.237 OA
ATOM     92  O   UNL A   1      48.016  28.370  24.847  1.00  0.00    -0.237 OA
ATOM     93  O   UNL A   1      48.181  26.395  26.312  1.00  0.00    -0.744 OA
ENDBRANCH  86  90
ENDBRANCH  60  83
ENDBRANCH  34  35
ENDBRANCH  27  29
ENDBRANCH  26  27
ENDBRANCH  25  26
ENDBRANCH  24  25
ENDBRANCH  23  24
ENDBRANCH  22  23
ENDBRANCH   1  22
TORSDOF 25
ENDMDL
MODEL 3
REMARK VINA RESULT:      -7.3      5.433      9.626
REMARK SMILES C#CCN(CC(=O)OCCOCCOC(=O)c1ccc(-c2c3nc(c(-c4cc(S(=O)(=O)[O-])ccc4F)c4ccc([nH]4)c(-c4cc(S(=O)(=O)[O-])ccc4F)c4nc(c(-c5cc(S(=O)(=O)[O-])ccc5F)c5ccc2[nH]5)C=C4)C=C3)cc1)C(=O)CCNC(=O)C(C)(C)C
REMARK SMILES IDX 9 1 8 2 6 3 7 4 5 5 4 6 3 7 2 8 1 9 80 10 81 11 82 12 83 13
REMARK SMILES IDX 84 14 85 15 86 17 87 18 88 19 89 20 90 21 10 22 11 23 12 24
REMARK SMILES IDX 13 25 14 26 15 27 16 28 17 29 18 30 79 31 19 32 78 33 20 34
REMARK SMILES IDX 21 35 22 36 72 37 23 38 77 39 71 40 73 41 24 42 76 43 70 44
REMARK SMILES IDX 69 45 25 47 57 48 37 49 56 50 38 51 41 52 55 53 74 54 39 55
REMARK SMILES IDX 40 56 54 58 75 59 42 60 26 61 27 62 35 63 28 64 34 65 36 66
REMARK SMILES IDX 33 67 29 68 30 69 31 70 32 71 58 72 59 73 67 74 60 75 66 76
REMARK SMILES IDX 68 77 65 78 61 79 62 80 63 81 64 82 43 83 44 84 52 85 45 86
REMARK SMILES IDX 51 87 53 88 50 89 46 90 47 91 48 92 49 93
REMARK H PARENT 84 16 73 46 41 57
REMARK Flexibility Score: inf
ROOT
ATOM      1  C   UNL A   1      37.161  33.997  32.272  1.00  0.00     0.261 C 
ENDROOT
BRANCH   1   2
ATOM      2  O   UNL A   1      37.655  33.344  33.468  1.00  0.00    -0.462 OA
BRANCH   2   3
ATOM      3  C   UNL A   1      36.742  33.223  34.465  1.00  0.00     0.325 C 
ATOM      4  O   UNL A   1      35.560  32.940  34.287  1.00  0.00    -0.250 OA
BRANCH   3   5
ATOM      5  C   UNL A   1      37.283  33.504  35.870  1.00  0.00     0.243 C 
BRANCH   5   6
ATOM      6  N   UNL A   1      37.913  32.479  36.713  1.00  0.00    -0.320 N 
BRANCH   6   7
ATOM      7  C   UNL A   1      37.547  32.479  38.142  1.00  0.00     0.210 C 
BRANCH   7   8
ATOM      8  C   UNL A   1      38.526  33.393  38.861  1.00  0.00    -0.085 C 
ATOM      9  C   UNL A   1      39.365  34.177  39.478  1.00  0.00     0.006 C 
ENDBRANCH   7   8
ENDBRANCH   6   7
BRANCH   6  10
ATOM     10  C   UNL A   1      38.760  31.461  36.274  1.00  0.00     0.225 C 
ATOM     11  O   UNL A   1      38.485  30.268  36.451  1.00  0.00    -0.275 OA
BRANCH  10  12
ATOM     12  C   UNL A   1      40.085  31.767  35.588  1.00  0.00     0.121 C 
BRANCH  12  13
ATOM     13  C   UNL A   1      41.075  30.644  35.334  1.00  0.00     0.125 C 
BRANCH  13  14
ATOM     14  N   UNL A   1      40.461  29.483  34.716  1.00  0.00    -0.355 N 
ATOM     15  C   UNL A   1      40.917  28.256  34.347  1.00  0.00     0.225 C 
ATOM     16  H   UNL A   1      39.504  29.611  34.523  1.00  0.00     0.163 HD
ATOM     17  O   UNL A   1      40.166  27.646  33.577  1.00  0.00    -0.275 OA
BRANCH  15  18
ATOM     18  C   UNL A   1      42.216  27.604  34.878  1.00  0.00     0.041 C 
ATOM     19  C   UNL A   1      43.497  28.040  34.171  1.00  0.00     0.021 C 
ATOM     20  C   UNL A   1      42.330  27.869  36.384  1.00  0.00     0.021 C 
ATOM     21  C   UNL A   1      42.102  26.074  34.663  1.00  0.00     0.021 C 
ENDBRANCH  15  18
ENDBRANCH  13  14
ENDBRANCH  12  13
ENDBRANCH  10  12
ENDBRANCH   6  10
ENDBRANCH   5   6
ENDBRANCH   3   5
ENDBRANCH   2   3
ENDBRANCH   1   2
BRANCH   1  22
ATOM     22  C   UNL A   1      37.962  33.598  31.025  1.00  0.00     0.202 C 
BRANCH  22  23
ATOM     23  O   UNL A   1      37.238  32.970  29.961  1.00  0.00    -0.374 OA
BRANCH  23  24
ATOM     24  C   UNL A   1      35.857  33.285  29.862  1.00  0.00     0.202 C 
BRANCH  24  25
ATOM     25  C   UNL A   1      35.061  32.769  28.664  1.00  0.00     0.261 C 
BRANCH  25  26
ATOM     26  O   UNL A   1      35.841  31.917  27.836  1.00  0.00    -0.460 OA
BRANCH  26  27
ATOM     27  C   UNL A   1      35.621  30.609  28.087  1.00  0.00     0.338 C 
ATOM     28  O   UNL A   1      34.543  30.024  28.077  1.00  0.00    -0.246 OA
BRANCH  27  29
ATOM     29  C   UNL A   1      36.910  29.920  28.162  1.00  0.00     0.060 A 
ATOM     30  C   UNL A   1      37.141  29.162  29.312  1.00  0.00     0.016 A 
ATOM     31  C   UNL A   1      37.865  30.013  27.143  1.00  0.00     0.016 A 
ATOM     32  C   UNL A   1      38.375  28.570  29.500  1.00  0.00     0.010 A 
ATOM     33  C   UNL A   1      39.107  29.417  27.332  1.00  0.00     0.010 A 
ATOM     34  C   UNL A   1      39.377  28.752  28.540  1.00  0.00    -0.014 A 
BRANCH  34  35
ATOM     35  C   UNL A   1      40.761  28.439  28.936  1.00  0.00     0.031 A 
ATOM     36  C   UNL A   1      41.399  27.213  28.347  1.00  0.00     0.074 A 
ATOM     37  C   UNL A   1      41.440  29.293  29.716  1.00  0.00     0.049 A 
ATOM     38  N   UNL A   1      42.622  26.775  28.470  1.00  0.00    -0.248 NA
ATOM     39  C   UNL A   1      40.535  26.368  27.507  1.00  0.00     0.031 C 
ATOM     40  C   UNL A   1      40.890  30.518  30.297  1.00  0.00     0.029 A 
ATOM     41  N   UNL A   1      42.738  29.267  30.143  1.00  0.00    -0.354 N 
ATOM     42  C   UNL A   1      42.674  25.600  27.726  1.00  0.00     0.074 A 
ATOM     43  C   UNL A   1      41.347  25.370  27.201  1.00  0.00     0.031 C 
ATOM     44  C   UNL A   1      41.850  31.129  31.010  1.00  0.00     0.029 A 
ATOM     45  C   UNL A   1      43.066  30.323  30.956  1.00  0.00     0.049 A 
ATOM     46  H   UNL A   1      43.376  28.561  29.891  1.00  0.00     0.167 HD
ATOM     47  C   UNL A   1      43.743  24.799  27.496  1.00  0.00     0.034 A 
ATOM     48  C   UNL A   1      44.220  30.590  31.595  1.00  0.00     0.034 A 
ATOM     49  C   UNL A   1      45.045  25.061  28.056  1.00  0.00     0.049 A 
ATOM     50  C   UNL A   1      45.385  29.664  31.366  1.00  0.00     0.074 A 
ATOM     51  C   UNL A   1      46.217  24.345  27.896  1.00  0.00     0.029 A 
ATOM     52  N   UNL A   1      45.340  26.123  28.906  1.00  0.00    -0.354 N 
ATOM     53  N   UNL A   1      45.440  28.571  30.635  1.00  0.00    -0.248 NA
ATOM     54  C   UNL A   1      46.647  30.015  32.023  1.00  0.00     0.031 C 
ATOM     55  C   UNL A   1      47.196  24.928  28.711  1.00  0.00     0.029 A 
ATOM     56  C   UNL A   1      46.664  26.060  29.311  1.00  0.00     0.049 A 
ATOM     57  H   UNL A   1      44.701  26.819  29.181  1.00  0.00     0.167 HD
ATOM     58  C   UNL A   1      46.751  28.113  30.731  1.00  0.00     0.074 A 
ATOM     59  C   UNL A   1      47.453  29.064  31.573  1.00  0.00     0.031 C 
ATOM     60  C   UNL A   1      47.325  27.013  30.176  1.00  0.00     0.034 A 
BRANCH  47  61
ATOM     61  C   UNL A   1      43.505  23.549  26.676  1.00  0.00     0.023 A 
ATOM     62  C   UNL A   1      42.573  22.567  27.061  1.00  0.00     0.031 A 
ATOM     63  C   UNL A   1      44.285  23.298  25.534  1.00  0.00     0.131 A 
ATOM     64  C   UNL A   1      42.514  21.345  26.370  1.00  0.00     0.055 A 
ATOM     65  C   UNL A   1      44.157  22.118  24.797  1.00  0.00     0.041 A 
ATOM     66  F   UNL A   1      45.211  24.181  25.129  1.00  0.00    -0.206 F 
ATOM     67  C   UNL A   1      43.283  21.124  25.227  1.00  0.00     0.022 A 
BRANCH  64  68
ATOM     68  S   UNL A   1      41.559  19.981  27.095  1.00  0.00     0.124 S 
ATOM     69  O   UNL A   1      40.897  19.426  25.916  1.00  0.00    -0.237 OA
ATOM     70  O   UNL A   1      42.599  19.154  27.694  1.00  0.00    -0.237 OA
ATOM     71  O   UNL A   1      40.669  20.650  28.042  1.00  0.00    -0.744 OA
ENDBRANCH  64  68
ENDBRANCH  47  61
BRANCH  48  72
ATOM     72  C   UNL A   1      44.300  31.753  32.522  1.00  0.00     0.023 A 
ATOM     73  C   UNL A   1      44.281  31.592  33.916  1.00  0.00     0.031 A 
ATOM     74  C   UNL A   1      44.411  33.060  32.010  1.00  0.00     0.131 A 
ATOM     75  C   UNL A   1      44.350  32.721  34.749  1.00  0.00     0.055 A 
ATOM     76  C   UNL A   1      44.525  34.174  32.842  1.00  0.00     0.041 A 
ATOM     77  F   UNL A   1      44.442  33.268  30.684  1.00  0.00    -0.206 F 
ATOM     78  C   UNL A   1      44.486  34.008  34.222  1.00  0.00     0.022 A 
BRANCH  75  79
ATOM     79  S   UNL A   1      44.211  32.491  36.542  1.00  0.00     0.124 S 
ATOM     80  O   UNL A   1      45.490  33.009  37.011  1.00  0.00    -0.237 OA
ATOM     81  O   UNL A   1      43.036  33.295  36.861  1.00  0.00    -0.237 OA
ATOM     82  O   UNL A   1      44.031  31.047  36.687  1.00  0.00    -0.744 OA
ENDBRANCH  75  79
ENDBRANCH  48  72
BRANCH  60  83
ATOM     83  C   UNL A   1      48.795  26.809  30.453  1.00  0.00     0.023 A 
ATOM     84  C   UNL A   1      49.785  27.342  29.611  1.00  0.00     0.031 A 
ATOM     85  C   UNL A   1      49.206  26.058  31.568  1.00  0.00     0.131 A 
ATOM     86  C   UNL A   1      51.136  27.058  29.856  1.00  0.00     0.055 A 
ATOM     87  C   UNL A   1      50.556  25.839  31.848  1.00  0.00     0.041 A 
ATOM     88  F   UNL A   1      48.302  25.523  32.405  1.00  0.00    -0.206 F 
ATOM     89  C   UNL A   1      51.528  26.327  30.981  1.00  0.00     0.022 A 
BRANCH  86  90
ATOM     90  S   UNL A   1      52.364  27.557  28.621  1.00  0.00     0.124 S 
ATOM     91  O   UNL A   1      52.799  28.852  29.133  1.00  0.00    -0.237 OA
ATOM     92  O   UNL A   1      53.343  26.478  28.700  1.00  0.00    -0.237 OA
ATOM     93  O   UNL A   1      51.597  27.608  27.377  1.00  0.00    -0.744 OA
ENDBRANCH  86  90
ENDBRANCH  60  83
ENDBRANCH  34  35
ENDBRANCH  27  29
ENDBRANCH  26  27
ENDBRANCH  25  26
ENDBRANCH  24  25
ENDBRANCH  23  24
ENDBRANCH  22  23
ENDBRANCH   1  22
TORSDOF 25
ENDMDL
