MODEL 1
REMARK VINA RESULT:      -9.7      0.000      0.000
REMARK SMILES C[C@@H](C(=O)OCCOCCOC(=O)c1ccc(-c2c3nc(c(-c4cc(S(=O)(=O)[O-])ccc4F)c4ccc([nH]4)c(-c4cc(S(=O)(=O)[O-])ccc4F)c4nc(c(-c5cc(S(=O)(=O)[O-])ccc5F)c5ccc2[nH]5)C=C4)C=C3)cc1)c1ccc(=O)n(C(F)F)c1
REMARK SMILES IDX 9 1 8 2 7 3 6 4 5 5 3 6 4 7 2 8 1 9 77 10 78 11 86 12 79 13
REMARK SMILES IDX 82 14 80 15 81 16 83 17 84 18 85 19 10 20 11 21 12 22 13 23
REMARK SMILES IDX 14 24 15 25 76 26 16 27 75 28 17 29 18 30 19 31 69 32 20 33
REMARK SMILES IDX 74 34 68 35 70 36 21 37 73 38 67 39 66 40 22 42 54 43 34 44
REMARK SMILES IDX 53 45 35 46 38 47 52 48 71 49 36 50 37 51 51 53 72 54 39 55
REMARK SMILES IDX 23 56 24 57 32 58 25 59 31 60 33 61 30 62 26 63 27 64 28 65
REMARK SMILES IDX 29 66 55 67 56 68 64 69 57 70 63 71 65 72 62 73 58 74 59 75
REMARK SMILES IDX 60 76 61 77 40 78 41 79 49 80 42 81 48 82 50 83 47 84 43 85
REMARK SMILES IDX 44 86 45 87 46 88
REMARK H PARENT 70 41 38 52
REMARK Flexibility Score: inf
ROOT
ATOM      1  C   UNL A   1      33.411  35.191  29.047  1.00  0.00     0.202 C 
ENDROOT
BRANCH   1   2
ATOM      2  O   UNL A   1      32.703  35.338  30.277  1.00  0.00    -0.374 OA
BRANCH   2   3
ATOM      3  C   UNL A   1      32.983  36.508  31.052  1.00  0.00     0.202 C 
BRANCH   3   4
ATOM      4  C   UNL A   1      33.324  36.259  32.524  1.00  0.00     0.261 C 
BRANCH   4   5
ATOM      5  O   UNL A   1      34.699  35.855  32.652  1.00  0.00    -0.463 OA
BRANCH   5   6
ATOM      6  C   UNL A   1      34.915  34.566  33.019  1.00  0.00     0.313 C 
ATOM      7  O   UNL A   1      34.454  34.044  34.029  1.00  0.00    -0.252 OA
BRANCH   6   8
ATOM      8  C   UNL A   1      35.759  33.798  31.990  1.00  0.00     0.127 C 
ATOM      9  C   UNL A   1      35.487  32.293  31.881  1.00  0.00     0.025 C 
BRANCH   8  10
ATOM     10  C   UNL A   1      37.250  34.060  32.187  1.00  0.00    -0.017 A 
ATOM     11  C   UNL A   1      37.800  34.292  33.512  1.00  0.00     0.012 A 
ATOM     12  C   UNL A   1      38.093  34.106  31.140  1.00  0.00     0.099 A 
ATOM     13  C   UNL A   1      39.100  34.554  33.692  1.00  0.00     0.072 A 
ATOM     14  N   UNL A   1      39.447  34.353  31.298  1.00  0.00    -0.258 N 
ATOM     15  C   UNL A   1      40.026  34.604  32.531  1.00  0.00     0.254 A 
ATOM     16  O   UNL A   1      41.209  34.856  32.732  1.00  0.00    -0.269 OA
BRANCH  14  17
ATOM     17  C   UNL A   1      40.311  34.420  30.150  1.00  0.00     0.451 C 
ATOM     18  F   UNL A   1      40.802  33.194  29.841  1.00  0.00    -0.185 F 
ATOM     19  F   UNL A   1      39.658  34.895  29.061  1.00  0.00    -0.185 F 
ENDBRANCH  14  17
ENDBRANCH   8  10
ENDBRANCH   6   8
ENDBRANCH   5   6
ENDBRANCH   4   5
ENDBRANCH   3   4
ENDBRANCH   2   3
ENDBRANCH   1   2
BRANCH   1  20
ATOM     20  C   UNL A   1      33.277  33.853  28.314  1.00  0.00     0.261 C 
BRANCH  20  21
ATOM     21  O   UNL A   1      34.154  32.849  28.850  1.00  0.00    -0.460 OA
BRANCH  21  22
ATOM     22  C   UNL A   1      34.281  31.749  28.071  1.00  0.00     0.338 C 
ATOM     23  O   UNL A   1      33.518  31.389  27.184  1.00  0.00    -0.246 OA
BRANCH  22  24
ATOM     24  C   UNL A   1      35.592  31.114  28.295  1.00  0.00     0.060 A 
ATOM     25  C   UNL A   1      35.592  29.763  28.662  1.00  0.00     0.016 A 
ATOM     26  C   UNL A   1      36.791  31.827  28.210  1.00  0.00     0.016 A 
ATOM     27  C   UNL A   1      36.784  29.132  29.005  1.00  0.00     0.010 A 
ATOM     28  C   UNL A   1      37.988  31.192  28.563  1.00  0.00     0.010 A 
ATOM     29  C   UNL A   1      37.983  29.854  28.998  1.00  0.00    -0.014 A 
BRANCH  29  30
ATOM     30  C   UNL A   1      39.192  29.252  29.612  1.00  0.00     0.031 A 
ATOM     31  C   UNL A   1      39.647  29.755  30.955  1.00  0.00     0.074 A 
ATOM     32  C   UNL A   1      39.840  28.239  29.008  1.00  0.00     0.049 A 
ATOM     33  N   UNL A   1      40.674  29.389  31.677  1.00  0.00    -0.248 NA
ATOM     34  C   UNL A   1      38.831  30.818  31.562  1.00  0.00     0.031 C 
ATOM     35  C   UNL A   1      39.457  27.636  27.732  1.00  0.00     0.029 A 
ATOM     36  N   UNL A   1      40.955  27.539  29.391  1.00  0.00    -0.354 N 
ATOM     37  C   UNL A   1      40.633  30.178  32.822  1.00  0.00     0.074 A 
ATOM     38  C   UNL A   1      39.500  31.069  32.678  1.00  0.00     0.031 C 
ATOM     39  C   UNL A   1      40.328  26.655  27.436  1.00  0.00     0.029 A 
ATOM     40  C   UNL A   1      41.348  26.588  28.479  1.00  0.00     0.049 A 
ATOM     41  H   UNL A   1      41.429  27.702  30.238  1.00  0.00     0.167 HD
ATOM     42  C   UNL A   1      41.458  30.155  33.897  1.00  0.00     0.034 A 
ATOM     43  C   UNL A   1      42.422  25.772  28.480  1.00  0.00     0.034 A 
ATOM     44  C   UNL A   1      42.588  29.267  34.019  1.00  0.00     0.049 A 
ATOM     45  C   UNL A   1      43.379  25.825  29.647  1.00  0.00     0.074 A 
ATOM     46  C   UNL A   1      43.480  29.144  35.070  1.00  0.00     0.029 A 
ATOM     47  N   UNL A   1      42.990  28.356  33.050  1.00  0.00    -0.354 N 
ATOM     48  N   UNL A   1      43.324  26.570  30.729  1.00  0.00    -0.248 NA
ATOM     49  C   UNL A   1      44.537  24.925  29.596  1.00  0.00     0.031 C 
ATOM     50  C   UNL A   1      44.462  28.215  34.706  1.00  0.00     0.029 A 
ATOM     51  C   UNL A   1      44.139  27.697  33.462  1.00  0.00     0.049 A 
ATOM     52  H   UNL A   1      42.527  28.200  32.195  1.00  0.00     0.167 HD
ATOM     53  C   UNL A   1      44.424  26.201  31.499  1.00  0.00     0.074 A 
ATOM     54  C   UNL A   1      45.115  25.162  30.764  1.00  0.00     0.031 C 
ATOM     55  C   UNL A   1      44.824  26.671  32.709  1.00  0.00     0.034 A 
BRANCH  42  56
ATOM     56  C   UNL A   1      41.198  31.163  34.992  1.00  0.00     0.023 A 
ATOM     57  C   UNL A   1      40.073  31.077  35.830  1.00  0.00     0.031 A 
ATOM     58  C   UNL A   1      42.072  32.250  35.174  1.00  0.00     0.131 A 
ATOM     59  C   UNL A   1      39.815  32.094  36.762  1.00  0.00     0.055 A 
ATOM     60  C   UNL A   1      41.853  33.216  36.156  1.00  0.00     0.041 A 
ATOM     61  F   UNL A   1      43.150  32.399  34.388  1.00  0.00    -0.206 F 
ATOM     62  C   UNL A   1      40.709  33.150  36.948  1.00  0.00     0.022 A 
BRANCH  59  63
ATOM     63  S   UNL A   1      38.220  32.095  37.626  1.00  0.00     0.124 S 
ATOM     64  O   UNL A   1      37.670  30.800  37.233  1.00  0.00    -0.237 OA
ATOM     65  O   UNL A   1      38.619  32.223  39.024  1.00  0.00    -0.237 OA
ATOM     66  O   UNL A   1      37.528  33.254  37.066  1.00  0.00    -0.744 OA
ENDBRANCH  59  63
ENDBRANCH  42  56
BRANCH  43  67
ATOM     67  C   UNL A   1      42.680  24.861  27.328  1.00  0.00     0.023 A 
ATOM     68  C   UNL A   1      42.149  23.562  27.295  1.00  0.00     0.031 A 
ATOM     69  C   UNL A   1      43.510  25.260  26.265  1.00  0.00     0.131 A 
ATOM     70  C   UNL A   1      42.488  22.694  26.244  1.00  0.00     0.055 A 
ATOM     71  C   UNL A   1      43.803  24.412  25.197  1.00  0.00     0.041 A 
ATOM     72  F   UNL A   1      44.045  26.492  26.247  1.00  0.00    -0.206 F 
ATOM     73  C   UNL A   1      43.301  23.115  25.189  1.00  0.00     0.022 A 
BRANCH  70  74
ATOM     74  S   UNL A   1      41.915  20.974  26.318  1.00  0.00     0.124 S 
ATOM     75  O   UNL A   1      40.503  21.118  25.983  1.00  0.00    -0.237 OA
ATOM     76  O   UNL A   1      42.753  20.333  25.310  1.00  0.00    -0.237 OA
ATOM     77  O   UNL A   1      42.195  20.583  27.698  1.00  0.00    -0.744 OA
ENDBRANCH  70  74
ENDBRANCH  43  67
BRANCH  55  78
ATOM     78  C   UNL A   1      46.042  26.029  33.327  1.00  0.00     0.023 A 
ATOM     79  C   UNL A   1      45.946  24.891  34.146  1.00  0.00     0.031 A 
ATOM     80  C   UNL A   1      47.319  26.573  33.097  1.00  0.00     0.131 A 
ATOM     81  C   UNL A   1      47.097  24.366  34.751  1.00  0.00     0.055 A 
ATOM     82  C   UNL A   1      48.469  26.010  33.653  1.00  0.00     0.041 A 
ATOM     83  F   UNL A   1      47.471  27.659  32.324  1.00  0.00    -0.206 F 
ATOM     84  C   UNL A   1      48.360  24.908  34.497  1.00  0.00     0.022 A 
BRANCH  81  85
ATOM     85  S   UNL A   1      46.914  23.018  35.951  1.00  0.00     0.124 S 
ATOM     86  O   UNL A   1      47.515  23.596  37.150  1.00  0.00    -0.237 OA
ATOM     87  O   UNL A   1      45.468  22.830  35.991  1.00  0.00    -0.237 OA
ATOM     88  O   UNL A   1      47.665  21.918  35.350  1.00  0.00    -0.744 OA
ENDBRANCH  81  85
ENDBRANCH  55  78
ENDBRANCH  29  30
ENDBRANCH  22  24
ENDBRANCH  21  22
ENDBRANCH  20  21
ENDBRANCH   1  20
TORSDOF 19
ENDMDL
MODEL 2
REMARK VINA RESULT:      -9.1      6.102     10.803
REMARK SMILES C[C@@H](C(=O)OCCOCCOC(=O)c1ccc(-c2c3nc(c(-c4cc(S(=O)(=O)[O-])ccc4F)c4ccc([nH]4)c(-c4cc(S(=O)(=O)[O-])ccc4F)c4nc(c(-c5cc(S(=O)(=O)[O-])ccc5F)c5ccc2[nH]5)C=C4)C=C3)cc1)c1ccc(=O)n(C(F)F)c1
REMARK SMILES IDX 9 1 8 2 7 3 6 4 5 5 3 6 4 7 2 8 1 9 77 10 78 11 86 12 79 13
REMARK SMILES IDX 82 14 80 15 81 16 83 17 84 18 85 19 10 20 11 21 12 22 13 23
REMARK SMILES IDX 14 24 15 25 76 26 16 27 75 28 17 29 18 30 19 31 69 32 20 33
REMARK SMILES IDX 74 34 68 35 70 36 21 37 73 38 67 39 66 40 22 42 54 43 34 44
REMARK SMILES IDX 53 45 35 46 38 47 52 48 71 49 36 50 37 51 51 53 72 54 39 55
REMARK SMILES IDX 23 56 24 57 32 58 25 59 31 60 33 61 30 62 26 63 27 64 28 65
REMARK SMILES IDX 29 66 55 67 56 68 64 69 57 70 63 71 65 72 62 73 58 74 59 75
REMARK SMILES IDX 60 76 61 77 40 78 41 79 49 80 42 81 48 82 50 83 47 84 43 85
REMARK SMILES IDX 44 86 45 87 46 88
REMARK H PARENT 70 41 38 52
REMARK Flexibility Score: inf
ROOT
ATOM      1  C   UNL A   1      36.986  19.698  24.705  1.00  0.00     0.202 C 
ENDROOT
BRANCH   1   2
ATOM      2  O   UNL A   1      36.292  20.903  25.023  1.00  0.00    -0.374 OA
BRANCH   2   3
ATOM      3  C   UNL A   1      36.513  22.025  24.163  1.00  0.00     0.202 C 
BRANCH   3   4
ATOM      4  C   UNL A   1      36.298  23.400  24.804  1.00  0.00     0.261 C 
BRANCH   4   5
ATOM      5  O   UNL A   1      35.503  23.271  25.997  1.00  0.00    -0.463 OA
BRANCH   5   6
ATOM      6  C   UNL A   1      34.279  23.857  25.969  1.00  0.00     0.313 C 
ATOM      7  O   UNL A   1      34.067  25.006  25.595  1.00  0.00    -0.252 OA
BRANCH   6   8
ATOM      8  C   UNL A   1      33.162  22.897  26.404  1.00  0.00     0.127 C 
ATOM      9  C   UNL A   1      33.327  22.249  27.784  1.00  0.00     0.025 C 
BRANCH   8  10
ATOM     10  C   UNL A   1      32.895  21.834  25.342  1.00  0.00    -0.017 A 
ATOM     11  C   UNL A   1      32.446  22.205  24.010  1.00  0.00     0.012 A 
ATOM     12  C   UNL A   1      33.043  20.525  25.614  1.00  0.00     0.099 A 
ATOM     13  C   UNL A   1      32.179  21.279  23.081  1.00  0.00     0.072 A 
ATOM     14  N   UNL A   1      32.795  19.546  24.666  1.00  0.00    -0.258 N 
ATOM     15  C   UNL A   1      32.344  19.835  23.388  1.00  0.00     0.254 A 
ATOM     16  O   UNL A   1      32.082  19.013  22.516  1.00  0.00    -0.269 OA
BRANCH  14  17
ATOM     17  C   UNL A   1      32.941  18.155  25.004  1.00  0.00     0.451 C 
ATOM     18  F   UNL A   1      34.249  17.806  25.065  1.00  0.00    -0.185 F 
ATOM     19  F   UNL A   1      32.376  17.872  26.203  1.00  0.00    -0.185 F 
ENDBRANCH  14  17
ENDBRANCH   8  10
ENDBRANCH   6   8
ENDBRANCH   5   6
ENDBRANCH   4   5
ENDBRANCH   3   4
ENDBRANCH   2   3
ENDBRANCH   1   2
BRANCH   1  20
ATOM     20  C   UNL A   1      38.360  19.486  25.350  1.00  0.00     0.261 C 
BRANCH  20  21
ATOM     21  O   UNL A   1      39.024  20.727  25.635  1.00  0.00    -0.460 OA
BRANCH  21  22
ATOM     22  C   UNL A   1      40.072  20.614  26.486  1.00  0.00     0.338 C 
ATOM     23  O   UNL A   1      40.748  19.613  26.684  1.00  0.00    -0.246 OA
BRANCH  22  24
ATOM     24  C   UNL A   1      40.436  21.936  27.025  1.00  0.00     0.060 A 
ATOM     25  C   UNL A   1      39.833  23.053  26.434  1.00  0.00     0.016 A 
ATOM     26  C   UNL A   1      41.385  22.094  28.039  1.00  0.00     0.016 A 
ATOM     27  C   UNL A   1      40.219  24.337  26.810  1.00  0.00     0.010 A 
ATOM     28  C   UNL A   1      41.777  23.385  28.411  1.00  0.00     0.010 A 
ATOM     29  C   UNL A   1      41.223  24.510  27.770  1.00  0.00    -0.014 A 
BRANCH  29  30
ATOM     30  C   UNL A   1      41.806  25.860  27.970  1.00  0.00     0.031 A 
ATOM     31  C   UNL A   1      40.995  26.897  28.696  1.00  0.00     0.074 A 
ATOM     32  C   UNL A   1      43.056  26.138  27.557  1.00  0.00     0.049 A 
ATOM     33  N   UNL A   1      41.291  28.139  28.978  1.00  0.00    -0.248 NA
ATOM     34  C   UNL A   1      39.667  26.473  29.167  1.00  0.00     0.031 C 
ATOM     35  C   UNL A   1      43.953  25.194  26.890  1.00  0.00     0.029 A 
ATOM     36  N   UNL A   1      43.787  27.295  27.641  1.00  0.00    -0.354 N 
ATOM     37  C   UNL A   1      40.187  28.648  29.654  1.00  0.00     0.074 A 
ATOM     38  C   UNL A   1      39.201  27.589  29.705  1.00  0.00     0.031 C 
ATOM     39  C   UNL A   1      45.115  25.814  26.622  1.00  0.00     0.029 A 
ATOM     40  C   UNL A   1      45.031  27.205  27.063  1.00  0.00     0.049 A 
ATOM     41  H   UNL A   1      43.452  28.113  28.074  1.00  0.00     0.167 HD
ATOM     42  C   UNL A   1      40.016  29.881  30.191  1.00  0.00     0.034 A 
ATOM     43  C   UNL A   1      45.983  28.145  26.893  1.00  0.00     0.034 A 
ATOM     44  C   UNL A   1      41.008  30.927  30.122  1.00  0.00     0.049 A 
ATOM     45  C   UNL A   1      45.735  29.538  27.420  1.00  0.00     0.074 A 
ATOM     46  C   UNL A   1      40.949  32.207  30.645  1.00  0.00     0.029 A 
ATOM     47  N   UNL A   1      42.234  30.818  29.478  1.00  0.00    -0.354 N 
ATOM     48  N   UNL A   1      44.690  30.005  28.066  1.00  0.00    -0.248 NA
ATOM     49  C   UNL A   1      46.797  30.527  27.201  1.00  0.00     0.031 C 
ATOM     50  C   UNL A   1      42.105  32.894  30.255  1.00  0.00     0.029 A 
ATOM     51  C   UNL A   1      42.923  32.019  29.557  1.00  0.00     0.049 A 
ATOM     52  H   UNL A   1      42.566  30.006  29.031  1.00  0.00     0.167 HD
ATOM     53  C   UNL A   1      44.987  31.334  28.357  1.00  0.00     0.074 A 
ATOM     54  C   UNL A   1      46.311  31.589  27.827  1.00  0.00     0.031 C 
ATOM     55  C   UNL A   1      44.239  32.260  29.010  1.00  0.00     0.034 A 
BRANCH  42  56
ATOM     56  C   UNL A   1      38.685  30.176  30.841  1.00  0.00     0.023 A 
ATOM     57  C   UNL A   1      37.661  30.859  30.164  1.00  0.00     0.031 A 
ATOM     58  C   UNL A   1      38.453  29.797  32.176  1.00  0.00     0.131 A 
ATOM     59  C   UNL A   1      36.482  31.204  30.842  1.00  0.00     0.055 A 
ATOM     60  C   UNL A   1      37.246  30.074  32.821  1.00  0.00     0.041 A 
ATOM     61  F   UNL A   1      39.402  29.164  32.882  1.00  0.00    -0.206 F 
ATOM     62  C   UNL A   1      36.257  30.796  32.158  1.00  0.00     0.022 A 
BRANCH  59  63
ATOM     63  S   UNL A   1      35.308  32.323  30.028  1.00  0.00     0.124 S 
ATOM     64  O   UNL A   1      34.840  31.500  28.915  1.00  0.00    -0.237 OA
ATOM     65  O   UNL A   1      34.336  32.582  31.084  1.00  0.00    -0.237 OA
ATOM     66  O   UNL A   1      36.133  33.466  29.644  1.00  0.00    -0.744 OA
ENDBRANCH  59  63
ENDBRANCH  42  56
BRANCH  43  67
ATOM     67  C   UNL A   1      47.241  27.822  26.162  1.00  0.00     0.023 A 
ATOM     68  C   UNL A   1      47.333  27.972  24.769  1.00  0.00     0.031 A 
ATOM     69  C   UNL A   1      48.358  27.304  26.843  1.00  0.00     0.131 A 
ATOM     70  C   UNL A   1      48.498  27.568  24.097  1.00  0.00     0.055 A 
ATOM     71  C   UNL A   1      49.533  26.952  26.178  1.00  0.00     0.041 A 
ATOM     72  F   UNL A   1      48.324  27.140  28.176  1.00  0.00    -0.206 F 
ATOM     73  C   UNL A   1      49.602  27.071  24.793  1.00  0.00     0.022 A 
BRANCH  70  74
ATOM     74  S   UNL A   1      48.520  27.625  22.284  1.00  0.00     0.124 S 
ATOM     75  O   UNL A   1      48.698  26.218  21.945  1.00  0.00    -0.237 OA
ATOM     76  O   UNL A   1      47.212  28.198  21.985  1.00  0.00    -0.237 OA
ATOM     77  O   UNL A   1      49.660  28.490  21.986  1.00  0.00    -0.744 OA
ENDBRANCH  70  74
ENDBRANCH  43  67
BRANCH  55  78
ATOM     78  C   UNL A   1      44.859  33.619  29.223  1.00  0.00     0.023 A 
ATOM     79  C   UNL A   1      44.574  34.706  28.380  1.00  0.00     0.031 A 
ATOM     80  C   UNL A   1      45.761  33.824  30.285  1.00  0.00     0.131 A 
ATOM     81  C   UNL A   1      45.223  35.934  28.577  1.00  0.00     0.055 A 
ATOM     82  C   UNL A   1      46.358  35.065  30.513  1.00  0.00     0.041 A 
ATOM     83  F   UNL A   1      46.071  32.822  31.121  1.00  0.00    -0.206 F 
ATOM     84  C   UNL A   1      46.101  36.125  29.648  1.00  0.00     0.022 A 
BRANCH  81  85
ATOM     85  S   UNL A   1      44.978  37.256  27.359  1.00  0.00     0.124 S 
ATOM     86  O   UNL A   1      43.661  36.930  26.820  1.00  0.00    -0.237 OA
ATOM     87  O   UNL A   1      45.049  38.457  28.183  1.00  0.00    -0.237 OA
ATOM     88  O   UNL A   1      46.090  37.076  26.428  1.00  0.00    -0.744 OA
ENDBRANCH  81  85
ENDBRANCH  55  78
ENDBRANCH  29  30
ENDBRANCH  22  24
ENDBRANCH  21  22
ENDBRANCH  20  21
ENDBRANCH   1  20
TORSDOF 19
ENDMDL
MODEL 3
REMARK VINA RESULT:      -9.1      4.414      6.765
REMARK SMILES C[C@@H](C(=O)OCCOCCOC(=O)c1ccc(-c2c3nc(c(-c4cc(S(=O)(=O)[O-])ccc4F)c4ccc([nH]4)c(-c4cc(S(=O)(=O)[O-])ccc4F)c4nc(c(-c5cc(S(=O)(=O)[O-])ccc5F)c5ccc2[nH]5)C=C4)C=C3)cc1)c1ccc(=O)n(C(F)F)c1
REMARK SMILES IDX 9 1 8 2 7 3 6 4 5 5 3 6 4 7 2 8 1 9 77 10 78 11 86 12 79 13
REMARK SMILES IDX 82 14 80 15 81 16 83 17 84 18 85 19 10 20 11 21 12 22 13 23
REMARK SMILES IDX 14 24 15 25 76 26 16 27 75 28 17 29 18 30 19 31 69 32 20 33
REMARK SMILES IDX 74 34 68 35 70 36 21 37 73 38 67 39 66 40 22 42 54 43 34 44
REMARK SMILES IDX 53 45 35 46 38 47 52 48 71 49 36 50 37 51 51 53 72 54 39 55
REMARK SMILES IDX 23 56 24 57 32 58 25 59 31 60 33 61 30 62 26 63 27 64 28 65
REMARK SMILES IDX 29 66 55 67 56 68 64 69 57 70 63 71 65 72 62 73 58 74 59 75
REMARK SMILES IDX 60 76 61 77 40 78 41 79 49 80 42 81 48 82 50 83 47 84 43 85
REMARK SMILES IDX 44 86 45 87 46 88
REMARK H PARENT 70 41 38 52
REMARK Flexibility Score: inf
ROOT
ATOM      1  C   UNL A   1      31.287  30.730  25.408  1.00  0.00     0.202 C 
ENDROOT
BRANCH   1   2
ATOM      2  O   UNL A   1      32.003  29.543  25.745  1.00  0.00    -0.374 OA
BRANCH   2   3
ATOM      3  C   UNL A   1      33.348  29.439  25.269  1.00  0.00     0.202 C 
BRANCH   3   4
ATOM      4  C   UNL A   1      33.654  28.201  24.420  1.00  0.00     0.261 C 
BRANCH   4   5
ATOM      5  O   UNL A   1      33.083  28.348  23.107  1.00  0.00    -0.463 OA
BRANCH   5   6
ATOM      6  C   UNL A   1      32.794  27.200  22.445  1.00  0.00     0.313 C 
ATOM      7  O   UNL A   1      33.322  26.852  21.393  1.00  0.00    -0.252 OA
BRANCH   6   8
ATOM      8  C   UNL A   1      31.766  26.336  23.191  1.00  0.00     0.127 C 
ATOM      9  C   UNL A   1      31.642  24.880  22.725  1.00  0.00     0.025 C 
BRANCH   8  10
ATOM     10  C   UNL A   1      30.395  27.006  23.224  1.00  0.00    -0.017 A 
ATOM     11  C   UNL A   1      29.266  26.365  23.879  1.00  0.00     0.012 A 
ATOM     12  C   UNL A   1      30.186  28.194  22.629  1.00  0.00     0.099 A 
ATOM     13  C   UNL A   1      28.052  26.929  23.886  1.00  0.00     0.072 A 
ATOM     14  N   UNL A   1      28.946  28.811  22.640  1.00  0.00    -0.258 N 
ATOM     15  C   UNL A   1      27.827  28.241  23.227  1.00  0.00     0.254 A 
ATOM     16  O   UNL A   1      26.700  28.724  23.245  1.00  0.00    -0.269 OA
BRANCH  14  17
ATOM     17  C   UNL A   1      28.757  30.070  21.970  1.00  0.00     0.451 C 
ATOM     18  F   UNL A   1      29.930  30.538  21.478  1.00  0.00    -0.185 F 
ATOM     19  F   UNL A   1      27.884  29.960  20.939  1.00  0.00    -0.185 F 
ENDBRANCH  14  17
ENDBRANCH   8  10
ENDBRANCH   6   8
ENDBRANCH   5   6
ENDBRANCH   4   5
ENDBRANCH   3   4
ENDBRANCH   2   3
ENDBRANCH   1   2
BRANCH   1  20
ATOM     20  C   UNL A   1      31.429  31.929  26.352  1.00  0.00     0.261 C 
BRANCH  20  21
ATOM     21  O   UNL A   1      32.381  31.687  27.399  1.00  0.00    -0.460 OA
BRANCH  21  22
ATOM     22  C   UNL A   1      33.227  32.719  27.631  1.00  0.00     0.338 C 
ATOM     23  O   UNL A   1      32.929  33.903  27.715  1.00  0.00    -0.246 OA
BRANCH  22  24
ATOM     24  C   UNL A   1      34.568  32.213  27.973  1.00  0.00     0.060 A 
ATOM     25  C   UNL A   1      34.686  30.842  28.229  1.00  0.00     0.016 A 
ATOM     26  C   UNL A   1      35.675  33.057  28.100  1.00  0.00     0.016 A 
ATOM     27  C   UNL A   1      35.895  30.315  28.673  1.00  0.00     0.010 A 
ATOM     28  C   UNL A   1      36.888  32.527  28.554  1.00  0.00     0.010 A 
ATOM     29  C   UNL A   1      36.991  31.161  28.879  1.00  0.00    -0.014 A 
BRANCH  29  30
ATOM     30  C   UNL A   1      38.182  30.640  29.595  1.00  0.00     0.031 A 
ATOM     31  C   UNL A   1      38.417  31.074  31.016  1.00  0.00     0.074 A 
ATOM     32  C   UNL A   1      39.007  29.755  29.007  1.00  0.00     0.049 A 
ATOM     33  N   UNL A   1      39.387  30.758  31.833  1.00  0.00    -0.248 NA
ATOM     34  C   UNL A   1      37.419  31.991  31.591  1.00  0.00     0.031 C 
ATOM     35  C   UNL A   1      38.847  29.224  27.654  1.00  0.00     0.029 A 
ATOM     36  N   UNL A   1      40.143  29.147  29.476  1.00  0.00    -0.354 N 
ATOM     37  C   UNL A   1      39.123  31.440  33.017  1.00  0.00     0.074 A 
ATOM     38  C   UNL A   1      37.920  32.215  32.795  1.00  0.00     0.031 C 
ATOM     39  C   UNL A   1      39.853  28.369  27.400  1.00  0.00     0.029 A 
ATOM     40  C   UNL A   1      40.746  28.322  28.555  1.00  0.00     0.049 A 
ATOM     41  H   UNL A   1      40.494  29.287  30.384  1.00  0.00     0.167 HD
ATOM     42  C   UNL A   1      39.815  31.414  34.183  1.00  0.00     0.034 A 
ATOM     43  C   UNL A   1      41.899  27.626  28.633  1.00  0.00     0.034 A 
ATOM     44  C   UNL A   1      41.017  30.641  34.382  1.00  0.00     0.049 A 
ATOM     45  C   UNL A   1      42.701  27.682  29.911  1.00  0.00     0.074 A 
ATOM     46  C   UNL A   1      41.789  30.526  35.524  1.00  0.00     0.029 A 
ATOM     47  N   UNL A   1      41.631  29.862  33.408  1.00  0.00    -0.354 N 
ATOM     48  N   UNL A   1      42.435  28.323  31.027  1.00  0.00    -0.248 NA
ATOM     49  C   UNL A   1      43.952  26.915  29.942  1.00  0.00     0.031 C 
ATOM     50  C   UNL A   1      42.906  29.738  35.221  1.00  0.00     0.029 A 
ATOM     51  C   UNL A   1      42.792  29.296  33.913  1.00  0.00     0.049 A 
ATOM     52  H   UNL A   1      41.291  29.731  32.494  1.00  0.00     0.167 HD
ATOM     53  C   UNL A   1      43.473  28.008  31.901  1.00  0.00     0.074 A 
ATOM     54  C   UNL A   1      44.359  27.113  31.187  1.00  0.00     0.031 C 
ATOM     55  C   UNL A   1      43.673  28.415  33.182  1.00  0.00     0.034 A 
BRANCH  42  56
ATOM     56  C   UNL A   1      39.315  32.293  35.305  1.00  0.00     0.023 A 
ATOM     57  C   UNL A   1      39.731  33.628  35.445  1.00  0.00     0.031 A 
ATOM     58  C   UNL A   1      38.436  31.773  36.271  1.00  0.00     0.131 A 
ATOM     59  C   UNL A   1      39.325  34.374  36.562  1.00  0.00     0.055 A 
ATOM     60  C   UNL A   1      37.972  32.545  37.338  1.00  0.00     0.041 A 
ATOM     61  F   UNL A   1      38.023  30.497  36.204  1.00  0.00    -0.206 F 
ATOM     62  C   UNL A   1      38.430  33.850  37.497  1.00  0.00     0.022 A 
BRANCH  59  63
ATOM     63  S   UNL A   1      40.099  35.989  36.855  1.00  0.00     0.124 S 
ATOM     64  O   UNL A   1      41.501  35.616  37.031  1.00  0.00    -0.237 OA
ATOM     65  O   UNL A   1      39.778  36.718  35.633  1.00  0.00    -0.237 OA
ATOM     66  O   UNL A   1      39.434  36.473  38.064  1.00  0.00    -0.744 OA
ENDBRANCH  59  63
ENDBRANCH  42  56
BRANCH  43  67
ATOM     67  C   UNL A   1      42.391  26.847  27.461  1.00  0.00     0.023 A 
ATOM     68  C   UNL A   1      42.091  25.484  27.315  1.00  0.00     0.031 A 
ATOM     69  C   UNL A   1      43.219  27.446  26.494  1.00  0.00     0.131 A 
ATOM     70  C   UNL A   1      42.649  24.754  26.252  1.00  0.00     0.055 A 
ATOM     71  C   UNL A   1      43.730  26.730  25.411  1.00  0.00     0.041 A 
ATOM     72  F   UNL A   1      43.539  28.747  26.586  1.00  0.00    -0.206 F 
ATOM     73  C   UNL A   1      43.455  25.371  25.294  1.00  0.00     0.022 A 
BRANCH  70  74
ATOM     74  S   UNL A   1      42.370  22.963  26.187  1.00  0.00     0.124 S 
ATOM     75  O   UNL A   1      43.175  22.496  27.310  1.00  0.00    -0.237 OA
ATOM     76  O   UNL A   1      40.923  22.876  26.353  1.00  0.00    -0.237 OA
ATOM     77  O   UNL A   1      42.867  22.590  24.864  1.00  0.00    -0.744 OA
ENDBRANCH  70  74
ENDBRANCH  43  67
BRANCH  55  78
ATOM     78  C   UNL A   1      44.876  27.854  33.900  1.00  0.00     0.023 A 
ATOM     79  C   UNL A   1      44.808  26.663  34.643  1.00  0.00     0.031 A 
ATOM     80  C   UNL A   1      46.108  28.531  33.846  1.00  0.00     0.131 A 
ATOM     81  C   UNL A   1      45.935  26.213  35.348  1.00  0.00     0.055 A 
ATOM     82  C   UNL A   1      47.243  28.047  34.499  1.00  0.00     0.041 A 
ATOM     83  F   UNL A   1      46.231  29.674  33.152  1.00  0.00    -0.206 F 
ATOM     84  C   UNL A   1      47.156  26.889  35.266  1.00  0.00     0.022 A 
BRANCH  81  85
ATOM     85  S   UNL A   1      45.762  24.782  36.447  1.00  0.00     0.124 S 
ATOM     86  O   UNL A   1      47.102  24.204  36.406  1.00  0.00    -0.237 OA
ATOM     87  O   UNL A   1      45.374  25.403  37.709  1.00  0.00    -0.237 OA
ATOM     88  O   UNL A   1      44.721  23.981  35.806  1.00  0.00    -0.744 OA
ENDBRANCH  81  85
ENDBRANCH  55  78
ENDBRANCH  29  30
ENDBRANCH  22  24
ENDBRANCH  21  22
ENDBRANCH  20  21
ENDBRANCH   1  20
TORSDOF 19
ENDMDL
