MODEL 1
REMARK VINA RESULT:     -10.2      0.000      0.000
REMARK SMILES O=C(C[N@@H+]1CCC[C@@H]1C(=O)OCCOCCOC(=O)c1ccc(-c2c3nc(c(-c4cc(S(=O)(=O)[O-])ccc4F)c4ccc([nH]4)c(-c4cc(S(=O)(=O)[O-])ccc4F)c4nc(c(-c5cc(S(=O)(=O)[O-])ccc5F)c5ccc2[nH]5)C=C4)C=C3)cc1)NCc1ccc(Cl)cc1
REMARK SMILES IDX 13 1 12 2 11 3 9 4 10 5 8 6 4 7 5 8 6 10 7 11 3 12 2 13 1 14
REMARK SMILES IDX 83 15 84 17 85 18 86 19 91 20 87 21 90 22 88 23 89 24 14 25
REMARK SMILES IDX 15 26 16 27 17 28 18 29 19 30 20 31 21 32 82 33 22 34 81 35
REMARK SMILES IDX 23 36 24 37 25 38 75 39 26 40 80 41 74 42 76 43 27 44 79 45
REMARK SMILES IDX 73 46 72 47 28 49 60 50 40 51 59 52 41 53 44 54 58 55 77 56
REMARK SMILES IDX 42 57 43 58 57 60 78 61 45 62 29 63 30 64 38 65 31 66 37 67
REMARK SMILES IDX 39 68 36 69 32 70 33 71 34 72 35 73 61 74 62 75 70 76 63 77
REMARK SMILES IDX 69 78 71 79 68 80 64 81 65 82 66 83 67 84 46 85 47 86 55 87
REMARK SMILES IDX 48 88 54 89 56 90 53 91 49 92 50 93 51 94 52 95
REMARK H PARENT 4 9 83 16 76 48 44 59
REMARK Flexibility Score: inf
ROOT
ATOM      1  C   UNL A   1      31.836  29.617  25.778  1.00  0.00     0.202 C 
ENDROOT
BRANCH   1   2
ATOM      2  C   UNL A   1      33.224  29.138  25.362  1.00  0.00     0.261 C 
BRANCH   2   3
ATOM      3  O   UNL A   1      33.118  28.444  24.102  1.00  0.00    -0.459 OA
BRANCH   3   4
ATOM      4  C   UNL A   1      33.210  27.094  24.116  1.00  0.00     0.365 C 
ATOM      5  O   UNL A   1      34.214  26.464  24.431  1.00  0.00    -0.245 OA
BRANCH   4   6
ATOM      6  C   UNL A   1      31.901  26.420  23.706  1.00  0.00     0.295 C 
ATOM      7  N   UNL A   1      30.914  26.125  24.762  1.00  0.00    -0.315 N 
ATOM      8  C   UNL A   1      29.931  25.220  24.184  1.00  0.00     0.263 C 
ATOM      9  H   UNL A   1      30.525  27.035  25.010  1.00  0.00     0.349 HD
ATOM     10  C   UNL A   1      30.648  24.454  23.078  1.00  0.00     0.068 C 
ATOM     11  C   UNL A   1      32.006  25.129  22.906  1.00  0.00     0.083 C 
BRANCH   7  12
ATOM     12  C   UNL A   1      31.286  25.895  26.166  1.00  0.00     0.364 C 
BRANCH  12  13
ATOM     13  C   UNL A   1      31.736  24.494  26.581  1.00  0.00     0.275 C 
ATOM     14  O   UNL A   1      30.997  23.771  27.251  1.00  0.00    -0.268 OA
ATOM     15  N   UNL A   1      32.974  24.078  26.164  1.00  0.00    -0.347 N 
ATOM     16  H   UNL A   1      33.410  24.529  25.405  1.00  0.00     0.164 HD
BRANCH  15  17
ATOM     17  C   UNL A   1      33.642  22.986  26.827  1.00  0.00     0.151 C 
BRANCH  17  18
ATOM     18  C   UNL A   1      33.792  21.775  25.951  1.00  0.00    -0.029 A 
ATOM     19  C   UNL A   1      32.647  21.082  25.531  1.00  0.00     0.007 A 
ATOM     20  C   UNL A   1      35.059  21.254  25.648  1.00  0.00     0.007 A 
ATOM     21  C   UNL A   1      32.766  19.858  24.872  1.00  0.00     0.021 A 
ATOM     22  C   UNL A   1      35.176  20.020  25.001  1.00  0.00     0.021 A 
ATOM     23  C   UNL A   1      34.028  19.323  24.626  1.00  0.00     0.041 A 
ATOM     24  Cl  UNL A   1      34.176  17.773  23.899  1.00  0.00    -0.084 Cl
ENDBRANCH  17  18
ENDBRANCH  15  17
ENDBRANCH  12  13
ENDBRANCH   7  12
ENDBRANCH   4   6
ENDBRANCH   3   4
ENDBRANCH   2   3
ENDBRANCH   1   2
BRANCH   1  25
ATOM     25  O   UNL A   1      31.908  30.583  26.833  1.00  0.00    -0.374 OA
BRANCH  25  26
ATOM     26  C   UNL A   1      31.403  31.874  26.501  1.00  0.00     0.202 C 
BRANCH  26  27
ATOM     27  C   UNL A   1      32.114  33.010  27.238  1.00  0.00     0.261 C 
BRANCH  27  28
ATOM     28  O   UNL A   1      33.277  32.534  27.933  1.00  0.00    -0.460 OA
BRANCH  28  29
ATOM     29  C   UNL A   1      34.375  33.339  27.875  1.00  0.00     0.338 C 
ATOM     30  O   UNL A   1      34.399  34.518  27.602  1.00  0.00    -0.246 OA
BRANCH  29  31
ATOM     31  C   UNL A   1      35.561  32.560  28.310  1.00  0.00     0.060 A 
ATOM     32  C   UNL A   1      35.429  31.197  28.591  1.00  0.00     0.016 A 
ATOM     33  C   UNL A   1      36.800  33.179  28.469  1.00  0.00     0.016 A 
ATOM     34  C   UNL A   1      36.523  30.475  29.088  1.00  0.00     0.010 A 
ATOM     35  C   UNL A   1      37.904  32.442  28.889  1.00  0.00     0.010 A 
ATOM     36  C   UNL A   1      37.764  31.104  29.274  1.00  0.00    -0.014 A 
BRANCH  36  37
ATOM     37  C   UNL A   1      38.874  30.439  30.008  1.00  0.00     0.031 A 
ATOM     38  C   UNL A   1      39.081  30.746  31.474  1.00  0.00     0.074 A 
ATOM     39  C   UNL A   1      39.737  29.625  29.372  1.00  0.00     0.049 A 
ATOM     40  N   UNL A   1      39.953  30.251  32.318  1.00  0.00    -0.248 NA
ATOM     41  C   UNL A   1      38.232  31.799  32.051  1.00  0.00     0.031 C 
ATOM     42  C   UNL A   1      39.740  29.346  27.936  1.00  0.00     0.029 A 
ATOM     43  N   UNL A   1      40.792  28.894  29.858  1.00  0.00    -0.354 N 
ATOM     44  C   UNL A   1      39.768  30.952  33.508  1.00  0.00     0.074 A 
ATOM     45  C   UNL A   1      38.788  31.978  33.237  1.00  0.00     0.031 C 
ATOM     46  C   UNL A   1      40.740  28.490  27.660  1.00  0.00     0.029 A 
ATOM     47  C   UNL A   1      41.440  28.154  28.898  1.00  0.00     0.049 A 
ATOM     48  H   UNL A   1      41.059  28.900  30.806  1.00  0.00     0.167 HD
ATOM     49  C   UNL A   1      40.323  30.734  34.728  1.00  0.00     0.034 A 
ATOM     50  C   UNL A   1      42.461  27.281  29.012  1.00  0.00     0.034 A 
ATOM     51  C   UNL A   1      41.280  29.686  34.981  1.00  0.00     0.049 A 
ATOM     52  C   UNL A   1      43.000  26.961  30.385  1.00  0.00     0.074 A 
ATOM     53  C   UNL A   1      41.832  29.284  36.184  1.00  0.00     0.029 A 
ATOM     54  N   UNL A   1      41.840  28.875  34.000  1.00  0.00    -0.354 N 
ATOM     55  N   UNL A   1      42.706  27.514  31.540  1.00  0.00    -0.248 NA
ATOM     56  C   UNL A   1      43.969  25.863  30.472  1.00  0.00     0.031 C 
ATOM     57  C   UNL A   1      42.768  28.276  35.924  1.00  0.00     0.029 A 
ATOM     58  C   UNL A   1      42.743  27.990  34.567  1.00  0.00     0.049 A 
ATOM     59  H   UNL A   1      41.625  28.923  33.040  1.00  0.00     0.167 HD
ATOM     60  C   UNL A   1      43.425  26.800  32.497  1.00  0.00     0.074 A 
ATOM     61  C   UNL A   1      44.153  25.771  31.782  1.00  0.00     0.031 C 
ATOM     62  C   UNL A   1      43.470  26.972  33.845  1.00  0.00     0.034 A 
BRANCH  49  63
ATOM     63  C   UNL A   1      39.896  31.648  35.859  1.00  0.00     0.023 A 
ATOM     64  C   UNL A   1      40.722  32.694  36.316  1.00  0.00     0.031 A 
ATOM     65  C   UNL A   1      38.683  31.437  36.538  1.00  0.00     0.131 A 
ATOM     66  C   UNL A   1      40.393  33.395  37.485  1.00  0.00     0.055 A 
ATOM     67  C   UNL A   1      38.307  32.216  37.637  1.00  0.00     0.041 A 
ATOM     68  F   UNL A   1      37.851  30.452  36.167  1.00  0.00    -0.206 F 
ATOM     69  C   UNL A   1      39.176  33.184  38.134  1.00  0.00     0.022 A 
BRANCH  66  70
ATOM     70  S   UNL A   1      41.667  34.435  38.252  1.00  0.00     0.124 S 
ATOM     71  O   UNL A   1      42.516  33.435  38.896  1.00  0.00    -0.237 OA
ATOM     72  O   UNL A   1      42.248  35.122  37.105  1.00  0.00    -0.237 OA
ATOM     73  O   UNL A   1      40.910  35.282  39.172  1.00  0.00    -0.744 OA
ENDBRANCH  66  70
ENDBRANCH  49  63
BRANCH  50  74
ATOM     74  C   UNL A   1      42.987  26.591  27.802  1.00  0.00     0.023 A 
ATOM     75  C   UNL A   1      42.564  25.294  27.469  1.00  0.00     0.031 A 
ATOM     76  C   UNL A   1      43.924  27.218  26.963  1.00  0.00     0.131 A 
ATOM     77  C   UNL A   1      43.105  24.648  26.347  1.00  0.00     0.055 A 
ATOM     78  C   UNL A   1      44.429  26.586  25.824  1.00  0.00     0.041 A 
ATOM     79  F   UNL A   1      44.346  28.464  27.230  1.00  0.00    -0.206 F 
ATOM     80  C   UNL A   1      44.026  25.289  25.516  1.00  0.00     0.022 A 
BRANCH  77  81
ATOM     81  S   UNL A   1      42.617  22.933  26.013  1.00  0.00     0.124 S 
ATOM     82  O   UNL A   1      43.391  22.203  27.010  1.00  0.00    -0.237 OA
ATOM     83  O   UNL A   1      41.174  22.981  26.230  1.00  0.00    -0.237 OA
ATOM     84  O   UNL A   1      43.028  22.726  24.626  1.00  0.00    -0.744 OA
ENDBRANCH  77  81
ENDBRANCH  50  74
BRANCH  62  85
ATOM     85  C   UNL A   1      44.295  25.986  34.638  1.00  0.00     0.023 A 
ATOM     86  C   UNL A   1      45.638  26.234  34.969  1.00  0.00     0.031 A 
ATOM     87  C   UNL A   1      43.730  24.765  35.050  1.00  0.00     0.131 A 
ATOM     88  C   UNL A   1      46.393  25.247  35.620  1.00  0.00     0.055 A 
ATOM     89  C   UNL A   1      44.466  23.815  35.760  1.00  0.00     0.041 A 
ATOM     90  F   UNL A   1      42.451  24.472  34.763  1.00  0.00    -0.206 F 
ATOM     91  C   UNL A   1      45.810  24.045  36.032  1.00  0.00     0.022 A 
BRANCH  88  92
ATOM     92  S   UNL A   1      48.179  25.500  35.808  1.00  0.00     0.124 S 
ATOM     93  O   UNL A   1      48.346  25.428  37.256  1.00  0.00    -0.237 OA
ATOM     94  O   UNL A   1      48.733  24.387  35.046  1.00  0.00    -0.237 OA
ATOM     95  O   UNL A   1      48.401  26.822  35.225  1.00  0.00    -0.744 OA
ENDBRANCH  88  92
ENDBRANCH  62  85
ENDBRANCH  36  37
ENDBRANCH  29  31
ENDBRANCH  28  29
ENDBRANCH  27  28
ENDBRANCH  26  27
ENDBRANCH  25  26
ENDBRANCH   1  25
TORSDOF 21
ENDMDL
MODEL 2
REMARK VINA RESULT:     -10.2      2.477      3.653
REMARK SMILES O=C(C[N@@H+]1CCC[C@@H]1C(=O)OCCOCCOC(=O)c1ccc(-c2c3nc(c(-c4cc(S(=O)(=O)[O-])ccc4F)c4ccc([nH]4)c(-c4cc(S(=O)(=O)[O-])ccc4F)c4nc(c(-c5cc(S(=O)(=O)[O-])ccc5F)c5ccc2[nH]5)C=C4)C=C3)cc1)NCc1ccc(Cl)cc1
REMARK SMILES IDX 13 1 12 2 11 3 9 4 10 5 8 6 4 7 5 8 6 10 7 11 3 12 2 13 1 14
REMARK SMILES IDX 83 15 84 17 85 18 86 19 91 20 87 21 90 22 88 23 89 24 14 25
REMARK SMILES IDX 15 26 16 27 17 28 18 29 19 30 20 31 21 32 82 33 22 34 81 35
REMARK SMILES IDX 23 36 24 37 25 38 75 39 26 40 80 41 74 42 76 43 27 44 79 45
REMARK SMILES IDX 73 46 72 47 28 49 60 50 40 51 59 52 41 53 44 54 58 55 77 56
REMARK SMILES IDX 42 57 43 58 57 60 78 61 45 62 29 63 30 64 38 65 31 66 37 67
REMARK SMILES IDX 39 68 36 69 32 70 33 71 34 72 35 73 61 74 62 75 70 76 63 77
REMARK SMILES IDX 69 78 71 79 68 80 64 81 65 82 66 83 67 84 46 85 47 86 55 87
REMARK SMILES IDX 48 88 54 89 56 90 53 91 49 92 50 93 51 94 52 95
REMARK H PARENT 4 9 83 16 76 48 44 59
REMARK Flexibility Score: inf
ROOT
ATOM      1  C   UNL A   1      33.907  27.906  24.294  1.00  0.00     0.202 C 
ENDROOT
BRANCH   1   2
ATOM      2  C   UNL A   1      33.206  26.551  24.320  1.00  0.00     0.261 C 
BRANCH   2   3
ATOM      3  O   UNL A   1      34.150  25.547  24.743  1.00  0.00    -0.459 OA
BRANCH   3   4
ATOM      4  C   UNL A   1      34.287  24.444  23.970  1.00  0.00     0.365 C 
ATOM      5  O   UNL A   1      34.376  24.452  22.747  1.00  0.00    -0.245 OA
BRANCH   4   6
ATOM      6  C   UNL A   1      34.337  23.160  24.798  1.00  0.00     0.295 C 
ATOM      7  N   UNL A   1      35.576  22.863  25.542  1.00  0.00    -0.315 N 
ATOM      8  C   UNL A   1      35.492  21.475  25.970  1.00  0.00     0.263 C 
ATOM      9  H   UNL A   1      35.572  23.524  26.319  1.00  0.00     0.349 HD
ATOM     10  C   UNL A   1      34.597  20.764  24.960  1.00  0.00     0.068 C 
ATOM     11  C   UNL A   1      33.997  21.859  24.082  1.00  0.00     0.083 C 
BRANCH   7  12
ATOM     12  C   UNL A   1      36.898  23.352  25.124  1.00  0.00     0.364 C 
BRANCH  12  13
ATOM     13  C   UNL A   1      38.015  23.417  26.166  1.00  0.00     0.275 C 
ATOM     14  O   UNL A   1      38.139  24.405  26.891  1.00  0.00    -0.268 OA
ATOM     15  N   UNL A   1      38.847  22.332  26.269  1.00  0.00    -0.347 N 
ATOM     16  H   UNL A   1      38.561  21.461  25.910  1.00  0.00     0.164 HD
BRANCH  15  17
ATOM     17  C   UNL A   1      40.139  22.457  26.900  1.00  0.00     0.151 C 
BRANCH  17  18
ATOM     18  C   UNL A   1      41.132  21.448  26.400  1.00  0.00    -0.029 A 
ATOM     19  C   UNL A   1      40.954  20.092  26.711  1.00  0.00     0.007 A 
ATOM     20  C   UNL A   1      42.299  21.850  25.734  1.00  0.00     0.007 A 
ATOM     21  C   UNL A   1      41.952  19.163  26.416  1.00  0.00     0.021 A 
ATOM     22  C   UNL A   1      43.305  20.921  25.452  1.00  0.00     0.021 A 
ATOM     23  C   UNL A   1      43.130  19.584  25.804  1.00  0.00     0.041 A 
ATOM     24  Cl  UNL A   1      44.399  18.459  25.524  1.00  0.00    -0.084 Cl
ENDBRANCH  17  18
ENDBRANCH  15  17
ENDBRANCH  12  13
ENDBRANCH   7  12
ENDBRANCH   4   6
ENDBRANCH   3   4
ENDBRANCH   2   3
ENDBRANCH   1   2
BRANCH   1  25
ATOM     25  O   UNL A   1      32.991  28.977  24.553  1.00  0.00    -0.374 OA
BRANCH  25  26
ATOM     26  C   UNL A   1      32.687  29.188  25.930  1.00  0.00     0.202 C 
BRANCH  26  27
ATOM     27  C   UNL A   1      32.377  30.648  26.264  1.00  0.00     0.261 C 
BRANCH  27  28
ATOM     28  O   UNL A   1      32.909  31.014  27.546  1.00  0.00    -0.460 OA
BRANCH  28  29
ATOM     29  C   UNL A   1      33.832  32.018  27.543  1.00  0.00     0.338 C 
ATOM     30  O   UNL A   1      33.643  33.178  27.255  1.00  0.00    -0.246 OA
BRANCH  29  31
ATOM     31  C   UNL A   1      35.117  31.486  28.059  1.00  0.00     0.060 A 
ATOM     32  C   UNL A   1      35.233  30.124  28.357  1.00  0.00     0.016 A 
ATOM     33  C   UNL A   1      36.202  32.334  28.277  1.00  0.00     0.016 A 
ATOM     34  C   UNL A   1      36.414  29.631  28.929  1.00  0.00     0.010 A 
ATOM     35  C   UNL A   1      37.400  31.827  28.773  1.00  0.00     0.010 A 
ATOM     36  C   UNL A   1      37.497  30.489  29.174  1.00  0.00    -0.014 A 
BRANCH  36  37
ATOM     37  C   UNL A   1      38.669  30.056  29.982  1.00  0.00     0.031 A 
ATOM     38  C   UNL A   1      38.810  30.549  31.405  1.00  0.00     0.074 A 
ATOM     39  C   UNL A   1      39.638  29.292  29.445  1.00  0.00     0.049 A 
ATOM     40  N   UNL A   1      39.722  30.266  32.302  1.00  0.00    -0.248 NA
ATOM     41  C   UNL A   1      37.826  31.544  31.856  1.00  0.00     0.031 C 
ATOM     42  C   UNL A   1      39.701  28.857  28.050  1.00  0.00     0.029 A 
ATOM     43  N   UNL A   1      40.768  28.759  30.014  1.00  0.00    -0.354 N 
ATOM     44  C   UNL A   1      39.430  31.067  33.404  1.00  0.00     0.074 A 
ATOM     45  C   UNL A   1      38.334  31.923  33.016  1.00  0.00     0.031 C 
ATOM     46  C   UNL A   1      40.806  28.109  27.876  1.00  0.00     0.029 A 
ATOM     47  C   UNL A   1      41.520  28.004  29.146  1.00  0.00     0.049 A 
ATOM     48  H   UNL A   1      41.015  28.905  30.956  1.00  0.00     0.167 HD
ATOM     49  C   UNL A   1      39.986  31.058  34.643  1.00  0.00     0.034 A 
ATOM     50  C   UNL A   1      42.640  27.286  29.362  1.00  0.00     0.034 A 
ATOM     51  C   UNL A   1      41.062  30.175  35.017  1.00  0.00     0.049 A 
ATOM     52  C   UNL A   1      43.191  27.192  30.765  1.00  0.00     0.074 A 
ATOM     53  C   UNL A   1      41.639  29.983  36.259  1.00  0.00     0.029 A 
ATOM     54  N   UNL A   1      41.737  29.337  34.135  1.00  0.00    -0.354 N 
ATOM     55  N   UNL A   1      42.810  27.829  31.849  1.00  0.00    -0.248 NA
ATOM     56  C   UNL A   1      44.288  26.242  30.979  1.00  0.00     0.031 C 
ATOM     57  C   UNL A   1      42.698  29.079  36.118  1.00  0.00     0.029 A 
ATOM     58  C   UNL A   1      42.734  28.642  34.803  1.00  0.00     0.049 A 
ATOM     59  H   UNL A   1      41.535  29.249  33.175  1.00  0.00     0.167 HD
ATOM     60  C   UNL A   1      43.595  27.323  32.883  1.00  0.00     0.074 A 
ATOM     61  C   UNL A   1      44.459  26.321  32.291  1.00  0.00     0.031 C 
ATOM     62  C   UNL A   1      43.594  27.649  34.202  1.00  0.00     0.034 A 
BRANCH  49  63
ATOM     63  C   UNL A   1      39.428  32.032  35.662  1.00  0.00     0.023 A 
ATOM     64  C   UNL A   1      39.988  33.312  35.845  1.00  0.00     0.031 A 
ATOM     65  C   UNL A   1      38.369  31.661  36.509  1.00  0.00     0.131 A 
ATOM     66  C   UNL A   1      39.583  34.113  36.923  1.00  0.00     0.055 A 
ATOM     67  C   UNL A   1      37.893  32.513  37.511  1.00  0.00     0.041 A 
ATOM     68  F   UNL A   1      37.794  30.454  36.401  1.00  0.00    -0.206 F 
ATOM     69  C   UNL A   1      38.518  33.735  37.741  1.00  0.00     0.022 A 
BRANCH  66  70
ATOM     70  S   UNL A   1      40.601  35.551  37.357  1.00  0.00     0.124 S 
ATOM     71  O   UNL A   1      41.156  35.143  38.645  1.00  0.00    -0.237 OA
ATOM     72  O   UNL A   1      41.545  35.617  36.248  1.00  0.00    -0.237 OA
ATOM     73  O   UNL A   1      39.636  36.647  37.423  1.00  0.00    -0.744 OA
ENDBRANCH  66  70
ENDBRANCH  49  63
BRANCH  50  74
ATOM     74  C   UNL A   1      43.270  26.536  28.240  1.00  0.00     0.023 A 
ATOM     75  C   UNL A   1      44.334  27.089  27.509  1.00  0.00     0.031 A 
ATOM     76  C   UNL A   1      42.814  25.256  27.882  1.00  0.00     0.131 A 
ATOM     77  C   UNL A   1      44.884  26.380  26.430  1.00  0.00     0.055 A 
ATOM     78  C   UNL A   1      43.392  24.538  26.832  1.00  0.00     0.041 A 
ATOM     79  F   UNL A   1      41.811  24.679  28.561  1.00  0.00    -0.206 F 
ATOM     80  C   UNL A   1      44.427  25.104  26.093  1.00  0.00     0.022 A 
BRANCH  77  81
ATOM     81  S   UNL A   1      46.180  27.174  25.441  1.00  0.00     0.124 S 
ATOM     82  O   UNL A   1      47.084  27.669  26.473  1.00  0.00    -0.237 OA
ATOM     83  O   UNL A   1      46.673  26.059  24.637  1.00  0.00    -0.237 OA
ATOM     84  O   UNL A   1      45.459  28.203  24.695  1.00  0.00    -0.744 OA
ENDBRANCH  77  81
ENDBRANCH  50  74
BRANCH  62  85
ATOM     85  C   UNL A   1      44.523  26.871  35.105  1.00  0.00     0.023 A 
ATOM     86  C   UNL A   1      45.831  27.303  35.380  1.00  0.00     0.031 A 
ATOM     87  C   UNL A   1      44.093  25.661  35.681  1.00  0.00     0.131 A 
ATOM     88  C   UNL A   1      46.690  26.497  36.143  1.00  0.00     0.055 A 
ATOM     89  C   UNL A   1      44.929  24.897  36.498  1.00  0.00     0.041 A 
ATOM     90  F   UNL A   1      42.853  25.198  35.455  1.00  0.00    -0.206 F 
ATOM     91  C   UNL A   1      46.241  25.304  36.717  1.00  0.00     0.022 A 
BRANCH  88  92
ATOM     92  S   UNL A   1      48.438  26.963  36.269  1.00  0.00     0.124 S 
ATOM     93  O   UNL A   1      48.826  26.345  37.532  1.00  0.00    -0.237 OA
ATOM     94  O   UNL A   1      49.006  26.365  35.065  1.00  0.00    -0.237 OA
ATOM     95  O   UNL A   1      48.403  28.424  36.279  1.00  0.00    -0.744 OA
ENDBRANCH  88  92
ENDBRANCH  62  85
ENDBRANCH  36  37
ENDBRANCH  29  31
ENDBRANCH  28  29
ENDBRANCH  27  28
ENDBRANCH  26  27
ENDBRANCH  25  26
ENDBRANCH   1  25
TORSDOF 21
ENDMDL
MODEL 3
REMARK VINA RESULT:      -9.7      4.795      9.633
REMARK SMILES O=C(C[N@@H+]1CCC[C@@H]1C(=O)OCCOCCOC(=O)c1ccc(-c2c3nc(c(-c4cc(S(=O)(=O)[O-])ccc4F)c4ccc([nH]4)c(-c4cc(S(=O)(=O)[O-])ccc4F)c4nc(c(-c5cc(S(=O)(=O)[O-])ccc5F)c5ccc2[nH]5)C=C4)C=C3)cc1)NCc1ccc(Cl)cc1
REMARK SMILES IDX 13 1 12 2 11 3 9 4 10 5 8 6 4 7 5 8 6 10 7 11 3 12 2 13 1 14
REMARK SMILES IDX 83 15 84 17 85 18 86 19 91 20 87 21 90 22 88 23 89 24 14 25
REMARK SMILES IDX 15 26 16 27 17 28 18 29 19 30 20 31 21 32 82 33 22 34 81 35
REMARK SMILES IDX 23 36 24 37 25 38 75 39 26 40 80 41 74 42 76 43 27 44 79 45
REMARK SMILES IDX 73 46 72 47 28 49 60 50 40 51 59 52 41 53 44 54 58 55 77 56
REMARK SMILES IDX 42 57 43 58 57 60 78 61 45 62 29 63 30 64 38 65 31 66 37 67
REMARK SMILES IDX 39 68 36 69 32 70 33 71 34 72 35 73 61 74 62 75 70 76 63 77
REMARK SMILES IDX 69 78 71 79 68 80 64 81 65 82 66 83 67 84 46 85 47 86 55 87
REMARK SMILES IDX 48 88 54 89 56 90 53 91 49 92 50 93 51 94 52 95
REMARK H PARENT 4 9 83 16 76 48 44 59
REMARK Flexibility Score: inf
ROOT
ATOM      1  C   UNL A   1      36.088  23.245  25.819  1.00  0.00     0.202 C 
ENDROOT
BRANCH   1   2
ATOM      2  C   UNL A   1      35.338  24.426  25.209  1.00  0.00     0.261 C 
BRANCH   2   3
ATOM      3  O   UNL A   1      34.867  24.050  23.899  1.00  0.00    -0.459 OA
BRANCH   3   4
ATOM      4  C   UNL A   1      34.125  24.951  23.213  1.00  0.00     0.365 C 
ATOM      5  O   UNL A   1      33.765  24.820  22.048  1.00  0.00    -0.245 OA
BRANCH   4   6
ATOM      6  C   UNL A   1      33.757  26.166  24.064  1.00  0.00     0.295 C 
ATOM      7  N   UNL A   1      32.623  26.040  24.999  1.00  0.00    -0.315 N 
ATOM      8  C   UNL A   1      32.281  27.385  25.437  1.00  0.00     0.263 C 
ATOM      9  H   UNL A   1      32.976  25.450  25.753  1.00  0.00     0.349 HD
ATOM     10  C   UNL A   1      32.706  28.326  24.314  1.00  0.00     0.068 C 
ATOM     11  C   UNL A   1      33.508  27.477  23.331  1.00  0.00     0.083 C 
BRANCH   7  12
ATOM     12  C   UNL A   1      31.507  25.107  24.784  1.00  0.00     0.364 C 
BRANCH  12  13
ATOM     13  C   UNL A   1      31.491  23.795  25.568  1.00  0.00     0.275 C 
ATOM     14  O   UNL A   1      30.807  23.682  26.586  1.00  0.00    -0.268 OA
ATOM     15  N   UNL A   1      32.245  22.758  25.082  1.00  0.00    -0.347 N 
ATOM     16  H   UNL A   1      32.533  22.765  24.140  1.00  0.00     0.164 HD
BRANCH  15  17
ATOM     17  C   UNL A   1      32.619  21.660  25.938  1.00  0.00     0.151 C 
BRANCH  17  18
ATOM     18  C   UNL A   1      33.063  20.448  25.171  1.00  0.00    -0.029 A 
ATOM     19  C   UNL A   1      32.102  19.550  24.682  1.00  0.00     0.007 A 
ATOM     20  C   UNL A   1      34.424  20.132  25.041  1.00  0.00     0.007 A 
ATOM     21  C   UNL A   1      32.493  18.330  24.128  1.00  0.00     0.021 A 
ATOM     22  C   UNL A   1      34.814  18.904  24.499  1.00  0.00     0.021 A 
ATOM     23  C   UNL A   1      33.845  18.005  24.056  1.00  0.00     0.041 A 
ATOM     24  Cl  UNL A   1      34.325  16.465  23.460  1.00  0.00    -0.084 Cl
ENDBRANCH  17  18
ENDBRANCH  15  17
ENDBRANCH  12  13
ENDBRANCH   7  12
ENDBRANCH   4   6
ENDBRANCH   3   4
ENDBRANCH   2   3
ENDBRANCH   1   2
BRANCH   1  25
ATOM     25  O   UNL A   1      36.937  22.608  24.857  1.00  0.00    -0.374 OA
BRANCH  25  26
ATOM     26  C   UNL A   1      37.947  21.767  25.411  1.00  0.00     0.202 C 
BRANCH  26  27
ATOM     27  C   UNL A   1      39.071  22.544  26.097  1.00  0.00     0.261 C 
BRANCH  27  28
ATOM     28  O   UNL A   1      40.240  21.727  26.271  1.00  0.00    -0.460 OA
BRANCH  28  29
ATOM     29  C   UNL A   1      41.435  22.348  26.063  1.00  0.00     0.338 C 
ATOM     30  O   UNL A   1      42.371  21.928  25.420  1.00  0.00    -0.246 OA
BRANCH  29  31
ATOM     31  C   UNL A   1      41.383  23.700  26.673  1.00  0.00     0.060 A 
ATOM     32  C   UNL A   1      41.166  24.818  25.861  1.00  0.00     0.016 A 
ATOM     33  C   UNL A   1      41.576  23.871  28.043  1.00  0.00     0.016 A 
ATOM     34  C   UNL A   1      41.204  26.104  26.417  1.00  0.00     0.010 A 
ATOM     35  C   UNL A   1      41.537  25.144  28.604  1.00  0.00     0.010 A 
ATOM     36  C   UNL A   1      41.425  26.278  27.791  1.00  0.00    -0.014 A 
BRANCH  36  37
ATOM     37  C   UNL A   1      41.701  27.620  28.374  1.00  0.00     0.031 A 
ATOM     38  C   UNL A   1      43.133  28.072  28.547  1.00  0.00     0.074 A 
ATOM     39  C   UNL A   1      40.699  28.404  28.813  1.00  0.00     0.049 A 
ATOM     40  N   UNL A   1      43.603  29.212  28.989  1.00  0.00    -0.248 NA
ATOM     41  C   UNL A   1      44.177  27.083  28.239  1.00  0.00     0.031 C 
ATOM     42  C   UNL A   1      39.282  28.040  28.835  1.00  0.00     0.029 A 
ATOM     43  N   UNL A   1      40.728  29.670  29.342  1.00  0.00    -0.354 N 
ATOM     44  C   UNL A   1      44.987  29.061  29.033  1.00  0.00     0.074 A 
ATOM     45  C   UNL A   1      45.265  27.686  28.686  1.00  0.00     0.031 C 
ATOM     46  C   UNL A   1      38.576  29.069  29.336  1.00  0.00     0.029 A 
ATOM     47  C   UNL A   1      39.486  30.164  29.662  1.00  0.00     0.049 A 
ATOM     48  H   UNL A   1      41.562  30.176  29.480  1.00  0.00     0.167 HD
ATOM     49  C   UNL A   1      45.945  29.988  29.289  1.00  0.00     0.034 A 
ATOM     50  C   UNL A   1      39.124  31.374  30.134  1.00  0.00     0.034 A 
ATOM     51  C   UNL A   1      45.646  31.362  29.607  1.00  0.00     0.049 A 
ATOM     52  C   UNL A   1      40.181  32.436  30.311  1.00  0.00     0.074 A 
ATOM     53  C   UNL A   1      46.515  32.425  29.776  1.00  0.00     0.029 A 
ATOM     54  N   UNL A   1      44.365  31.861  29.819  1.00  0.00    -0.354 N 
ATOM     55  N   UNL A   1      41.486  32.335  30.193  1.00  0.00    -0.248 NA
ATOM     56  C   UNL A   1      39.709  33.787  30.634  1.00  0.00     0.031 C 
ATOM     57  C   UNL A   1      45.767  33.549  30.148  1.00  0.00     0.029 A 
ATOM     58  C   UNL A   1      44.423  33.210  30.134  1.00  0.00     0.049 A 
ATOM     59  H   UNL A   1      43.537  31.332  29.754  1.00  0.00     0.167 HD
ATOM     60  C   UNL A   1      41.987  33.621  30.387  1.00  0.00     0.074 A 
ATOM     61  C   UNL A   1      40.840  34.478  30.615  1.00  0.00     0.031 C 
ATOM     62  C   UNL A   1      43.274  34.055  30.366  1.00  0.00     0.034 A 
BRANCH  49  63
ATOM     63  C   UNL A   1      47.390  29.531  29.228  1.00  0.00     0.023 A 
ATOM     64  C   UNL A   1      48.031  29.269  28.001  1.00  0.00     0.031 A 
ATOM     65  C   UNL A   1      48.119  29.287  30.405  1.00  0.00     0.131 A 
ATOM     66  C   UNL A   1      49.295  28.662  27.980  1.00  0.00     0.055 A 
ATOM     67  C   UNL A   1      49.424  28.787  30.374  1.00  0.00     0.041 A 
ATOM     68  F   UNL A   1      47.569  29.503  31.609  1.00  0.00    -0.206 F 
ATOM     69  C   UNL A   1      50.010  28.445  29.158  1.00  0.00     0.022 A 
BRANCH  66  70
ATOM     70  S   UNL A   1      49.896  27.979  26.409  1.00  0.00     0.124 S 
ATOM     71  O   UNL A   1      49.918  29.168  25.559  1.00  0.00    -0.237 OA
ATOM     72  O   UNL A   1      51.196  27.434  26.778  1.00  0.00    -0.237 OA
ATOM     73  O   UNL A   1      48.880  26.989  26.055  1.00  0.00    -0.744 OA
ENDBRANCH  66  70
ENDBRANCH  49  63
BRANCH  50  74
ATOM     74  C   UNL A   1      37.689  31.670  30.396  1.00  0.00     0.023 A 
ATOM     75  C   UNL A   1      36.843  32.115  29.367  1.00  0.00     0.031 A 
ATOM     76  C   UNL A   1      37.142  31.515  31.681  1.00  0.00     0.131 A 
ATOM     77  C   UNL A   1      35.504  32.426  29.647  1.00  0.00     0.055 A 
ATOM     78  C   UNL A   1      35.798  31.789  31.946  1.00  0.00     0.041 A 
ATOM     79  F   UNL A   1      37.906  31.077  32.694  1.00  0.00    -0.206 F 
ATOM     80  C   UNL A   1      34.974  32.257  30.928  1.00  0.00     0.022 A 
BRANCH  77  81
ATOM     81  S   UNL A   1      34.473  33.103  28.317  1.00  0.00     0.124 S 
ATOM     82  O   UNL A   1      35.467  33.755  27.471  1.00  0.00    -0.237 OA
ATOM     83  O   UNL A   1      33.855  31.899  27.770  1.00  0.00    -0.237 OA
ATOM     84  O   UNL A   1      33.561  34.005  29.018  1.00  0.00    -0.744 OA
ENDBRANCH  77  81
ENDBRANCH  50  74
BRANCH  62  85
ATOM     85  C   UNL A   1      43.505  35.538  30.543  1.00  0.00     0.023 A 
ATOM     86  C   UNL A   1      43.527  36.424  29.452  1.00  0.00     0.031 A 
ATOM     87  C   UNL A   1      43.729  36.067  31.827  1.00  0.00     0.131 A 
ATOM     88  C   UNL A   1      43.843  37.776  29.654  1.00  0.00     0.055 A 
ATOM     89  C   UNL A   1      43.974  37.427  32.031  1.00  0.00     0.041 A 
ATOM     90  F   UNL A   1      43.719  35.270  32.907  1.00  0.00    -0.206 F 
ATOM     91  C   UNL A   1      44.051  38.286  30.939  1.00  0.00     0.022 A 
BRANCH  88  92
ATOM     92  S   UNL A   1      44.107  38.834  28.206  1.00  0.00     0.124 S 
ATOM     93  O   UNL A   1      44.739  40.008  28.798  1.00  0.00    -0.237 OA
ATOM     94  O   UNL A   1      44.965  38.004  27.367  1.00  0.00    -0.237 OA
ATOM     95  O   UNL A   1      42.757  39.051  27.689  1.00  0.00    -0.744 OA
ENDBRANCH  88  92
ENDBRANCH  62  85
ENDBRANCH  36  37
ENDBRANCH  29  31
ENDBRANCH  28  29
ENDBRANCH  27  28
ENDBRANCH  26  27
ENDBRANCH  25  26
ENDBRANCH   1  25
TORSDOF 21
ENDMDL
