MODEL 1
REMARK VINA RESULT:     -10.7      0.000      0.000
REMARK SMILES O=C(OCCOCCOC(=O)[C@@]1([NH2+]C2CC2)CCC[C@@H]([NH+]2CCS(=O)(=O)CC2)C1)c1ccc(-c2c3nc(c(-c4cc(S(=O)(=O)[O-])ccc4F)c4ccc([nH]4)c(-c4cc(S(=O)(=O)[O-])ccc4F)c4nc(c(-c5cc(S(=O)(=O)[O-])ccc5F)c5ccc2[nH]5)C=C4)C=C3)cc1
REMARK SMILES IDX 5 1 4 2 3 3 2 4 1 5 30 6 31 7 92 8 32 9 91 10 33 11 34 12
REMARK SMILES IDX 35 13 85 14 36 15 90 16 84 17 86 18 37 19 89 20 83 21 82 22
REMARK SMILES IDX 38 24 70 25 50 26 69 27 51 28 54 29 68 30 87 31 52 32 53 33
REMARK SMILES IDX 67 35 88 36 55 37 39 38 40 39 48 40 41 41 47 42 49 43 46 44
REMARK SMILES IDX 42 45 43 46 44 47 45 48 71 49 72 50 80 51 73 52 79 53 81 54
REMARK SMILES IDX 78 55 74 56 75 57 76 58 77 59 56 60 57 61 65 62 58 63 64 64
REMARK SMILES IDX 66 65 63 66 59 67 60 68 61 69 62 70 6 71 7 72 8 73 9 74
REMARK SMILES IDX 10 75 11 76 12 77 17 78 29 79 18 80 20 81 19 82 13 83 14 86
REMARK SMILES IDX 15 87 16 88 21 89 22 90 28 91 23 93 27 94 24 95 25 96 26 97
REMARK H PARENT 86 23 54 34 13 84 13 85 21 92
REMARK Flexibility Score: inf
ROOT
ATOM      1  C   UNL A   1      35.938  20.970  24.628  1.00  0.00     0.202 C 
ENDROOT
BRANCH   1   2
ATOM      2  C   UNL A   1      37.382  20.536  24.895  1.00  0.00     0.261 C 
BRANCH   2   3
ATOM      3  O   UNL A   1      38.215  21.660  25.268  1.00  0.00    -0.460 OA
BRANCH   3   4
ATOM      4  C   UNL A   1      39.339  21.602  26.043  1.00  0.00     0.338 C 
ATOM      5  O   UNL A   1      40.019  20.588  26.121  1.00  0.00    -0.246 OA
BRANCH   4   6
ATOM      6  C   UNL A   1      39.739  22.812  26.788  1.00  0.00     0.060 A 
ATOM      7  C   UNL A   1      39.235  24.042  26.412  1.00  0.00     0.016 A 
ATOM      8  C   UNL A   1      40.669  22.759  27.819  1.00  0.00     0.016 A 
ATOM      9  C   UNL A   1      39.918  25.182  26.680  1.00  0.00     0.010 A 
ATOM     10  C   UNL A   1      41.169  23.959  28.334  1.00  0.00     0.010 A 
ATOM     11  C   UNL A   1      40.846  25.171  27.701  1.00  0.00    -0.014 A 
BRANCH  11  12
ATOM     12  C   UNL A   1      41.512  26.458  27.938  1.00  0.00     0.031 A 
ATOM     13  C   UNL A   1      40.825  27.431  28.838  1.00  0.00     0.074 A 
ATOM     14  C   UNL A   1      42.794  26.605  27.542  1.00  0.00     0.049 A 
ATOM     15  N   UNL A   1      41.161  28.652  29.132  1.00  0.00    -0.248 NA
ATOM     16  C   UNL A   1      39.590  26.969  29.496  1.00  0.00     0.031 C 
ATOM     17  C   UNL A   1      43.592  25.583  26.839  1.00  0.00     0.029 A 
ATOM     18  N   UNL A   1      43.685  27.618  27.740  1.00  0.00    -0.354 N 
ATOM     19  C   UNL A   1      40.137  29.133  29.938  1.00  0.00     0.074 A 
ATOM     20  C   UNL A   1      39.174  28.070  30.097  1.00  0.00     0.031 C 
ATOM     21  C   UNL A   1      44.864  25.989  26.754  1.00  0.00     0.029 A 
ATOM     22  C   UNL A   1      44.935  27.358  27.226  1.00  0.00     0.049 A 
ATOM     23  H   UNL A   1      43.456  28.455  28.206  1.00  0.00     0.167 HD
ATOM     24  C   UNL A   1      40.027  30.373  30.466  1.00  0.00     0.034 A 
ATOM     25  C   UNL A   1      45.992  28.176  27.088  1.00  0.00     0.034 A 
ATOM     26  C   UNL A   1      41.048  31.370  30.268  1.00  0.00     0.049 A 
ATOM     27  C   UNL A   1      45.797  29.585  27.574  1.00  0.00     0.074 A 
ATOM     28  C   UNL A   1      41.054  32.697  30.644  1.00  0.00     0.029 A 
ATOM     29  N   UNL A   1      42.265  31.127  29.630  1.00  0.00    -0.354 N 
ATOM     30  N   UNL A   1      44.759  30.103  28.199  1.00  0.00    -0.248 NA
ATOM     31  C   UNL A   1      46.888  30.524  27.324  1.00  0.00     0.031 C 
ATOM     32  C   UNL A   1      42.237  33.273  30.167  1.00  0.00     0.029 A 
ATOM     33  C   UNL A   1      43.017  32.285  29.580  1.00  0.00     0.049 A 
ATOM     34  H   UNL A   1      42.547  30.256  29.269  1.00  0.00     0.167 HD
ATOM     35  C   UNL A   1      45.085  31.429  28.441  1.00  0.00     0.074 A 
ATOM     36  C   UNL A   1      46.426  31.616  27.913  1.00  0.00     0.031 C 
ATOM     37  C   UNL A   1      44.355  32.406  29.039  1.00  0.00     0.034 A 
BRANCH  24  38
ATOM     38  C   UNL A   1      38.721  30.712  31.138  1.00  0.00     0.023 A 
ATOM     39  C   UNL A   1      37.709  31.448  30.495  1.00  0.00     0.031 A 
ATOM     40  C   UNL A   1      38.548  30.411  32.501  1.00  0.00     0.131 A 
ATOM     41  C   UNL A   1      36.623  31.939  31.239  1.00  0.00     0.055 A 
ATOM     42  C   UNL A   1      37.418  30.823  33.212  1.00  0.00     0.041 A 
ATOM     43  F   UNL A   1      39.498  29.750  33.182  1.00  0.00    -0.206 F 
ATOM     44  C   UNL A   1      36.457  31.610  32.586  1.00  0.00     0.022 A 
BRANCH  41  45
ATOM     45  S   UNL A   1      35.532  33.172  30.471  1.00  0.00     0.124 S 
ATOM     46  O   UNL A   1      35.637  34.284  31.415  1.00  0.00    -0.237 OA
ATOM     47  O   UNL A   1      36.154  33.380  29.170  1.00  0.00    -0.237 OA
ATOM     48  O   UNL A   1      34.230  32.509  30.444  1.00  0.00    -0.744 OA
ENDBRANCH  41  45
ENDBRANCH  24  38
BRANCH  25  49
ATOM     49  C   UNL A   1      47.235  27.732  26.387  1.00  0.00     0.023 A 
ATOM     50  C   UNL A   1      47.400  27.923  25.008  1.00  0.00     0.031 A 
ATOM     51  C   UNL A   1      48.264  27.060  27.079  1.00  0.00     0.131 A 
ATOM     52  C   UNL A   1      48.535  27.408  24.359  1.00  0.00     0.055 A 
ATOM     53  C   UNL A   1      49.422  26.611  26.442  1.00  0.00     0.041 A 
ATOM     54  F   UNL A   1      48.167  26.836  28.400  1.00  0.00    -0.206 F 
ATOM     55  C   UNL A   1      49.554  26.767  25.067  1.00  0.00     0.022 A 
BRANCH  52  56
ATOM     56  S   UNL A   1      48.608  27.487  22.548  1.00  0.00     0.124 S 
ATOM     57  O   UNL A   1      49.856  28.209  22.333  1.00  0.00    -0.237 OA
ATOM     58  O   UNL A   1      48.612  26.074  22.184  1.00  0.00    -0.237 OA
ATOM     59  O   UNL A   1      47.393  28.218  22.190  1.00  0.00    -0.744 OA
ENDBRANCH  52  56
ENDBRANCH  25  49
BRANCH  37  60
ATOM     60  C   UNL A   1      45.043  33.731  29.205  1.00  0.00     0.023 A 
ATOM     61  C   UNL A   1      45.047  34.695  28.186  1.00  0.00     0.031 A 
ATOM     62  C   UNL A   1      45.723  34.017  30.402  1.00  0.00     0.131 A 
ATOM     63  C   UNL A   1      45.786  35.871  28.351  1.00  0.00     0.055 A 
ATOM     64  C   UNL A   1      46.385  35.226  30.593  1.00  0.00     0.041 A 
ATOM     65  F   UNL A   1      45.750  33.122  31.404  1.00  0.00    -0.206 F 
ATOM     66  C   UNL A   1      46.436  36.154  29.557  1.00  0.00     0.022 A 
BRANCH  63  67
ATOM     67  S   UNL A   1      45.999  36.962  26.921  1.00  0.00     0.124 S 
ATOM     68  O   UNL A   1      44.696  37.616  26.845  1.00  0.00    -0.237 OA
ATOM     69  O   UNL A   1      47.113  37.807  27.335  1.00  0.00    -0.237 OA
ATOM     70  O   UNL A   1      46.294  36.037  25.828  1.00  0.00    -0.744 OA
ENDBRANCH  63  67
ENDBRANCH  37  60
ENDBRANCH  11  12
ENDBRANCH   4   6
ENDBRANCH   3   4
ENDBRANCH   2   3
ENDBRANCH   1   2
BRANCH   1  71
ATOM     71  O   UNL A   1      34.922  20.410  25.447  1.00  0.00    -0.374 OA
BRANCH  71  72
ATOM     72  C   UNL A   1      34.108  21.254  26.262  1.00  0.00     0.202 C 
BRANCH  72  73
ATOM     73  C   UNL A   1      34.941  22.449  26.714  1.00  0.00     0.261 C 
BRANCH  73  74
ATOM     74  O   UNL A   1      34.133  23.621  26.577  1.00  0.00    -0.459 OA
BRANCH  74  75
ATOM     75  C   UNL A   1      34.234  24.234  25.361  1.00  0.00     0.368 C 
ATOM     76  O   UNL A   1      35.264  24.361  24.708  1.00  0.00    -0.245 OA
BRANCH  75  77
ATOM     77  C   UNL A   1      32.868  24.744  24.897  1.00  0.00     0.200 C 
ATOM     78  C   UNL A   1      31.771  24.071  25.744  1.00  0.00     0.081 C 
ATOM     79  C   UNL A   1      32.817  26.285  25.201  1.00  0.00     0.146 C 
ATOM     80  C   UNL A   1      30.387  24.601  25.404  1.00  0.00     0.013 C 
ATOM     81  C   UNL A   1      31.435  26.965  25.238  1.00  0.00     0.191 C 
ATOM     82  C   UNL A   1      30.278  26.077  25.755  1.00  0.00     0.065 C 
BRANCH  77  83
ATOM     83  N   UNL A   1      32.716  24.486  23.449  1.00  0.00    -0.329 N 
ATOM     84  H   UNL A   1      31.778  24.108  23.326  1.00  0.00     0.347 HD
ATOM     85  H   UNL A   1      33.527  23.897  23.258  1.00  0.00     0.347 HD
BRANCH  83  86
ATOM     86  C   UNL A   1      32.868  25.545  22.432  1.00  0.00     0.183 C 
ATOM     87  C   UNL A   1      32.744  25.469  20.933  1.00  0.00     0.071 C 
ATOM     88  C   UNL A   1      31.664  26.123  21.736  1.00  0.00     0.071 C 
ENDBRANCH  83  86
ENDBRANCH  77  83
BRANCH  81  89
ATOM     89  N   UNL A   1      31.418  28.288  25.912  1.00  0.00    -0.331 N 
ATOM     90  C   UNL A   1      31.828  29.461  25.136  1.00  0.00     0.278 C 
ATOM     91  C   UNL A   1      31.638  28.415  27.359  1.00  0.00     0.278 C 
ATOM     92  H   UNL A   1      30.397  28.296  25.905  1.00  0.00     0.348 HD
ATOM     93  C   UNL A   1      33.261  29.924  25.340  1.00  0.00     0.198 C 
ATOM     94  C   UNL A   1      33.039  28.793  27.802  1.00  0.00     0.198 C 
ATOM     95  S   UNL A   1      33.561  30.296  27.042  1.00  0.00     0.161 S 
ATOM     96  O   UNL A   1      34.987  30.432  27.220  1.00  0.00    -0.228 OA
ATOM     97  O   UNL A   1      32.661  31.364  27.452  1.00  0.00    -0.228 OA
ENDBRANCH  81  89
ENDBRANCH  75  77
ENDBRANCH  74  75
ENDBRANCH  73  74
ENDBRANCH  72  73
ENDBRANCH  71  72
ENDBRANCH   1  71
TORSDOF 20
ENDMDL
MODEL 2
REMARK VINA RESULT:     -10.1      2.638      8.109
REMARK SMILES O=C(OCCOCCOC(=O)[C@@]1([NH2+]C2CC2)CCC[C@@H]([NH+]2CCS(=O)(=O)CC2)C1)c1ccc(-c2c3nc(c(-c4cc(S(=O)(=O)[O-])ccc4F)c4ccc([nH]4)c(-c4cc(S(=O)(=O)[O-])ccc4F)c4nc(c(-c5cc(S(=O)(=O)[O-])ccc5F)c5ccc2[nH]5)C=C4)C=C3)cc1
REMARK SMILES IDX 5 1 4 2 3 3 2 4 1 5 30 6 31 7 92 8 32 9 91 10 33 11 34 12
REMARK SMILES IDX 35 13 85 14 36 15 90 16 84 17 86 18 37 19 89 20 83 21 82 22
REMARK SMILES IDX 38 24 70 25 50 26 69 27 51 28 54 29 68 30 87 31 52 32 53 33
REMARK SMILES IDX 67 35 88 36 55 37 39 38 40 39 48 40 41 41 47 42 49 43 46 44
REMARK SMILES IDX 42 45 43 46 44 47 45 48 71 49 72 50 80 51 73 52 79 53 81 54
REMARK SMILES IDX 78 55 74 56 75 57 76 58 77 59 56 60 57 61 65 62 58 63 64 64
REMARK SMILES IDX 66 65 63 66 59 67 60 68 61 69 62 70 6 71 7 72 8 73 9 74
REMARK SMILES IDX 10 75 11 76 12 77 17 78 29 79 18 80 20 81 19 82 13 83 14 86
REMARK SMILES IDX 15 87 16 88 21 89 22 90 28 91 23 93 27 94 24 95 25 96 26 97
REMARK H PARENT 86 23 54 34 13 84 13 85 21 92
REMARK Flexibility Score: inf
ROOT
ATOM      1  C   UNL A   1      37.317  22.098  25.118  1.00  0.00     0.202 C 
ENDROOT
BRANCH   1   2
ATOM      2  C   UNL A   1      38.162  20.848  25.376  1.00  0.00     0.261 C 
BRANCH   2   3
ATOM      3  O   UNL A   1      39.553  21.184  25.603  1.00  0.00    -0.460 OA
BRANCH   3   4
ATOM      4  C   UNL A   1      40.213  21.098  26.796  1.00  0.00     0.338 C 
ATOM      5  O   UNL A   1      40.483  20.022  27.311  1.00  0.00    -0.246 OA
BRANCH   4   6
ATOM      6  C   UNL A   1      40.620  22.352  27.462  1.00  0.00     0.060 A 
ATOM      7  C   UNL A   1      39.984  23.534  27.138  1.00  0.00     0.016 A 
ATOM      8  C   UNL A   1      41.680  22.389  28.360  1.00  0.00     0.016 A 
ATOM      9  C   UNL A   1      40.613  24.725  27.294  1.00  0.00     0.010 A 
ATOM     10  C   UNL A   1      42.157  23.633  28.784  1.00  0.00     0.010 A 
ATOM     11  C   UNL A   1      41.666  24.804  28.181  1.00  0.00    -0.014 A 
BRANCH  11  12
ATOM     12  C   UNL A   1      42.263  26.139  28.307  1.00  0.00     0.031 A 
ATOM     13  C   UNL A   1      43.544  26.390  27.581  1.00  0.00     0.074 A 
ATOM     14  C   UNL A   1      41.526  27.129  28.854  1.00  0.00     0.049 A 
ATOM     15  N   UNL A   1      44.306  27.443  27.604  1.00  0.00    -0.248 NA
ATOM     16  C   UNL A   1      44.039  25.304  26.715  1.00  0.00     0.031 C 
ATOM     17  C   UNL A   1      40.159  26.979  29.388  1.00  0.00     0.029 A 
ATOM     18  N   UNL A   1      41.768  28.465  28.979  1.00  0.00    -0.354 N 
ATOM     19  C   UNL A   1      45.408  27.118  26.825  1.00  0.00     0.074 A 
ATOM     20  C   UNL A   1      45.214  25.775  26.336  1.00  0.00     0.031 C 
ATOM     21  C   UNL A   1      39.663  28.183  29.691  1.00  0.00     0.029 A 
ATOM     22  C   UNL A   1      40.724  29.161  29.547  1.00  0.00     0.049 A 
ATOM     23  H   UNL A   1      42.607  28.891  28.690  1.00  0.00     0.167 HD
ATOM     24  C   UNL A   1      46.491  27.890  26.579  1.00  0.00     0.034 A 
ATOM     25  C   UNL A   1      40.673  30.435  29.971  1.00  0.00     0.034 A 
ATOM     26  C   UNL A   1      46.594  29.231  27.097  1.00  0.00     0.049 A 
ATOM     27  C   UNL A   1      41.935  31.234  29.794  1.00  0.00     0.074 A 
ATOM     28  C   UNL A   1      47.653  30.111  27.030  1.00  0.00     0.029 A 
ATOM     29  N   UNL A   1      45.571  29.883  27.785  1.00  0.00    -0.354 N 
ATOM     30  N   UNL A   1      43.055  30.880  29.198  1.00  0.00    -0.248 NA
ATOM     31  C   UNL A   1      41.943  32.582  30.358  1.00  0.00     0.031 C 
ATOM     32  C   UNL A   1      47.299  31.263  27.742  1.00  0.00     0.029 A 
ATOM     33  C   UNL A   1      45.983  31.145  28.170  1.00  0.00     0.049 A 
ATOM     34  H   UNL A   1      44.683  29.501  27.970  1.00  0.00     0.167 HD
ATOM     35  C   UNL A   1      43.897  31.978  29.293  1.00  0.00     0.074 A 
ATOM     36  C   UNL A   1      43.139  33.009  29.983  1.00  0.00     0.031 C 
ATOM     37  C   UNL A   1      45.175  32.130  28.857  1.00  0.00     0.034 A 
BRANCH  24  38
ATOM     38  C   UNL A   1      47.648  27.234  25.870  1.00  0.00     0.023 A 
ATOM     39  C   UNL A   1      48.618  26.474  26.550  1.00  0.00     0.031 A 
ATOM     40  C   UNL A   1      47.858  27.495  24.504  1.00  0.00     0.131 A 
ATOM     41  C   UNL A   1      49.795  26.090  25.886  1.00  0.00     0.055 A 
ATOM     42  C   UNL A   1      48.987  27.028  23.827  1.00  0.00     0.041 A 
ATOM     43  F   UNL A   1      46.991  28.251  23.811  1.00  0.00    -0.206 F 
ATOM     44  C   UNL A   1      49.974  26.338  24.524  1.00  0.00     0.022 A 
BRANCH  41  45
ATOM     45  S   UNL A   1      51.171  25.430  26.871  1.00  0.00     0.124 S 
ATOM     46  O   UNL A   1      51.703  26.647  27.482  1.00  0.00    -0.237 OA
ATOM     47  O   UNL A   1      50.499  24.504  27.774  1.00  0.00    -0.237 OA
ATOM     48  O   UNL A   1      52.041  24.811  25.873  1.00  0.00    -0.744 OA
ENDBRANCH  41  45
ENDBRANCH  24  38
BRANCH  25  49
ATOM     49  C   UNL A   1      39.472  30.974  30.677  1.00  0.00     0.023 A 
ATOM     50  C   UNL A   1      39.447  31.103  32.073  1.00  0.00     0.031 A 
ATOM     51  C   UNL A   1      38.303  31.324  29.970  1.00  0.00     0.131 A 
ATOM     52  C   UNL A   1      38.270  31.520  32.718  1.00  0.00     0.055 A 
ATOM     53  C   UNL A   1      37.159  31.803  30.610  1.00  0.00     0.041 A 
ATOM     54  F   UNL A   1      38.256  31.215  28.631  1.00  0.00    -0.206 F 
ATOM     55  C   UNL A   1      37.132  31.886  31.996  1.00  0.00     0.022 A 
BRANCH  52  56
ATOM     56  S   UNL A   1      38.211  31.469  34.531  1.00  0.00     0.124 S 
ATOM     57  O   UNL A   1      38.190  30.034  34.786  1.00  0.00    -0.237 OA
ATOM     58  O   UNL A   1      39.439  32.169  34.892  1.00  0.00    -0.237 OA
ATOM     59  O   UNL A   1      36.973  32.179  34.851  1.00  0.00    -0.744 OA
ENDBRANCH  52  56
ENDBRANCH  25  49
BRANCH  37  60
ATOM     60  C   UNL A   1      45.781  33.490  29.062  1.00  0.00     0.023 A 
ATOM     61  C   UNL A   1      45.765  34.465  28.053  1.00  0.00     0.031 A 
ATOM     62  C   UNL A   1      46.402  33.798  30.284  1.00  0.00     0.131 A 
ATOM     63  C   UNL A   1      46.430  35.679  28.257  1.00  0.00     0.055 A 
ATOM     64  C   UNL A   1      46.989  35.040  30.511  1.00  0.00     0.041 A 
ATOM     65  F   UNL A   1      46.446  32.894  31.277  1.00  0.00    -0.206 F 
ATOM     66  C   UNL A   1      47.021  35.982  29.487  1.00  0.00     0.022 A 
BRANCH  63  67
ATOM     67  S   UNL A   1      46.629  36.798  26.847  1.00  0.00     0.124 S 
ATOM     68  O   UNL A   1      47.956  37.355  27.089  1.00  0.00    -0.237 OA
ATOM     69  O   UNL A   1      46.516  35.891  25.710  1.00  0.00    -0.237 OA
ATOM     70  O   UNL A   1      45.523  37.741  27.001  1.00  0.00    -0.744 OA
ENDBRANCH  63  67
ENDBRANCH  37  60
ENDBRANCH  11  12
ENDBRANCH   4   6
ENDBRANCH   3   4
ENDBRANCH   2   3
ENDBRANCH   1   2
BRANCH   1  71
ATOM     71  O   UNL A   1      35.981  21.909  24.676  1.00  0.00    -0.374 OA
BRANCH  71  72
ATOM     72  C   UNL A   1      34.981  22.887  24.964  1.00  0.00     0.202 C 
BRANCH  72  73
ATOM     73  C   UNL A   1      34.931  23.888  23.814  1.00  0.00     0.261 C 
BRANCH  73  74
ATOM     74  O   UNL A   1      34.232  25.047  24.275  1.00  0.00    -0.459 OA
BRANCH  74  75
ATOM     75  C   UNL A   1      33.087  25.325  23.584  1.00  0.00     0.368 C 
ATOM     76  O   UNL A   1      32.793  24.879  22.481  1.00  0.00    -0.245 OA
BRANCH  75  77
ATOM     77  C   UNL A   1      32.190  26.273  24.383  1.00  0.00     0.200 C 
ATOM     78  C   UNL A   1      32.993  27.537  24.740  1.00  0.00     0.081 C 
ATOM     79  C   UNL A   1      31.017  26.714  23.434  1.00  0.00     0.146 C 
ATOM     80  C   UNL A   1      32.136  28.571  25.454  1.00  0.00     0.013 C 
ATOM     81  C   UNL A   1      30.218  27.975  23.818  1.00  0.00     0.191 C 
ATOM     82  C   UNL A   1      31.032  29.076  24.538  1.00  0.00     0.065 C 
BRANCH  77  83
ATOM     83  N   UNL A   1      31.669  25.566  25.572  1.00  0.00    -0.329 N 
ATOM     84  H   UNL A   1      31.173  26.266  26.122  1.00  0.00     0.347 HD
ATOM     85  H   UNL A   1      32.516  25.137  25.946  1.00  0.00     0.347 HD
BRANCH  83  86
ATOM     86  C   UNL A   1      30.763  24.405  25.475  1.00  0.00     0.183 C 
ATOM     87  C   UNL A   1      31.079  22.949  25.256  1.00  0.00     0.071 C 
ATOM     88  C   UNL A   1      30.647  23.420  26.608  1.00  0.00     0.071 C 
ENDBRANCH  83  86
ENDBRANCH  77  83
BRANCH  81  89
ATOM     89  N   UNL A   1      29.420  28.558  22.710  1.00  0.00    -0.331 N 
ATOM     90  C   UNL A   1      30.064  29.548  21.844  1.00  0.00     0.278 C 
ATOM     91  C   UNL A   1      27.961  28.700  22.807  1.00  0.00     0.278 C 
ATOM     92  H   UNL A   1      29.459  27.676  22.197  1.00  0.00     0.348 HD
ATOM     93  C   UNL A   1      29.770  31.003  22.167  1.00  0.00     0.198 C 
ATOM     94  C   UNL A   1      27.437  30.068  23.204  1.00  0.00     0.198 C 
ATOM     95  S   UNL A   1      28.030  31.316  22.109  1.00  0.00     0.161 S 
ATOM     96  O   UNL A   1      27.793  32.607  22.710  1.00  0.00    -0.228 OA
ATOM     97  O   UNL A   1      27.548  31.028  20.766  1.00  0.00    -0.228 OA
ENDBRANCH  81  89
ENDBRANCH  75  77
ENDBRANCH  74  75
ENDBRANCH  73  74
ENDBRANCH  72  73
ENDBRANCH  71  72
ENDBRANCH   1  71
TORSDOF 20
ENDMDL
MODEL 3
REMARK VINA RESULT:     -10.1      2.612      8.330
REMARK SMILES O=C(OCCOCCOC(=O)[C@@]1([NH2+]C2CC2)CCC[C@@H]([NH+]2CCS(=O)(=O)CC2)C1)c1ccc(-c2c3nc(c(-c4cc(S(=O)(=O)[O-])ccc4F)c4ccc([nH]4)c(-c4cc(S(=O)(=O)[O-])ccc4F)c4nc(c(-c5cc(S(=O)(=O)[O-])ccc5F)c5ccc2[nH]5)C=C4)C=C3)cc1
REMARK SMILES IDX 5 1 4 2 3 3 2 4 1 5 30 6 31 7 92 8 32 9 91 10 33 11 34 12
REMARK SMILES IDX 35 13 85 14 36 15 90 16 84 17 86 18 37 19 89 20 83 21 82 22
REMARK SMILES IDX 38 24 70 25 50 26 69 27 51 28 54 29 68 30 87 31 52 32 53 33
REMARK SMILES IDX 67 35 88 36 55 37 39 38 40 39 48 40 41 41 47 42 49 43 46 44
REMARK SMILES IDX 42 45 43 46 44 47 45 48 71 49 72 50 80 51 73 52 79 53 81 54
REMARK SMILES IDX 78 55 74 56 75 57 76 58 77 59 56 60 57 61 65 62 58 63 64 64
REMARK SMILES IDX 66 65 63 66 59 67 60 68 61 69 62 70 6 71 7 72 8 73 9 74
REMARK SMILES IDX 10 75 11 76 12 77 17 78 29 79 18 80 20 81 19 82 13 83 14 86
REMARK SMILES IDX 15 87 16 88 21 89 22 90 28 91 23 93 27 94 24 95 25 96 26 97
REMARK H PARENT 86 23 54 34 13 84 13 85 21 92
REMARK Flexibility Score: inf
ROOT
ATOM      1  C   UNL A   1      40.038  21.336  26.844  1.00  0.00     0.202 C 
ENDROOT
BRANCH   1   2
ATOM      2  C   UNL A   1      41.225  20.708  27.580  1.00  0.00     0.261 C 
BRANCH   2   3
ATOM      3  O   UNL A   1      41.928  19.759  26.741  1.00  0.00    -0.460 OA
BRANCH   3   4
ATOM      4  C   UNL A   1      42.808  20.072  25.743  1.00  0.00     0.338 C 
ATOM      5  O   UNL A   1      43.090  19.278  24.857  1.00  0.00    -0.246 OA
BRANCH   4   6
ATOM      6  C   UNL A   1      43.414  21.419  25.741  1.00  0.00     0.060 A 
ATOM      7  C   UNL A   1      44.338  21.752  26.711  1.00  0.00     0.016 A 
ATOM      8  C   UNL A   1      43.026  22.390  24.827  1.00  0.00     0.016 A 
ATOM      9  C   UNL A   1      44.526  23.045  27.076  1.00  0.00     0.010 A 
ATOM     10  C   UNL A   1      43.471  23.703  25.015  1.00  0.00     0.010 A 
ATOM     11  C   UNL A   1      44.159  24.039  26.193  1.00  0.00    -0.014 A 
BRANCH  11  12
ATOM     12  C   UNL A   1      44.427  25.404  26.660  1.00  0.00     0.031 A 
ATOM     13  C   UNL A   1      45.752  26.000  26.316  1.00  0.00     0.074 A 
ATOM     14  C   UNL A   1      43.403  26.132  27.153  1.00  0.00     0.049 A 
ATOM     15  N   UNL A   1      46.257  27.140  26.683  1.00  0.00    -0.248 NA
ATOM     16  C   UNL A   1      46.632  25.202  25.444  1.00  0.00     0.031 C 
ATOM     17  C   UNL A   1      42.015  25.656  27.309  1.00  0.00     0.029 A 
ATOM     18  N   UNL A   1      43.331  27.440  27.534  1.00  0.00    -0.354 N 
ATOM     19  C   UNL A   1      47.543  27.161  26.157  1.00  0.00     0.074 A 
ATOM     20  C   UNL A   1      47.738  25.925  25.439  1.00  0.00     0.031 C 
ATOM     21  C   UNL A   1      41.228  26.679  27.659  1.00  0.00     0.029 A 
ATOM     22  C   UNL A   1      42.070  27.828  27.928  1.00  0.00     0.049 A 
ATOM     23  H   UNL A   1      44.106  28.047  27.527  1.00  0.00     0.167 HD
ATOM     24  C   UNL A   1      48.469  28.135  26.303  1.00  0.00     0.034 A 
ATOM     25  C   UNL A   1      41.669  28.969  28.514  1.00  0.00     0.034 A 
ATOM     26  C   UNL A   1      48.181  29.347  27.027  1.00  0.00     0.049 A 
ATOM     27  C   UNL A   1      42.747  29.985  28.774  1.00  0.00     0.074 A 
ATOM     28  C   UNL A   1      49.026  30.387  27.354  1.00  0.00     0.029 A 
ATOM     29  N   UNL A   1      46.924  29.674  27.534  1.00  0.00    -0.354 N 
ATOM     30  N   UNL A   1      44.016  29.946  28.423  1.00  0.00    -0.248 NA
ATOM     31  C   UNL A   1      42.357  31.180  29.519  1.00  0.00     0.031 C 
ATOM     32  C   UNL A   1      48.299  31.304  28.123  1.00  0.00     0.029 A 
ATOM     33  C   UNL A   1      46.975  30.888  28.193  1.00  0.00     0.049 A 
ATOM     34  H   UNL A   1      46.115  29.121  27.437  1.00  0.00     0.167 HD
ATOM     35  C   UNL A   1      44.574  31.128  28.885  1.00  0.00     0.074 A 
ATOM     36  C   UNL A   1      43.491  31.864  29.516  1.00  0.00     0.031 C 
ATOM     37  C   UNL A   1      45.855  31.572  28.803  1.00  0.00     0.034 A 
BRANCH  24  38
ATOM     38  C   UNL A   1      49.860  27.831  25.807  1.00  0.00     0.023 A 
ATOM     39  C   UNL A   1      50.324  28.260  24.550  1.00  0.00     0.031 A 
ATOM     40  C   UNL A   1      50.686  26.972  26.553  1.00  0.00     0.131 A 
ATOM     41  C   UNL A   1      51.530  27.751  24.041  1.00  0.00     0.055 A 
ATOM     42  C   UNL A   1      51.929  26.545  26.079  1.00  0.00     0.041 A 
ATOM     43  F   UNL A   1      50.280  26.493  27.740  1.00  0.00    -0.206 F 
ATOM     44  C   UNL A   1      52.348  26.918  24.807  1.00  0.00     0.022 A 
BRANCH  41  45
ATOM     45  S   UNL A   1      51.924  28.039  22.290  1.00  0.00     0.124 S 
ATOM     46  O   UNL A   1      53.341  28.389  22.363  1.00  0.00    -0.237 OA
ATOM     47  O   UNL A   1      51.617  26.750  21.681  1.00  0.00    -0.237 OA
ATOM     48  O   UNL A   1      51.036  29.136  21.915  1.00  0.00    -0.744 OA
ENDBRANCH  41  45
ENDBRANCH  24  38
BRANCH  25  49
ATOM     49  C   UNL A   1      40.261  29.153  28.978  1.00  0.00     0.023 A 
ATOM     50  C   UNL A   1      39.924  29.052  30.336  1.00  0.00     0.031 A 
ATOM     51  C   UNL A   1      39.213  29.385  28.063  1.00  0.00     0.131 A 
ATOM     52  C   UNL A   1      38.578  29.132  30.733  1.00  0.00     0.055 A 
ATOM     53  C   UNL A   1      37.886  29.532  28.470  1.00  0.00     0.041 A 
ATOM     54  F   UNL A   1      39.465  29.483  26.747  1.00  0.00    -0.206 F 
ATOM     55  C   UNL A   1      37.560  29.387  29.812  1.00  0.00     0.022 A 
BRANCH  52  56
ATOM     56  S   UNL A   1      38.164  28.783  32.464  1.00  0.00     0.124 S 
ATOM     57  O   UNL A   1      39.070  29.679  33.172  1.00  0.00    -0.237 OA
ATOM     58  O   UNL A   1      36.747  29.133  32.511  1.00  0.00    -0.237 OA
ATOM     59  O   UNL A   1      38.458  27.358  32.604  1.00  0.00    -0.744 OA
ENDBRANCH  52  56
ENDBRANCH  25  49
BRANCH  37  60
ATOM     60  C   UNL A   1      46.109  32.948  29.352  1.00  0.00     0.023 A 
ATOM     61  C   UNL A   1      45.903  34.101  28.581  1.00  0.00     0.031 A 
ATOM     62  C   UNL A   1      46.588  33.094  30.665  1.00  0.00     0.131 A 
ATOM     63  C   UNL A   1      46.250  35.351  29.104  1.00  0.00     0.055 A 
ATOM     64  C   UNL A   1      46.851  34.348  31.209  1.00  0.00     0.041 A 
ATOM     65  F   UNL A   1      46.805  32.018  31.439  1.00  0.00    -0.206 F 
ATOM     66  C   UNL A   1      46.700  35.485  30.420  1.00  0.00     0.022 A 
BRANCH  63  67
ATOM     67  S   UNL A   1      46.234  36.782  27.993  1.00  0.00     0.124 S 
ATOM     68  O   UNL A   1      46.853  37.813  28.820  1.00  0.00    -0.237 OA
ATOM     69  O   UNL A   1      47.028  36.310  26.863  1.00  0.00    -0.237 OA
ATOM     70  O   UNL A   1      44.813  36.980  27.712  1.00  0.00    -0.744 OA
ENDBRANCH  63  67
ENDBRANCH  37  60
ENDBRANCH  11  12
ENDBRANCH   4   6
ENDBRANCH   3   4
ENDBRANCH   2   3
ENDBRANCH   1   2
BRANCH   1  71
ATOM     71  O   UNL A   1      40.039  22.746  26.679  1.00  0.00    -0.374 OA
BRANCH  71  72
ATOM     72  C   UNL A   1      38.809  23.453  26.521  1.00  0.00     0.202 C 
BRANCH  72  73
ATOM     73  C   UNL A   1      37.910  22.666  25.573  1.00  0.00     0.261 C 
BRANCH  73  74
ATOM     74  O   UNL A   1      36.553  22.997  25.881  1.00  0.00    -0.459 OA
BRANCH  74  75
ATOM     75  C   UNL A   1      35.636  22.461  25.023  1.00  0.00     0.368 C 
ATOM     76  O   UNL A   1      35.780  22.330  23.813  1.00  0.00    -0.245 OA
BRANCH  75  77
ATOM     77  C   UNL A   1      34.381  22.020  25.781  1.00  0.00     0.200 C 
ATOM     78  C   UNL A   1      34.402  22.647  27.187  1.00  0.00     0.081 C 
ATOM     79  C   UNL A   1      33.143  22.618  25.019  1.00  0.00     0.146 C 
ATOM     80  C   UNL A   1      33.136  22.331  27.968  1.00  0.00     0.013 C 
ATOM     81  C   UNL A   1      31.803  22.699  25.777  1.00  0.00     0.191 C 
ATOM     82  C   UNL A   1      31.923  22.957  27.298  1.00  0.00     0.065 C 
BRANCH  77  83
ATOM     83  N   UNL A   1      34.321  20.543  25.809  1.00  0.00    -0.329 N 
ATOM     84  H   UNL A   1      33.822  20.297  26.663  1.00  0.00     0.347 HD
ATOM     85  H   UNL A   1      35.306  20.294  25.710  1.00  0.00     0.347 HD
BRANCH  83  86
ATOM     86  C   UNL A   1      33.701  19.751  24.730  1.00  0.00     0.183 C 
ATOM     87  C   UNL A   1      33.939  18.321  24.323  1.00  0.00     0.071 C 
ATOM     88  C   UNL A   1      32.680  18.689  25.041  1.00  0.00     0.071 C 
ENDBRANCH  83  86
ENDBRANCH  77  83
BRANCH  81  89
ATOM     89  N   UNL A   1      30.808  23.617  25.169  1.00  0.00    -0.331 N 
ATOM     90  C   UNL A   1      30.859  23.826  23.720  1.00  0.00     0.278 C 
ATOM     91  C   UNL A   1      30.245  24.747  25.921  1.00  0.00     0.278 C 
ATOM     92  H   UNL A   1      30.062  22.937  25.323  1.00  0.00     0.348 HD
ATOM     93  C   UNL A   1      31.574  25.084  23.255  1.00  0.00     0.198 C 
ATOM     94  C   UNL A   1      30.872  26.107  25.674  1.00  0.00     0.198 C 
ATOM     95  S   UNL A   1      30.828  26.524  23.962  1.00  0.00     0.161 S 
ATOM     96  O   UNL A   1      31.717  27.637  23.735  1.00  0.00    -0.228 OA
ATOM     97  O   UNL A   1      29.439  26.588  23.532  1.00  0.00    -0.228 OA
ENDBRANCH  81  89
ENDBRANCH  75  77
ENDBRANCH  74  75
ENDBRANCH  73  74
ENDBRANCH  72  73
ENDBRANCH  71  72
ENDBRANCH   1  71
TORSDOF 20
ENDMDL
