MODEL 1
REMARK VINA RESULT:     -10.9      0.000      0.000
REMARK SMILES COc1cc(/C=C2\SC(=S)N([C@H](C)C(=O)Nc3ccc(C(=O)OCCOCCOC(=O)c4ccc(-c5c6nc(c(-c7cc(S(=O)(=O)[O-])ccc7F)c7ccc([nH]7)c(-c7cc(S(=O)(=O)[O-])ccc7F)c7nc(c(-c8cc(S(=O)(=O)[O-])ccc8F)c8ccc5[nH]8)C=C7)C=C6)cc4)cc3)C2=O)ccc1O
REMARK SMILES IDX 25 1 24 2 23 3 21 4 22 5 20 6 17 7 18 8 96 9 19 10 95 11
REMARK SMILES IDX 16 12 14 13 15 14 12 16 13 17 11 18 6 19 7 20 8 21 97 22
REMARK SMILES IDX 9 23 98 24 10 25 5 26 3 27 4 28 101 29 100 30 99 31 2 32
REMARK SMILES IDX 1 33 102 34 26 36 27 37 28 38 29 39 30 40 31 41 32 42 33 43
REMARK SMILES IDX 94 44 34 45 93 46 35 47 36 48 37 49 87 50 38 51 92 52 86 53
REMARK SMILES IDX 88 54 39 55 91 56 85 57 84 58 40 60 72 61 52 62 71 63 53 64
REMARK SMILES IDX 56 65 70 66 89 67 54 68 55 69 69 71 90 72 57 73 41 74 42 75
REMARK SMILES IDX 50 76 43 77 49 78 51 79 48 80 44 81 45 82 46 83 47 84 73 85
REMARK SMILES IDX 74 86 82 87 75 88 81 89 83 90 80 91 76 92 77 93 78 94 79 95
REMARK SMILES IDX 58 96 59 97 67 98 60 99 66 100 68 101 65 102 61 103 62 104
REMARK SMILES IDX 63 105 64 106
REMARK H PARENT 16 15 102 35 88 59 56 70
REMARK Flexibility Score: inf
ROOT
ATOM      1  C   UNL A   1      33.246  34.675  28.744  1.00  0.00     0.202 C 
ENDROOT
BRANCH   1   2
ATOM      2  C   UNL A   1      34.200  33.744  27.989  1.00  0.00     0.261 C 
BRANCH   2   3
ATOM      3  O   UNL A   1      33.647  32.428  27.871  1.00  0.00    -0.460 OA
BRANCH   3   4
ATOM      4  C   UNL A   1      34.527  31.464  27.521  1.00  0.00     0.338 C 
ATOM      5  O   UNL A   1      35.748  31.534  27.535  1.00  0.00    -0.246 OA
BRANCH   4   6
ATOM      6  C   UNL A   1      33.807  30.205  27.224  1.00  0.00     0.060 A 
ATOM      7  C   UNL A   1      32.339  27.869  26.946  1.00  0.00     0.041 A 
ATOM      8  C   UNL A   1      31.668  29.086  27.011  1.00  0.00     0.027 A 
ATOM      9  C   UNL A   1      33.726  27.835  26.823  1.00  0.00     0.027 A 
ATOM     10  C   UNL A   1      32.406  30.255  27.179  1.00  0.00     0.018 A 
ATOM     11  C   UNL A   1      34.470  29.001  26.976  1.00  0.00     0.018 A 
BRANCH   7  12
ATOM     12  N   UNL A   1      31.595  26.699  27.074  1.00  0.00    -0.324 N 
ATOM     13  C   UNL A   1      31.338  25.760  26.107  1.00  0.00     0.247 C 
ATOM     14  O   UNL A   1      30.510  24.880  26.377  1.00  0.00    -0.272 OA
ATOM     15  H   UNL A   1      31.207  26.526  27.962  1.00  0.00     0.170 HD
BRANCH  13  16
ATOM     16  C   UNL A   1      31.977  25.812  24.679  1.00  0.00     0.178 C 
ATOM     17  C   UNL A   1      31.847  24.401  24.091  1.00  0.00     0.042 C 
BRANCH  16  18
ATOM     18  N   UNL A   1      31.579  26.988  23.846  1.00  0.00    -0.280 N 
ATOM     19  C   UNL A   1      28.723  29.097  22.985  1.00  0.00     0.029 C 
ATOM     20  C   UNL A   1      29.951  28.565  23.092  1.00  0.00     0.081 C 
ATOM     21  S   UNL A   1      31.404  29.142  22.409  1.00  0.00    -0.054 SA
ATOM     22  C   UNL A   1      30.236  27.361  23.919  1.00  0.00     0.266 C 
ATOM     23  C   UNL A   1      32.388  27.939  23.246  1.00  0.00     0.149 C 
ATOM     24  O   UNL A   1      29.373  26.810  24.591  1.00  0.00    -0.268 OA
ATOM     25  S   UNL A   1      34.044  28.124  23.243  1.00  0.00    -0.052 S 
BRANCH  19  26
ATOM     26  C   UNL A   1      28.375  30.320  22.244  1.00  0.00    -0.020 A 
ATOM     27  C   UNL A   1      28.320  32.767  22.158  1.00  0.00     0.161 A 
ATOM     28  C   UNL A   1      28.575  31.571  22.847  1.00  0.00     0.058 A 
ATOM     29  C   UNL A   1      27.864  32.688  20.841  1.00  0.00     0.157 A 
ATOM     30  C   UNL A   1      27.600  31.452  20.249  1.00  0.00     0.051 A 
ATOM     31  C   UNL A   1      27.854  30.270  20.947  1.00  0.00     0.012 A 
BRANCH  27  32
ATOM     32  O   UNL A   1      28.599  33.891  22.887  1.00  0.00    -0.493 OA
ATOM     33  C   UNL A   1      29.764  33.904  23.699  1.00  0.00     0.278 C 
ENDBRANCH  27  32
BRANCH  29  34
ATOM     34  O   UNL A   1      27.710  33.777  20.032  1.00  0.00    -0.504 OA
ATOM     35  H   UNL A   1      27.069  34.428  20.240  1.00  0.00     0.293 HD
ENDBRANCH  29  34
ENDBRANCH  19  26
ENDBRANCH  16  18
ENDBRANCH  13  16
ENDBRANCH   7  12
ENDBRANCH   4   6
ENDBRANCH   3   4
ENDBRANCH   2   3
ENDBRANCH   1   2
BRANCH   1  36
ATOM     36  O   UNL A   1      33.193  34.533  30.163  1.00  0.00    -0.374 OA
BRANCH  36  37
ATOM     37  C   UNL A   1      34.419  34.297  30.856  1.00  0.00     0.202 C 
BRANCH  37  38
ATOM     38  C   UNL A   1      34.667  32.896  31.430  1.00  0.00     0.261 C 
BRANCH  38  39
ATOM     39  O   UNL A   1      35.703  32.183  30.735  1.00  0.00    -0.460 OA
BRANCH  39  40
ATOM     40  C   UNL A   1      36.422  31.337  31.512  1.00  0.00     0.338 C 
ATOM     41  O   UNL A   1      35.984  30.526  32.318  1.00  0.00    -0.246 OA
BRANCH  40  42
ATOM     42  C   UNL A   1      37.841  31.389  31.119  1.00  0.00     0.060 A 
ATOM     43  C   UNL A   1      38.799  31.562  32.128  1.00  0.00     0.016 A 
ATOM     44  C   UNL A   1      38.221  31.336  29.778  1.00  0.00     0.016 A 
ATOM     45  C   UNL A   1      40.143  31.722  31.794  1.00  0.00     0.010 A 
ATOM     46  C   UNL A   1      39.567  31.506  29.445  1.00  0.00     0.010 A 
ATOM     47  C   UNL A   1      40.530  31.729  30.448  1.00  0.00    -0.014 A 
BRANCH  47  48
ATOM     48  C   UNL A   1      41.911  32.109  30.064  1.00  0.00     0.031 A 
ATOM     49  C   UNL A   1      42.194  33.545  29.716  1.00  0.00     0.074 A 
ATOM     50  C   UNL A   1      42.890  31.189  30.003  1.00  0.00     0.049 A 
ATOM     51  N   UNL A   1      43.273  34.081  29.211  1.00  0.00    -0.248 NA
ATOM     52  C   UNL A   1      41.103  34.500  29.965  1.00  0.00     0.031 C 
ATOM     53  C   UNL A   1      42.747  29.782  30.374  1.00  0.00     0.029 A 
ATOM     54  N   UNL A   1      44.193  31.298  29.587  1.00  0.00    -0.354 N 
ATOM     55  C   UNL A   1      42.989  35.435  29.062  1.00  0.00     0.074 A 
ATOM     56  C   UNL A   1      41.623  35.628  29.502  1.00  0.00     0.031 C 
ATOM     57  C   UNL A   1      43.913  29.154  30.148  1.00  0.00     0.029 A 
ATOM     58  C   UNL A   1      44.865  30.098  29.567  1.00  0.00     0.049 A 
ATOM     59  H   UNL A   1      44.607  32.153  29.328  1.00  0.00     0.167 HD
ATOM     60  C   UNL A   1      43.796  36.423  28.602  1.00  0.00     0.034 A 
ATOM     61  C   UNL A   1      46.090  29.792  29.093  1.00  0.00     0.034 A 
ATOM     62  C   UNL A   1      45.152  36.203  28.160  1.00  0.00     0.049 A 
ATOM     63  C   UNL A   1      46.939  30.889  28.493  1.00  0.00     0.074 A 
ATOM     64  C   UNL A   1      46.063  37.131  27.685  1.00  0.00     0.029 A 
ATOM     65  N   UNL A   1      45.789  34.969  28.124  1.00  0.00    -0.354 N 
ATOM     66  N   UNL A   1      46.658  32.164  28.344  1.00  0.00    -0.248 NA
ATOM     67  C   UNL A   1      48.270  30.508  28.000  1.00  0.00     0.031 C 
ATOM     68  C   UNL A   1      47.216  36.448  27.286  1.00  0.00     0.029 A 
ATOM     69  C   UNL A   1      47.066  35.108  27.603  1.00  0.00     0.049 A 
ATOM     70  H   UNL A   1      45.391  34.120  28.424  1.00  0.00     0.167 HD
ATOM     71  C   UNL A   1      47.797  32.742  27.784  1.00  0.00     0.074 A 
ATOM     72  C   UNL A   1      48.763  31.678  27.621  1.00  0.00     0.031 C 
ATOM     73  C   UNL A   1      48.025  34.038  27.451  1.00  0.00     0.034 A 
BRANCH  60  74
ATOM     74  C   UNL A   1      43.211  37.811  28.500  1.00  0.00     0.023 A 
ATOM     75  C   UNL A   1      43.396  38.772  29.509  1.00  0.00     0.031 A 
ATOM     76  C   UNL A   1      42.435  38.172  27.384  1.00  0.00     0.131 A 
ATOM     77  C   UNL A   1      42.754  40.017  29.416  1.00  0.00     0.055 A 
ATOM     78  C   UNL A   1      41.871  39.443  27.256  1.00  0.00     0.041 A 
ATOM     79  F   UNL A   1      42.201  37.289  26.400  1.00  0.00    -0.206 F 
ATOM     80  C   UNL A   1      42.017  40.369  28.284  1.00  0.00     0.022 A 
BRANCH  77  81
ATOM     81  S   UNL A   1      42.773  41.111  30.862  1.00  0.00     0.124 S 
ATOM     82  O   UNL A   1      41.353  41.183  31.197  1.00  0.00    -0.237 OA
ATOM     83  O   UNL A   1      43.615  40.379  31.801  1.00  0.00    -0.237 OA
ATOM     84  O   UNL A   1      43.347  42.352  30.346  1.00  0.00    -0.744 OA
ENDBRANCH  77  81
ENDBRANCH  60  74
BRANCH  61  85
ATOM     85  C   UNL A   1      46.580  28.383  29.121  1.00  0.00     0.023 A 
ATOM     86  C   UNL A   1      46.378  27.523  28.031  1.00  0.00     0.031 A 
ATOM     87  C   UNL A   1      47.212  27.859  30.264  1.00  0.00     0.131 A 
ATOM     88  C   UNL A   1      46.758  26.175  28.123  1.00  0.00     0.055 A 
ATOM     89  C   UNL A   1      47.644  26.533  30.327  1.00  0.00     0.041 A 
ATOM     90  F   UNL A   1      47.427  28.636  31.338  1.00  0.00    -0.206 F 
ATOM     91  C   UNL A   1      47.404  25.679  29.257  1.00  0.00     0.022 A 
BRANCH  88  92
ATOM     92  S   UNL A   1      46.304  25.053  26.772  1.00  0.00     0.124 S 
ATOM     93  O   UNL A   1      46.613  23.751  27.354  1.00  0.00    -0.237 OA
ATOM     94  O   UNL A   1      44.889  25.356  26.589  1.00  0.00    -0.237 OA
ATOM     95  O   UNL A   1      47.176  25.470  25.677  1.00  0.00    -0.744 OA
ENDBRANCH  88  92
ENDBRANCH  61  85
BRANCH  73  96
ATOM     96  C   UNL A   1      49.405  34.397  26.950  1.00  0.00     0.023 A 
ATOM     97  C   UNL A   1      50.532  34.400  27.789  1.00  0.00     0.031 A 
ATOM     98  C   UNL A   1      49.590  34.721  25.594  1.00  0.00     0.131 A 
ATOM     99  C   UNL A   1      51.786  34.761  27.272  1.00  0.00     0.055 A 
ATOM    100  C   UNL A   1      50.849  35.019  25.072  1.00  0.00     0.041 A 
ATOM    101  F   UNL A   1      48.548  34.739  24.747  1.00  0.00    -0.206 F 
ATOM    102  C   UNL A   1      51.955  35.050  25.914  1.00  0.00     0.022 A 
BRANCH  99 103
ATOM    103  S   UNL A   1      53.190  34.922  28.410  1.00  0.00     0.124 S 
ATOM    104  O   UNL A   1      54.032  33.798  28.013  1.00  0.00    -0.237 OA
ATOM    105  O   UNL A   1      53.703  36.249  28.088  1.00  0.00    -0.237 OA
ATOM    106  O   UNL A   1      52.576  34.800  29.732  1.00  0.00    -0.744 OA
ENDBRANCH  99 103
ENDBRANCH  73  96
ENDBRANCH  47  48
ENDBRANCH  40  42
ENDBRANCH  39  40
ENDBRANCH  38  39
ENDBRANCH  37  38
ENDBRANCH  36  37
ENDBRANCH   1  36
TORSDOF 23
ENDMDL
MODEL 2
REMARK VINA RESULT:     -10.8      6.258      9.983
REMARK SMILES COc1cc(/C=C2\SC(=S)N([C@H](C)C(=O)Nc3ccc(C(=O)OCCOCCOC(=O)c4ccc(-c5c6nc(c(-c7cc(S(=O)(=O)[O-])ccc7F)c7ccc([nH]7)c(-c7cc(S(=O)(=O)[O-])ccc7F)c7nc(c(-c8cc(S(=O)(=O)[O-])ccc8F)c8ccc5[nH]8)C=C7)C=C6)cc4)cc3)C2=O)ccc1O
REMARK SMILES IDX 25 1 24 2 23 3 21 4 22 5 20 6 17 7 18 8 96 9 19 10 95 11
REMARK SMILES IDX 16 12 14 13 15 14 12 16 13 17 11 18 6 19 7 20 8 21 97 22
REMARK SMILES IDX 9 23 98 24 10 25 5 26 3 27 4 28 101 29 100 30 99 31 2 32
REMARK SMILES IDX 1 33 102 34 26 36 27 37 28 38 29 39 30 40 31 41 32 42 33 43
REMARK SMILES IDX 94 44 34 45 93 46 35 47 36 48 37 49 87 50 38 51 92 52 86 53
REMARK SMILES IDX 88 54 39 55 91 56 85 57 84 58 40 60 72 61 52 62 71 63 53 64
REMARK SMILES IDX 56 65 70 66 89 67 54 68 55 69 69 71 90 72 57 73 41 74 42 75
REMARK SMILES IDX 50 76 43 77 49 78 51 79 48 80 44 81 45 82 46 83 47 84 73 85
REMARK SMILES IDX 74 86 82 87 75 88 81 89 83 90 80 91 76 92 77 93 78 94 79 95
REMARK SMILES IDX 58 96 59 97 67 98 60 99 66 100 68 101 65 102 61 103 62 104
REMARK SMILES IDX 63 105 64 106
REMARK H PARENT 16 15 102 35 88 59 56 70
REMARK Flexibility Score: inf
ROOT
ATOM      1  C   UNL A   1      42.561  21.207  26.408  1.00  0.00     0.202 C 
ENDROOT
BRANCH   1   2
ATOM      2  C   UNL A   1      41.360  22.047  26.854  1.00  0.00     0.261 C 
BRANCH   2   3
ATOM      3  O   UNL A   1      40.194  21.722  26.087  1.00  0.00    -0.460 OA
BRANCH   3   4
ATOM      4  C   UNL A   1      39.164  22.588  26.214  1.00  0.00     0.338 C 
ATOM      5  O   UNL A   1      39.220  23.762  26.550  1.00  0.00    -0.246 OA
BRANCH   4   6
ATOM      6  C   UNL A   1      37.910  21.953  25.751  1.00  0.00     0.060 A 
ATOM      7  C   UNL A   1      35.500  20.706  25.177  1.00  0.00     0.041 A 
ATOM      8  C   UNL A   1      35.488  21.925  25.845  1.00  0.00     0.027 A 
ATOM      9  C   UNL A   1      36.683  20.212  24.631  1.00  0.00     0.027 A 
ATOM     10  C   UNL A   1      36.700  22.536  26.156  1.00  0.00     0.018 A 
ATOM     11  C   UNL A   1      37.898  20.825  24.927  1.00  0.00     0.018 A 
BRANCH   7  12
ATOM     12  N   UNL A   1      34.320  19.968  25.131  1.00  0.00    -0.324 N 
ATOM     13  C   UNL A   1      33.134  20.322  24.539  1.00  0.00     0.247 C 
ATOM     14  O   UNL A   1      32.153  19.602  24.760  1.00  0.00    -0.272 OA
ATOM     15  H   UNL A   1      34.338  19.090  25.576  1.00  0.00     0.170 HD
BRANCH  13  16
ATOM     16  C   UNL A   1      32.965  21.622  23.683  1.00  0.00     0.178 C 
ATOM     17  C   UNL A   1      31.962  21.286  22.572  1.00  0.00     0.042 C 
BRANCH  16  18
ATOM     18  N   UNL A   1      32.787  22.882  24.468  1.00  0.00    -0.280 N 
ATOM     19  C   UNL A   1      33.650  26.432  24.488  1.00  0.00     0.029 C 
ATOM     20  C   UNL A   1      33.137  25.225  24.775  1.00  0.00     0.081 C 
ATOM     21  S   UNL A   1      32.059  24.819  26.035  1.00  0.00    -0.054 SA
ATOM     22  C   UNL A   1      33.411  24.018  23.949  1.00  0.00     0.266 C 
ATOM     23  C   UNL A   1      31.866  23.160  25.464  1.00  0.00     0.149 C 
ATOM     24  O   UNL A   1      34.083  24.064  22.926  1.00  0.00    -0.268 OA
ATOM     25  S   UNL A   1      30.648  22.231  26.120  1.00  0.00    -0.052 S 
BRANCH  19  26
ATOM     26  C   UNL A   1      33.373  27.681  25.215  1.00  0.00    -0.020 A 
ATOM     27  C   UNL A   1      34.016  29.267  26.967  1.00  0.00     0.161 A 
ATOM     28  C   UNL A   1      34.200  28.054  26.285  1.00  0.00     0.058 A 
ATOM     29  C   UNL A   1      32.984  30.111  26.551  1.00  0.00     0.157 A 
ATOM     30  C   UNL A   1      32.114  29.725  25.531  1.00  0.00     0.051 A 
ATOM     31  C   UNL A   1      32.306  28.514  24.863  1.00  0.00     0.012 A 
BRANCH  27  32
ATOM     32  O   UNL A   1      34.931  29.482  27.962  1.00  0.00    -0.493 OA
ATOM     33  C   UNL A   1      36.313  29.414  27.641  1.00  0.00     0.278 C 
ENDBRANCH  27  32
BRANCH  29  34
ATOM     34  O   UNL A   1      32.794  31.367  27.049  1.00  0.00    -0.504 OA
ATOM     35  H   UNL A   1      33.028  32.116  26.536  1.00  0.00     0.293 HD
ENDBRANCH  29  34
ENDBRANCH  19  26
ENDBRANCH  16  18
ENDBRANCH  13  16
ENDBRANCH   7  12
ENDBRANCH   4   6
ENDBRANCH   3   4
ENDBRANCH   2   3
ENDBRANCH   1   2
BRANCH   1  36
ATOM     36  O   UNL A   1      43.274  21.659  25.257  1.00  0.00    -0.374 OA
BRANCH  36  37
ATOM     37  C   UNL A   1      44.280  22.655  25.445  1.00  0.00     0.202 C 
BRANCH  37  38
ATOM     38  C   UNL A   1      44.173  23.953  24.636  1.00  0.00     0.261 C 
BRANCH  38  39
ATOM     39  O   UNL A   1      44.221  25.130  25.458  1.00  0.00    -0.460 OA
BRANCH  39  40
ATOM     40  C   UNL A   1      43.013  25.691  25.709  1.00  0.00     0.338 C 
ATOM     41  O   UNL A   1      42.018  25.643  24.998  1.00  0.00    -0.246 OA
BRANCH  40  42
ATOM     42  C   UNL A   1      42.993  26.230  27.080  1.00  0.00     0.060 A 
ATOM     43  C   UNL A   1      42.009  25.756  27.960  1.00  0.00     0.016 A 
ATOM     44  C   UNL A   1      43.880  27.231  27.476  1.00  0.00     0.016 A 
ATOM     45  C   UNL A   1      41.884  26.312  29.232  1.00  0.00     0.010 A 
ATOM     46  C   UNL A   1      43.748  27.792  28.749  1.00  0.00     0.010 A 
ATOM     47  C   UNL A   1      42.732  27.357  29.622  1.00  0.00    -0.014 A 
BRANCH  47  48
ATOM     48  C   UNL A   1      42.479  28.102  30.879  1.00  0.00     0.031 A 
ATOM     49  C   UNL A   1      41.488  29.233  30.861  1.00  0.00     0.074 A 
ATOM     50  C   UNL A   1      43.138  27.792  32.010  1.00  0.00     0.049 A 
ATOM     51  N   UNL A   1      41.217  30.116  31.785  1.00  0.00    -0.248 NA
ATOM     52  C   UNL A   1      40.707  29.392  29.625  1.00  0.00     0.031 C 
ATOM     53  C   UNL A   1      44.075  26.680  32.162  1.00  0.00     0.029 A 
ATOM     54  N   UNL A   1      43.132  28.399  33.241  1.00  0.00    -0.354 N 
ATOM     55  C   UNL A   1      40.247  30.950  31.240  1.00  0.00     0.074 A 
ATOM     56  C   UNL A   1      40.002  30.483  29.891  1.00  0.00     0.031 C 
ATOM     57  C   UNL A   1      44.571  26.698  33.410  1.00  0.00     0.029 A 
ATOM     58  C   UNL A   1      44.029  27.850  34.127  1.00  0.00     0.049 A 
ATOM     59  H   UNL A   1      42.542  29.154  33.468  1.00  0.00     0.167 HD
ATOM     60  C   UNL A   1      39.618  32.005  31.814  1.00  0.00     0.034 A 
ATOM     61  C   UNL A   1      44.401  28.259  35.358  1.00  0.00     0.034 A 
ATOM     62  C   UNL A   1      39.886  32.458  33.158  1.00  0.00     0.049 A 
ATOM     63  C   UNL A   1      43.761  29.496  35.944  1.00  0.00     0.074 A 
ATOM     64  C   UNL A   1      39.302  33.508  33.844  1.00  0.00     0.029 A 
ATOM     65  N   UNL A   1      40.824  31.897  34.016  1.00  0.00    -0.354 N 
ATOM     66  N   UNL A   1      42.853  30.286  35.416  1.00  0.00    -0.248 NA
ATOM     67  C   UNL A   1      44.191  29.895  37.291  1.00  0.00     0.031 C 
ATOM     68  C   UNL A   1      39.943  33.633  35.081  1.00  0.00     0.029 A 
ATOM     69  C   UNL A   1      40.858  32.601  35.209  1.00  0.00     0.049 A 
ATOM     70  H   UNL A   1      41.384  31.114  33.806  1.00  0.00     0.167 HD
ATOM     71  C   UNL A   1      42.572  31.246  36.388  1.00  0.00     0.074 A 
ATOM     72  C   UNL A   1      43.407  30.936  37.528  1.00  0.00     0.031 C 
ATOM     73  C   UNL A   1      41.693  32.279  36.344  1.00  0.00     0.034 A 
BRANCH  60  74
ATOM     74  C   UNL A   1      38.629  32.772  30.969  1.00  0.00     0.023 A 
ATOM     75  C   UNL A   1      37.242  32.668  31.170  1.00  0.00     0.031 A 
ATOM     76  C   UNL A   1      39.081  33.604  29.930  1.00  0.00     0.131 A 
ATOM     77  C   UNL A   1      36.357  33.325  30.300  1.00  0.00     0.055 A 
ATOM     78  C   UNL A   1      38.198  34.324  29.123  1.00  0.00     0.041 A 
ATOM     79  F   UNL A   1      40.394  33.725  29.672  1.00  0.00    -0.206 F 
ATOM     80  C   UNL A   1      36.826  34.175  29.296  1.00  0.00     0.022 A 
BRANCH  77  81
ATOM     81  S   UNL A   1      34.589  32.934  30.405  1.00  0.00     0.124 S 
ATOM     82  O   UNL A   1      33.985  34.258  30.265  1.00  0.00    -0.237 OA
ATOM     83  O   UNL A   1      34.400  32.024  29.281  1.00  0.00    -0.237 OA
ATOM     84  O   UNL A   1      34.449  32.331  31.728  1.00  0.00    -0.744 OA
ENDBRANCH  77  81
ENDBRANCH  60  74
BRANCH  61  85
ATOM     85  C   UNL A   1      45.461  27.525  36.108  1.00  0.00     0.023 A 
ATOM     86  C   UNL A   1      45.134  26.514  37.024  1.00  0.00     0.031 A 
ATOM     87  C   UNL A   1      46.819  27.862  35.958  1.00  0.00     0.131 A 
ATOM     88  C   UNL A   1      46.142  25.910  37.792  1.00  0.00     0.055 A 
ATOM     89  C   UNL A   1      47.825  27.215  36.679  1.00  0.00     0.041 A 
ATOM     90  F   UNL A   1      47.190  28.825  35.099  1.00  0.00    -0.206 F 
ATOM     91  C   UNL A   1      47.487  26.242  37.613  1.00  0.00     0.022 A 
BRANCH  88  92
ATOM     92  S   UNL A   1      45.659  24.751  39.100  1.00  0.00     0.124 S 
ATOM     93  O   UNL A   1      44.914  23.749  38.346  1.00  0.00    -0.237 OA
ATOM     94  O   UNL A   1      46.953  24.330  39.625  1.00  0.00    -0.237 OA
ATOM     95  O   UNL A   1      44.859  25.575  40.003  1.00  0.00    -0.744 OA
ENDBRANCH  88  92
ENDBRANCH  61  85
BRANCH  73  96
ATOM     96  C   UNL A   1      41.525  33.106  37.597  1.00  0.00     0.023 A 
ATOM     97  C   UNL A   1      40.595  32.776  38.597  1.00  0.00     0.031 A 
ATOM     98  C   UNL A   1      42.336  34.239  37.796  1.00  0.00     0.131 A 
ATOM     99  C   UNL A   1      40.471  33.594  39.732  1.00  0.00     0.055 A 
ATOM    100  C   UNL A   1      42.250  35.013  38.955  1.00  0.00     0.041 A 
ATOM    101  F   UNL A   1      43.238  34.604  36.871  1.00  0.00    -0.206 F 
ATOM    102  C   UNL A   1      41.307  34.697  39.926  1.00  0.00     0.022 A 
BRANCH  99 103
ATOM    103  S   UNL A   1      39.148  33.243  40.923  1.00  0.00     0.124 S 
ATOM    104  O   UNL A   1      39.502  34.119  42.035  1.00  0.00    -0.237 OA
ATOM    105  O   UNL A   1      37.949  33.610  40.177  1.00  0.00    -0.237 OA
ATOM    106  O   UNL A   1      39.297  31.813  41.190  1.00  0.00    -0.744 OA
ENDBRANCH  99 103
ENDBRANCH  73  96
ENDBRANCH  47  48
ENDBRANCH  40  42
ENDBRANCH  39  40
ENDBRANCH  38  39
ENDBRANCH  37  38
ENDBRANCH  36  37
ENDBRANCH   1  36
TORSDOF 23
ENDMDL
MODEL 3
REMARK VINA RESULT:     -10.6      6.727     10.391
REMARK SMILES COc1cc(/C=C2\SC(=S)N([C@H](C)C(=O)Nc3ccc(C(=O)OCCOCCOC(=O)c4ccc(-c5c6nc(c(-c7cc(S(=O)(=O)[O-])ccc7F)c7ccc([nH]7)c(-c7cc(S(=O)(=O)[O-])ccc7F)c7nc(c(-c8cc(S(=O)(=O)[O-])ccc8F)c8ccc5[nH]8)C=C7)C=C6)cc4)cc3)C2=O)ccc1O
REMARK SMILES IDX 25 1 24 2 23 3 21 4 22 5 20 6 17 7 18 8 96 9 19 10 95 11
REMARK SMILES IDX 16 12 14 13 15 14 12 16 13 17 11 18 6 19 7 20 8 21 97 22
REMARK SMILES IDX 9 23 98 24 10 25 5 26 3 27 4 28 101 29 100 30 99 31 2 32
REMARK SMILES IDX 1 33 102 34 26 36 27 37 28 38 29 39 30 40 31 41 32 42 33 43
REMARK SMILES IDX 94 44 34 45 93 46 35 47 36 48 37 49 87 50 38 51 92 52 86 53
REMARK SMILES IDX 88 54 39 55 91 56 85 57 84 58 40 60 72 61 52 62 71 63 53 64
REMARK SMILES IDX 56 65 70 66 89 67 54 68 55 69 69 71 90 72 57 73 41 74 42 75
REMARK SMILES IDX 50 76 43 77 49 78 51 79 48 80 44 81 45 82 46 83 47 84 73 85
REMARK SMILES IDX 74 86 82 87 75 88 81 89 83 90 80 91 76 92 77 93 78 94 79 95
REMARK SMILES IDX 58 96 59 97 67 98 60 99 66 100 68 101 65 102 61 103 62 104
REMARK SMILES IDX 63 105 64 106
REMARK H PARENT 16 15 102 35 88 59 56 70
REMARK Flexibility Score: inf
ROOT
ATOM      1  C   UNL A   1      34.618  33.250  28.478  1.00  0.00     0.202 C 
ENDROOT
BRANCH   1   2
ATOM      2  C   UNL A   1      35.187  32.107  27.632  1.00  0.00     0.261 C 
BRANCH   2   3
ATOM      3  O   UNL A   1      36.031  31.258  28.419  1.00  0.00    -0.460 OA
BRANCH   3   4
ATOM      4  C   UNL A   1      35.645  29.964  28.483  1.00  0.00     0.338 C 
ATOM      5  O   UNL A   1      36.007  29.121  29.291  1.00  0.00    -0.246 OA
BRANCH   4   6
ATOM      6  C   UNL A   1      34.582  29.704  27.486  1.00  0.00     0.060 A 
ATOM      7  C   UNL A   1      32.734  29.414  25.439  1.00  0.00     0.041 A 
ATOM      8  C   UNL A   1      34.027  28.934  25.256  1.00  0.00     0.027 A 
ATOM      9  C   UNL A   1      32.316  29.854  26.693  1.00  0.00     0.027 A 
ATOM     10  C   UNL A   1      34.960  29.106  26.275  1.00  0.00     0.018 A 
ATOM     11  C   UNL A   1      33.241  30.016  27.721  1.00  0.00     0.018 A 
BRANCH   7  12
ATOM     12  N   UNL A   1      31.902  29.504  24.326  1.00  0.00    -0.324 N 
ATOM     13  C   UNL A   1      31.130  28.512  23.776  1.00  0.00     0.247 C 
ATOM     14  O   UNL A   1      30.596  28.749  22.684  1.00  0.00    -0.272 OA
ATOM     15  H   UNL A   1      31.864  30.381  23.881  1.00  0.00     0.170 HD
BRANCH  13  16
ATOM     16  C   UNL A   1      30.974  27.096  24.425  1.00  0.00     0.178 C 
ATOM     17  C   UNL A   1      29.542  26.634  24.125  1.00  0.00     0.042 C 
BRANCH  16  18
ATOM     18  N   UNL A   1      32.109  26.155  24.180  1.00  0.00    -0.280 N 
ATOM     19  C   UNL A   1      34.293  23.750  25.851  1.00  0.00     0.029 C 
ATOM     20  C   UNL A   1      33.671  24.515  24.940  1.00  0.00     0.081 C 
ATOM     21  S   UNL A   1      33.920  24.543  23.252  1.00  0.00    -0.054 SA
ATOM     22  C   UNL A   1      32.574  25.456  25.295  1.00  0.00     0.266 C 
ATOM     23  C   UNL A   1      32.576  25.654  22.976  1.00  0.00     0.149 C 
ATOM     24  O   UNL A   1      32.139  25.553  26.437  1.00  0.00    -0.268 OA
ATOM     25  S   UNL A   1      32.053  25.895  21.413  1.00  0.00    -0.052 S 
BRANCH  19  26
ATOM     26  C   UNL A   1      35.336  22.751  25.569  1.00  0.00    -0.020 A 
ATOM     27  C   UNL A   1      37.707  22.136  25.607  1.00  0.00     0.161 A 
ATOM     28  C   UNL A   1      36.682  23.076  25.799  1.00  0.00     0.058 A 
ATOM     29  C   UNL A   1      37.357  20.852  25.184  1.00  0.00     0.157 A 
ATOM     30  C   UNL A   1      36.031  20.533  24.890  1.00  0.00     0.051 A 
ATOM     31  C   UNL A   1      35.022  21.478  25.082  1.00  0.00     0.012 A 
BRANCH  27  32
ATOM     32  O   UNL A   1      38.954  22.614  25.907  1.00  0.00    -0.493 OA
ATOM     33  C   UNL A   1      39.067  23.681  26.838  1.00  0.00     0.278 C 
ENDBRANCH  27  32
BRANCH  29  34
ATOM     34  O   UNL A   1      38.249  19.823  25.092  1.00  0.00    -0.504 OA
ATOM     35  H   UNL A   1      39.164  19.982  25.216  1.00  0.00     0.293 HD
ENDBRANCH  29  34
ENDBRANCH  19  26
ENDBRANCH  16  18
ENDBRANCH  13  16
ENDBRANCH   7  12
ENDBRANCH   4   6
ENDBRANCH   3   4
ENDBRANCH   2   3
ENDBRANCH   1   2
BRANCH   1  36
ATOM     36  O   UNL A   1      34.518  34.529  27.852  1.00  0.00    -0.374 OA
BRANCH  36  37
ATOM     37  C   UNL A   1      33.977  35.605  28.618  1.00  0.00     0.202 C 
BRANCH  37  38
ATOM     38  C   UNL A   1      33.023  35.265  29.770  1.00  0.00     0.261 C 
BRANCH  38  39
ATOM     39  O   UNL A   1      33.352  35.949  30.990  1.00  0.00    -0.460 OA
BRANCH  39  40
ATOM     40  C   UNL A   1      33.048  35.265  32.120  1.00  0.00     0.338 C 
ATOM     41  O   UNL A   1      31.932  34.944  32.507  1.00  0.00    -0.246 OA
BRANCH  40  42
ATOM     42  C   UNL A   1      34.285  34.778  32.752  1.00  0.00     0.060 A 
ATOM     43  C   UNL A   1      35.481  35.451  32.465  1.00  0.00     0.016 A 
ATOM     44  C   UNL A   1      34.285  33.639  33.558  1.00  0.00     0.016 A 
ATOM     45  C   UNL A   1      36.692  34.963  32.955  1.00  0.00     0.010 A 
ATOM     46  C   UNL A   1      35.500  33.147  34.041  1.00  0.00     0.010 A 
ATOM     47  C   UNL A   1      36.712  33.788  33.718  1.00  0.00    -0.014 A 
BRANCH  47  48
ATOM     48  C   UNL A   1      37.999  33.139  34.067  1.00  0.00     0.031 A 
ATOM     49  C   UNL A   1      38.482  31.995  33.218  1.00  0.00     0.074 A 
ATOM     50  C   UNL A   1      38.711  33.545  35.133  1.00  0.00     0.049 A 
ATOM     51  N   UNL A   1      39.486  31.182  33.413  1.00  0.00    -0.248 NA
ATOM     52  C   UNL A   1      37.718  31.731  31.989  1.00  0.00     0.031 C 
ATOM     53  C   UNL A   1      38.372  34.678  35.991  1.00  0.00     0.029 A 
ATOM     54  N   UNL A   1      39.859  33.034  35.685  1.00  0.00    -0.354 N 
ATOM     55  C   UNL A   1      39.467  30.294  32.342  1.00  0.00     0.074 A 
ATOM     56  C   UNL A   1      38.331  30.653  31.520  1.00  0.00     0.031 C 
ATOM     57  C   UNL A   1      39.282  34.764  36.976  1.00  0.00     0.029 A 
ATOM     58  C   UNL A   1      40.234  33.662  36.850  1.00  0.00     0.049 A 
ATOM     59  H   UNL A   1      40.366  32.290  35.286  1.00  0.00     0.167 HD
ATOM     60  C   UNL A   1      40.323  29.277  32.072  1.00  0.00     0.034 A 
ATOM     61  C   UNL A   1      41.205  33.355  37.734  1.00  0.00     0.034 A 
ATOM     62  C   UNL A   1      41.444  28.933  32.912  1.00  0.00     0.049 A 
ATOM     63  C   UNL A   1      42.087  32.157  37.466  1.00  0.00     0.074 A 
ATOM     64  C   UNL A   1      42.379  27.931  32.730  1.00  0.00     0.029 A 
ATOM     65  N   UNL A   1      41.774  29.572  34.101  1.00  0.00    -0.354 N 
ATOM     66  N   UNL A   1      42.054  31.315  36.458  1.00  0.00    -0.248 NA
ATOM     67  C   UNL A   1      43.137  31.869  38.452  1.00  0.00     0.031 C 
ATOM     68  C   UNL A   1      43.222  27.910  33.846  1.00  0.00     0.029 A 
ATOM     69  C   UNL A   1      42.877  28.962  34.678  1.00  0.00     0.049 A 
ATOM     70  H   UNL A   1      41.294  30.345  34.479  1.00  0.00     0.167 HD
ATOM     71  C   UNL A   1      43.110  30.429  36.667  1.00  0.00     0.074 A 
ATOM     72  C   UNL A   1      43.755  30.837  37.897  1.00  0.00     0.031 C 
ATOM     73  C   UNL A   1      43.516  29.383  35.904  1.00  0.00     0.034 A 
BRANCH  60  74
ATOM     74  C   UNL A   1      40.039  28.434  30.852  1.00  0.00     0.023 A 
ATOM     75  C   UNL A   1      40.668  28.674  29.618  1.00  0.00     0.031 A 
ATOM     76  C   UNL A   1      39.106  27.383  30.919  1.00  0.00     0.131 A 
ATOM     77  C   UNL A   1      40.303  27.925  28.488  1.00  0.00     0.055 A 
ATOM     78  C   UNL A   1      38.811  26.585  29.812  1.00  0.00     0.041 A 
ATOM     79  F   UNL A   1      38.453  27.120  32.063  1.00  0.00    -0.206 F 
ATOM     80  C   UNL A   1      39.400  26.864  28.583  1.00  0.00     0.022 A 
BRANCH  77  81
ATOM     81  S   UNL A   1      40.911  28.455  26.864  1.00  0.00     0.124 S 
ATOM     82  O   UNL A   1      39.831  29.331  26.415  1.00  0.00    -0.237 OA
ATOM     83  O   UNL A   1      42.169  29.113  27.198  1.00  0.00    -0.237 OA
ATOM     84  O   UNL A   1      41.039  27.204  26.120  1.00  0.00    -0.744 OA
ENDBRANCH  77  81
ENDBRANCH  60  74
BRANCH  61  85
ATOM     85  C   UNL A   1      41.375  34.159  38.978  1.00  0.00     0.023 A 
ATOM     86  C   UNL A   1      40.545  33.959  40.091  1.00  0.00     0.031 A 
ATOM     87  C   UNL A   1      42.340  35.181  39.054  1.00  0.00     0.131 A 
ATOM     88  C   UNL A   1      40.659  34.797  41.212  1.00  0.00     0.055 A 
ATOM     89  C   UNL A   1      42.492  35.972  40.194  1.00  0.00     0.041 A 
ATOM     90  F   UNL A   1      43.159  35.420  38.017  1.00  0.00    -0.206 F 
ATOM     91  C   UNL A   1      41.638  35.791  41.277  1.00  0.00     0.022 A 
BRANCH  88  92
ATOM     92  S   UNL A   1      39.442  34.633  42.545  1.00  0.00     0.124 S 
ATOM     93  O   UNL A   1      40.259  34.096  43.627  1.00  0.00    -0.237 OA
ATOM     94  O   UNL A   1      38.983  36.008  42.707  1.00  0.00    -0.237 OA
ATOM     95  O   UNL A   1      38.455  33.710  41.991  1.00  0.00    -0.744 OA
ENDBRANCH  88  92
ENDBRANCH  61  85
BRANCH  73  96
ATOM     96  C   UNL A   1      44.768  28.652  36.330  1.00  0.00     0.023 A 
ATOM     97  C   UNL A   1      46.054  29.094  35.979  1.00  0.00     0.031 A 
ATOM     98  C   UNL A   1      44.661  27.497  37.127  1.00  0.00     0.131 A 
ATOM     99  C   UNL A   1      47.180  28.363  36.388  1.00  0.00     0.055 A 
ATOM    100  C   UNL A   1      45.787  26.809  37.583  1.00  0.00     0.041 A 
ATOM    101  F   UNL A   1      43.457  27.026  37.490  1.00  0.00    -0.206 F 
ATOM    102  C   UNL A   1      47.055  27.235  37.205  1.00  0.00     0.022 A 
BRANCH  99 103
ATOM    103  S   UNL A   1      48.815  28.858  35.778  1.00  0.00     0.124 S 
ATOM    104  O   UNL A   1      48.830  30.286  36.079  1.00  0.00    -0.237 OA
ATOM    105  O   UNL A   1      49.712  28.029  36.576  1.00  0.00    -0.237 OA
ATOM    106  O   UNL A   1      48.767  28.525  34.355  1.00  0.00    -0.744 OA
ENDBRANCH  99 103
ENDBRANCH  73  96
ENDBRANCH  47  48
ENDBRANCH  40  42
ENDBRANCH  39  40
ENDBRANCH  38  39
ENDBRANCH  37  38
ENDBRANCH  36  37
ENDBRANCH   1  36
TORSDOF 23
ENDMDL
