MODEL 1
REMARK VINA RESULT:     -11.3      0.000      0.000
REMARK SMILES C[C@@H](C(=O)OCCOCCOC(=O)c1ccc(-c2c3nc(c(-c4cc(S(=O)(=O)[O-])ccc4F)c4ccc([nH]4)c(-c4cc(S(=O)(=O)[O-])ccc4F)c4nc(c(-c5cc(S(=O)(=O)[O-])ccc5F)c5ccc2[nH]5)C=C4)C=C3)cc1)c1ccc(C[C@@H]2CCC[C@@H]2O)cc1
REMARK SMILES IDX 7 1 6 2 5 3 3 4 4 5 2 6 1 7 77 8 78 9 89 10 79 11 88 12
REMARK SMILES IDX 80 13 81 14 82 15 83 16 86 17 84 18 85 19 87 20 8 22 9 23
REMARK SMILES IDX 10 24 11 25 12 26 13 27 14 28 15 29 76 30 16 31 75 32 17 33
REMARK SMILES IDX 18 34 19 35 69 36 20 37 74 38 68 39 70 40 21 41 73 42 67 43
REMARK SMILES IDX 66 44 22 46 54 47 34 48 53 49 35 50 38 51 52 52 71 53 36 54
REMARK SMILES IDX 37 55 51 57 72 58 39 59 23 60 24 61 32 62 25 63 31 64 33 65
REMARK SMILES IDX 30 66 26 67 27 68 28 69 29 70 55 71 56 72 64 73 57 74 63 75
REMARK SMILES IDX 65 76 62 77 58 78 59 79 60 80 61 81 40 82 41 83 49 84 42 85
REMARK SMILES IDX 48 86 50 87 47 88 43 89 44 90 45 91 46 92
REMARK H PARENT 87 21 70 45 38 56
REMARK Flexibility Score: inf
ROOT
ATOM      1  C   UNL A   1      32.083  29.209  25.381  1.00  0.00     0.202 C 
ENDROOT
BRANCH   1   2
ATOM      2  C   UNL A   1      33.122  29.087  24.261  1.00  0.00     0.261 C 
BRANCH   2   3
ATOM      3  O   UNL A   1      33.257  27.713  23.846  1.00  0.00    -0.463 OA
BRANCH   3   4
ATOM      4  C   UNL A   1      33.163  27.478  22.509  1.00  0.00     0.313 C 
ATOM      5  O   UNL A   1      33.994  27.851  21.686  1.00  0.00    -0.252 OA
BRANCH   4   6
ATOM      6  C   UNL A   1      31.904  26.679  22.133  1.00  0.00     0.126 C 
ATOM      7  C   UNL A   1      30.581  27.256  22.646  1.00  0.00     0.025 C 
BRANCH   6   8
ATOM      8  C   UNL A   1      32.093  25.212  22.513  1.00  0.00    -0.034 A 
ATOM      9  C   UNL A   1      33.202  24.464  22.089  1.00  0.00     0.005 A 
ATOM     10  C   UNL A   1      31.068  24.544  23.195  1.00  0.00     0.005 A 
ATOM     11  C   UNL A   1      33.244  23.077  22.263  1.00  0.00     0.004 A 
ATOM     12  C   UNL A   1      31.116  23.161  23.379  1.00  0.00     0.004 A 
ATOM     13  C   UNL A   1      32.180  22.405  22.870  1.00  0.00    -0.048 A 
BRANCH  13  14
ATOM     14  C   UNL A   1      32.150  20.899  22.950  1.00  0.00     0.041 C 
BRANCH  14  15
ATOM     15  C   UNL A   1      32.323  20.239  24.339  1.00  0.00     0.022 C 
ATOM     16  C   UNL A   1      33.421  20.852  25.217  1.00  0.00     0.007 C 
ATOM     17  C   UNL A   1      32.661  18.745  24.378  1.00  0.00     0.117 C 
ATOM     18  C   UNL A   1      34.631  19.917  25.134  1.00  0.00     0.003 C 
ATOM     19  C   UNL A   1      34.182  18.686  24.355  1.00  0.00     0.032 C 
BRANCH  17  20
ATOM     20  O   UNL A   1      32.055  18.004  23.339  1.00  0.00    -0.393 OA
ATOM     21  H   UNL A   1      31.365  17.432  23.709  1.00  0.00     0.210 HD
ENDBRANCH  17  20
ENDBRANCH  14  15
ENDBRANCH  13  14
ENDBRANCH   6   8
ENDBRANCH   4   6
ENDBRANCH   3   4
ENDBRANCH   2   3
ENDBRANCH   1   2
BRANCH   1  22
ATOM     22  O   UNL A   1      31.491  30.501  25.552  1.00  0.00    -0.374 OA
BRANCH  22  23
ATOM     23  C   UNL A   1      31.748  31.171  26.782  1.00  0.00     0.202 C 
BRANCH  23  24
ATOM     24  C   UNL A   1      31.557  32.693  26.803  1.00  0.00     0.261 C 
BRANCH  24  25
ATOM     25  O   UNL A   1      32.798  33.410  26.726  1.00  0.00    -0.460 OA
BRANCH  25  26
ATOM     26  C   UNL A   1      33.273  33.820  27.926  1.00  0.00     0.338 C 
ATOM     27  O   UNL A   1      32.707  34.555  28.727  1.00  0.00    -0.246 OA
BRANCH  26  28
ATOM     28  C   UNL A   1      34.523  33.111  28.253  1.00  0.00     0.060 A 
ATOM     29  C   UNL A   1      34.410  31.783  28.684  1.00  0.00     0.016 A 
ATOM     30  C   UNL A   1      35.771  33.737  28.200  1.00  0.00     0.016 A 
ATOM     31  C   UNL A   1      35.536  31.091  29.116  1.00  0.00     0.010 A 
ATOM     32  C   UNL A   1      36.903  33.041  28.643  1.00  0.00     0.010 A 
ATOM     33  C   UNL A   1      36.784  31.728  29.136  1.00  0.00    -0.014 A 
BRANCH  33  34
ATOM     34  C   UNL A   1      37.919  31.069  29.829  1.00  0.00     0.031 A 
ATOM     35  C   UNL A   1      38.189  31.416  31.269  1.00  0.00     0.074 A 
ATOM     36  C   UNL A   1      38.660  30.136  29.204  1.00  0.00     0.049 A 
ATOM     37  N   UNL A   1      39.121  30.974  32.070  1.00  0.00    -0.248 NA
ATOM     38  C   UNL A   1      37.280  32.397  31.884  1.00  0.00     0.031 C 
ATOM     39  C   UNL A   1      38.455  29.680  27.830  1.00  0.00     0.029 A 
ATOM     40  N   UNL A   1      39.732  29.402  29.646  1.00  0.00    -0.354 N 
ATOM     41  C   UNL A   1      38.918  31.623  33.284  1.00  0.00     0.074 A 
ATOM     42  C   UNL A   1      37.794  32.516  33.098  1.00  0.00     0.031 C 
ATOM     43  C   UNL A   1      39.375  28.744  27.539  1.00  0.00     0.029 A 
ATOM     44  C   UNL A   1      40.258  28.564  28.692  1.00  0.00     0.049 A 
ATOM     45  H   UNL A   1      40.091  29.472  30.560  1.00  0.00     0.167 HD
ATOM     46  C   UNL A   1      39.601  31.480  34.447  1.00  0.00     0.034 A 
ATOM     47  C   UNL A   1      41.338  27.758  28.738  1.00  0.00     0.034 A 
ATOM     48  C   UNL A   1      40.724  30.589  34.611  1.00  0.00     0.049 A 
ATOM     49  C   UNL A   1      42.140  27.685  30.017  1.00  0.00     0.074 A 
ATOM     50  C   UNL A   1      41.478  30.352  35.748  1.00  0.00     0.029 A 
ATOM     51  N   UNL A   1      41.267  29.798  33.606  1.00  0.00    -0.354 N 
ATOM     52  N   UNL A   1      41.931  28.297  31.160  1.00  0.00    -0.248 NA
ATOM     53  C   UNL A   1      43.317  26.806  30.012  1.00  0.00     0.031 C 
ATOM     54  C   UNL A   1      42.518  29.480  35.410  1.00  0.00     0.029 A 
ATOM     55  C   UNL A   1      42.368  29.105  34.085  1.00  0.00     0.049 A 
ATOM     56  H   UNL A   1      40.920  29.740  32.686  1.00  0.00     0.167 HD
ATOM     57  C   UNL A   1      42.933  27.848  32.019  1.00  0.00     0.074 A 
ATOM     58  C   UNL A   1      43.734  26.907  31.265  1.00  0.00     0.031 C 
ATOM     59  C   UNL A   1      43.165  28.178  33.316  1.00  0.00     0.034 A 
BRANCH  46  60
ATOM     60  C   UNL A   1      39.184  32.350  35.609  1.00  0.00     0.023 A 
ATOM     61  C   UNL A   1      39.622  33.680  35.737  1.00  0.00     0.031 A 
ATOM     62  C   UNL A   1      38.355  31.830  36.619  1.00  0.00     0.131 A 
ATOM     63  C   UNL A   1      39.286  34.420  36.882  1.00  0.00     0.055 A 
ATOM     64  C   UNL A   1      37.961  32.597  37.716  1.00  0.00     0.041 A 
ATOM     65  F   UNL A   1      37.926  30.559  36.563  1.00  0.00    -0.206 F 
ATOM     66  C   UNL A   1      38.438  33.896  37.860  1.00  0.00     0.022 A 
BRANCH  63  67
ATOM     67  S   UNL A   1      40.086  36.027  37.144  1.00  0.00     0.124 S 
ATOM     68  O   UNL A   1      41.437  35.624  37.530  1.00  0.00    -0.237 OA
ATOM     69  O   UNL A   1      39.957  36.660  35.837  1.00  0.00    -0.237 OA
ATOM     70  O   UNL A   1      39.296  36.633  38.214  1.00  0.00    -0.744 OA
ENDBRANCH  63  67
ENDBRANCH  46  60
BRANCH  47  71
ATOM     71  C   UNL A   1      41.761  26.986  27.533  1.00  0.00     0.023 A 
ATOM     72  C   UNL A   1      41.558  25.600  27.450  1.00  0.00     0.031 A 
ATOM     73  C   UNL A   1      42.434  27.618  26.472  1.00  0.00     0.131 A 
ATOM     74  C   UNL A   1      42.063  24.884  26.353  1.00  0.00     0.055 A 
ATOM     75  C   UNL A   1      42.886  26.910  25.357  1.00  0.00     0.041 A 
ATOM     76  F   UNL A   1      42.658  28.942  26.502  1.00  0.00    -0.206 F 
ATOM     77  C   UNL A   1      42.714  25.532  25.300  1.00  0.00     0.022 A 
BRANCH  74  78
ATOM     78  S   UNL A   1      41.937  23.074  26.364  1.00  0.00     0.124 S 
ATOM     79  O   UNL A   1      42.691  22.731  27.564  1.00  0.00    -0.237 OA
ATOM     80  O   UNL A   1      40.494  22.871  26.432  1.00  0.00    -0.237 OA
ATOM     81  O   UNL A   1      42.560  22.682  25.101  1.00  0.00    -0.744 OA
ENDBRANCH  74  78
ENDBRANCH  47  71
BRANCH  59  82
ATOM     82  C   UNL A   1      44.306  27.475  34.011  1.00  0.00     0.023 A 
ATOM     83  C   UNL A   1      44.148  26.211  34.608  1.00  0.00     0.031 A 
ATOM     84  C   UNL A   1      45.572  28.085  34.083  1.00  0.00     0.131 A 
ATOM     85  C   UNL A   1      45.219  25.625  35.299  1.00  0.00     0.055 A 
ATOM     86  C   UNL A   1      46.651  27.468  34.719  1.00  0.00     0.041 A 
ATOM     87  F   UNL A   1      45.782  29.291  33.533  1.00  0.00    -0.206 F 
ATOM     88  C   UNL A   1      46.474  26.237  35.343  1.00  0.00     0.022 A 
BRANCH  85  89
ATOM     89  S   UNL A   1      44.925  24.090  36.222  1.00  0.00     0.124 S 
ATOM     90  O   UNL A   1      46.121  23.314  35.908  1.00  0.00    -0.237 OA
ATOM     91  O   UNL A   1      44.817  24.568  37.596  1.00  0.00    -0.237 OA
ATOM     92  O   UNL A   1      43.685  23.576  35.645  1.00  0.00    -0.744 OA
ENDBRANCH  85  89
ENDBRANCH  59  82
ENDBRANCH  33  34
ENDBRANCH  26  28
ENDBRANCH  25  26
ENDBRANCH  24  25
ENDBRANCH  23  24
ENDBRANCH  22  23
ENDBRANCH   1  22
TORSDOF 21
ENDMDL
MODEL 2
REMARK VINA RESULT:     -10.8      1.204      7.893
REMARK SMILES C[C@@H](C(=O)OCCOCCOC(=O)c1ccc(-c2c3nc(c(-c4cc(S(=O)(=O)[O-])ccc4F)c4ccc([nH]4)c(-c4cc(S(=O)(=O)[O-])ccc4F)c4nc(c(-c5cc(S(=O)(=O)[O-])ccc5F)c5ccc2[nH]5)C=C4)C=C3)cc1)c1ccc(C[C@@H]2CCC[C@@H]2O)cc1
REMARK SMILES IDX 7 1 6 2 5 3 3 4 4 5 2 6 1 7 77 8 78 9 89 10 79 11 88 12
REMARK SMILES IDX 80 13 81 14 82 15 83 16 86 17 84 18 85 19 87 20 8 22 9 23
REMARK SMILES IDX 10 24 11 25 12 26 13 27 14 28 15 29 76 30 16 31 75 32 17 33
REMARK SMILES IDX 18 34 19 35 69 36 20 37 74 38 68 39 70 40 21 41 73 42 67 43
REMARK SMILES IDX 66 44 22 46 54 47 34 48 53 49 35 50 38 51 52 52 71 53 36 54
REMARK SMILES IDX 37 55 51 57 72 58 39 59 23 60 24 61 32 62 25 63 31 64 33 65
REMARK SMILES IDX 30 66 26 67 27 68 28 69 29 70 55 71 56 72 64 73 57 74 63 75
REMARK SMILES IDX 65 76 62 77 58 78 59 79 60 80 61 81 40 82 41 83 49 84 42 85
REMARK SMILES IDX 48 86 50 87 47 88 43 89 44 90 45 91 46 92
REMARK H PARENT 87 21 70 45 38 56
REMARK Flexibility Score: inf
ROOT
ATOM      1  C   UNL A   1      31.983  28.737  25.342  1.00  0.00     0.202 C 
ENDROOT
BRANCH   1   2
ATOM      2  C   UNL A   1      32.426  28.312  23.938  1.00  0.00     0.261 C 
BRANCH   2   3
ATOM      3  O   UNL A   1      32.248  26.892  23.761  1.00  0.00    -0.463 OA
BRANCH   3   4
ATOM      4  C   UNL A   1      31.234  26.512  22.938  1.00  0.00     0.313 C 
ATOM      5  O   UNL A   1      31.105  26.902  21.782  1.00  0.00    -0.252 OA
BRANCH   4   6
ATOM      6  C   UNL A   1      30.263  25.525  23.608  1.00  0.00     0.126 C 
ATOM      7  C   UNL A   1      29.358  26.124  24.689  1.00  0.00     0.025 C 
BRANCH   6   8
ATOM      8  C   UNL A   1      31.031  24.299  24.096  1.00  0.00    -0.034 A 
ATOM      9  C   UNL A   1      31.243  24.039  25.459  1.00  0.00     0.005 A 
ATOM     10  C   UNL A   1      31.665  23.471  23.161  1.00  0.00     0.005 A 
ATOM     11  C   UNL A   1      32.129  23.040  25.872  1.00  0.00     0.004 A 
ATOM     12  C   UNL A   1      32.541  22.466  23.574  1.00  0.00     0.004 A 
ATOM     13  C   UNL A   1      32.822  22.272  24.932  1.00  0.00    -0.048 A 
BRANCH  13  14
ATOM     14  C   UNL A   1      33.876  21.280  25.358  1.00  0.00     0.041 C 
BRANCH  14  15
ATOM     15  C   UNL A   1      35.209  21.828  25.918  1.00  0.00     0.022 C 
ATOM     16  C   UNL A   1      35.434  23.331  25.708  1.00  0.00     0.007 C 
ATOM     17  C   UNL A   1      36.509  21.219  25.383  1.00  0.00     0.117 C 
ATOM     18  C   UNL A   1      36.402  23.475  24.531  1.00  0.00     0.003 C 
ATOM     19  C   UNL A   1      36.870  22.070  24.172  1.00  0.00     0.032 C 
BRANCH  17  20
ATOM     20  O   UNL A   1      36.405  19.841  25.089  1.00  0.00    -0.393 OA
ATOM     21  H   UNL A   1      36.489  19.708  24.132  1.00  0.00     0.210 HD
ENDBRANCH  17  20
ENDBRANCH  14  15
ENDBRANCH  13  14
ENDBRANCH   6   8
ENDBRANCH   4   6
ENDBRANCH   3   4
ENDBRANCH   2   3
ENDBRANCH   1   2
BRANCH   1  22
ATOM     22  O   UNL A   1      31.445  30.059  25.458  1.00  0.00    -0.374 OA
BRANCH  22  23
ATOM     23  C   UNL A   1      31.718  30.762  26.666  1.00  0.00     0.202 C 
BRANCH  23  24
ATOM     24  C   UNL A   1      31.501  32.281  26.655  1.00  0.00     0.261 C 
BRANCH  24  25
ATOM     25  O   UNL A   1      32.727  33.017  26.534  1.00  0.00    -0.460 OA
BRANCH  25  26
ATOM     26  C   UNL A   1      33.145  33.584  27.692  1.00  0.00     0.338 C 
ATOM     27  O   UNL A   1      32.533  34.399  28.372  1.00  0.00    -0.246 OA
BRANCH  26  28
ATOM     28  C   UNL A   1      34.394  32.951  28.151  1.00  0.00     0.060 A 
ATOM     29  C   UNL A   1      34.294  31.668  28.703  1.00  0.00     0.016 A 
ATOM     30  C   UNL A   1      35.626  33.609  28.103  1.00  0.00     0.016 A 
ATOM     31  C   UNL A   1      35.413  31.057  29.259  1.00  0.00     0.010 A 
ATOM     32  C   UNL A   1      36.750  32.996  28.671  1.00  0.00     0.010 A 
ATOM     33  C   UNL A   1      36.640  31.734  29.283  1.00  0.00    -0.014 A 
BRANCH  33  34
ATOM     34  C   UNL A   1      37.752  31.182  30.095  1.00  0.00     0.031 A 
ATOM     35  C   UNL A   1      38.674  30.170  29.468  1.00  0.00     0.074 A 
ATOM     36  C   UNL A   1      37.971  31.616  31.349  1.00  0.00     0.049 A 
ATOM     37  N   UNL A   1      39.703  29.551  29.984  1.00  0.00    -0.248 NA
ATOM     38  C   UNL A   1      38.393  29.812  28.069  1.00  0.00     0.031 C 
ATOM     39  C   UNL A   1      37.177  32.633  32.039  1.00  0.00     0.029 A 
ATOM     40  N   UNL A   1      38.929  31.259  32.265  1.00  0.00    -0.354 N 
ATOM     41  C   UNL A   1      40.192  28.725  28.977  1.00  0.00     0.074 A 
ATOM     42  C   UNL A   1      39.322  28.898  27.833  1.00  0.00     0.031 C 
ATOM     43  C   UNL A   1      37.680  32.815  33.272  1.00  0.00     0.029 A 
ATOM     44  C   UNL A   1      38.805  31.903  33.473  1.00  0.00     0.049 A 
ATOM     45  H   UNL A   1      39.637  30.603  32.074  1.00  0.00     0.167 HD
ATOM     46  C   UNL A   1      41.273  27.905  29.002  1.00  0.00     0.034 A 
ATOM     47  C   UNL A   1      39.507  31.757  34.615  1.00  0.00     0.034 A 
ATOM     48  C   UNL A   1      42.125  27.740  30.155  1.00  0.00     0.049 A 
ATOM     49  C   UNL A   1      40.649  30.769  34.649  1.00  0.00     0.074 A 
ATOM     50  C   UNL A   1      43.253  26.950  30.286  1.00  0.00     0.029 A 
ATOM     51  N   UNL A   1      41.934  28.364  31.382  1.00  0.00    -0.354 N 
ATOM     52  N   UNL A   1      41.108  30.001  33.686  1.00  0.00    -0.248 NA
ATOM     53  C   UNL A   1      41.373  30.635  35.921  1.00  0.00     0.031 C 
ATOM     54  C   UNL A   1      43.699  27.038  31.609  1.00  0.00     0.029 A 
ATOM     55  C   UNL A   1      42.899  27.945  32.285  1.00  0.00     0.049 A 
ATOM     56  H   UNL A   1      41.216  29.008  31.581  1.00  0.00     0.167 HD
ATOM     57  C   UNL A   1      42.195  29.318  34.231  1.00  0.00     0.074 A 
ATOM     58  C   UNL A   1      42.329  29.777  35.598  1.00  0.00     0.031 C 
ATOM     59  C   UNL A   1      43.013  28.403  33.651  1.00  0.00     0.034 A 
BRANCH  46  60
ATOM     60  C   UNL A   1      41.551  27.085  27.765  1.00  0.00     0.023 A 
ATOM     61  C   UNL A   1      41.232  25.718  27.691  1.00  0.00     0.031 A 
ATOM     62  C   UNL A   1      42.172  27.677  26.651  1.00  0.00     0.131 A 
ATOM     63  C   UNL A   1      41.595  24.975  26.557  1.00  0.00     0.055 A 
ATOM     64  C   UNL A   1      42.461  26.949  25.495  1.00  0.00     0.041 A 
ATOM     65  F   UNL A   1      42.522  28.973  26.673  1.00  0.00    -0.206 F 
ATOM     66  C   UNL A   1      42.185  25.586  25.449  1.00  0.00     0.022 A 
BRANCH  63  67
ATOM     67  S   UNL A   1      41.415  23.170  26.606  1.00  0.00     0.124 S 
ATOM     68  O   UNL A   1      42.307  22.756  25.525  1.00  0.00    -0.237 OA
ATOM     69  O   UNL A   1      41.856  22.846  27.958  1.00  0.00    -0.237 OA
ATOM     70  O   UNL A   1      39.993  22.960  26.344  1.00  0.00    -0.744 OA
ENDBRANCH  63  67
ENDBRANCH  46  60
BRANCH  47  71
ATOM     71  C   UNL A   1      39.135  32.527  35.838  1.00  0.00     0.023 A 
ATOM     72  C   UNL A   1      39.589  33.840  36.037  1.00  0.00     0.031 A 
ATOM     73  C   UNL A   1      38.369  31.933  36.858  1.00  0.00     0.131 A 
ATOM     74  C   UNL A   1      39.313  34.500  37.245  1.00  0.00     0.055 A 
ATOM     75  C   UNL A   1      38.050  32.613  38.034  1.00  0.00     0.041 A 
ATOM     76  F   UNL A   1      37.911  30.678  36.721  1.00  0.00    -0.206 F 
ATOM     77  C   UNL A   1      38.535  33.900  38.239  1.00  0.00     0.022 A 
BRANCH  74  78
ATOM     78  S   UNL A   1      40.063  36.126  37.539  1.00  0.00     0.124 S 
ATOM     79  O   UNL A   1      39.262  36.626  38.650  1.00  0.00    -0.237 OA
ATOM     80  O   UNL A   1      41.443  35.769  37.851  1.00  0.00    -0.237 OA
ATOM     81  O   UNL A   1      39.873  36.822  36.268  1.00  0.00    -0.744 OA
ENDBRANCH  74  78
ENDBRANCH  47  71
BRANCH  59  82
ATOM     82  C   UNL A   1      44.155  27.875  34.485  1.00  0.00     0.023 A 
ATOM     83  C   UNL A   1      44.066  26.656  35.181  1.00  0.00     0.031 A 
ATOM     84  C   UNL A   1      45.350  28.610  34.592  1.00  0.00     0.131 A 
ATOM     85  C   UNL A   1      45.129  26.237  35.996  1.00  0.00     0.055 A 
ATOM     86  C   UNL A   1      46.427  28.157  35.355  1.00  0.00     0.041 A 
ATOM     87  F   UNL A   1      45.491  29.782  33.951  1.00  0.00    -0.206 F 
ATOM     88  C   UNL A   1      46.315  26.971  36.073  1.00  0.00     0.022 A 
BRANCH  85  89
ATOM     89  S   UNL A   1      44.905  24.762  37.029  1.00  0.00     0.124 S 
ATOM     90  O   UNL A   1      46.269  24.255  37.133  1.00  0.00    -0.237 OA
ATOM     91  O   UNL A   1      44.338  25.321  38.251  1.00  0.00    -0.237 OA
ATOM     92  O   UNL A   1      43.993  23.930  36.246  1.00  0.00    -0.744 OA
ENDBRANCH  85  89
ENDBRANCH  59  82
ENDBRANCH  33  34
ENDBRANCH  26  28
ENDBRANCH  25  26
ENDBRANCH  24  25
ENDBRANCH  23  24
ENDBRANCH  22  23
ENDBRANCH   1  22
TORSDOF 21
ENDMDL
MODEL 3
REMARK VINA RESULT:     -10.5      1.667      7.745
REMARK SMILES C[C@@H](C(=O)OCCOCCOC(=O)c1ccc(-c2c3nc(c(-c4cc(S(=O)(=O)[O-])ccc4F)c4ccc([nH]4)c(-c4cc(S(=O)(=O)[O-])ccc4F)c4nc(c(-c5cc(S(=O)(=O)[O-])ccc5F)c5ccc2[nH]5)C=C4)C=C3)cc1)c1ccc(C[C@@H]2CCC[C@@H]2O)cc1
REMARK SMILES IDX 7 1 6 2 5 3 3 4 4 5 2 6 1 7 77 8 78 9 89 10 79 11 88 12
REMARK SMILES IDX 80 13 81 14 82 15 83 16 86 17 84 18 85 19 87 20 8 22 9 23
REMARK SMILES IDX 10 24 11 25 12 26 13 27 14 28 15 29 76 30 16 31 75 32 17 33
REMARK SMILES IDX 18 34 19 35 69 36 20 37 74 38 68 39 70 40 21 41 73 42 67 43
REMARK SMILES IDX 66 44 22 46 54 47 34 48 53 49 35 50 38 51 52 52 71 53 36 54
REMARK SMILES IDX 37 55 51 57 72 58 39 59 23 60 24 61 32 62 25 63 31 64 33 65
REMARK SMILES IDX 30 66 26 67 27 68 28 69 29 70 55 71 56 72 64 73 57 74 63 75
REMARK SMILES IDX 65 76 62 77 58 78 59 79 60 80 61 81 40 82 41 83 49 84 42 85
REMARK SMILES IDX 48 86 50 87 47 88 43 89 44 90 45 91 46 92
REMARK H PARENT 87 21 70 45 38 56
REMARK Flexibility Score: inf
ROOT
ATOM      1  C   UNL A   1      33.728  28.582  25.262  1.00  0.00     0.202 C 
ENDROOT
BRANCH   1   2
ATOM      2  C   UNL A   1      32.582  28.032  24.406  1.00  0.00     0.261 C 
BRANCH   2   3
ATOM      3  O   UNL A   1      32.409  26.620  24.641  1.00  0.00    -0.463 OA
BRANCH   3   4
ATOM      4  C   UNL A   1      31.798  25.917  23.650  1.00  0.00     0.313 C 
ATOM      5  O   UNL A   1      32.124  25.972  22.468  1.00  0.00    -0.252 OA
BRANCH   4   6
ATOM      6  C   UNL A   1      30.655  25.029  24.169  1.00  0.00     0.126 C 
ATOM      7  C   UNL A   1      29.998  25.497  25.472  1.00  0.00     0.025 C 
BRANCH   6   8
ATOM      8  C   UNL A   1      31.121  23.576  24.234  1.00  0.00    -0.034 A 
ATOM      9  C   UNL A   1      31.273  22.890  25.448  1.00  0.00     0.005 A 
ATOM     10  C   UNL A   1      31.541  22.939  23.059  1.00  0.00     0.005 A 
ATOM     11  C   UNL A   1      31.906  21.644  25.497  1.00  0.00     0.004 A 
ATOM     12  C   UNL A   1      32.162  21.690  23.107  1.00  0.00     0.004 A 
ATOM     13  C   UNL A   1      32.397  21.051  24.331  1.00  0.00    -0.048 A 
BRANCH  13  14
ATOM     14  C   UNL A   1      33.194  19.771  24.381  1.00  0.00     0.041 C 
BRANCH  14  15
ATOM     15  C   UNL A   1      32.422  18.436  24.502  1.00  0.00     0.022 C 
ATOM     16  C   UNL A   1      32.787  17.583  25.724  1.00  0.00     0.007 C 
ATOM     17  C   UNL A   1      32.547  17.435  23.348  1.00  0.00     0.117 C 
ATOM     18  C   UNL A   1      33.714  16.470  25.228  1.00  0.00     0.003 C 
ATOM     19  C   UNL A   1      33.749  16.571  23.708  1.00  0.00     0.032 C 
BRANCH  17  20
ATOM     20  O   UNL A   1      32.658  18.049  22.081  1.00  0.00    -0.393 OA
ATOM     21  H   UNL A   1      33.233  18.828  22.148  1.00  0.00     0.210 HD
ENDBRANCH  17  20
ENDBRANCH  14  15
ENDBRANCH  13  14
ENDBRANCH   6   8
ENDBRANCH   4   6
ENDBRANCH   3   4
ENDBRANCH   2   3
ENDBRANCH   1   2
BRANCH   1  22
ATOM     22  O   UNL A   1      33.510  29.865  25.857  1.00  0.00    -0.374 OA
BRANCH  22  23
ATOM     23  C   UNL A   1      32.158  30.292  25.991  1.00  0.00     0.202 C 
BRANCH  23  24
ATOM     24  C   UNL A   1      31.922  31.697  26.559  1.00  0.00     0.261 C 
BRANCH  24  25
ATOM     25  O   UNL A   1      32.612  31.919  27.798  1.00  0.00    -0.460 OA
BRANCH  25  26
ATOM     26  C   UNL A   1      33.570  32.875  27.732  1.00  0.00     0.338 C 
ATOM     27  O   UNL A   1      33.402  34.067  27.504  1.00  0.00    -0.246 OA
BRANCH  26  28
ATOM     28  C   UNL A   1      34.870  32.327  28.159  1.00  0.00     0.060 A 
ATOM     29  C   UNL A   1      34.883  31.011  28.635  1.00  0.00     0.016 A 
ATOM     30  C   UNL A   1      36.039  33.093  28.154  1.00  0.00     0.016 A 
ATOM     31  C   UNL A   1      36.052  30.469  29.159  1.00  0.00     0.010 A 
ATOM     32  C   UNL A   1      37.213  32.549  28.691  1.00  0.00     0.010 A 
ATOM     33  C   UNL A   1      37.215  31.248  29.228  1.00  0.00    -0.014 A 
BRANCH  33  34
ATOM     34  C   UNL A   1      38.372  30.749  30.012  1.00  0.00     0.031 A 
ATOM     35  C   UNL A   1      39.319  29.774  29.364  1.00  0.00     0.074 A 
ATOM     36  C   UNL A   1      38.606  31.200  31.257  1.00  0.00     0.049 A 
ATOM     37  N   UNL A   1      40.387  29.203  29.853  1.00  0.00    -0.248 NA
ATOM     38  C   UNL A   1      39.015  29.395  27.975  1.00  0.00     0.031 C 
ATOM     39  C   UNL A   1      37.789  32.185  31.964  1.00  0.00     0.029 A 
ATOM     40  N   UNL A   1      39.604  30.890  32.147  1.00  0.00    -0.354 N 
ATOM     41  C   UNL A   1      40.883  28.392  28.837  1.00  0.00     0.074 A 
ATOM     42  C   UNL A   1      39.975  28.521  27.717  1.00  0.00     0.031 C 
ATOM     43  C   UNL A   1      38.318  32.397  33.181  1.00  0.00     0.029 A 
ATOM     44  C   UNL A   1      39.486  31.535  33.355  1.00  0.00     0.049 A 
ATOM     45  H   UNL A   1      40.334  30.263  31.940  1.00  0.00     0.167 HD
ATOM     46  C   UNL A   1      41.999  27.620  28.836  1.00  0.00     0.034 A 
ATOM     47  C   UNL A   1      40.225  31.426  34.478  1.00  0.00     0.034 A 
ATOM     48  C   UNL A   1      42.888  27.499  29.965  1.00  0.00     0.049 A 
ATOM     49  C   UNL A   1      41.410  30.488  34.484  1.00  0.00     0.074 A 
ATOM     50  C   UNL A   1      44.053  26.759  30.069  1.00  0.00     0.029 A 
ATOM     51  N   UNL A   1      42.705  28.121  31.194  1.00  0.00    -0.354 N 
ATOM     52  N   UNL A   1      41.873  29.735  33.513  1.00  0.00    -0.248 NA
ATOM     53  C   UNL A   1      42.173  30.393  35.736  1.00  0.00     0.031 C 
ATOM     54  C   UNL A   1      44.531  26.874  31.379  1.00  0.00     0.029 A 
ATOM     55  C   UNL A   1      43.712  27.750  32.072  1.00  0.00     0.049 A 
ATOM     56  H   UNL A   1      41.966  28.735  31.410  1.00  0.00     0.167 HD
ATOM     57  C   UNL A   1      43.004  29.103  34.030  1.00  0.00     0.074 A 
ATOM     58  C   UNL A   1      43.156  29.575  35.391  1.00  0.00     0.031 C 
ATOM     59  C   UNL A   1      43.844  28.220  33.432  1.00  0.00     0.034 A 
BRANCH  46  60
ATOM     60  C   UNL A   1      42.277  26.805  27.596  1.00  0.00     0.023 A 
ATOM     61  C   UNL A   1      41.997  25.429  27.531  1.00  0.00     0.031 A 
ATOM     62  C   UNL A   1      42.859  27.412  26.469  1.00  0.00     0.131 A 
ATOM     63  C   UNL A   1      42.362  24.693  26.391  1.00  0.00     0.055 A 
ATOM     64  C   UNL A   1      43.147  26.690  25.309  1.00  0.00     0.041 A 
ATOM     65  F   UNL A   1      43.172  28.717  26.481  1.00  0.00    -0.206 F 
ATOM     66  C   UNL A   1      42.912  25.319  25.271  1.00  0.00     0.022 A 
BRANCH  63  67
ATOM     67  S   UNL A   1      42.236  22.884  26.448  1.00  0.00     0.124 S 
ATOM     68  O   UNL A   1      40.860  22.698  26.902  1.00  0.00    -0.237 OA
ATOM     69  O   UNL A   1      42.511  22.507  25.066  1.00  0.00    -0.237 OA
ATOM     70  O   UNL A   1      43.261  22.500  27.416  1.00  0.00    -0.744 OA
ENDBRANCH  63  67
ENDBRANCH  46  60
BRANCH  47  71
ATOM     71  C   UNL A   1      39.854  32.187  35.707  1.00  0.00     0.023 A 
ATOM     72  C   UNL A   1      38.958  31.656  36.647  1.00  0.00     0.031 A 
ATOM     73  C   UNL A   1      40.345  33.487  35.926  1.00  0.00     0.131 A 
ATOM     74  C   UNL A   1      38.544  32.438  37.738  1.00  0.00     0.055 A 
ATOM     75  C   UNL A   1      39.974  34.239  37.041  1.00  0.00     0.041 A 
ATOM     76  F   UNL A   1      41.204  34.044  35.056  1.00  0.00    -0.206 F 
ATOM     77  C   UNL A   1      39.057  33.721  37.948  1.00  0.00     0.022 A 
BRANCH  74  78
ATOM     78  S   UNL A   1      37.252  31.787  38.834  1.00  0.00     0.124 S 
ATOM     79  O   UNL A   1      37.129  30.413  38.364  1.00  0.00    -0.237 OA
ATOM     80  O   UNL A   1      37.855  31.965  40.150  1.00  0.00    -0.237 OA
ATOM     81  O   UNL A   1      36.105  32.648  38.554  1.00  0.00    -0.744 OA
ENDBRANCH  74  78
ENDBRANCH  47  71
BRANCH  59  82
ATOM     82  C   UNL A   1      45.031  27.747  34.236  1.00  0.00     0.023 A 
ATOM     83  C   UNL A   1      44.970  26.597  35.044  1.00  0.00     0.031 A 
ATOM     84  C   UNL A   1      46.240  28.465  34.200  1.00  0.00     0.131 A 
ATOM     85  C   UNL A   1      46.078  26.232  35.825  1.00  0.00     0.055 A 
ATOM     86  C   UNL A   1      47.358  28.061  34.931  1.00  0.00     0.041 A 
ATOM     87  F   UNL A   1      46.356  29.571  33.447  1.00  0.00    -0.206 F 
ATOM     88  C   UNL A   1      47.276  26.946  35.759  1.00  0.00     0.022 A 
BRANCH  85  89
ATOM     89  S   UNL A   1      45.901  24.861  37.000  1.00  0.00     0.124 S 
ATOM     90  O   UNL A   1      46.397  23.730  36.224  1.00  0.00    -0.237 OA
ATOM     91  O   UNL A   1      46.744  25.291  38.111  1.00  0.00    -0.237 OA
ATOM     92  O   UNL A   1      44.467  24.836  37.284  1.00  0.00    -0.744 OA
ENDBRANCH  85  89
ENDBRANCH  59  82
ENDBRANCH  33  34
ENDBRANCH  26  28
ENDBRANCH  25  26
ENDBRANCH  24  25
ENDBRANCH  23  24
ENDBRANCH  22  23
ENDBRANCH   1  22
TORSDOF 21
ENDMDL
