MODEL 1
REMARK VINA RESULT:     -10.3      0.000      0.000
REMARK SMILES O=C(Cn1cccc1C(=O)NCCC1CCCCC1)OCCOCCOC(=O)c1ccc(-c2c3nc(c(-c4cc(S(=O)(=O)[O-])ccc4F)c4ccc([nH]4)c(-c4cc(S(=O)(=O)[O-])ccc4F)c4nc(c(-c5cc(S(=O)(=O)[O-])ccc5F)c5ccc2[nH]5)C=C4)C=C3)cc1
REMARK SMILES IDX 22 1 21 2 20 3 2 4 1 5 3 6 4 7 5 8 8 9 6 10 7 11 9 12 10 13
REMARK SMILES IDX 11 14 12 16 13 17 14 18 15 19 19 20 16 21 18 22 17 23 23 24
REMARK SMILES IDX 24 25 25 26 26 27 27 28 28 29 29 30 30 31 91 32 31 33 90 34
REMARK SMILES IDX 32 35 33 36 34 37 84 38 35 39 89 40 83 41 85 42 36 43 88 44
REMARK SMILES IDX 82 45 81 46 37 48 69 49 49 50 68 51 50 52 53 53 67 54 86 55
REMARK SMILES IDX 51 56 52 57 66 59 87 60 54 61 38 62 39 63 47 64 40 65 46 66
REMARK SMILES IDX 48 67 45 68 41 69 42 70 43 71 44 72 70 73 71 74 79 75 72 76
REMARK SMILES IDX 78 77 80 78 77 79 73 80 74 81 75 82 76 83 55 84 56 85 64 86
REMARK SMILES IDX 57 87 63 88 65 89 62 90 58 91 59 92 60 93 61 94
REMARK H PARENT 11 15 85 47 53 58
REMARK Flexibility Score: inf
ROOT
ATOM      1  C   UNL A   1      32.841  29.538  24.859  1.00  0.00     0.202 C 
ENDROOT
BRANCH   1   2
ATOM      2  C   UNL A   1      31.351  29.361  25.078  1.00  0.00     0.261 C 
BRANCH   2   3
ATOM      3  O   UNL A   1      30.564  29.656  23.913  1.00  0.00    -0.462 OA
BRANCH   3   4
ATOM      4  C   UNL A   1      29.953  28.711  23.162  1.00  0.00     0.326 C 
ATOM      5  O   UNL A   1      29.363  29.074  22.139  1.00  0.00    -0.250 OA
BRANCH   4   6
ATOM      6  C   UNL A   1      29.989  27.231  23.519  1.00  0.00     0.244 C 
BRANCH   6   7
ATOM      7  N   UNL A   1      30.981  26.420  22.832  1.00  0.00    -0.332 N 
ATOM      8  C   UNL A   1      31.517  26.824  21.629  1.00  0.00     0.087 A 
ATOM      9  C   UNL A   1      31.587  25.243  23.249  1.00  0.00     0.107 A 
ATOM     10  C   UNL A   1      32.569  25.996  21.332  1.00  0.00     0.020 A 
ATOM     11  C   UNL A   1      32.621  25.017  22.346  1.00  0.00     0.033 A 
BRANCH   9  12
ATOM     12  C   UNL A   1      31.426  24.530  24.507  1.00  0.00     0.267 C 
ATOM     13  O   UNL A   1      30.634  23.598  24.613  1.00  0.00    -0.268 OA
ATOM     14  N   UNL A   1      32.159  24.985  25.588  1.00  0.00    -0.351 N 
ATOM     15  H   UNL A   1      32.522  25.900  25.608  1.00  0.00     0.163 HD
BRANCH  14  16
ATOM     16  C   UNL A   1      32.374  24.068  26.690  1.00  0.00     0.116 C 
BRANCH  16  17
ATOM     17  C   UNL A   1      33.315  22.900  26.392  1.00  0.00     0.025 C 
BRANCH  17  18
ATOM     18  C   UNL A   1      34.586  23.283  25.585  1.00  0.00    -0.009 C 
ATOM     19  C   UNL A   1      35.898  23.209  26.378  1.00  0.00     0.003 C 
ATOM     20  C   UNL A   1      34.704  22.441  24.296  1.00  0.00     0.003 C 
ATOM     21  C   UNL A   1      37.075  23.670  25.541  1.00  0.00     0.000 C 
ATOM     22  C   UNL A   1      35.925  22.824  23.464  1.00  0.00     0.000 C 
ATOM     23  C   UNL A   1      37.193  22.827  24.291  1.00  0.00     0.000 C 
ENDBRANCH  17  18
ENDBRANCH  16  17
ENDBRANCH  14  16
ENDBRANCH   9  12
ENDBRANCH   6   7
ENDBRANCH   4   6
ENDBRANCH   3   4
ENDBRANCH   2   3
ENDBRANCH   1   2
BRANCH   1  24
ATOM     24  O   UNL A   1      33.604  28.606  25.623  1.00  0.00    -0.374 OA
BRANCH  24  25
ATOM     25  C   UNL A   1      33.926  29.010  26.955  1.00  0.00     0.202 C 
BRANCH  25  26
ATOM     26  C   UNL A   1      35.412  29.214  27.139  1.00  0.00     0.261 C 
BRANCH  26  27
ATOM     27  O   UNL A   1      35.679  29.670  28.466  1.00  0.00    -0.460 OA
BRANCH  27  28
ATOM     28  C   UNL A   1      36.814  30.402  28.523  1.00  0.00     0.338 C 
ATOM     29  O   UNL A   1      36.966  31.559  28.196  1.00  0.00    -0.246 OA
BRANCH  28  30
ATOM     30  C   UNL A   1      37.949  29.549  28.833  1.00  0.00     0.060 A 
ATOM     31  C   UNL A   1      39.042  29.656  27.970  1.00  0.00     0.016 A 
ATOM     32  C   UNL A   1      37.850  28.560  29.822  1.00  0.00     0.016 A 
ATOM     33  C   UNL A   1      40.039  28.719  28.066  1.00  0.00     0.010 A 
ATOM     34  C   UNL A   1      38.842  27.613  29.915  1.00  0.00     0.010 A 
ATOM     35  C   UNL A   1      39.931  27.715  29.044  1.00  0.00    -0.014 A 
BRANCH  35  36
ATOM     36  C   UNL A   1      41.194  27.094  29.435  1.00  0.00     0.031 A 
ATOM     37  C   UNL A   1      41.322  25.787  28.581  1.00  0.00     0.074 A 
ATOM     38  C   UNL A   1      41.895  27.734  30.425  1.00  0.00     0.049 A 
ATOM     39  N   UNL A   1      41.987  24.701  28.797  1.00  0.00    -0.248 NA
ATOM     40  C   UNL A   1      40.523  25.632  27.307  1.00  0.00     0.031 C 
ATOM     41  C   UNL A   1      41.593  29.076  30.966  1.00  0.00     0.029 A 
ATOM     42  N   UNL A   1      43.011  27.439  31.167  1.00  0.00    -0.354 N 
ATOM     43  C   UNL A   1      41.987  23.979  27.579  1.00  0.00     0.074 A 
ATOM     44  C   UNL A   1      40.892  24.454  26.811  1.00  0.00     0.031 C 
ATOM     45  C   UNL A   1      42.351  29.392  32.046  1.00  0.00     0.029 A 
ATOM     46  C   UNL A   1      43.345  28.356  32.225  1.00  0.00     0.049 A 
ATOM     47  H   UNL A   1      43.556  26.638  30.986  1.00  0.00     0.167 HD
ATOM     48  C   UNL A   1      43.065  23.255  27.162  1.00  0.00     0.034 A 
ATOM     49  C   UNL A   1      44.388  28.277  33.121  1.00  0.00     0.034 A 
ATOM     50  C   UNL A   1      44.064  23.297  28.179  1.00  0.00     0.049 A 
ATOM     51  C   UNL A   1      45.276  27.341  32.413  1.00  0.00     0.074 A 
ATOM     52  C   UNL A   1      44.048  22.815  29.462  1.00  0.00     0.029 A 
ATOM     53  N   UNL A   1      45.005  24.301  28.074  1.00  0.00    -0.354 N 
ATOM     54  N   UNL A   1      45.907  27.634  31.315  1.00  0.00    -0.248 NA
ATOM     55  C   UNL A   1      45.379  25.958  32.883  1.00  0.00     0.031 C 
ATOM     56  C   UNL A   1      44.528  23.920  30.188  1.00  0.00     0.029 A 
ATOM     57  C   UNL A   1      45.170  24.824  29.330  1.00  0.00     0.049 A 
ATOM     58  H   UNL A   1      45.468  24.588  27.254  1.00  0.00     0.167 HD
ATOM     59  C   UNL A   1      46.153  26.399  30.781  1.00  0.00     0.074 A 
ATOM     60  C   UNL A   1      46.132  25.468  31.900  1.00  0.00     0.031 C 
ATOM     61  C   UNL A   1      45.766  26.132  29.501  1.00  0.00     0.034 A 
BRANCH  48  62
ATOM     62  C   UNL A   1      43.485  22.743  25.815  1.00  0.00     0.023 A 
ATOM     63  C   UNL A   1      43.654  21.342  25.741  1.00  0.00     0.031 A 
ATOM     64  C   UNL A   1      44.045  23.500  24.778  1.00  0.00     0.131 A 
ATOM     65  C   UNL A   1      44.485  20.760  24.782  1.00  0.00     0.055 A 
ATOM     66  C   UNL A   1      44.810  22.903  23.764  1.00  0.00     0.041 A 
ATOM     67  F   UNL A   1      43.962  24.838  24.751  1.00  0.00    -0.206 F 
ATOM     68  C   UNL A   1      45.070  21.534  23.787  1.00  0.00     0.022 A 
BRANCH  65  69
ATOM     69  S   UNL A   1      44.931  19.018  25.009  1.00  0.00     0.124 S 
ATOM     70  O   UNL A   1      46.131  19.114  25.832  1.00  0.00    -0.237 OA
ATOM     71  O   UNL A   1      43.744  18.487  25.673  1.00  0.00    -0.237 OA
ATOM     72  O   UNL A   1      45.145  18.543  23.644  1.00  0.00    -0.744 OA
ENDBRANCH  65  69
ENDBRANCH  48  62
BRANCH  49  73
ATOM     73  C   UNL A   1      44.970  28.815  34.438  1.00  0.00     0.023 A 
ATOM     74  C   UNL A   1      44.810  28.311  35.746  1.00  0.00     0.031 A 
ATOM     75  C   UNL A   1      45.953  29.860  34.341  1.00  0.00     0.131 A 
ATOM     76  C   UNL A   1      45.661  28.776  36.808  1.00  0.00     0.055 A 
ATOM     77  C   UNL A   1      46.849  30.221  35.345  1.00  0.00     0.041 A 
ATOM     78  F   UNL A   1      46.111  30.593  33.231  1.00  0.00    -0.206 F 
ATOM     79  C   UNL A   1      46.719  29.663  36.588  1.00  0.00     0.022 A 
BRANCH  76  80
ATOM     80  S   UNL A   1      45.453  28.236  38.540  1.00  0.00     0.124 S 
ATOM     81  O   UNL A   1      44.382  27.251  38.423  1.00  0.00    -0.237 OA
ATOM     82  O   UNL A   1      46.772  27.717  38.882  1.00  0.00    -0.237 OA
ATOM     83  O   UNL A   1      45.080  29.467  39.240  1.00  0.00    -0.744 OA
ENDBRANCH  76  80
ENDBRANCH  49  73
BRANCH  61  84
ATOM     84  C   UNL A   1      45.658  27.337  28.555  1.00  0.00     0.023 A 
ATOM     85  C   UNL A   1      45.089  28.545  29.013  1.00  0.00     0.031 A 
ATOM     86  C   UNL A   1      46.036  27.332  27.198  1.00  0.00     0.131 A 
ATOM     87  C   UNL A   1      44.885  29.643  28.148  1.00  0.00     0.055 A 
ATOM     88  C   UNL A   1      45.816  28.415  26.327  1.00  0.00     0.041 A 
ATOM     89  F   UNL A   1      46.654  26.280  26.660  1.00  0.00    -0.206 F 
ATOM     90  C   UNL A   1      45.235  29.581  26.801  1.00  0.00     0.022 A 
BRANCH  87  91
ATOM     91  S   UNL A   1      44.201  31.185  28.819  1.00  0.00     0.124 S 
ATOM     92  O   UNL A   1      44.678  31.177  30.196  1.00  0.00    -0.237 OA
ATOM     93  O   UNL A   1      44.786  32.195  27.942  1.00  0.00    -0.237 OA
ATOM     94  O   UNL A   1      42.755  31.012  28.667  1.00  0.00    -0.744 OA
ENDBRANCH  87  91
ENDBRANCH  61  84
ENDBRANCH  35  36
ENDBRANCH  28  30
ENDBRANCH  27  28
ENDBRANCH  26  27
ENDBRANCH  25  26
ENDBRANCH  24  25
ENDBRANCH   1  24
TORSDOF 22
ENDMDL
MODEL 2
REMARK VINA RESULT:      -9.8      4.374      9.785
REMARK SMILES O=C(Cn1cccc1C(=O)NCCC1CCCCC1)OCCOCCOC(=O)c1ccc(-c2c3nc(c(-c4cc(S(=O)(=O)[O-])ccc4F)c4ccc([nH]4)c(-c4cc(S(=O)(=O)[O-])ccc4F)c4nc(c(-c5cc(S(=O)(=O)[O-])ccc5F)c5ccc2[nH]5)C=C4)C=C3)cc1
REMARK SMILES IDX 22 1 21 2 20 3 2 4 1 5 3 6 4 7 5 8 8 9 6 10 7 11 9 12 10 13
REMARK SMILES IDX 11 14 12 16 13 17 14 18 15 19 19 20 16 21 18 22 17 23 23 24
REMARK SMILES IDX 24 25 25 26 26 27 27 28 28 29 29 30 30 31 91 32 31 33 90 34
REMARK SMILES IDX 32 35 33 36 34 37 84 38 35 39 89 40 83 41 85 42 36 43 88 44
REMARK SMILES IDX 82 45 81 46 37 48 69 49 49 50 68 51 50 52 53 53 67 54 86 55
REMARK SMILES IDX 51 56 52 57 66 59 87 60 54 61 38 62 39 63 47 64 40 65 46 66
REMARK SMILES IDX 48 67 45 68 41 69 42 70 43 71 44 72 70 73 71 74 79 75 72 76
REMARK SMILES IDX 78 77 80 78 77 79 73 80 74 81 75 82 76 83 55 84 56 85 64 86
REMARK SMILES IDX 57 87 63 88 65 89 62 90 58 91 59 92 60 93 61 94
REMARK H PARENT 11 15 85 47 53 58
REMARK Flexibility Score: inf
ROOT
ATOM      1  C   UNL A   1      36.546  22.989  25.078  1.00  0.00     0.202 C 
ENDROOT
BRANCH   1   2
ATOM      2  C   UNL A   1      35.145  22.413  25.167  1.00  0.00     0.261 C 
BRANCH   2   3
ATOM      3  O   UNL A   1      34.429  22.837  26.338  1.00  0.00    -0.462 OA
BRANCH   3   4
ATOM      4  C   UNL A   1      33.106  23.124  26.346  1.00  0.00     0.326 C 
ATOM      5  O   UNL A   1      32.757  24.248  26.721  1.00  0.00    -0.250 OA
BRANCH   4   6
ATOM      6  C   UNL A   1      32.050  22.126  25.889  1.00  0.00     0.244 C 
BRANCH   6   7
ATOM      7  N   UNL A   1      32.132  21.679  24.508  1.00  0.00    -0.332 N 
ATOM      8  C   UNL A   1      32.380  20.359  24.202  1.00  0.00     0.087 A 
ATOM      9  C   UNL A   1      31.912  22.401  23.342  1.00  0.00     0.107 A 
ATOM     10  C   UNL A   1      32.181  20.188  22.856  1.00  0.00     0.020 A 
ATOM     11  C   UNL A   1      31.878  21.457  22.321  1.00  0.00     0.033 A 
BRANCH   9  12
ATOM     12  C   UNL A   1      31.495  23.787  23.193  1.00  0.00     0.267 C 
ATOM     13  O   UNL A   1      30.309  24.085  23.076  1.00  0.00    -0.268 OA
ATOM     14  N   UNL A   1      32.492  24.743  23.132  1.00  0.00    -0.351 N 
ATOM     15  H   UNL A   1      33.415  24.500  22.890  1.00  0.00     0.163 HD
BRANCH  14  16
ATOM     16  C   UNL A   1      32.131  26.114  23.435  1.00  0.00     0.116 C 
BRANCH  16  17
ATOM     17  C   UNL A   1      33.275  26.991  23.943  1.00  0.00     0.025 C 
BRANCH  17  18
ATOM     18  C   UNL A   1      32.919  27.872  25.172  1.00  0.00    -0.009 C 
ATOM     19  C   UNL A   1      34.071  28.090  26.163  1.00  0.00     0.003 C 
ATOM     20  C   UNL A   1      32.339  29.235  24.734  1.00  0.00     0.003 C 
ATOM     21  C   UNL A   1      33.618  28.892  27.367  1.00  0.00     0.000 C 
ATOM     22  C   UNL A   1      31.944  30.106  25.924  1.00  0.00     0.000 C 
ATOM     23  C   UNL A   1      33.070  30.233  26.928  1.00  0.00     0.000 C 
ENDBRANCH  17  18
ENDBRANCH  16  17
ENDBRANCH  14  16
ENDBRANCH   9  12
ENDBRANCH   6   7
ENDBRANCH   4   6
ENDBRANCH   3   4
ENDBRANCH   2   3
ENDBRANCH   1   2
BRANCH   1  24
ATOM     24  O   UNL A   1      37.532  21.966  24.950  1.00  0.00    -0.374 OA
BRANCH  24  25
ATOM     25  C   UNL A   1      38.688  22.110  25.777  1.00  0.00     0.202 C 
BRANCH  25  26
ATOM     26  C   UNL A   1      38.506  23.193  26.815  1.00  0.00     0.261 C 
BRANCH  26  27
ATOM     27  O   UNL A   1      39.384  24.286  26.537  1.00  0.00    -0.460 OA
BRANCH  27  28
ATOM     28  C   UNL A   1      40.237  24.513  27.560  1.00  0.00     0.338 C 
ATOM     29  O   UNL A   1      40.789  23.693  28.260  1.00  0.00    -0.246 OA
BRANCH  28  30
ATOM     30  C   UNL A   1      40.262  25.928  27.890  1.00  0.00     0.060 A 
ATOM     31  C   UNL A   1      40.064  26.239  29.238  1.00  0.00     0.016 A 
ATOM     32  C   UNL A   1      40.293  26.898  26.878  1.00  0.00     0.016 A 
ATOM     33  C   UNL A   1      39.841  27.550  29.575  1.00  0.00     0.010 A 
ATOM     34  C   UNL A   1      40.060  28.212  27.211  1.00  0.00     0.010 A 
ATOM     35  C   UNL A   1      39.851  28.521  28.559  1.00  0.00    -0.014 A 
BRANCH  35  36
ATOM     36  C   UNL A   1      40.121  29.884  29.008  1.00  0.00     0.031 A 
ATOM     37  C   UNL A   1      38.728  30.590  29.125  1.00  0.00     0.074 A 
ATOM     38  C   UNL A   1      41.444  30.214  29.163  1.00  0.00     0.049 A 
ATOM     39  N   UNL A   1      38.410  31.841  29.076  1.00  0.00    -0.248 NA
ATOM     40  C   UNL A   1      37.467  29.765  29.246  1.00  0.00     0.031 C 
ATOM     41  C   UNL A   1      42.579  29.268  29.118  1.00  0.00     0.029 A 
ATOM     42  N   UNL A   1      42.129  31.375  29.418  1.00  0.00    -0.354 N 
ATOM     43  C   UNL A   1      37.073  31.936  29.531  1.00  0.00     0.074 A 
ATOM     44  C   UNL A   1      36.485  30.654  29.371  1.00  0.00     0.031 C 
ATOM     45  C   UNL A   1      43.785  29.889  29.141  1.00  0.00     0.029 A 
ATOM     46  C   UNL A   1      43.566  31.301  29.370  1.00  0.00     0.049 A 
ATOM     47  H   UNL A   1      41.661  32.217  29.623  1.00  0.00     0.167 HD
ATOM     48  C   UNL A   1      36.632  32.982  30.286  1.00  0.00     0.034 A 
ATOM     49  C   UNL A   1      44.476  32.318  29.563  1.00  0.00     0.034 A 
ATOM     50  C   UNL A   1      37.693  33.927  30.420  1.00  0.00     0.049 A 
ATOM     51  C   UNL A   1      43.637  33.294  30.275  1.00  0.00     0.074 A 
ATOM     52  C   UNL A   1      38.334  34.684  29.474  1.00  0.00     0.029 A 
ATOM     53  N   UNL A   1      38.505  33.785  31.527  1.00  0.00    -0.354 N 
ATOM     54  N   UNL A   1      43.193  33.119  31.485  1.00  0.00    -0.248 NA
ATOM     55  C   UNL A   1      43.161  34.483  29.564  1.00  0.00     0.031 C 
ATOM     56  C   UNL A   1      39.684  34.461  29.797  1.00  0.00     0.029 A 
ATOM     57  C   UNL A   1      39.796  33.947  31.096  1.00  0.00     0.049 A 
ATOM     58  H   UNL A   1      38.213  33.602  32.449  1.00  0.00     0.167 HD
ATOM     59  C   UNL A   1      42.113  33.957  31.524  1.00  0.00     0.074 A 
ATOM     60  C   UNL A   1      42.356  34.970  30.506  1.00  0.00     0.031 C 
ATOM     61  C   UNL A   1      40.898  33.468  31.903  1.00  0.00     0.034 A 
BRANCH  48  62
ATOM     62  C   UNL A   1      35.450  33.152  31.195  1.00  0.00     0.023 A 
ATOM     63  C   UNL A   1      34.622  34.254  30.888  1.00  0.00     0.031 A 
ATOM     64  C   UNL A   1      35.291  32.579  32.464  1.00  0.00     0.131 A 
ATOM     65  C   UNL A   1      33.813  34.849  31.859  1.00  0.00     0.055 A 
ATOM     66  C   UNL A   1      34.413  33.127  33.411  1.00  0.00     0.041 A 
ATOM     67  F   UNL A   1      36.033  31.540  32.872  1.00  0.00    -0.206 F 
ATOM     68  C   UNL A   1      33.702  34.292  33.127  1.00  0.00     0.022 A 
BRANCH  65  69
ATOM     69  S   UNL A   1      33.092  36.466  31.471  1.00  0.00     0.124 S 
ATOM     70  O   UNL A   1      32.991  36.415  30.016  1.00  0.00    -0.237 OA
ATOM     71  O   UNL A   1      31.828  36.416  32.199  1.00  0.00    -0.237 OA
ATOM     72  O   UNL A   1      34.076  37.409  31.996  1.00  0.00    -0.744 OA
ENDBRANCH  65  69
ENDBRANCH  48  62
BRANCH  49  73
ATOM     73  C   UNL A   1      45.941  32.753  29.400  1.00  0.00     0.023 A 
ATOM     74  C   UNL A   1      46.638  33.090  28.221  1.00  0.00     0.031 A 
ATOM     75  C   UNL A   1      46.676  33.036  30.603  1.00  0.00     0.131 A 
ATOM     76  C   UNL A   1      47.914  33.747  28.299  1.00  0.00     0.055 A 
ATOM     77  C   UNL A   1      47.855  33.776  30.673  1.00  0.00     0.041 A 
ATOM     78  F   UNL A   1      46.269  32.615  31.807  1.00  0.00    -0.206 F 
ATOM     79  C   UNL A   1      48.475  34.155  29.514  1.00  0.00     0.022 A 
BRANCH  76  80
ATOM     80  S   UNL A   1      48.912  34.131  26.819  1.00  0.00     0.124 S 
ATOM     81  O   UNL A   1      49.481  35.430  27.166  1.00  0.00    -0.237 OA
ATOM     82  O   UNL A   1      49.848  33.014  26.757  1.00  0.00    -0.237 OA
ATOM     83  O   UNL A   1      47.925  34.162  25.738  1.00  0.00    -0.744 OA
ENDBRANCH  76  80
ENDBRANCH  49  73
BRANCH  61  84
ATOM     84  C   UNL A   1      40.914  32.241  32.826  1.00  0.00     0.023 A 
ATOM     85  C   UNL A   1      41.823  31.188  32.586  1.00  0.00     0.031 A 
ATOM     86  C   UNL A   1      40.028  32.030  33.902  1.00  0.00     0.131 A 
ATOM     87  C   UNL A   1      41.804  30.002  33.352  1.00  0.00     0.055 A 
ATOM     88  C   UNL A   1      39.992  30.843  34.655  1.00  0.00     0.041 A 
ATOM     89  F   UNL A   1      39.170  32.978  34.282  1.00  0.00    -0.206 F 
ATOM     90  C   UNL A   1      40.883  29.818  34.381  1.00  0.00     0.022 A 
BRANCH  87  91
ATOM     91  S   UNL A   1      43.041  28.714  33.024  1.00  0.00     0.124 S 
ATOM     92  O   UNL A   1      42.345  27.828  32.099  1.00  0.00    -0.237 OA
ATOM     93  O   UNL A   1      44.151  29.481  32.467  1.00  0.00    -0.237 OA
ATOM     94  O   UNL A   1      43.299  28.144  34.347  1.00  0.00    -0.744 OA
ENDBRANCH  87  91
ENDBRANCH  61  84
ENDBRANCH  35  36
ENDBRANCH  28  30
ENDBRANCH  27  28
ENDBRANCH  26  27
ENDBRANCH  25  26
ENDBRANCH  24  25
ENDBRANCH   1  24
TORSDOF 22
ENDMDL
MODEL 3
REMARK VINA RESULT:      -9.7      4.762      6.490
REMARK SMILES O=C(Cn1cccc1C(=O)NCCC1CCCCC1)OCCOCCOC(=O)c1ccc(-c2c3nc(c(-c4cc(S(=O)(=O)[O-])ccc4F)c4ccc([nH]4)c(-c4cc(S(=O)(=O)[O-])ccc4F)c4nc(c(-c5cc(S(=O)(=O)[O-])ccc5F)c5ccc2[nH]5)C=C4)C=C3)cc1
REMARK SMILES IDX 22 1 21 2 20 3 2 4 1 5 3 6 4 7 5 8 8 9 6 10 7 11 9 12 10 13
REMARK SMILES IDX 11 14 12 16 13 17 14 18 15 19 19 20 16 21 18 22 17 23 23 24
REMARK SMILES IDX 24 25 25 26 26 27 27 28 28 29 29 30 30 31 91 32 31 33 90 34
REMARK SMILES IDX 32 35 33 36 34 37 84 38 35 39 89 40 83 41 85 42 36 43 88 44
REMARK SMILES IDX 82 45 81 46 37 48 69 49 49 50 68 51 50 52 53 53 67 54 86 55
REMARK SMILES IDX 51 56 52 57 66 59 87 60 54 61 38 62 39 63 47 64 40 65 46 66
REMARK SMILES IDX 48 67 45 68 41 69 42 70 43 71 44 72 70 73 71 74 79 75 72 76
REMARK SMILES IDX 78 77 80 78 77 79 73 80 74 81 75 82 76 83 55 84 56 85 64 86
REMARK SMILES IDX 57 87 63 88 65 89 62 90 58 91 59 92 60 93 61 94
REMARK H PARENT 11 15 85 47 53 58
REMARK Flexibility Score: inf
ROOT
ATOM      1  C   UNL A   1      34.514  30.483  27.402  1.00  0.00     0.202 C 
ENDROOT
BRANCH   1   2
ATOM      2  C   UNL A   1      34.824  29.081  26.913  1.00  0.00     0.261 C 
BRANCH   2   3
ATOM      3  O   UNL A   1      33.680  28.211  26.916  1.00  0.00    -0.462 OA
BRANCH   3   4
ATOM      4  C   UNL A   1      33.085  27.750  25.791  1.00  0.00     0.326 C 
ATOM      5  O   UNL A   1      33.807  27.432  24.841  1.00  0.00    -0.250 OA
BRANCH   4   6
ATOM      6  C   UNL A   1      31.576  27.591  25.670  1.00  0.00     0.244 C 
BRANCH   6   7
ATOM      7  N   UNL A   1      30.978  27.995  24.407  1.00  0.00    -0.332 N 
ATOM      8  C   UNL A   1      30.546  29.288  24.208  1.00  0.00     0.087 A 
ATOM      9  C   UNL A   1      30.823  27.259  23.240  1.00  0.00     0.107 A 
ATOM     10  C   UNL A   1      30.243  29.436  22.878  1.00  0.00     0.020 A 
ATOM     11  C   UNL A   1      30.426  28.176  22.272  1.00  0.00     0.033 A 
BRANCH   9  12
ATOM     12  C   UNL A   1      31.257  25.900  22.954  1.00  0.00     0.267 C 
ATOM     13  O   UNL A   1      30.499  24.945  23.103  1.00  0.00    -0.268 OA
ATOM     14  N   UNL A   1      32.572  25.727  22.564  1.00  0.00    -0.351 N 
ATOM     15  H   UNL A   1      33.256  26.409  22.761  1.00  0.00     0.163 HD
BRANCH  14  16
ATOM     16  C   UNL A   1      32.911  24.509  21.855  1.00  0.00     0.116 C 
BRANCH  16  17
ATOM     17  C   UNL A   1      33.386  23.353  22.737  1.00  0.00     0.025 C 
BRANCH  17  18
ATOM     18  C   UNL A   1      34.587  23.694  23.660  1.00  0.00    -0.009 C 
ATOM     19  C   UNL A   1      34.310  23.538  25.161  1.00  0.00     0.003 C 
ATOM     20  C   UNL A   1      35.840  22.880  23.270  1.00  0.00     0.003 C 
ATOM     21  C   UNL A   1      35.506  23.964  25.990  1.00  0.00     0.000 C 
ATOM     22  C   UNL A   1      37.048  23.224  24.138  1.00  0.00     0.000 C 
ATOM     23  C   UNL A   1      36.722  23.146  25.614  1.00  0.00     0.000 C 
ENDBRANCH  17  18
ENDBRANCH  16  17
ENDBRANCH  14  16
ENDBRANCH   9  12
ENDBRANCH   6   7
ENDBRANCH   4   6
ENDBRANCH   3   4
ENDBRANCH   2   3
ENDBRANCH   1   2
BRANCH   1  24
ATOM     24  O   UNL A   1      33.118  30.670  27.627  1.00  0.00    -0.374 OA
BRANCH  24  25
ATOM     25  C   UNL A   1      32.446  31.519  26.695  1.00  0.00     0.202 C 
BRANCH  25  26
ATOM     26  C   UNL A   1      32.100  32.859  27.302  1.00  0.00     0.261 C 
BRANCH  26  27
ATOM     27  O   UNL A   1      33.266  33.682  27.361  1.00  0.00    -0.460 OA
BRANCH  27  28
ATOM     28  C   UNL A   1      33.388  34.288  28.563  1.00  0.00     0.338 C 
ATOM     29  O   UNL A   1      32.830  35.292  28.946  1.00  0.00    -0.246 OA
BRANCH  28  30
ATOM     30  C   UNL A   1      34.482  33.696  29.316  1.00  0.00     0.060 A 
ATOM     31  C   UNL A   1      35.766  33.995  28.855  1.00  0.00     0.016 A 
ATOM     32  C   UNL A   1      34.230  32.742  30.313  1.00  0.00     0.016 A 
ATOM     33  C   UNL A   1      36.821  33.286  29.371  1.00  0.00     0.010 A 
ATOM     34  C   UNL A   1      35.284  32.022  30.824  1.00  0.00     0.010 A 
ATOM     35  C   UNL A   1      36.568  32.315  30.354  1.00  0.00    -0.014 A 
BRANCH  35  36
ATOM     36  C   UNL A   1      37.710  31.980  31.201  1.00  0.00     0.031 A 
ATOM     37  C   UNL A   1      38.319  30.662  30.614  1.00  0.00     0.074 A 
ATOM     38  C   UNL A   1      37.932  32.816  32.267  1.00  0.00     0.049 A 
ATOM     39  N   UNL A   1      39.036  29.744  31.170  1.00  0.00    -0.248 NA
ATOM     40  C   UNL A   1      38.025  30.261  29.186  1.00  0.00     0.031 C 
ATOM     41  C   UNL A   1      37.259  34.111  32.501  1.00  0.00     0.029 A 
ATOM     42  N   UNL A   1      38.769  32.797  33.354  1.00  0.00    -0.354 N 
ATOM     43  C   UNL A   1      39.555  28.946  30.122  1.00  0.00     0.074 A 
ATOM     44  C   UNL A   1      38.718  29.143  28.993  1.00  0.00     0.031 C 
ATOM     45  C   UNL A   1      37.555  34.647  33.712  1.00  0.00     0.029 A 
ATOM     46  C   UNL A   1      38.582  33.838  34.331  1.00  0.00     0.049 A 
ATOM     47  H   UNL A   1      39.462  32.105  33.461  1.00  0.00     0.167 HD
ATOM     48  C   UNL A   1      40.810  28.414  30.165  1.00  0.00     0.034 A 
ATOM     49  C   UNL A   1      39.267  34.029  35.511  1.00  0.00     0.034 A 
ATOM     50  C   UNL A   1      41.394  28.723  31.429  1.00  0.00     0.049 A 
ATOM     51  C   UNL A   1      40.475  33.230  35.249  1.00  0.00     0.074 A 
ATOM     52  C   UNL A   1      41.028  28.345  32.695  1.00  0.00     0.029 A 
ATOM     53  N   UNL A   1      42.146  29.879  31.491  1.00  0.00    -0.354 N 
ATOM     54  N   UNL A   1      41.381  33.556  34.375  1.00  0.00    -0.248 NA
ATOM     55  C   UNL A   1      40.632  31.932  35.908  1.00  0.00     0.031 C 
ATOM     56  C   UNL A   1      41.059  29.572  33.379  1.00  0.00     0.029 A 
ATOM     57  C   UNL A   1      41.799  30.516  32.654  1.00  0.00     0.049 A 
ATOM     58  H   UNL A   1      42.804  30.187  30.827  1.00  0.00     0.167 HD
ATOM     59  C   UNL A   1      41.982  32.355  34.116  1.00  0.00     0.074 A 
ATOM     60  C   UNL A   1      41.737  31.524  35.286  1.00  0.00     0.031 C 
ATOM     61  C   UNL A   1      42.090  31.924  32.826  1.00  0.00     0.034 A 
BRANCH  48  62
ATOM     62  C   UNL A   1      41.729  27.893  29.099  1.00  0.00     0.023 A 
ATOM     63  C   UNL A   1      42.354  26.664  29.406  1.00  0.00     0.031 A 
ATOM     64  C   UNL A   1      42.280  28.633  28.045  1.00  0.00     0.131 A 
ATOM     65  C   UNL A   1      43.560  26.292  28.808  1.00  0.00     0.055 A 
ATOM     66  C   UNL A   1      43.446  28.215  27.385  1.00  0.00     0.041 A 
ATOM     67  F   UNL A   1      41.781  29.820  27.675  1.00  0.00    -0.206 F 
ATOM     68  C   UNL A   1      44.117  27.063  27.795  1.00  0.00     0.022 A 
BRANCH  65  69
ATOM     69  S   UNL A   1      44.463  24.901  29.541  1.00  0.00     0.124 S 
ATOM     70  O   UNL A   1      43.394  23.939  29.787  1.00  0.00    -0.237 OA
ATOM     71  O   UNL A   1      45.399  24.554  28.475  1.00  0.00    -0.237 OA
ATOM     72  O   UNL A   1      45.068  25.482  30.736  1.00  0.00    -0.744 OA
ENDBRANCH  65  69
ENDBRANCH  48  62
BRANCH  49  73
ATOM     73  C   UNL A   1      39.284  34.765  36.859  1.00  0.00     0.023 A 
ATOM     74  C   UNL A   1      38.828  34.318  38.118  1.00  0.00     0.031 A 
ATOM     75  C   UNL A   1      40.016  36.002  36.919  1.00  0.00     0.131 A 
ATOM     76  C   UNL A   1      39.191  35.031  39.312  1.00  0.00     0.055 A 
ATOM     77  C   UNL A   1      40.459  36.621  38.087  1.00  0.00     0.041 A 
ATOM     78  F   UNL A   1      40.363  36.683  35.820  1.00  0.00    -0.206 F 
ATOM     79  C   UNL A   1      40.062  36.125  39.298  1.00  0.00     0.022 A 
BRANCH  76  80
ATOM     80  S   UNL A   1      38.563  34.564  40.962  1.00  0.00     0.124 S 
ATOM     81  O   UNL A   1      37.705  33.426  40.648  1.00  0.00    -0.237 OA
ATOM     82  O   UNL A   1      39.783  34.265  41.703  1.00  0.00    -0.237 OA
ATOM     83  O   UNL A   1      37.854  35.763  41.411  1.00  0.00    -0.744 OA
ENDBRANCH  76  80
ENDBRANCH  49  73
BRANCH  61  84
ATOM     84  C   UNL A   1      42.115  33.011  31.743  1.00  0.00     0.023 A 
ATOM     85  C   UNL A   1      42.946  34.142  31.897  1.00  0.00     0.031 A 
ATOM     86  C   UNL A   1      41.309  33.017  30.588  1.00  0.00     0.131 A 
ATOM     87  C   UNL A   1      42.926  35.209  30.971  1.00  0.00     0.055 A 
ATOM     88  C   UNL A   1      41.270  34.085  29.673  1.00  0.00     0.041 A 
ATOM     89  F   UNL A   1      40.535  31.973  30.285  1.00  0.00    -0.206 F 
ATOM     90  C   UNL A   1      42.082  35.192  29.863  1.00  0.00     0.022 A 
BRANCH  87  91
ATOM     91  S   UNL A   1      44.063  36.605  31.202  1.00  0.00     0.124 S 
ATOM     92  O   UNL A   1      43.872  37.380  29.982  1.00  0.00    -0.237 OA
ATOM     93  O   UNL A   1      43.569  37.212  32.434  1.00  0.00    -0.237 OA
ATOM     94  O   UNL A   1      45.373  35.962  31.323  1.00  0.00    -0.744 OA
ENDBRANCH  87  91
ENDBRANCH  61  84
ENDBRANCH  35  36
ENDBRANCH  28  30
ENDBRANCH  27  28
ENDBRANCH  26  27
ENDBRANCH  25  26
ENDBRANCH  24  25
ENDBRANCH   1  24
TORSDOF 22
ENDMDL
