MODEL 1
REMARK VINA RESULT:     -10.5      0.000      0.000
REMARK SMILES COC(=O)[C@@H]([NH2+]CC(C)(C)C(=O)OCCOCCOC(=O)c1ccc(-c2c3nc(c(-c4cc(S(=O)(=O)[O-])ccc4F)c4ccc([nH]4)c(-c4cc(S(=O)(=O)[O-])ccc4F)c4nc(c(-c5cc(S(=O)(=O)[O-])ccc5F)c5ccc2[nH]5)C=C4)C=C3)cc1)c1ccccc1
REMARK SMILES IDX 15 1 14 2 13 3 11 4 12 5 8 6 9 7 10 8 7 9 6 10 5 13 3 14
REMARK SMILES IDX 4 15 2 16 1 17 85 18 86 19 90 20 87 21 89 22 88 23 16 24
REMARK SMILES IDX 17 25 18 26 19 27 20 28 21 29 22 30 23 31 84 32 24 33 83 34
REMARK SMILES IDX 25 35 26 36 27 37 77 38 28 39 82 40 76 41 78 42 29 43 81 44
REMARK SMILES IDX 75 45 74 46 30 48 62 49 42 50 61 51 43 52 46 53 60 54 79 55
REMARK SMILES IDX 44 56 45 57 59 59 80 60 47 61 31 62 32 63 40 64 33 65 39 66
REMARK SMILES IDX 41 67 38 68 34 69 35 70 36 71 37 72 63 73 64 74 72 75 65 76
REMARK SMILES IDX 71 77 73 78 70 79 66 80 67 81 68 82 69 83 48 84 49 85 57 86
REMARK SMILES IDX 50 87 56 88 58 89 55 90 51 91 52 92 53 93 54 94
REMARK H PARENT 6 11 6 12 78 47 46 58
REMARK Flexibility Score: inf
ROOT
ATOM      1  C   UNL A   1      32.577  26.411  25.348  1.00  0.00     0.202 C 
ENDROOT
BRANCH   1   2
ATOM      2  C   UNL A   1      34.014  25.945  25.585  1.00  0.00     0.261 C 
BRANCH   2   3
ATOM      3  O   UNL A   1      34.211  24.662  24.972  1.00  0.00    -0.463 OA
BRANCH   3   4
ATOM      4  C   UNL A   1      34.716  23.698  25.771  1.00  0.00     0.317 C 
ATOM      5  O   UNL A   1      34.260  23.415  26.873  1.00  0.00    -0.251 OA
BRANCH   4   6
ATOM      6  C   UNL A   1      35.917  22.972  25.159  1.00  0.00     0.111 C 
ATOM      7  C   UNL A   1      37.157  23.711  25.686  1.00  0.00     0.029 C 
ATOM      8  C   UNL A   1      35.970  23.065  23.611  1.00  0.00     0.029 C 
BRANCH   6   9
ATOM      9  C   UNL A   1      35.901  21.454  25.534  1.00  0.00     0.279 C 
BRANCH   9  10
ATOM     10  N   UNL A   1      34.636  20.771  25.854  1.00  0.00    -0.330 N 
ATOM     11  H   UNL A   1      34.829  20.053  26.553  1.00  0.00     0.347 HD
ATOM     12  H   UNL A   1      33.994  21.488  26.190  1.00  0.00     0.347 HD
BRANCH  10  13
ATOM     13  C   UNL A   1      33.975  20.119  24.683  1.00  0.00     0.324 C 
BRANCH  13  14
ATOM     14  C   UNL A   1      32.678  20.882  24.344  1.00  0.00     0.369 C 
ATOM     15  O   UNL A   1      32.437  21.314  23.219  1.00  0.00    -0.245 OA
BRANCH  14  16
ATOM     16  O   UNL A   1      31.865  21.090  25.418  1.00  0.00    -0.464 OA
ATOM     17  C   UNL A   1      31.164  22.333  25.382  1.00  0.00     0.282 C 
ENDBRANCH  14  16
ENDBRANCH  13  14
BRANCH  13  18
ATOM     18  C   UNL A   1      33.815  18.606  24.780  1.00  0.00     0.021 A 
ATOM     19  C   UNL A   1      32.663  18.095  25.406  1.00  0.00     0.010 A 
ATOM     20  C   UNL A   1      34.754  17.691  24.284  1.00  0.00     0.010 A 
ATOM     21  C   UNL A   1      32.424  16.724  25.488  1.00  0.00     0.001 A 
ATOM     22  C   UNL A   1      34.531  16.313  24.396  1.00  0.00     0.001 A 
ATOM     23  C   UNL A   1      33.361  15.830  24.983  1.00  0.00     0.000 A 
ENDBRANCH  13  18
ENDBRANCH  10  13
ENDBRANCH   9  10
ENDBRANCH   6   9
ENDBRANCH   4   6
ENDBRANCH   3   4
ENDBRANCH   2   3
ENDBRANCH   1   2
BRANCH   1  24
ATOM     24  O   UNL A   1      32.417  27.778  24.967  1.00  0.00    -0.374 OA
BRANCH  24  25
ATOM     25  C   UNL A   1      33.407  28.689  25.459  1.00  0.00     0.202 C 
BRANCH  25  26
ATOM     26  C   UNL A   1      32.878  29.988  26.066  1.00  0.00     0.261 C 
BRANCH  26  27
ATOM     27  O   UNL A   1      33.330  30.096  27.425  1.00  0.00    -0.460 OA
BRANCH  27  28
ATOM     28  C   UNL A   1      34.187  31.118  27.659  1.00  0.00     0.338 C 
ATOM     29  O   UNL A   1      33.891  32.286  27.851  1.00  0.00    -0.246 OA
BRANCH  28  30
ATOM     30  C   UNL A   1      35.530  30.556  27.929  1.00  0.00     0.060 A 
ATOM     31  C   UNL A   1      35.648  29.159  27.905  1.00  0.00     0.016 A 
ATOM     32  C   UNL A   1      36.658  31.360  28.129  1.00  0.00     0.016 A 
ATOM     33  C   UNL A   1      36.877  28.557  28.149  1.00  0.00     0.010 A 
ATOM     34  C   UNL A   1      37.889  30.756  28.389  1.00  0.00     0.010 A 
ATOM     35  C   UNL A   1      37.987  29.354  28.450  1.00  0.00    -0.014 A 
BRANCH  35  36
ATOM     36  C   UNL A   1      39.157  28.722  29.099  1.00  0.00     0.031 A 
ATOM     37  C   UNL A   1      39.589  29.280  30.428  1.00  0.00     0.074 A 
ATOM     38  C   UNL A   1      39.774  27.661  28.555  1.00  0.00     0.049 A 
ATOM     39  N   UNL A   1      40.597  28.943  31.186  1.00  0.00    -0.248 NA
ATOM     40  C   UNL A   1      38.767  30.376  30.969  1.00  0.00     0.031 C 
ATOM     41  C   UNL A   1      39.390  27.008  27.304  1.00  0.00     0.029 A 
ATOM     42  N   UNL A   1      40.860  26.945  28.990  1.00  0.00    -0.354 N 
ATOM     43  C   UNL A   1      40.533  29.788  32.291  1.00  0.00     0.074 A 
ATOM     44  C   UNL A   1      39.416  30.681  32.080  1.00  0.00     0.031 C 
ATOM     45  C   UNL A   1      40.236  25.989  27.068  1.00  0.00     0.029 A 
ATOM     46  C   UNL A   1      41.243  25.945  28.128  1.00  0.00     0.049 A 
ATOM     47  H   UNL A   1      41.322  27.131  29.839  1.00  0.00     0.167 HD
ATOM     48  C   UNL A   1      41.330  29.805  33.385  1.00  0.00     0.034 A 
ATOM     49  C   UNL A   1      42.302  25.112  28.185  1.00  0.00     0.034 A 
ATOM     50  C   UNL A   1      42.446  28.913  33.562  1.00  0.00     0.049 A 
ATOM     51  C   UNL A   1      43.236  25.215  29.368  1.00  0.00     0.074 A 
ATOM     52  C   UNL A   1      43.333  28.838  34.619  1.00  0.00     0.029 A 
ATOM     53  N   UNL A   1      42.836  27.944  32.644  1.00  0.00    -0.354 N 
ATOM     54  N   UNL A   1      43.174  26.021  30.406  1.00  0.00    -0.248 NA
ATOM     55  C   UNL A   1      44.377  24.292  29.393  1.00  0.00     0.031 C 
ATOM     56  C   UNL A   1      44.301  27.876  34.308  1.00  0.00     0.029 A 
ATOM     57  C   UNL A   1      43.969  27.288  33.097  1.00  0.00     0.049 A 
ATOM     58  H   UNL A   1      42.374  27.751  31.795  1.00  0.00     0.167 HD
ATOM     59  C   UNL A   1      44.247  25.675  31.223  1.00  0.00     0.074 A 
ATOM     60  C   UNL A   1      44.931  24.580  30.563  1.00  0.00     0.031 C 
ATOM     61  C   UNL A   1      44.634  26.203  32.413  1.00  0.00     0.034 A 
BRANCH  48  62
ATOM     62  C   UNL A   1      41.051  30.863  34.426  1.00  0.00     0.023 A 
ATOM     63  C   UNL A   1      39.985  30.744  35.338  1.00  0.00     0.031 A 
ATOM     64  C   UNL A   1      41.828  32.032  34.474  1.00  0.00     0.131 A 
ATOM     65  C   UNL A   1      39.683  31.806  36.203  1.00  0.00     0.055 A 
ATOM     66  C   UNL A   1      41.573  33.050  35.395  1.00  0.00     0.041 A 
ATOM     67  F   UNL A   1      42.837  32.217  33.608  1.00  0.00    -0.206 F 
ATOM     68  C   UNL A   1      40.486  32.948  36.257  1.00  0.00     0.022 A 
BRANCH  65  69
ATOM     69  S   UNL A   1      38.136  31.742  37.149  1.00  0.00     0.124 S 
ATOM     70  O   UNL A   1      37.787  30.327  37.049  1.00  0.00    -0.237 OA
ATOM     71  O   UNL A   1      38.551  32.205  38.468  1.00  0.00    -0.237 OA
ATOM     72  O   UNL A   1      37.250  32.647  36.420  1.00  0.00    -0.744 OA
ENDBRANCH  65  69
ENDBRANCH  48  62
BRANCH  49  73
ATOM     73  C   UNL A   1      42.566  24.141  27.083  1.00  0.00     0.023 A 
ATOM     74  C   UNL A   1      41.987  22.862  27.086  1.00  0.00     0.031 A 
ATOM     75  C   UNL A   1      43.451  24.459  26.037  1.00  0.00     0.131 A 
ATOM     76  C   UNL A   1      42.337  21.932  26.094  1.00  0.00     0.055 A 
ATOM     77  C   UNL A   1      43.752  23.551  25.020  1.00  0.00     0.041 A 
ATOM     78  F   UNL A   1      44.037  25.666  25.986  1.00  0.00    -0.206 F 
ATOM     79  C   UNL A   1      43.204  22.273  25.052  1.00  0.00     0.022 A 
BRANCH  76  80
ATOM     80  S   UNL A   1      41.715  20.234  26.235  1.00  0.00     0.124 S 
ATOM     81  O   UNL A   1      42.295  19.606  25.054  1.00  0.00    -0.237 OA
ATOM     82  O   UNL A   1      42.265  19.817  27.521  1.00  0.00    -0.237 OA
ATOM     83  O   UNL A   1      40.263  20.400  26.204  1.00  0.00    -0.744 OA
ENDBRANCH  76  80
ENDBRANCH  49  73
BRANCH  61  84
ATOM     84  C   UNL A   1      45.819  25.566  33.095  1.00  0.00     0.023 A 
ATOM     85  C   UNL A   1      45.676  24.465  33.957  1.00  0.00     0.031 A 
ATOM     86  C   UNL A   1      47.113  26.074  32.879  1.00  0.00     0.131 A 
ATOM     87  C   UNL A   1      46.801  23.944  34.616  1.00  0.00     0.055 A 
ATOM     88  C   UNL A   1      48.236  25.509  33.484  1.00  0.00     0.041 A 
ATOM     89  F   UNL A   1      47.308  27.124  32.066  1.00  0.00    -0.206 F 
ATOM     90  C   UNL A   1      48.081  24.447  34.369  1.00  0.00     0.022 A 
BRANCH  87  91
ATOM     91  S   UNL A   1      46.553  22.664  35.876  1.00  0.00     0.124 S 
ATOM     92  O   UNL A   1      46.612  21.442  35.082  1.00  0.00    -0.237 OA
ATOM     93  O   UNL A   1      47.677  22.893  36.779  1.00  0.00    -0.237 OA
ATOM     94  O   UNL A   1      45.239  22.980  36.431  1.00  0.00    -0.744 OA
ENDBRANCH  87  91
ENDBRANCH  61  84
ENDBRANCH  35  36
ENDBRANCH  28  30
ENDBRANCH  27  28
ENDBRANCH  26  27
ENDBRANCH  25  26
ENDBRANCH  24  25
ENDBRANCH   1  24
TORSDOF 23
ENDMDL
MODEL 2
REMARK VINA RESULT:     -10.4      4.794      9.645
REMARK SMILES COC(=O)[C@@H]([NH2+]CC(C)(C)C(=O)OCCOCCOC(=O)c1ccc(-c2c3nc(c(-c4cc(S(=O)(=O)[O-])ccc4F)c4ccc([nH]4)c(-c4cc(S(=O)(=O)[O-])ccc4F)c4nc(c(-c5cc(S(=O)(=O)[O-])ccc5F)c5ccc2[nH]5)C=C4)C=C3)cc1)c1ccccc1
REMARK SMILES IDX 15 1 14 2 13 3 11 4 12 5 8 6 9 7 10 8 7 9 6 10 5 13 3 14
REMARK SMILES IDX 4 15 2 16 1 17 85 18 86 19 90 20 87 21 89 22 88 23 16 24
REMARK SMILES IDX 17 25 18 26 19 27 20 28 21 29 22 30 23 31 84 32 24 33 83 34
REMARK SMILES IDX 25 35 26 36 27 37 77 38 28 39 82 40 76 41 78 42 29 43 81 44
REMARK SMILES IDX 75 45 74 46 30 48 62 49 42 50 61 51 43 52 46 53 60 54 79 55
REMARK SMILES IDX 44 56 45 57 59 59 80 60 47 61 31 62 32 63 40 64 33 65 39 66
REMARK SMILES IDX 41 67 38 68 34 69 35 70 36 71 37 72 63 73 64 74 72 75 65 76
REMARK SMILES IDX 71 77 73 78 70 79 66 80 67 81 68 82 69 83 48 84 49 85 57 86
REMARK SMILES IDX 50 87 56 88 58 89 55 90 51 91 52 92 53 93 54 94
REMARK H PARENT 6 11 6 12 78 47 46 58
REMARK Flexibility Score: inf
ROOT
ATOM      1  C   UNL A   1      36.448  23.241  24.733  1.00  0.00     0.202 C 
ENDROOT
BRANCH   1   2
ATOM      2  C   UNL A   1      35.328  24.213  25.105  1.00  0.00     0.261 C 
BRANCH   2   3
ATOM      3  O   UNL A   1      34.549  24.520  23.940  1.00  0.00    -0.463 OA
BRANCH   3   4
ATOM      4  C   UNL A   1      33.224  24.687  24.143  1.00  0.00     0.317 C 
ATOM      5  O   UNL A   1      32.739  25.089  25.194  1.00  0.00    -0.251 OA
BRANCH   4   6
ATOM      6  C   UNL A   1      32.376  24.338  22.917  1.00  0.00     0.111 C 
ATOM      7  C   UNL A   1      32.874  25.264  21.796  1.00  0.00     0.029 C 
ATOM      8  C   UNL A   1      30.866  24.641  23.104  1.00  0.00     0.029 C 
BRANCH   6   9
ATOM      9  C   UNL A   1      32.506  22.821  22.563  1.00  0.00     0.279 C 
BRANCH   9  10
ATOM     10  N   UNL A   1      33.173  21.887  23.487  1.00  0.00    -0.330 N 
ATOM     11  H   UNL A   1      33.787  21.283  22.941  1.00  0.00     0.347 HD
ATOM     12  H   UNL A   1      33.678  22.457  24.164  1.00  0.00     0.347 HD
BRANCH  10  13
ATOM     13  C   UNL A   1      32.238  21.021  24.268  1.00  0.00     0.324 C 
BRANCH  13  14
ATOM     14  C   UNL A   1      32.009  21.650  25.659  1.00  0.00     0.369 C 
ATOM     15  O   UNL A   1      32.933  21.947  26.412  1.00  0.00    -0.245 OA
BRANCH  14  16
ATOM     16  O   UNL A   1      30.695  21.777  25.995  1.00  0.00    -0.464 OA
ATOM     17  C   UNL A   1      30.388  22.989  26.685  1.00  0.00     0.282 C 
ENDBRANCH  14  16
ENDBRANCH  13  14
BRANCH  13  18
ATOM     18  C   UNL A   1      32.584  19.537  24.291  1.00  0.00     0.021 A 
ATOM     19  C   UNL A   1      32.627  18.843  23.068  1.00  0.00     0.010 A 
ATOM     20  C   UNL A   1      32.858  18.820  25.463  1.00  0.00     0.010 A 
ATOM     21  C   UNL A   1      32.984  17.496  23.005  1.00  0.00     0.001 A 
ATOM     22  C   UNL A   1      33.184  17.459  25.404  1.00  0.00     0.001 A 
ATOM     23  C   UNL A   1      33.262  16.802  24.177  1.00  0.00     0.000 A 
ENDBRANCH  13  18
ENDBRANCH  10  13
ENDBRANCH   9  10
ENDBRANCH   6   9
ENDBRANCH   4   6
ENDBRANCH   3   4
ENDBRANCH   2   3
ENDBRANCH   1   2
BRANCH   1  24
ATOM     24  O   UNL A   1      36.032  21.980  24.205  1.00  0.00    -0.374 OA
BRANCH  24  25
ATOM     25  C   UNL A   1      36.823  20.848  24.583  1.00  0.00     0.202 C 
BRANCH  25  26
ATOM     26  C   UNL A   1      37.724  21.037  25.803  1.00  0.00     0.261 C 
BRANCH  26  27
ATOM     27  O   UNL A   1      39.097  21.055  25.382  1.00  0.00    -0.460 OA
BRANCH  27  28
ATOM     28  C   UNL A   1      39.998  20.856  26.372  1.00  0.00     0.338 C 
ATOM     29  O   UNL A   1      40.615  19.828  26.599  1.00  0.00    -0.246 OA
BRANCH  28  30
ATOM     30  C   UNL A   1      40.337  22.167  26.973  1.00  0.00     0.060 A 
ATOM     31  C   UNL A   1      39.584  23.271  26.549  1.00  0.00     0.016 A 
ATOM     32  C   UNL A   1      41.308  22.312  27.969  1.00  0.00     0.016 A 
ATOM     33  C   UNL A   1      39.843  24.534  27.066  1.00  0.00     0.010 A 
ATOM     34  C   UNL A   1      41.580  23.583  28.479  1.00  0.00     0.010 A 
ATOM     35  C   UNL A   1      40.881  24.701  27.989  1.00  0.00    -0.014 A 
BRANCH  35  36
ATOM     36  C   UNL A   1      41.414  26.063  28.217  1.00  0.00     0.031 A 
ATOM     37  C   UNL A   1      42.798  26.353  27.702  1.00  0.00     0.074 A 
ATOM     38  C   UNL A   1      40.676  27.016  28.808  1.00  0.00     0.049 A 
ATOM     39  N   UNL A   1      43.513  27.441  27.802  1.00  0.00    -0.248 NA
ATOM     40  C   UNL A   1      43.465  25.257  26.980  1.00  0.00     0.031 C 
ATOM     41  C   UNL A   1      39.303  26.851  29.282  1.00  0.00     0.029 A 
ATOM     42  N   UNL A   1      40.983  28.318  29.110  1.00  0.00    -0.354 N 
ATOM     43  C   UNL A   1      44.716  27.158  27.159  1.00  0.00     0.074 A 
ATOM     44  C   UNL A   1      44.648  25.784  26.716  1.00  0.00     0.031 C 
ATOM     45  C   UNL A   1      38.888  28.010  29.825  1.00  0.00     0.029 A 
ATOM     46  C   UNL A   1      39.978  28.983  29.772  1.00  0.00     0.049 A 
ATOM     47  H   UNL A   1      41.842  28.736  28.875  1.00  0.00     0.167 HD
ATOM     48  C   UNL A   1      45.773  27.978  26.951  1.00  0.00     0.034 A 
ATOM     49  C   UNL A   1      39.961  30.225  30.296  1.00  0.00     0.034 A 
ATOM     50  C   UNL A   1      45.819  29.339  27.418  1.00  0.00     0.049 A 
ATOM     51  C   UNL A   1      41.190  31.090  30.136  1.00  0.00     0.074 A 
ATOM     52  C   UNL A   1      46.834  30.266  27.279  1.00  0.00     0.029 A 
ATOM     53  N   UNL A   1      44.802  29.965  28.131  1.00  0.00    -0.354 N 
ATOM     54  N   UNL A   1      42.326  30.814  29.534  1.00  0.00    -0.248 NA
ATOM     55  C   UNL A   1      41.133  32.436  30.721  1.00  0.00     0.031 C 
ATOM     56  C   UNL A   1      46.464  31.425  27.969  1.00  0.00     0.029 A 
ATOM     57  C   UNL A   1      45.180  31.255  28.465  1.00  0.00     0.049 A 
ATOM     58  H   UNL A   1      43.939  29.551  28.364  1.00  0.00     0.167 HD
ATOM     59  C   UNL A   1      43.102  31.966  29.636  1.00  0.00     0.074 A 
ATOM     60  C   UNL A   1      42.300  32.941  30.347  1.00  0.00     0.031 C 
ATOM     61  C   UNL A   1      44.360  32.205  29.181  1.00  0.00     0.034 A 
BRANCH  48  62
ATOM     62  C   UNL A   1      46.973  27.392  26.246  1.00  0.00     0.023 A 
ATOM     63  C   UNL A   1      47.959  26.665  26.939  1.00  0.00     0.031 A 
ATOM     64  C   UNL A   1      47.161  27.607  24.871  1.00  0.00     0.131 A 
ATOM     65  C   UNL A   1      49.120  26.248  26.270  1.00  0.00     0.055 A 
ATOM     66  C   UNL A   1      48.279  27.116  24.194  1.00  0.00     0.041 A 
ATOM     67  F   UNL A   1      46.271  28.322  24.163  1.00  0.00    -0.206 F 
ATOM     68  C   UNL A   1      49.275  26.444  24.896  1.00  0.00     0.022 A 
BRANCH  65  69
ATOM     69  S   UNL A   1      50.494  25.580  27.250  1.00  0.00     0.124 S 
ATOM     70  O   UNL A   1      50.655  26.611  28.272  1.00  0.00    -0.237 OA
ATOM     71  O   UNL A   1      49.963  24.302  27.709  1.00  0.00    -0.237 OA
ATOM     72  O   UNL A   1      51.590  25.491  26.286  1.00  0.00    -0.744 OA
ENDBRANCH  65  69
ENDBRANCH  48  62
BRANCH  49  73
ATOM     73  C   UNL A   1      38.771  30.717  31.048  1.00  0.00     0.023 A 
ATOM     74  C   UNL A   1      37.683  31.307  30.386  1.00  0.00     0.031 A 
ATOM     75  C   UNL A   1      38.730  30.658  32.454  1.00  0.00     0.131 A 
ATOM     76  C   UNL A   1      36.624  31.857  31.128  1.00  0.00     0.055 A 
ATOM     77  C   UNL A   1      37.649  31.154  33.184  1.00  0.00     0.041 A 
ATOM     78  F   UNL A   1      39.746  30.109  33.140  1.00  0.00    -0.206 F 
ATOM     79  C   UNL A   1      36.593  31.771  32.522  1.00  0.00     0.022 A 
BRANCH  76  80
ATOM     80  S   UNL A   1      35.329  32.772  30.247  1.00  0.00     0.124 S 
ATOM     81  O   UNL A   1      34.401  33.084  31.328  1.00  0.00    -0.237 OA
ATOM     82  O   UNL A   1      36.076  33.898  29.696  1.00  0.00    -0.237 OA
ATOM     83  O   UNL A   1      34.841  31.809  29.262  1.00  0.00    -0.744 OA
ENDBRANCH  76  80
ENDBRANCH  49  73
BRANCH  61  84
ATOM     84  C   UNL A   1      44.917  33.590  29.395  1.00  0.00     0.023 A 
ATOM     85  C   UNL A   1      44.651  34.643  28.504  1.00  0.00     0.031 A 
ATOM     86  C   UNL A   1      45.730  33.857  30.512  1.00  0.00     0.131 A 
ATOM     87  C   UNL A   1      45.240  35.899  28.712  1.00  0.00     0.055 A 
ATOM     88  C   UNL A   1      46.258  35.126  30.750  1.00  0.00     0.041 A 
ATOM     89  F   UNL A   1      46.017  32.889  31.396  1.00  0.00    -0.206 F 
ATOM     90  C   UNL A   1      46.026  36.152  29.840  1.00  0.00     0.022 A 
BRANCH  87  91
ATOM     91  S   UNL A   1      45.047  37.172  27.435  1.00  0.00     0.124 S 
ATOM     92  O   UNL A   1      46.218  36.940  26.596  1.00  0.00    -0.237 OA
ATOM     93  O   UNL A   1      43.759  36.827  26.842  1.00  0.00    -0.237 OA
ATOM     94  O   UNL A   1      45.065  38.422  28.193  1.00  0.00    -0.744 OA
ENDBRANCH  87  91
ENDBRANCH  61  84
ENDBRANCH  35  36
ENDBRANCH  28  30
ENDBRANCH  27  28
ENDBRANCH  26  27
ENDBRANCH  25  26
ENDBRANCH  24  25
ENDBRANCH   1  24
TORSDOF 23
ENDMDL
MODEL 3
REMARK VINA RESULT:     -10.2      4.686      9.517
REMARK SMILES COC(=O)[C@@H]([NH2+]CC(C)(C)C(=O)OCCOCCOC(=O)c1ccc(-c2c3nc(c(-c4cc(S(=O)(=O)[O-])ccc4F)c4ccc([nH]4)c(-c4cc(S(=O)(=O)[O-])ccc4F)c4nc(c(-c5cc(S(=O)(=O)[O-])ccc5F)c5ccc2[nH]5)C=C4)C=C3)cc1)c1ccccc1
REMARK SMILES IDX 15 1 14 2 13 3 11 4 12 5 8 6 9 7 10 8 7 9 6 10 5 13 3 14
REMARK SMILES IDX 4 15 2 16 1 17 85 18 86 19 90 20 87 21 89 22 88 23 16 24
REMARK SMILES IDX 17 25 18 26 19 27 20 28 21 29 22 30 23 31 84 32 24 33 83 34
REMARK SMILES IDX 25 35 26 36 27 37 77 38 28 39 82 40 76 41 78 42 29 43 81 44
REMARK SMILES IDX 75 45 74 46 30 48 62 49 42 50 61 51 43 52 46 53 60 54 79 55
REMARK SMILES IDX 44 56 45 57 59 59 80 60 47 61 31 62 32 63 40 64 33 65 39 66
REMARK SMILES IDX 41 67 38 68 34 69 35 70 36 71 37 72 63 73 64 74 72 75 65 76
REMARK SMILES IDX 71 77 73 78 70 79 66 80 67 81 68 82 69 83 48 84 49 85 57 86
REMARK SMILES IDX 50 87 56 88 58 89 55 90 51 91 52 92 53 93 54 94
REMARK H PARENT 6 11 6 12 78 47 46 58
REMARK Flexibility Score: inf
ROOT
ATOM      1  C   UNL A   1      36.491  23.368  24.724  1.00  0.00     0.202 C 
ENDROOT
BRANCH   1   2
ATOM      2  C   UNL A   1      35.326  24.310  25.030  1.00  0.00     0.261 C 
BRANCH   2   3
ATOM      3  O   UNL A   1      34.626  24.619  23.816  1.00  0.00    -0.463 OA
BRANCH   3   4
ATOM      4  C   UNL A   1      33.351  25.042  23.962  1.00  0.00     0.317 C 
ATOM      5  O   UNL A   1      32.968  25.750  24.886  1.00  0.00    -0.251 OA
BRANCH   4   6
ATOM      6  C   UNL A   1      32.423  24.564  22.843  1.00  0.00     0.111 C 
ATOM      7  C   UNL A   1      32.661  25.529  21.671  1.00  0.00     0.029 C 
ATOM      8  C   UNL A   1      30.918  24.665  23.203  1.00  0.00     0.029 C 
BRANCH   6   9
ATOM      9  C   UNL A   1      32.715  23.071  22.477  1.00  0.00     0.279 C 
BRANCH   9  10
ATOM     10  N   UNL A   1      33.396  22.181  23.434  1.00  0.00    -0.330 N 
ATOM     11  H   UNL A   1      34.134  21.683  22.936  1.00  0.00     0.347 HD
ATOM     12  H   UNL A   1      33.754  22.776  24.181  1.00  0.00     0.347 HD
BRANCH  10  13
ATOM     13  C   UNL A   1      32.502  21.173  24.079  1.00  0.00     0.324 C 
BRANCH  13  14
ATOM     14  C   UNL A   1      32.264  21.575  25.550  1.00  0.00     0.369 C 
ATOM     15  O   UNL A   1      33.183  21.755  26.345  1.00  0.00    -0.245 OA
BRANCH  14  16
ATOM     16  O   UNL A   1      30.948  21.643  25.895  1.00  0.00    -0.464 OA
ATOM     17  C   UNL A   1      30.545  22.919  26.395  1.00  0.00     0.282 C 
ENDBRANCH  14  16
ENDBRANCH  13  14
BRANCH  13  18
ATOM     18  C   UNL A   1      32.904  19.716  23.876  1.00  0.00     0.021 A 
ATOM     19  C   UNL A   1      32.337  19.011  22.799  1.00  0.00     0.010 A 
ATOM     20  C   UNL A   1      33.804  19.035  24.706  1.00  0.00     0.010 A 
ATOM     21  C   UNL A   1      32.693  17.692  22.522  1.00  0.00     0.001 A 
ATOM     22  C   UNL A   1      34.137  17.700  24.448  1.00  0.00     0.001 A 
ATOM     23  C   UNL A   1      33.595  17.034  23.349  1.00  0.00     0.000 A 
ENDBRANCH  13  18
ENDBRANCH  10  13
ENDBRANCH   9  10
ENDBRANCH   6   9
ENDBRANCH   4   6
ENDBRANCH   3   4
ENDBRANCH   2   3
ENDBRANCH   1   2
BRANCH   1  24
ATOM     24  O   UNL A   1      36.141  22.106  24.152  1.00  0.00    -0.374 OA
BRANCH  24  25
ATOM     25  C   UNL A   1      36.921  20.984  24.577  1.00  0.00     0.202 C 
BRANCH  25  26
ATOM     26  C   UNL A   1      37.807  21.209  25.802  1.00  0.00     0.261 C 
BRANCH  26  27
ATOM     27  O   UNL A   1      39.183  21.248  25.392  1.00  0.00    -0.460 OA
BRANCH  27  28
ATOM     28  C   UNL A   1      40.079  21.058  26.389  1.00  0.00     0.338 C 
ATOM     29  O   UNL A   1      40.719  20.043  26.609  1.00  0.00    -0.246 OA
BRANCH  28  30
ATOM     30  C   UNL A   1      40.378  22.368  27.011  1.00  0.00     0.060 A 
ATOM     31  C   UNL A   1      39.633  23.468  26.561  1.00  0.00     0.016 A 
ATOM     32  C   UNL A   1      41.303  22.516  28.050  1.00  0.00     0.016 A 
ATOM     33  C   UNL A   1      39.857  24.730  27.097  1.00  0.00     0.010 A 
ATOM     34  C   UNL A   1      41.540  23.787  28.578  1.00  0.00     0.010 A 
ATOM     35  C   UNL A   1      40.852  24.901  28.065  1.00  0.00    -0.014 A 
BRANCH  35  36
ATOM     36  C   UNL A   1      41.360  26.266  28.324  1.00  0.00     0.031 A 
ATOM     37  C   UNL A   1      42.745  26.589  27.828  1.00  0.00     0.074 A 
ATOM     38  C   UNL A   1      40.602  27.196  28.926  1.00  0.00     0.049 A 
ATOM     39  N   UNL A   1      43.441  27.685  27.956  1.00  0.00    -0.248 NA
ATOM     40  C   UNL A   1      43.436  25.517  27.092  1.00  0.00     0.031 C 
ATOM     41  C   UNL A   1      39.227  27.001  29.383  1.00  0.00     0.029 A 
ATOM     42  N   UNL A   1      40.885  28.497  29.255  1.00  0.00    -0.354 N 
ATOM     43  C   UNL A   1      44.654  27.434  27.320  1.00  0.00     0.074 A 
ATOM     44  C   UNL A   1      44.613  26.068  26.850  1.00  0.00     0.031 C 
ATOM     45  C   UNL A   1      38.788  28.142  29.944  1.00  0.00     0.029 A 
ATOM     46  C   UNL A   1      39.863  29.133  29.920  1.00  0.00     0.049 A 
ATOM     47  H   UNL A   1      41.739  28.934  29.037  1.00  0.00     0.167 HD
ATOM     48  C   UNL A   1      45.700  28.275  27.137  1.00  0.00     0.034 A 
ATOM     49  C   UNL A   1      39.821  30.365  30.467  1.00  0.00     0.034 A 
ATOM     50  C   UNL A   1      45.720  29.627  27.631  1.00  0.00     0.049 A 
ATOM     51  C   UNL A   1      41.037  31.252  30.336  1.00  0.00     0.074 A 
ATOM     52  C   UNL A   1      46.721  30.573  27.519  1.00  0.00     0.029 A 
ATOM     53  N   UNL A   1      44.686  30.223  28.345  1.00  0.00    -0.354 N 
ATOM     54  N   UNL A   1      42.183  31.006  29.740  1.00  0.00    -0.248 NA
ATOM     55  C   UNL A   1      40.952  32.585  30.945  1.00  0.00     0.031 C 
ATOM     56  C   UNL A   1      46.325  31.713  28.228  1.00  0.00     0.029 A 
ATOM     57  C   UNL A   1      45.039  31.512  28.707  1.00  0.00     0.049 A 
ATOM     58  H   UNL A   1      43.827  29.791  28.562  1.00  0.00     0.167 HD
ATOM     59  C   UNL A   1      42.939  32.168  29.871  1.00  0.00     0.074 A 
ATOM     60  C   UNL A   1      42.114  33.117  30.592  1.00  0.00     0.031 C 
ATOM     61  C   UNL A   1      44.198  32.435  29.433  1.00  0.00     0.034 A 
BRANCH  48  62
ATOM     62  C   UNL A   1      46.916  27.721  26.434  1.00  0.00     0.023 A 
ATOM     63  C   UNL A   1      47.196  28.022  25.088  1.00  0.00     0.031 A 
ATOM     64  C   UNL A   1      47.779  26.838  27.102  1.00  0.00     0.131 A 
ATOM     65  C   UNL A   1      48.264  27.386  24.436  1.00  0.00     0.055 A 
ATOM     66  C   UNL A   1      48.890  26.274  26.472  1.00  0.00     0.041 A 
ATOM     67  F   UNL A   1      47.545  26.487  28.377  1.00  0.00    -0.206 F 
ATOM     68  C   UNL A   1      49.130  26.534  25.126  1.00  0.00     0.022 A 
BRANCH  65  69
ATOM     69  S   UNL A   1      48.415  27.567  22.637  1.00  0.00     0.124 S 
ATOM     70  O   UNL A   1      48.465  26.173  22.204  1.00  0.00    -0.237 OA
ATOM     71  O   UNL A   1      47.204  28.301  22.290  1.00  0.00    -0.237 OA
ATOM     72  O   UNL A   1      49.664  28.309  22.472  1.00  0.00    -0.744 OA
ENDBRANCH  65  69
ENDBRANCH  48  62
BRANCH  49  73
ATOM     73  C   UNL A   1      38.615  30.823  31.217  1.00  0.00     0.023 A 
ATOM     74  C   UNL A   1      37.519  31.396  30.554  1.00  0.00     0.031 A 
ATOM     75  C   UNL A   1      38.568  30.749  32.621  1.00  0.00     0.131 A 
ATOM     76  C   UNL A   1      36.444  31.915  31.294  1.00  0.00     0.055 A 
ATOM     77  C   UNL A   1      37.472  31.215  33.350  1.00  0.00     0.041 A 
ATOM     78  F   UNL A   1      39.591  30.216  33.309  1.00  0.00    -0.206 F 
ATOM     79  C   UNL A   1      36.407  31.815  32.687  1.00  0.00     0.022 A 
BRANCH  76  80
ATOM     80  S   UNL A   1      35.135  32.811  30.415  1.00  0.00     0.124 S 
ATOM     81  O   UNL A   1      34.147  33.003  31.471  1.00  0.00    -0.237 OA
ATOM     82  O   UNL A   1      35.837  34.008  29.965  1.00  0.00    -0.237 OA
ATOM     83  O   UNL A   1      34.742  31.885  29.354  1.00  0.00    -0.744 OA
ENDBRANCH  76  80
ENDBRANCH  49  73
BRANCH  61  84
ATOM     84  C   UNL A   1      44.730  33.825  29.679  1.00  0.00     0.023 A 
ATOM     85  C   UNL A   1      45.469  34.144  30.830  1.00  0.00     0.031 A 
ATOM     86  C   UNL A   1      44.488  34.847  28.743  1.00  0.00     0.131 A 
ATOM     87  C   UNL A   1      45.891  35.466  31.044  1.00  0.00     0.055 A 
ATOM     88  C   UNL A   1      44.968  36.143  28.928  1.00  0.00     0.041 A 
ATOM     89  F   UNL A   1      43.787  34.599  27.625  1.00  0.00    -0.206 F 
ATOM     90  C   UNL A   1      45.662  36.462  30.091  1.00  0.00     0.022 A 
BRANCH  87  91
ATOM     91  S   UNL A   1      46.657  35.886  32.633  1.00  0.00     0.124 S 
ATOM     92  O   UNL A   1      48.030  36.182  32.238  1.00  0.00    -0.237 OA
ATOM     93  O   UNL A   1      45.860  37.027  33.073  1.00  0.00    -0.237 OA
ATOM     94  O   UNL A   1      46.488  34.670  33.427  1.00  0.00    -0.744 OA
ENDBRANCH  87  91
ENDBRANCH  61  84
ENDBRANCH  35  36
ENDBRANCH  28  30
ENDBRANCH  27  28
ENDBRANCH  26  27
ENDBRANCH  25  26
ENDBRANCH  24  25
ENDBRANCH   1  24
TORSDOF 23
ENDMDL
