MODEL 1
REMARK VINA RESULT:     -10.7      0.000      0.000
REMARK SMILES O=C(OCCOCCOC(=O)[C@@H]1[C@H](C(=O)Nc2ccccc2OC(F)F)[C@@H]2C=C[C@H]1C2)c1ccc(-c2c3nc(c(-c4cc(S(=O)(=O)[O-])ccc4F)c4ccc([nH]4)c(-c4cc(S(=O)(=O)[O-])ccc4F)c4nc(c(-c5cc(S(=O)(=O)[O-])ccc5F)c5ccc2[nH]5)C=C4)C=C3)cc1
REMARK SMILES IDX 7 1 6 2 5 3 4 4 3 5 2 6 1 7 32 8 33 9 94 10 34 11 93 12
REMARK SMILES IDX 35 13 36 14 37 15 87 16 38 17 92 18 86 19 88 20 39 21 91 22
REMARK SMILES IDX 85 23 84 24 40 26 72 27 52 28 71 29 53 30 56 31 70 32 89 33
REMARK SMILES IDX 54 34 55 35 69 37 90 38 57 39 41 40 42 41 50 42 43 43 49 44
REMARK SMILES IDX 51 45 48 46 44 47 45 48 46 49 47 50 73 51 74 52 82 53 75 54
REMARK SMILES IDX 81 55 83 56 80 57 76 58 77 59 78 60 79 61 58 62 59 63 67 64
REMARK SMILES IDX 60 65 66 66 68 67 65 68 61 69 62 70 63 71 64 72 8 73 9 74
REMARK SMILES IDX 10 75 11 76 12 77 13 78 30 79 27 80 29 81 31 82 28 83 14 84
REMARK SMILES IDX 15 85 16 86 17 88 18 89 22 90 19 91 21 92 20 93 23 94 24 95
REMARK SMILES IDX 25 96 26 97
REMARK H PARENT 88 25 56 36 16 87
REMARK Flexibility Score: inf
ROOT
ATOM      1  C   UNL A   1      36.717  21.718  24.942  1.00  0.00     0.202 C 
ENDROOT
BRANCH   1   2
ATOM      2  O   UNL A   1      37.270  20.537  25.535  1.00  0.00    -0.374 OA
BRANCH   2   3
ATOM      3  C   UNL A   1      38.152  19.627  24.856  1.00  0.00     0.202 C 
BRANCH   3   4
ATOM      4  C   UNL A   1      39.495  19.218  25.432  1.00  0.00     0.261 C 
BRANCH   4   5
ATOM      5  O   UNL A   1      39.735  19.628  26.787  1.00  0.00    -0.460 OA
BRANCH   5   6
ATOM      6  C   UNL A   1      40.887  20.176  27.256  1.00  0.00     0.338 C 
ATOM      7  O   UNL A   1      41.771  19.495  27.739  1.00  0.00    -0.246 OA
BRANCH   6   8
ATOM      8  C   UNL A   1      41.008  21.645  27.237  1.00  0.00     0.060 A 
ATOM      9  C   UNL A   1      42.057  22.206  27.943  1.00  0.00     0.016 A 
ATOM     10  C   UNL A   1      40.118  22.469  26.557  1.00  0.00     0.016 A 
ATOM     11  C   UNL A   1      42.017  23.555  28.244  1.00  0.00     0.010 A 
ATOM     12  C   UNL A   1      40.313  23.860  26.599  1.00  0.00     0.010 A 
ATOM     13  C   UNL A   1      41.277  24.427  27.455  1.00  0.00    -0.014 A 
BRANCH  13  14
ATOM     14  C   UNL A   1      41.632  25.881  27.468  1.00  0.00     0.031 A 
ATOM     15  C   UNL A   1      42.905  26.361  26.827  1.00  0.00     0.074 A 
ATOM     16  C   UNL A   1      40.815  26.765  28.096  1.00  0.00     0.049 A 
ATOM     17  N   UNL A   1      43.571  27.462  27.049  1.00  0.00    -0.248 NA
ATOM     18  C   UNL A   1      43.525  25.479  25.825  1.00  0.00     0.031 C 
ATOM     19  C   UNL A   1      39.504  26.461  28.695  1.00  0.00     0.029 A 
ATOM     20  N   UNL A   1      40.951  28.110  28.347  1.00  0.00    -0.354 N 
ATOM     21  C   UNL A   1      44.734  27.365  26.292  1.00  0.00     0.074 A 
ATOM     22  C   UNL A   1      44.668  26.108  25.578  1.00  0.00     0.031 C 
ATOM     23  C   UNL A   1      38.930  27.575  29.149  1.00  0.00     0.029 A 
ATOM     24  C   UNL A   1      39.916  28.631  29.099  1.00  0.00     0.049 A 
ATOM     25  H   UNL A   1      41.708  28.649  28.023  1.00  0.00     0.167 HD
ATOM     26  C   UNL A   1      45.765  28.245  26.237  1.00  0.00     0.034 A 
ATOM     27  C   UNL A   1      39.806  29.776  29.798  1.00  0.00     0.034 A 
ATOM     28  C   UNL A   1      45.755  29.506  26.940  1.00  0.00     0.049 A 
ATOM     29  C   UNL A   1      40.995  30.689  29.791  1.00  0.00     0.074 A 
ATOM     30  C   UNL A   1      46.734  30.482  26.983  1.00  0.00     0.029 A 
ATOM     31  N   UNL A   1      44.699  29.967  27.722  1.00  0.00    -0.354 N 
ATOM     32  N   UNL A   1      42.135  30.545  29.156  1.00  0.00    -0.248 NA
ATOM     33  C   UNL A   1      40.897  31.900  30.607  1.00  0.00     0.031 C 
ATOM     34  C   UNL A   1      46.301  31.496  27.845  1.00  0.00     0.029 A 
ATOM     35  C   UNL A   1      45.017  31.196  28.273  1.00  0.00     0.049 A 
ATOM     36  H   UNL A   1      43.851  29.488  27.863  1.00  0.00     0.167 HD
ATOM     37  C   UNL A   1      42.887  31.663  29.485  1.00  0.00     0.074 A 
ATOM     38  C   UNL A   1      42.055  32.484  30.343  1.00  0.00     0.031 C 
ATOM     39  C   UNL A   1      44.155  31.983  29.123  1.00  0.00     0.034 A 
BRANCH  26  40
ATOM     40  C   UNL A   1      47.007  27.834  25.484  1.00  0.00     0.023 A 
ATOM     41  C   UNL A   1      47.184  28.092  24.115  1.00  0.00     0.031 A 
ATOM     42  C   UNL A   1      48.032  27.144  26.159  1.00  0.00     0.131 A 
ATOM     43  C   UNL A   1      48.327  27.609  23.453  1.00  0.00     0.055 A 
ATOM     44  C   UNL A   1      49.200  26.733  25.513  1.00  0.00     0.041 A 
ATOM     45  F   UNL A   1      47.911  26.845  27.462  1.00  0.00    -0.206 F 
ATOM     46  C   UNL A   1      49.346  26.953  24.148  1.00  0.00     0.022 A 
BRANCH  43  47
ATOM     47  S   UNL A   1      48.404  27.736  21.645  1.00  0.00     0.124 S 
ATOM     48  O   UNL A   1      47.082  28.274  21.333  1.00  0.00    -0.237 OA
ATOM     49  O   UNL A   1      49.526  28.644  21.439  1.00  0.00    -0.237 OA
ATOM     50  O   UNL A   1      48.627  26.358  21.212  1.00  0.00    -0.744 OA
ENDBRANCH  43  47
ENDBRANCH  26  40
BRANCH  27  51
ATOM     51  C   UNL A   1      38.612  30.050  30.658  1.00  0.00     0.023 A 
ATOM     52  C   UNL A   1      37.558  30.845  30.187  1.00  0.00     0.031 A 
ATOM     53  C   UNL A   1      38.526  29.576  31.984  1.00  0.00     0.131 A 
ATOM     54  C   UNL A   1      36.504  31.195  31.046  1.00  0.00     0.055 A 
ATOM     55  C   UNL A   1      37.433  29.855  32.806  1.00  0.00     0.041 A 
ATOM     56  F   UNL A   1      39.503  28.815  32.504  1.00  0.00    -0.206 F 
ATOM     57  C   UNL A   1      36.423  30.689  32.345  1.00  0.00     0.022 A 
BRANCH  54  58
ATOM     58  S   UNL A   1      35.316  32.443  30.483  1.00  0.00     0.124 S 
ATOM     59  O   UNL A   1      34.798  31.829  29.266  1.00  0.00    -0.237 OA
ATOM     60  O   UNL A   1      34.394  32.511  31.612  1.00  0.00    -0.237 OA
ATOM     61  O   UNL A   1      36.144  33.631  30.281  1.00  0.00    -0.744 OA
ENDBRANCH  54  58
ENDBRANCH  27  51
BRANCH  39  62
ATOM     62  C   UNL A   1      44.670  33.304  29.620  1.00  0.00     0.023 A 
ATOM     63  C   UNL A   1      44.429  34.496  28.918  1.00  0.00     0.031 A 
ATOM     64  C   UNL A   1      45.437  33.361  30.796  1.00  0.00     0.131 A 
ATOM     65  C   UNL A   1      45.005  35.691  29.366  1.00  0.00     0.055 A 
ATOM     66  C   UNL A   1      45.946  34.565  31.277  1.00  0.00     0.041 A 
ATOM     67  F   UNL A   1      45.702  32.245  31.494  1.00  0.00    -0.206 F 
ATOM     68  C   UNL A   1      45.743  35.737  30.553  1.00  0.00     0.022 A 
BRANCH  65  69
ATOM     69  S   UNL A   1      44.868  37.162  28.317  1.00  0.00     0.124 S 
ATOM     70  O   UNL A   1      44.222  38.113  29.215  1.00  0.00    -0.237 OA
ATOM     71  O   UNL A   1      46.262  37.442  27.988  1.00  0.00    -0.237 OA
ATOM     72  O   UNL A   1      44.046  36.707  27.197  1.00  0.00    -0.744 OA
ENDBRANCH  65  69
ENDBRANCH  39  62
ENDBRANCH  13  14
ENDBRANCH   6   8
ENDBRANCH   5   6
ENDBRANCH   4   5
ENDBRANCH   3   4
ENDBRANCH   2   3
ENDBRANCH   1   2
BRANCH   1  73
ATOM     73  C   UNL A   1      35.127  21.832  25.005  1.00  0.00     0.261 C 
BRANCH  73  74
ATOM     74  O   UNL A   1      34.450  22.368  23.793  1.00  0.00    -0.463 OA
BRANCH  74  75
ATOM     75  C   UNL A   1      33.065  22.291  23.715  1.00  0.00     0.310 C 
ATOM     76  O   UNL A   1      32.496  21.226  23.491  1.00  0.00    -0.252 OA
BRANCH  75  77
ATOM     77  C   UNL A   1      32.295  23.688  23.790  1.00  0.00     0.119 C 
ATOM     78  C   UNL A   1      32.628  25.274  24.116  1.00  0.00     0.100 C 
ATOM     79  C   UNL A   1      31.056  23.505  24.730  1.00  0.00     0.027 C 
ATOM     80  C   UNL A   1      31.473  25.676  25.070  1.00  0.00     0.025 C 
ATOM     81  C   UNL A   1      31.488  23.677  26.171  1.00  0.00    -0.027 C 
ATOM     82  C   UNL A   1      30.323  24.840  24.537  1.00  0.00     0.017 C 
ATOM     83  C   UNL A   1      31.715  24.979  26.378  1.00  0.00    -0.027 C 
BRANCH  78  84
ATOM     84  C   UNL A   1      33.766  26.284  24.547  1.00  0.00     0.229 C 
ATOM     85  O   UNL A   1      34.774  25.795  25.083  1.00  0.00    -0.274 OA
ATOM     86  N   UNL A   1      33.822  27.619  24.291  1.00  0.00    -0.323 N 
ATOM     87  H   UNL A   1      34.716  28.031  24.322  1.00  0.00     0.170 HD
BRANCH  86  88
ATOM     88  C   UNL A   1      32.768  28.461  23.992  1.00  0.00     0.084 A 
ATOM     89  C   UNL A   1      32.157  28.418  22.729  1.00  0.00     0.030 A 
ATOM     90  C   UNL A   1      32.293  29.305  24.955  1.00  0.00     0.149 A 
ATOM     91  C   UNL A   1      30.908  29.017  22.526  1.00  0.00     0.002 A 
ATOM     92  C   UNL A   1      31.002  29.840  24.764  1.00  0.00     0.049 A 
ATOM     93  C   UNL A   1      30.290  29.667  23.578  1.00  0.00     0.004 A 
BRANCH  90  94
ATOM     94  O   UNL A   1      32.986  29.685  26.057  1.00  0.00    -0.433 OA
BRANCH  94  95
ATOM     95  C   UNL A   1      33.534  29.084  27.255  1.00  0.00     0.542 C 
ATOM     96  F   UNL A   1      32.798  28.056  27.721  1.00  0.00    -0.167 F 
ATOM     97  F   UNL A   1      34.760  28.565  26.970  1.00  0.00    -0.167 F 
ENDBRANCH  94  95
ENDBRANCH  90  94
ENDBRANCH  86  88
ENDBRANCH  78  84
ENDBRANCH  75  77
ENDBRANCH  74  75
ENDBRANCH  73  74
ENDBRANCH   1  73
TORSDOF 21
ENDMDL
MODEL 2
REMARK VINA RESULT:     -10.3      2.136      8.699
REMARK SMILES O=C(OCCOCCOC(=O)[C@@H]1[C@H](C(=O)Nc2ccccc2OC(F)F)[C@@H]2C=C[C@H]1C2)c1ccc(-c2c3nc(c(-c4cc(S(=O)(=O)[O-])ccc4F)c4ccc([nH]4)c(-c4cc(S(=O)(=O)[O-])ccc4F)c4nc(c(-c5cc(S(=O)(=O)[O-])ccc5F)c5ccc2[nH]5)C=C4)C=C3)cc1
REMARK SMILES IDX 7 1 6 2 5 3 4 4 3 5 2 6 1 7 32 8 33 9 94 10 34 11 93 12
REMARK SMILES IDX 35 13 36 14 37 15 87 16 38 17 92 18 86 19 88 20 39 21 91 22
REMARK SMILES IDX 85 23 84 24 40 26 72 27 52 28 71 29 53 30 56 31 70 32 89 33
REMARK SMILES IDX 54 34 55 35 69 37 90 38 57 39 41 40 42 41 50 42 43 43 49 44
REMARK SMILES IDX 51 45 48 46 44 47 45 48 46 49 47 50 73 51 74 52 82 53 75 54
REMARK SMILES IDX 81 55 83 56 80 57 76 58 77 59 78 60 79 61 58 62 59 63 67 64
REMARK SMILES IDX 60 65 66 66 68 67 65 68 61 69 62 70 63 71 64 72 8 73 9 74
REMARK SMILES IDX 10 75 11 76 12 77 13 78 30 79 27 80 29 81 31 82 28 83 14 84
REMARK SMILES IDX 15 85 16 86 17 88 18 89 22 90 19 91 21 92 20 93 23 94 24 95
REMARK SMILES IDX 25 96 26 97
REMARK H PARENT 88 25 56 36 16 87
REMARK Flexibility Score: inf
ROOT
ATOM      1  C   UNL A   1      33.603  30.518  27.705  1.00  0.00     0.202 C 
ENDROOT
BRANCH   1   2
ATOM      2  O   UNL A   1      33.567  31.949  27.773  1.00  0.00    -0.374 OA
BRANCH   2   3
ATOM      3  C   UNL A   1      34.591  32.756  28.379  1.00  0.00     0.202 C 
BRANCH   3   4
ATOM      4  C   UNL A   1      34.279  33.808  29.428  1.00  0.00     0.261 C 
BRANCH   4   5
ATOM      5  O   UNL A   1      35.377  34.172  30.281  1.00  0.00    -0.460 OA
BRANCH   5   6
ATOM      6  C   UNL A   1      35.871  33.420  31.298  1.00  0.00     0.338 C 
ATOM      7  O   UNL A   1      35.396  33.463  32.417  1.00  0.00    -0.246 OA
BRANCH   6   8
ATOM      8  C   UNL A   1      37.066  32.598  31.031  1.00  0.00     0.060 A 
ATOM      9  C   UNL A   1      37.768  32.856  29.868  1.00  0.00     0.016 A 
ATOM     10  C   UNL A   1      37.494  31.587  31.883  1.00  0.00     0.016 A 
ATOM     11  C   UNL A   1      38.665  31.912  29.402  1.00  0.00     0.010 A 
ATOM     12  C   UNL A   1      38.644  30.853  31.543  1.00  0.00     0.010 A 
ATOM     13  C   UNL A   1      39.250  31.009  30.281  1.00  0.00    -0.014 A 
BRANCH  13  14
ATOM     14  C   UNL A   1      40.541  30.362  29.889  1.00  0.00     0.031 A 
ATOM     15  C   UNL A   1      41.821  31.152  29.889  1.00  0.00     0.074 A 
ATOM     16  C   UNL A   1      40.547  29.063  29.493  1.00  0.00     0.049 A 
ATOM     17  N   UNL A   1      42.931  30.916  29.244  1.00  0.00    -0.248 NA
ATOM     18  C   UNL A   1      41.850  32.381  30.699  1.00  0.00     0.031 C 
ATOM     19  C   UNL A   1      39.397  28.144  29.515  1.00  0.00     0.029 A 
ATOM     20  N   UNL A   1      41.552  28.270  28.989  1.00  0.00    -0.354 N 
ATOM     21  C   UNL A   1      43.756  32.009  29.488  1.00  0.00     0.074 A 
ATOM     22  C   UNL A   1      43.028  32.897  30.369  1.00  0.00     0.031 C 
ATOM     23  C   UNL A   1      39.773  26.919  29.145  1.00  0.00     0.029 A 
ATOM     24  C   UNL A   1      41.120  27.009  28.628  1.00  0.00     0.049 A 
ATOM     25  H   UNL A   1      42.485  28.570  28.896  1.00  0.00     0.167 HD
ATOM     26  C   UNL A   1      44.995  32.243  28.988  1.00  0.00     0.034 A 
ATOM     27  C   UNL A   1      41.674  26.063  27.848  1.00  0.00     0.034 A 
ATOM     28  C   UNL A   1      45.690  31.298  28.146  1.00  0.00     0.049 A 
ATOM     29  C   UNL A   1      43.005  26.384  27.237  1.00  0.00     0.074 A 
ATOM     30  C   UNL A   1      46.938  31.413  27.561  1.00  0.00     0.029 A 
ATOM     31  N   UNL A   1      45.190  30.053  27.776  1.00  0.00    -0.354 N 
ATOM     32  N   UNL A   1      43.736  27.464  27.388  1.00  0.00    -0.248 NA
ATOM     33  C   UNL A   1      43.573  25.381  26.335  1.00  0.00     0.031 C 
ATOM     34  C   UNL A   1      47.161  30.271  26.783  1.00  0.00     0.029 A 
ATOM     35  C   UNL A   1      46.091  29.405  26.949  1.00  0.00     0.049 A 
ATOM     36  H   UNL A   1      44.322  29.686  28.061  1.00  0.00     0.167 HD
ATOM     37  C   UNL A   1      44.866  27.260  26.610  1.00  0.00     0.074 A 
ATOM     38  C   UNL A   1      44.730  25.940  26.023  1.00  0.00     0.031 C 
ATOM     39  C   UNL A   1      45.918  28.087  26.387  1.00  0.00     0.034 A 
BRANCH  26  40
ATOM     40  C   UNL A   1      45.621  33.591  29.251  1.00  0.00     0.023 A 
ATOM     41  C   UNL A   1      45.425  34.696  28.406  1.00  0.00     0.031 A 
ATOM     42  C   UNL A   1      46.457  33.763  30.372  1.00  0.00     0.131 A 
ATOM     43  C   UNL A   1      46.105  35.901  28.659  1.00  0.00     0.055 A 
ATOM     44  C   UNL A   1      47.069  34.985  30.660  1.00  0.00     0.041 A 
ATOM     45  F   UNL A   1      46.704  32.738  31.202  1.00  0.00    -0.206 F 
ATOM     46  C   UNL A   1      46.904  36.059  29.794  1.00  0.00     0.022 A 
BRANCH  43  47
ATOM     47  S   UNL A   1      46.030  37.219  27.416  1.00  0.00     0.124 S 
ATOM     48  O   UNL A   1      46.525  38.366  28.175  1.00  0.00    -0.237 OA
ATOM     49  O   UNL A   1      46.914  36.719  26.369  1.00  0.00    -0.237 OA
ATOM     50  O   UNL A   1      44.614  37.279  27.062  1.00  0.00    -0.744 OA
ENDBRANCH  43  47
ENDBRANCH  26  40
BRANCH  27  51
ATOM     51  C   UNL A   1      40.930  24.814  27.493  1.00  0.00     0.023 A 
ATOM     52  C   UNL A   1      41.514  23.554  27.684  1.00  0.00     0.031 A 
ATOM     53  C   UNL A   1      39.649  24.854  26.901  1.00  0.00     0.131 A 
ATOM     54  C   UNL A   1      40.854  22.399  27.233  1.00  0.00     0.055 A 
ATOM     55  C   UNL A   1      38.961  23.697  26.535  1.00  0.00     0.041 A 
ATOM     56  F   UNL A   1      39.034  26.027  26.682  1.00  0.00    -0.206 F 
ATOM     57  C   UNL A   1      39.574  22.459  26.679  1.00  0.00     0.022 A 
BRANCH  54  58
ATOM     58  S   UNL A   1      41.764  20.830  27.248  1.00  0.00     0.124 S 
ATOM     59  O   UNL A   1      42.905  21.159  28.094  1.00  0.00    -0.237 OA
ATOM     60  O   UNL A   1      40.780  19.919  27.823  1.00  0.00    -0.237 OA
ATOM     61  O   UNL A   1      42.074  20.605  25.838  1.00  0.00    -0.744 OA
ENDBRANCH  54  58
ENDBRANCH  27  51
BRANCH  39  62
ATOM     62  C   UNL A   1      47.013  27.542  25.515  1.00  0.00     0.023 A 
ATOM     63  C   UNL A   1      47.185  27.982  24.192  1.00  0.00     0.031 A 
ATOM     64  C   UNL A   1      47.874  26.547  26.008  1.00  0.00     0.131 A 
ATOM     65  C   UNL A   1      48.158  27.382  23.385  1.00  0.00     0.055 A 
ATOM     66  C   UNL A   1      48.889  26.006  25.222  1.00  0.00     0.041 A 
ATOM     67  F   UNL A   1      47.741  26.088  27.262  1.00  0.00    -0.206 F 
ATOM     68  C   UNL A   1      49.026  26.413  23.897  1.00  0.00     0.022 A 
BRANCH  65  69
ATOM     69  S   UNL A   1      48.200  27.807  21.624  1.00  0.00     0.124 S 
ATOM     70  O   UNL A   1      49.200  28.869  21.595  1.00  0.00    -0.237 OA
ATOM     71  O   UNL A   1      48.594  26.545  21.007  1.00  0.00    -0.237 OA
ATOM     72  O   UNL A   1      46.831  28.234  21.342  1.00  0.00    -0.744 OA
ENDBRANCH  65  69
ENDBRANCH  39  62
ENDBRANCH  13  14
ENDBRANCH   6   8
ENDBRANCH   5   6
ENDBRANCH   4   5
ENDBRANCH   3   4
ENDBRANCH   2   3
ENDBRANCH   1   2
BRANCH   1  73
ATOM     73  C   UNL A   1      32.390  29.842  26.921  1.00  0.00     0.261 C 
BRANCH  73  74
ATOM     74  O   UNL A   1      32.555  28.412  26.545  1.00  0.00    -0.463 OA
BRANCH  74  75
ATOM     75  C   UNL A   1      32.762  28.094  25.208  1.00  0.00     0.310 C 
ATOM     76  O   UNL A   1      33.343  28.866  24.450  1.00  0.00    -0.252 OA
BRANCH  75  77
ATOM     77  C   UNL A   1      32.070  26.744  24.710  1.00  0.00     0.119 C 
ATOM     78  C   UNL A   1      32.396  25.483  23.692  1.00  0.00     0.100 C 
ATOM     79  C   UNL A   1      30.633  27.100  24.197  1.00  0.00     0.027 C 
ATOM     80  C   UNL A   1      31.069  25.326  22.906  1.00  0.00     0.025 C 
ATOM     81  C   UNL A   1      30.715  27.577  22.762  1.00  0.00    -0.027 C 
ATOM     82  C   UNL A   1      30.038  25.706  23.954  1.00  0.00     0.017 C 
ATOM     83  C   UNL A   1      30.953  26.510  21.989  1.00  0.00    -0.027 C 
BRANCH  78  84
ATOM     84  C   UNL A   1      33.448  24.903  22.664  1.00  0.00     0.229 C 
ATOM     85  O   UNL A   1      33.985  25.717  21.894  1.00  0.00    -0.274 OA
ATOM     86  N   UNL A   1      33.924  23.630  22.603  1.00  0.00    -0.323 N 
ATOM     87  H   UNL A   1      34.790  23.510  22.150  1.00  0.00     0.170 HD
BRANCH  86  88
ATOM     88  C   UNL A   1      33.331  22.487  23.105  1.00  0.00     0.084 A 
ATOM     89  C   UNL A   1      32.365  21.798  22.356  1.00  0.00     0.030 A 
ATOM     90  C   UNL A   1      33.728  22.006  24.319  1.00  0.00     0.149 A 
ATOM     91  C   UNL A   1      32.003  20.490  22.699  1.00  0.00     0.002 A 
ATOM     92  C   UNL A   1      33.415  20.663  24.614  1.00  0.00     0.049 A 
ATOM     93  C   UNL A   1      32.594  19.890  23.795  1.00  0.00     0.004 A 
BRANCH  90  94
ATOM     94  O   UNL A   1      34.370  22.737  25.266  1.00  0.00    -0.433 OA
BRANCH  94  95
ATOM     95  C   UNL A   1      34.041  23.554  26.414  1.00  0.00     0.542 C 
ATOM     96  F   UNL A   1      34.339  24.857  26.245  1.00  0.00    -0.167 F 
ATOM     97  F   UNL A   1      32.697  23.502  26.625  1.00  0.00    -0.167 F 
ENDBRANCH  94  95
ENDBRANCH  90  94
ENDBRANCH  86  88
ENDBRANCH  78  84
ENDBRANCH  75  77
ENDBRANCH  74  75
ENDBRANCH  73  74
ENDBRANCH   1  73
TORSDOF 21
ENDMDL
MODEL 3
REMARK VINA RESULT:     -10.0      5.471     10.491
REMARK SMILES O=C(OCCOCCOC(=O)[C@@H]1[C@H](C(=O)Nc2ccccc2OC(F)F)[C@@H]2C=C[C@H]1C2)c1ccc(-c2c3nc(c(-c4cc(S(=O)(=O)[O-])ccc4F)c4ccc([nH]4)c(-c4cc(S(=O)(=O)[O-])ccc4F)c4nc(c(-c5cc(S(=O)(=O)[O-])ccc5F)c5ccc2[nH]5)C=C4)C=C3)cc1
REMARK SMILES IDX 7 1 6 2 5 3 4 4 3 5 2 6 1 7 32 8 33 9 94 10 34 11 93 12
REMARK SMILES IDX 35 13 36 14 37 15 87 16 38 17 92 18 86 19 88 20 39 21 91 22
REMARK SMILES IDX 85 23 84 24 40 26 72 27 52 28 71 29 53 30 56 31 70 32 89 33
REMARK SMILES IDX 54 34 55 35 69 37 90 38 57 39 41 40 42 41 50 42 43 43 49 44
REMARK SMILES IDX 51 45 48 46 44 47 45 48 46 49 47 50 73 51 74 52 82 53 75 54
REMARK SMILES IDX 81 55 83 56 80 57 76 58 77 59 78 60 79 61 58 62 59 63 67 64
REMARK SMILES IDX 60 65 66 66 68 67 65 68 61 69 62 70 63 71 64 72 8 73 9 74
REMARK SMILES IDX 10 75 11 76 12 77 13 78 30 79 27 80 29 81 31 82 28 83 14 84
REMARK SMILES IDX 15 85 16 86 17 88 18 89 22 90 19 91 21 92 20 93 23 94 24 95
REMARK SMILES IDX 25 96 26 97
REMARK H PARENT 88 25 56 36 16 87
REMARK Flexibility Score: inf
ROOT
ATOM      1  C   UNL A   1      47.951  27.361  23.468  1.00  0.00     0.202 C 
ENDROOT
BRANCH   1   2
ATOM      2  O   UNL A   1      49.214  27.968  23.762  1.00  0.00    -0.374 OA
BRANCH   2   3
ATOM      3  C   UNL A   1      50.477  27.490  23.268  1.00  0.00     0.202 C 
BRANCH   3   4
ATOM      4  C   UNL A   1      51.553  26.940  24.186  1.00  0.00     0.261 C 
BRANCH   4   5
ATOM      5  O   UNL A   1      51.191  25.762  24.924  1.00  0.00    -0.460 OA
BRANCH   5   6
ATOM      6  C   UNL A   1      51.340  25.590  26.264  1.00  0.00     0.338 C 
ATOM      7  O   UNL A   1      52.153  24.811  26.724  1.00  0.00    -0.246 OA
BRANCH   6   8
ATOM      8  C   UNL A   1      50.425  26.322  27.159  1.00  0.00     0.060 A 
ATOM      9  C   UNL A   1      49.075  26.035  27.063  1.00  0.00     0.016 A 
ATOM     10  C   UNL A   1      50.861  27.279  28.068  1.00  0.00     0.016 A 
ATOM     11  C   UNL A   1      48.161  26.915  27.610  1.00  0.00     0.010 A 
ATOM     12  C   UNL A   1      49.913  27.928  28.879  1.00  0.00     0.010 A 
ATOM     13  C   UNL A   1      48.534  27.751  28.656  1.00  0.00    -0.014 A 
BRANCH  13  14
ATOM     14  C   UNL A   1      47.466  28.304  29.547  1.00  0.00     0.031 A 
ATOM     15  C   UNL A   1      46.969  27.511  30.724  1.00  0.00     0.074 A 
ATOM     16  C   UNL A   1      46.917  29.513  29.265  1.00  0.00     0.049 A 
ATOM     17  N   UNL A   1      45.837  27.617  31.366  1.00  0.00    -0.248 NA
ATOM     18  C   UNL A   1      47.847  26.442  31.230  1.00  0.00     0.031 C 
ATOM     19  C   UNL A   1      47.349  30.436  28.202  1.00  0.00     0.029 A 
ATOM     20  N   UNL A   1      45.870  30.194  29.841  1.00  0.00    -0.354 N 
ATOM     21  C   UNL A   1      45.820  26.574  32.286  1.00  0.00     0.074 A 
ATOM     22  C   UNL A   1      47.072  25.863  32.140  1.00  0.00     0.031 C 
ATOM     23  C   UNL A   1      46.654  31.573  28.261  1.00  0.00     0.029 A 
ATOM     24  C   UNL A   1      45.569  31.378  29.196  1.00  0.00     0.049 A 
ATOM     25  H   UNL A   1      45.383  29.871  30.634  1.00  0.00     0.167 HD
ATOM     26  C   UNL A   1      44.825  26.240  33.146  1.00  0.00     0.034 A 
ATOM     27  C   UNL A   1      44.479  32.165  29.235  1.00  0.00     0.034 A 
ATOM     28  C   UNL A   1      43.613  27.015  33.277  1.00  0.00     0.049 A 
ATOM     29  C   UNL A   1      43.358  31.726  30.127  1.00  0.00     0.074 A 
ATOM     30  C   UNL A   1      42.522  26.783  34.095  1.00  0.00     0.029 A 
ATOM     31  N   UNL A   1      43.341  28.181  32.570  1.00  0.00    -0.354 N 
ATOM     32  N   UNL A   1      43.303  30.680  30.919  1.00  0.00    -0.248 NA
ATOM     33  C   UNL A   1      42.147  32.548  30.115  1.00  0.00     0.031 C 
ATOM     34  C   UNL A   1      41.564  27.769  33.830  1.00  0.00     0.029 A 
ATOM     35  C   UNL A   1      42.089  28.663  32.911  1.00  0.00     0.049 A 
ATOM     36  H   UNL A   1      43.949  28.603  31.921  1.00  0.00     0.167 HD
ATOM     37  C   UNL A   1      42.053  30.731  31.517  1.00  0.00     0.074 A 
ATOM     38  C   UNL A   1      41.404  31.929  31.018  1.00  0.00     0.031 C 
ATOM     39  C   UNL A   1      41.481  29.865  32.391  1.00  0.00     0.034 A 
BRANCH  26  40
ATOM     40  C   UNL A   1      44.960  24.951  33.920  1.00  0.00     0.023 A 
ATOM     41  C   UNL A   1      45.498  24.898  35.216  1.00  0.00     0.031 A 
ATOM     42  C   UNL A   1      44.556  23.739  33.327  1.00  0.00     0.131 A 
ATOM     43  C   UNL A   1      45.675  23.655  35.850  1.00  0.00     0.055 A 
ATOM     44  C   UNL A   1      44.664  22.516  33.992  1.00  0.00     0.041 A 
ATOM     45  F   UNL A   1      44.058  23.721  32.080  1.00  0.00    -0.206 F 
ATOM     46  C   UNL A   1      45.238  22.468  35.257  1.00  0.00     0.022 A 
BRANCH  43  47
ATOM     47  S   UNL A   1      46.601  23.598  37.409  1.00  0.00     0.124 S 
ATOM     48  O   UNL A   1      47.848  22.966  36.985  1.00  0.00    -0.237 OA
ATOM     49  O   UNL A   1      46.692  25.006  37.776  1.00  0.00    -0.237 OA
ATOM     50  O   UNL A   1      45.760  22.779  38.279  1.00  0.00    -0.744 OA
ENDBRANCH  43  47
ENDBRANCH  26  40
BRANCH  27  51
ATOM     51  C   UNL A   1      44.337  33.342  28.320  1.00  0.00     0.023 A 
ATOM     52  C   UNL A   1      44.443  34.650  28.814  1.00  0.00     0.031 A 
ATOM     53  C   UNL A   1      44.034  33.187  26.951  1.00  0.00     0.131 A 
ATOM     54  C   UNL A   1      44.187  35.742  27.970  1.00  0.00     0.055 A 
ATOM     55  C   UNL A   1      43.866  34.278  26.097  1.00  0.00     0.041 A 
ATOM     56  F   UNL A   1      43.910  31.964  26.412  1.00  0.00    -0.206 F 
ATOM     57  C   UNL A   1      43.919  35.567  26.611  1.00  0.00     0.022 A 
BRANCH  54  58
ATOM     58  S   UNL A   1      44.062  37.391  28.715  1.00  0.00     0.124 S 
ATOM     59  O   UNL A   1      44.930  38.174  27.843  1.00  0.00    -0.237 OA
ATOM     60  O   UNL A   1      42.632  37.661  28.608  1.00  0.00    -0.237 OA
ATOM     61  O   UNL A   1      44.559  37.187  30.074  1.00  0.00    -0.744 OA
ENDBRANCH  54  58
ENDBRANCH  27  51
BRANCH  39  62
ATOM     62  C   UNL A   1      40.112  30.236  32.888  1.00  0.00     0.023 A 
ATOM     63  C   UNL A   1      39.918  30.762  34.176  1.00  0.00     0.031 A 
ATOM     64  C   UNL A   1      38.988  30.029  32.071  1.00  0.00     0.131 A 
ATOM     65  C   UNL A   1      38.619  31.006  34.634  1.00  0.00     0.055 A 
ATOM     66  C   UNL A   1      37.703  30.344  32.506  1.00  0.00     0.041 A 
ATOM     67  F   UNL A   1      39.125  29.519  30.837  1.00  0.00    -0.206 F 
ATOM     68  C   UNL A   1      37.512  30.823  33.800  1.00  0.00     0.022 A 
BRANCH  65  69
ATOM     69  S   UNL A   1      38.387  31.463  36.372  1.00  0.00     0.124 S 
ATOM     70  O   UNL A   1      39.707  31.974  36.727  1.00  0.00    -0.237 OA
ATOM     71  O   UNL A   1      37.320  32.456  36.295  1.00  0.00    -0.237 OA
ATOM     72  O   UNL A   1      38.015  30.202  37.010  1.00  0.00    -0.744 OA
ENDBRANCH  65  69
ENDBRANCH  39  62
ENDBRANCH  13  14
ENDBRANCH   6   8
ENDBRANCH   5   6
ENDBRANCH   4   5
ENDBRANCH   3   4
ENDBRANCH   2   3
ENDBRANCH   1   2
BRANCH   1  73
ATOM     73  C   UNL A   1      46.671  28.207  23.903  1.00  0.00     0.261 C 
BRANCH  73  74
ATOM     74  O   UNL A   1      46.277  28.127  25.336  1.00  0.00    -0.463 OA
BRANCH  74  75
ATOM     75  C   UNL A   1      45.124  27.428  25.672  1.00  0.00     0.310 C 
ATOM     76  O   UNL A   1      44.754  26.454  25.021  1.00  0.00    -0.252 OA
BRANCH  75  77
ATOM     77  C   UNL A   1      44.256  28.064  26.852  1.00  0.00     0.119 C 
ATOM     78  C   UNL A   1      43.530  27.585  28.258  1.00  0.00     0.100 C 
ATOM     79  C   UNL A   1      43.049  28.825  26.206  1.00  0.00     0.027 C 
ATOM     80  C   UNL A   1      42.130  28.247  28.162  1.00  0.00     0.025 C 
ATOM     81  C   UNL A   1      41.929  27.844  25.924  1.00  0.00    -0.027 C 
ATOM     82  C   UNL A   1      42.445  29.536  27.424  1.00  0.00     0.017 C 
ATOM     83  C   UNL A   1      41.367  27.518  27.094  1.00  0.00    -0.027 C 
BRANCH  78  84
ATOM     84  C   UNL A   1      43.234  26.343  29.191  1.00  0.00     0.229 C 
ATOM     85  O   UNL A   1      42.801  26.589  30.329  1.00  0.00    -0.274 OA
ATOM     86  N   UNL A   1      43.286  25.027  28.850  1.00  0.00    -0.323 N 
ATOM     87  H   UNL A   1      42.767  24.410  29.414  1.00  0.00     0.170 HD
BRANCH  86  88
ATOM     88  C   UNL A   1      43.985  24.459  27.802  1.00  0.00     0.084 A 
ATOM     89  C   UNL A   1      45.384  24.363  27.848  1.00  0.00     0.030 A 
ATOM     90  C   UNL A   1      43.297  23.946  26.740  1.00  0.00     0.149 A 
ATOM     91  C   UNL A   1      46.065  23.515  26.966  1.00  0.00     0.002 A 
ATOM     92  C   UNL A   1      43.982  23.037  25.906  1.00  0.00     0.049 A 
ATOM     93  C   UNL A   1      45.346  22.786  26.037  1.00  0.00     0.004 A 
BRANCH  90  94
ATOM     94  O   UNL A   1      42.021  24.274  26.417  1.00  0.00    -0.433 OA
BRANCH  94  95
ATOM     95  C   UNL A   1      40.676  23.914  26.811  1.00  0.00     0.542 C 
ATOM     96  F   UNL A   1      40.355  24.323  28.054  1.00  0.00    -0.167 F 
ATOM     97  F   UNL A   1      39.791  24.526  25.977  1.00  0.00    -0.167 F 
ENDBRANCH  94  95
ENDBRANCH  90  94
ENDBRANCH  86  88
ENDBRANCH  78  84
ENDBRANCH  75  77
ENDBRANCH  74  75
ENDBRANCH  73  74
ENDBRANCH   1  73
TORSDOF 21
ENDMDL
