MODEL 1
REMARK VINA RESULT:     -10.6      0.000      0.000
REMARK SMILES [NH3+]CCC1=c2cc([N+](=O)[O-])ccc2=N[C@H]1C(=O)OCCOCCOC(=O)c1ccc(-c2c3nc(c(-c4cc(S(=O)(=O)[O-])ccc4F)c4ccc([nH]4)c(-c4cc(S(=O)(=O)[O-])ccc4F)c4nc(c(-c5cc(S(=O)(=O)[O-])ccc5F)c5ccc2[nH]5)C=C4)C=C3)cc1
REMARK SMILES IDX 21 1 20 2 19 3 18 4 16 5 17 6 15 7 4 8 5 9 6 10 13 11 14 12
REMARK SMILES IDX 7 13 12 14 11 15 3 16 2 17 1 18 8 22 9 23 10 24 22 25 23 26
REMARK SMILES IDX 24 27 25 28 26 29 27 30 28 31 89 32 29 33 88 34 30 35 31 36
REMARK SMILES IDX 32 37 82 38 33 39 87 40 81 41 83 42 34 43 86 44 80 45 79 46
REMARK SMILES IDX 35 48 67 49 47 50 66 51 48 52 51 53 65 54 84 55 49 56 50 57
REMARK SMILES IDX 64 59 85 60 52 61 36 62 37 63 45 64 38 65 44 66 46 67 43 68
REMARK SMILES IDX 39 69 40 70 41 71 42 72 68 73 69 74 77 75 70 76 76 77 78 78
REMARK SMILES IDX 75 79 71 80 72 81 73 82 74 83 53 84 54 85 62 86 55 87 61 88
REMARK SMILES IDX 63 89 60 90 56 91 57 92 58 93 59 94
REMARK H PARENT 1 19 1 20 1 21 83 47 51 58
REMARK Flexibility Score: inf
ROOT
ATOM      1  O   UNL A   1      32.595  30.414  27.000  1.00  0.00    -0.374 OA
ENDROOT
BRANCH   1   2
ATOM      2  C   UNL A   1      33.520  29.852  26.070  1.00  0.00     0.202 C 
BRANCH   2   3
ATOM      3  C   UNL A   1      33.801  28.354  26.190  1.00  0.00     0.261 C 
BRANCH   3   4
ATOM      4  O   UNL A   1      33.731  27.721  24.905  1.00  0.00    -0.461 OA
BRANCH   4   5
ATOM      5  C   UNL A   1      33.179  26.474  24.895  1.00  0.00     0.335 C 
ATOM      6  O   UNL A   1      33.203  25.680  25.829  1.00  0.00    -0.249 OA
BRANCH   5   7
ATOM      7  C   UNL A   1      32.504  26.208  23.536  1.00  0.00     0.242 C 
ATOM      8  C   UNL A   1      31.031  26.055  23.776  1.00  0.00    -0.019 C 
ATOM      9  C   UNL A   1      30.392  27.148  23.355  1.00  0.00     0.009 A 
ATOM     10  C   UNL A   1      29.054  27.638  23.473  1.00  0.00     0.096 A 
ATOM     11  C   UNL A   1      31.459  27.944  22.722  1.00  0.00     0.067 A 
ATOM     12  N   UNL A   1      32.656  27.449  22.707  1.00  0.00    -0.265 NA
ATOM     13  C   UNL A   1      28.786  28.869  22.995  1.00  0.00     0.270 A 
ATOM     14  C   UNL A   1      31.066  29.251  22.153  1.00  0.00     0.035 A 
ATOM     15  C   UNL A   1      29.798  29.671  22.310  1.00  0.00     0.088 A 
BRANCH   8  16
ATOM     16  C   UNL A   1      30.469  24.879  24.523  1.00  0.00     0.096 C 
BRANCH  16  17
ATOM     17  C   UNL A   1      30.146  25.111  26.013  1.00  0.00     0.263 C 
BRANCH  17  18
ATOM     18  N   UNL A   1      29.625  23.939  26.707  1.00  0.00    -0.357 N 
ATOM     19  H   UNL A   1      29.080  24.236  27.516  1.00  0.00     0.344 HD
ATOM     20  H   UNL A   1      30.402  23.353  27.016  1.00  0.00     0.344 HD
ATOM     21  H   UNL A   1      29.029  23.406  26.073  1.00  0.00     0.344 HD
ENDBRANCH  17  18
ENDBRANCH  16  17
ENDBRANCH   8  16
BRANCH  13  22
ATOM     22  N   UNL A   1      27.436  29.407  23.213  1.00  0.00     0.062 N 
ATOM     23  O   UNL A   1      26.505  28.611  23.393  1.00  0.00    -0.258 OA
ATOM     24  O   UNL A   1      27.312  30.640  23.211  1.00  0.00    -0.258 OA
ENDBRANCH  13  22
ENDBRANCH   5   7
ENDBRANCH   4   5
ENDBRANCH   3   4
ENDBRANCH   2   3
ENDBRANCH   1   2
BRANCH   1  25
ATOM     25  C   UNL A   1      31.590  31.301  26.514  1.00  0.00     0.202 C 
BRANCH  25  26
ATOM     26  C   UNL A   1      31.658  32.778  26.928  1.00  0.00     0.261 C 
BRANCH  26  27
ATOM     27  O   UNL A   1      32.978  33.345  26.879  1.00  0.00    -0.460 OA
BRANCH  27  28
ATOM     28  C   UNL A   1      33.399  33.908  28.040  1.00  0.00     0.338 C 
ATOM     29  O   UNL A   1      32.837  34.792  28.675  1.00  0.00    -0.246 OA
BRANCH  28  30
ATOM     30  C   UNL A   1      34.584  33.194  28.538  1.00  0.00     0.060 A 
ATOM     31  C   UNL A   1      35.867  33.667  28.262  1.00  0.00     0.016 A 
ATOM     32  C   UNL A   1      34.398  32.073  29.358  1.00  0.00     0.016 A 
ATOM     33  C   UNL A   1      36.972  33.012  28.815  1.00  0.00     0.010 A 
ATOM     34  C   UNL A   1      35.502  31.422  29.906  1.00  0.00     0.010 A 
ATOM     35  C   UNL A   1      36.799  31.890  29.644  1.00  0.00    -0.014 A 
BRANCH  35  36
ATOM     36  C   UNL A   1      37.966  31.243  30.298  1.00  0.00     0.031 A 
ATOM     37  C   UNL A   1      38.389  31.648  31.679  1.00  0.00     0.074 A 
ATOM     38  C   UNL A   1      38.663  30.310  29.620  1.00  0.00     0.049 A 
ATOM     39  N   UNL A   1      39.379  31.188  32.399  1.00  0.00    -0.248 NA
ATOM     40  C   UNL A   1      37.608  32.708  32.334  1.00  0.00     0.031 C 
ATOM     41  C   UNL A   1      38.353  29.863  28.263  1.00  0.00     0.029 A 
ATOM     42  N   UNL A   1      39.770  29.575  29.970  1.00  0.00    -0.354 N 
ATOM     43  C   UNL A   1      39.338  31.893  33.596  1.00  0.00     0.074 A 
ATOM     44  C   UNL A   1      38.255  32.847  33.484  1.00  0.00     0.031 C 
ATOM     45  C   UNL A   1      39.235  28.920  27.901  1.00  0.00     0.029 A 
ATOM     46  C   UNL A   1      40.202  28.722  28.979  1.00  0.00     0.049 A 
ATOM     47  H   UNL A   1      40.212  29.653  30.846  1.00  0.00     0.167 HD
ATOM     48  C   UNL A   1      40.120  31.738  34.691  1.00  0.00     0.034 A 
ATOM     49  C   UNL A   1      41.258  27.881  28.939  1.00  0.00     0.034 A 
ATOM     50  C   UNL A   1      41.187  30.774  34.782  1.00  0.00     0.049 A 
ATOM     51  C   UNL A   1      42.136  27.752  30.160  1.00  0.00     0.074 A 
ATOM     52  C   UNL A   1      42.001  30.509  35.869  1.00  0.00     0.029 A 
ATOM     53  N   UNL A   1      41.597  29.927  33.762  1.00  0.00    -0.354 N 
ATOM     54  N   UNL A   1      42.024  28.355  31.320  1.00  0.00    -0.248 NA
ATOM     55  C   UNL A   1      43.274  26.823  30.081  1.00  0.00     0.031 C 
ATOM     56  C   UNL A   1      42.950  29.565  35.484  1.00  0.00     0.029 A 
ATOM     57  C   UNL A   1      42.672  29.164  34.186  1.00  0.00     0.049 A 
ATOM     58  H   UNL A   1      41.183  29.874  32.869  1.00  0.00     0.167 HD
ATOM     59  C   UNL A   1      43.048  27.853  32.117  1.00  0.00     0.074 A 
ATOM     60  C   UNL A   1      43.765  26.887  31.313  1.00  0.00     0.031 C 
ATOM     61  C   UNL A   1      43.361  28.168  33.399  1.00  0.00     0.034 A 
BRANCH  48  62
ATOM     62  C   UNL A   1      39.858  32.593  35.907  1.00  0.00     0.023 A 
ATOM     63  C   UNL A   1      38.954  32.153  36.893  1.00  0.00     0.031 A 
ATOM     64  C   UNL A   1      40.359  33.902  36.000  1.00  0.00     0.131 A 
ATOM     65  C   UNL A   1      38.541  33.034  37.900  1.00  0.00     0.055 A 
ATOM     66  C   UNL A   1      39.981  34.759  37.035  1.00  0.00     0.041 A 
ATOM     67  F   UNL A   1      41.219  34.372  35.081  1.00  0.00    -0.206 F 
ATOM     68  C   UNL A   1      39.055  34.332  37.980  1.00  0.00     0.022 A 
BRANCH  65  69
ATOM     69  S   UNL A   1      37.258  32.561  39.092  1.00  0.00     0.124 S 
ATOM     70  O   UNL A   1      37.604  31.167  39.366  1.00  0.00    -0.237 OA
ATOM     71  O   UNL A   1      37.503  33.492  40.190  1.00  0.00    -0.237 OA
ATOM     72  O   UNL A   1      36.010  32.758  38.361  1.00  0.00    -0.744 OA
ENDBRANCH  65  69
ENDBRANCH  48  62
BRANCH  49  73
ATOM     73  C   UNL A   1      41.489  27.061  27.712  1.00  0.00     0.023 A 
ATOM     74  C   UNL A   1      41.124  25.702  27.671  1.00  0.00     0.031 A 
ATOM     75  C   UNL A   1      42.168  27.593  26.604  1.00  0.00     0.131 A 
ATOM     76  C   UNL A   1      41.504  24.909  26.580  1.00  0.00     0.055 A 
ATOM     77  C   UNL A   1      42.476  26.817  25.484  1.00  0.00     0.041 A 
ATOM     78  F   UNL A   1      42.549  28.880  26.598  1.00  0.00    -0.206 F 
ATOM     79  C   UNL A   1      42.161  25.462  25.478  1.00  0.00     0.022 A 
BRANCH  76  80
ATOM     80  S   UNL A   1      41.281  23.108  26.617  1.00  0.00     0.124 S 
ATOM     81  O   UNL A   1      41.760  22.769  27.953  1.00  0.00    -0.237 OA
ATOM     82  O   UNL A   1      39.840  22.982  26.413  1.00  0.00    -0.237 OA
ATOM     83  O   UNL A   1      42.107  22.636  25.512  1.00  0.00    -0.744 OA
ENDBRANCH  76  80
ENDBRANCH  49  73
BRANCH  61  84
ATOM     84  C   UNL A   1      44.509  27.460  34.081  1.00  0.00     0.023 A 
ATOM     85  C   UNL A   1      44.289  26.203  34.680  1.00  0.00     0.031 A 
ATOM     86  C   UNL A   1      45.728  28.112  34.332  1.00  0.00     0.131 A 
ATOM     87  C   UNL A   1      45.238  25.676  35.564  1.00  0.00     0.055 A 
ATOM     88  C   UNL A   1      46.697  27.552  35.168  1.00  0.00     0.041 A 
ATOM     89  F   UNL A   1      45.983  29.315  33.794  1.00  0.00    -0.206 F 
ATOM     90  C   UNL A   1      46.443  26.340  35.806  1.00  0.00     0.022 A 
BRANCH  87  91
ATOM     91  S   UNL A   1      44.887  24.175  36.524  1.00  0.00     0.124 S 
ATOM     92  O   UNL A   1      43.748  23.612  35.801  1.00  0.00    -0.237 OA
ATOM     93  O   UNL A   1      46.136  23.431  36.396  1.00  0.00    -0.237 OA
ATOM     94  O   UNL A   1      44.584  24.675  37.862  1.00  0.00    -0.744 OA
ENDBRANCH  87  91
ENDBRANCH  61  84
ENDBRANCH  35  36
ENDBRANCH  28  30
ENDBRANCH  27  28
ENDBRANCH  26  27
ENDBRANCH  25  26
ENDBRANCH   1  25
TORSDOF 21
ENDMDL
MODEL 2
REMARK VINA RESULT:     -10.5      2.379      3.691
REMARK SMILES [NH3+]CCC1=c2cc([N+](=O)[O-])ccc2=N[C@H]1C(=O)OCCOCCOC(=O)c1ccc(-c2c3nc(c(-c4cc(S(=O)(=O)[O-])ccc4F)c4ccc([nH]4)c(-c4cc(S(=O)(=O)[O-])ccc4F)c4nc(c(-c5cc(S(=O)(=O)[O-])ccc5F)c5ccc2[nH]5)C=C4)C=C3)cc1
REMARK SMILES IDX 21 1 20 2 19 3 18 4 16 5 17 6 15 7 4 8 5 9 6 10 13 11 14 12
REMARK SMILES IDX 7 13 12 14 11 15 3 16 2 17 1 18 8 22 9 23 10 24 22 25 23 26
REMARK SMILES IDX 24 27 25 28 26 29 27 30 28 31 89 32 29 33 88 34 30 35 31 36
REMARK SMILES IDX 32 37 82 38 33 39 87 40 81 41 83 42 34 43 86 44 80 45 79 46
REMARK SMILES IDX 35 48 67 49 47 50 66 51 48 52 51 53 65 54 84 55 49 56 50 57
REMARK SMILES IDX 64 59 85 60 52 61 36 62 37 63 45 64 38 65 44 66 46 67 43 68
REMARK SMILES IDX 39 69 40 70 41 71 42 72 68 73 69 74 77 75 70 76 76 77 78 78
REMARK SMILES IDX 75 79 71 80 72 81 73 82 74 83 53 84 54 85 62 86 55 87 61 88
REMARK SMILES IDX 63 89 60 90 56 91 57 92 58 93 59 94
REMARK H PARENT 1 19 1 20 1 21 83 47 51 58
REMARK Flexibility Score: inf
ROOT
ATOM      1  O   UNL A   1      32.301  28.741  24.986  1.00  0.00    -0.374 OA
ENDROOT
BRANCH   1   2
ATOM      2  C   UNL A   1      33.297  28.907  23.980  1.00  0.00     0.202 C 
BRANCH   2   3
ATOM      3  C   UNL A   1      33.919  27.635  23.401  1.00  0.00     0.261 C 
BRANCH   3   4
ATOM      4  O   UNL A   1      32.948  26.581  23.337  1.00  0.00    -0.461 OA
BRANCH   4   5
ATOM      5  C   UNL A   1      33.253  25.459  24.050  1.00  0.00     0.335 C 
ATOM      6  O   UNL A   1      32.913  25.241  25.208  1.00  0.00    -0.249 OA
BRANCH   5   7
ATOM      7  C   UNL A   1      34.080  24.492  23.184  1.00  0.00     0.242 C 
ATOM      8  C   UNL A   1      34.649  23.437  24.086  1.00  0.00    -0.019 C 
ATOM      9  C   UNL A   1      33.987  22.292  23.911  1.00  0.00     0.009 A 
ATOM     10  C   UNL A   1      33.962  21.032  24.586  1.00  0.00     0.096 A 
ATOM     11  C   UNL A   1      33.078  22.592  22.790  1.00  0.00     0.067 A 
ATOM     12  N   UNL A   1      33.128  23.778  22.270  1.00  0.00    -0.265 NA
ATOM     13  C   UNL A   1      33.066  20.112  24.178  1.00  0.00     0.270 A 
ATOM     14  C   UNL A   1      32.179  21.502  22.353  1.00  0.00     0.035 A 
ATOM     15  C   UNL A   1      32.183  20.345  23.036  1.00  0.00     0.088 A 
BRANCH   8  16
ATOM     16  C   UNL A   1      35.702  23.755  25.109  1.00  0.00     0.096 C 
BRANCH  16  17
ATOM     17  C   UNL A   1      37.166  23.612  24.644  1.00  0.00     0.263 C 
BRANCH  17  18
ATOM     18  N   UNL A   1      37.731  22.281  24.831  1.00  0.00    -0.357 N 
ATOM     19  H   UNL A   1      37.841  22.095  25.828  1.00  0.00     0.344 HD
ATOM     20  H   UNL A   1      38.642  22.230  24.374  1.00  0.00     0.344 HD
ATOM     21  H   UNL A   1      37.106  21.586  24.423  1.00  0.00     0.344 HD
ENDBRANCH  17  18
ENDBRANCH  16  17
ENDBRANCH   8  16
BRANCH  13  22
ATOM     22  N   UNL A   1      32.974  18.861  24.944  1.00  0.00     0.062 N 
ATOM     23  O   UNL A   1      32.349  18.867  26.013  1.00  0.00    -0.258 OA
ATOM     24  O   UNL A   1      33.530  17.863  24.464  1.00  0.00    -0.258 OA
ENDBRANCH  13  22
ENDBRANCH   5   7
ENDBRANCH   4   5
ENDBRANCH   3   4
ENDBRANCH   2   3
ENDBRANCH   1   2
BRANCH   1  25
ATOM     25  C   UNL A   1      31.263  29.714  25.090  1.00  0.00     0.202 C 
BRANCH  25  26
ATOM     26  C   UNL A   1      31.547  31.003  25.873  1.00  0.00     0.261 C 
BRANCH  26  27
ATOM     27  O   UNL A   1      32.404  30.825  27.013  1.00  0.00    -0.460 OA
BRANCH  27  28
ATOM     28  C   UNL A   1      33.159  31.907  27.332  1.00  0.00     0.338 C 
ATOM     29  O   UNL A   1      32.809  33.081  27.313  1.00  0.00    -0.246 OA
BRANCH  28  30
ATOM     30  C   UNL A   1      34.457  31.468  27.865  1.00  0.00     0.060 A 
ATOM     31  C   UNL A   1      35.471  32.393  28.118  1.00  0.00     0.016 A 
ATOM     32  C   UNL A   1      34.631  30.116  28.184  1.00  0.00     0.016 A 
ATOM     33  C   UNL A   1      36.666  31.958  28.700  1.00  0.00     0.010 A 
ATOM     34  C   UNL A   1      35.825  29.685  28.762  1.00  0.00     0.010 A 
ATOM     35  C   UNL A   1      36.850  30.604  29.030  1.00  0.00    -0.014 A 
BRANCH  35  36
ATOM     36  C   UNL A   1      38.086  30.154  29.721  1.00  0.00     0.031 A 
ATOM     37  C   UNL A   1      38.448  30.699  31.072  1.00  0.00     0.074 A 
ATOM     38  C   UNL A   1      38.899  29.274  29.104  1.00  0.00     0.049 A 
ATOM     39  N   UNL A   1      39.484  30.417  31.818  1.00  0.00    -0.248 NA
ATOM     40  C   UNL A   1      37.536  31.692  31.657  1.00  0.00     0.031 C 
ATOM     41  C   UNL A   1      38.655  28.704  27.780  1.00  0.00     0.029 A 
ATOM     42  N   UNL A   1      40.088  28.710  29.498  1.00  0.00    -0.354 N 
ATOM     43  C   UNL A   1      39.348  31.188  32.965  1.00  0.00     0.074 A 
ATOM     44  C   UNL A   1      38.154  31.988  32.794  1.00  0.00     0.031 C 
ATOM     45  C   UNL A   1      39.652  27.858  27.478  1.00  0.00     0.029 A 
ATOM     46  C   UNL A   1      40.630  27.855  28.565  1.00  0.00     0.049 A 
ATOM     47  H   UNL A   1      40.513  28.900  30.366  1.00  0.00     0.167 HD
ATOM     48  C   UNL A   1      40.137  31.204  34.065  1.00  0.00     0.034 A 
ATOM     49  C   UNL A   1      41.784  27.153  28.576  1.00  0.00     0.034 A 
ATOM     50  C   UNL A   1      41.318  30.392  34.216  1.00  0.00     0.049 A 
ATOM     51  C   UNL A   1      42.665  27.217  29.800  1.00  0.00     0.074 A 
ATOM     52  C   UNL A   1      42.153  30.303  35.316  1.00  0.00     0.029 A 
ATOM     53  N   UNL A   1      41.836  29.537  33.253  1.00  0.00    -0.354 N 
ATOM     54  N   UNL A   1      42.472  27.876  30.918  1.00  0.00    -0.248 NA
ATOM     55  C   UNL A   1      43.912  26.436  29.779  1.00  0.00     0.031 C 
ATOM     56  C   UNL A   1      43.215  29.464  34.991  1.00  0.00     0.029 A 
ATOM     57  C   UNL A   1      42.997  28.947  33.723  1.00  0.00     0.049 A 
ATOM     58  H   UNL A   1      41.437  29.375  32.367  1.00  0.00     0.167 HD
ATOM     59  C   UNL A   1      43.547  27.560  31.744  1.00  0.00     0.074 A 
ATOM     60  C   UNL A   1      44.384  26.642  31.003  1.00  0.00     0.031 C 
ATOM     61  C   UNL A   1      43.810  27.997  33.001  1.00  0.00     0.034 A 
BRANCH  48  62
ATOM     62  C   UNL A   1      39.763  32.097  35.224  1.00  0.00     0.023 A 
ATOM     63  C   UNL A   1      39.020  31.576  36.301  1.00  0.00     0.031 A 
ATOM     64  C   UNL A   1      39.984  33.484  35.177  1.00  0.00     0.131 A 
ATOM     65  C   UNL A   1      38.483  32.444  37.259  1.00  0.00     0.055 A 
ATOM     66  C   UNL A   1      39.487  34.339  36.162  1.00  0.00     0.041 A 
ATOM     67  F   UNL A   1      40.680  34.032  34.167  1.00  0.00    -0.206 F 
ATOM     68  C   UNL A   1      38.718  33.821  37.199  1.00  0.00     0.022 A 
BRANCH  65  69
ATOM     69  S   UNL A   1      37.387  31.832  38.569  1.00  0.00     0.124 S 
ATOM     70  O   UNL A   1      37.133  30.462  38.129  1.00  0.00    -0.237 OA
ATOM     71  O   UNL A   1      38.229  31.960  39.756  1.00  0.00    -0.237 OA
ATOM     72  O   UNL A   1      36.236  32.727  38.510  1.00  0.00    -0.744 OA
ENDBRANCH  65  69
ENDBRANCH  48  62
BRANCH  49  73
ATOM     73  C   UNL A   1      42.123  26.290  27.405  1.00  0.00     0.023 A 
ATOM     74  C   UNL A   1      41.732  24.938  27.365  1.00  0.00     0.031 A 
ATOM     75  C   UNL A   1      42.928  26.773  26.360  1.00  0.00     0.131 A 
ATOM     76  C   UNL A   1      42.205  24.104  26.345  1.00  0.00     0.055 A 
ATOM     77  C   UNL A   1      43.333  25.956  25.303  1.00  0.00     0.041 A 
ATOM     78  F   UNL A   1      43.339  28.050  26.357  1.00  0.00    -0.206 F 
ATOM     79  C   UNL A   1      42.988  24.608  25.302  1.00  0.00     0.022 A 
BRANCH  76  80
ATOM     80  S   UNL A   1      41.936  22.310  26.410  1.00  0.00     0.124 S 
ATOM     81  O   UNL A   1      40.499  22.209  26.178  1.00  0.00    -0.237 OA
ATOM     82  O   UNL A   1      42.786  21.841  25.319  1.00  0.00    -0.237 OA
ATOM     83  O   UNL A   1      42.386  21.944  27.749  1.00  0.00    -0.744 OA
ENDBRANCH  76  80
ENDBRANCH  49  73
BRANCH  61  84
ATOM     84  C   UNL A   1      45.035  27.485  33.725  1.00  0.00     0.023 A 
ATOM     85  C   UNL A   1      44.914  26.386  34.598  1.00  0.00     0.031 A 
ATOM     86  C   UNL A   1      46.240  28.208  33.728  1.00  0.00     0.131 A 
ATOM     87  C   UNL A   1      45.948  26.090  35.496  1.00  0.00     0.055 A 
ATOM     88  C   UNL A   1      47.292  27.871  34.583  1.00  0.00     0.041 A 
ATOM     89  F   UNL A   1      46.402  29.269  32.922  1.00  0.00    -0.206 F 
ATOM     90  C   UNL A   1      47.139  26.822  35.488  1.00  0.00     0.022 A 
BRANCH  87  91
ATOM     91  S   UNL A   1      45.734  24.830  36.784  1.00  0.00     0.124 S 
ATOM     92  O   UNL A   1      44.481  24.194  36.381  1.00  0.00    -0.237 OA
ATOM     93  O   UNL A   1      46.931  24.012  36.614  1.00  0.00    -0.237 OA
ATOM     94  O   UNL A   1      45.667  25.599  38.023  1.00  0.00    -0.744 OA
ENDBRANCH  87  91
ENDBRANCH  61  84
ENDBRANCH  35  36
ENDBRANCH  28  30
ENDBRANCH  27  28
ENDBRANCH  26  27
ENDBRANCH  25  26
ENDBRANCH   1  25
TORSDOF 21
ENDMDL
MODEL 3
REMARK VINA RESULT:     -10.3      0.870      7.554
REMARK SMILES [NH3+]CCC1=c2cc([N+](=O)[O-])ccc2=N[C@H]1C(=O)OCCOCCOC(=O)c1ccc(-c2c3nc(c(-c4cc(S(=O)(=O)[O-])ccc4F)c4ccc([nH]4)c(-c4cc(S(=O)(=O)[O-])ccc4F)c4nc(c(-c5cc(S(=O)(=O)[O-])ccc5F)c5ccc2[nH]5)C=C4)C=C3)cc1
REMARK SMILES IDX 21 1 20 2 19 3 18 4 16 5 17 6 15 7 4 8 5 9 6 10 13 11 14 12
REMARK SMILES IDX 7 13 12 14 11 15 3 16 2 17 1 18 8 22 9 23 10 24 22 25 23 26
REMARK SMILES IDX 24 27 25 28 26 29 27 30 28 31 89 32 29 33 88 34 30 35 31 36
REMARK SMILES IDX 32 37 82 38 33 39 87 40 81 41 83 42 34 43 86 44 80 45 79 46
REMARK SMILES IDX 35 48 67 49 47 50 66 51 48 52 51 53 65 54 84 55 49 56 50 57
REMARK SMILES IDX 64 59 85 60 52 61 36 62 37 63 45 64 38 65 44 66 46 67 43 68
REMARK SMILES IDX 39 69 40 70 41 71 42 72 68 73 69 74 77 75 70 76 76 77 78 78
REMARK SMILES IDX 75 79 71 80 72 81 73 82 74 83 53 84 54 85 62 86 55 87 61 88
REMARK SMILES IDX 63 89 60 90 56 91 57 92 58 93 59 94
REMARK H PARENT 1 19 1 20 1 21 83 47 51 58
REMARK Flexibility Score: inf
ROOT
ATOM      1  O   UNL A   1      31.395  31.406  26.402  1.00  0.00    -0.374 OA
ENDROOT
BRANCH   1   2
ATOM      2  C   UNL A   1      31.624  30.159  25.747  1.00  0.00     0.202 C 
BRANCH   2   3
ATOM      3  C   UNL A   1      32.936  29.440  26.063  1.00  0.00     0.261 C 
BRANCH   3   4
ATOM      4  O   UNL A   1      33.452  28.791  24.893  1.00  0.00    -0.461 OA
BRANCH   4   5
ATOM      5  C   UNL A   1      33.334  27.432  24.875  1.00  0.00     0.335 C 
ATOM      6  O   UNL A   1      33.681  26.679  25.778  1.00  0.00    -0.249 OA
BRANCH   5   7
ATOM      7  C   UNL A   1      32.688  26.977  23.554  1.00  0.00     0.242 C 
ATOM      8  C   UNL A   1      31.249  26.652  23.834  1.00  0.00    -0.019 C 
ATOM      9  C   UNL A   1      30.468  27.615  23.346  1.00  0.00     0.009 A 
ATOM     10  C   UNL A   1      29.078  27.934  23.454  1.00  0.00     0.096 A 
ATOM     11  C   UNL A   1      31.414  28.494  22.634  1.00  0.00     0.067 A 
ATOM     12  N   UNL A   1      32.666  28.160  22.631  1.00  0.00    -0.265 NA
ATOM     13  C   UNL A   1      28.645  29.079  22.891  1.00  0.00     0.270 A 
ATOM     14  C   UNL A   1      30.845  29.690  21.977  1.00  0.00     0.035 A 
ATOM     15  C   UNL A   1      29.535  29.952  22.128  1.00  0.00     0.088 A 
BRANCH   8  16
ATOM     16  C   UNL A   1      30.856  25.472  24.678  1.00  0.00     0.096 C 
BRANCH  16  17
ATOM     17  C   UNL A   1      31.240  24.084  24.126  1.00  0.00     0.263 C 
BRANCH  17  18
ATOM     18  N   UNL A   1      30.312  23.551  23.135  1.00  0.00    -0.357 N 
ATOM     19  H   UNL A   1      29.398  23.986  23.256  1.00  0.00     0.344 HD
ATOM     20  H   UNL A   1      30.226  22.541  23.257  1.00  0.00     0.344 HD
ATOM     21  H   UNL A   1      30.662  23.751  22.199  1.00  0.00     0.344 HD
ENDBRANCH  17  18
ENDBRANCH  16  17
ENDBRANCH   8  16
BRANCH  13  22
ATOM     22  N   UNL A   1      27.238  29.451  23.096  1.00  0.00     0.062 N 
ATOM     23  O   UNL A   1      26.446  28.579  23.479  1.00  0.00    -0.258 OA
ATOM     24  O   UNL A   1      26.927  30.630  22.876  1.00  0.00    -0.258 OA
ENDBRANCH  13  22
ENDBRANCH   5   7
ENDBRANCH   4   5
ENDBRANCH   3   4
ENDBRANCH   2   3
ENDBRANCH   1   2
BRANCH   1  25
ATOM     25  C   UNL A   1      32.388  31.901  27.297  1.00  0.00     0.202 C 
BRANCH  25  26
ATOM     26  C   UNL A   1      32.810  33.373  27.178  1.00  0.00     0.261 C 
BRANCH  26  27
ATOM     27  O   UNL A   1      32.490  34.173  28.329  1.00  0.00    -0.460 OA
BRANCH  27  28
ATOM     28  C   UNL A   1      33.505  34.956  28.777  1.00  0.00     0.338 C 
ATOM     29  O   UNL A   1      33.493  36.174  28.906  1.00  0.00    -0.246 OA
BRANCH  28  30
ATOM     30  C   UNL A   1      34.613  34.112  29.248  1.00  0.00     0.060 A 
ATOM     31  C   UNL A   1      35.907  34.298  28.757  1.00  0.00     0.016 A 
ATOM     32  C   UNL A   1      34.361  33.168  30.252  1.00  0.00     0.016 A 
ATOM     33  C   UNL A   1      36.955  33.535  29.281  1.00  0.00     0.010 A 
ATOM     34  C   UNL A   1      35.408  32.407  30.770  1.00  0.00     0.010 A 
ATOM     35  C   UNL A   1      36.715  32.589  30.293  1.00  0.00    -0.014 A 
BRANCH  35  36
ATOM     36  C   UNL A   1      37.838  31.835  30.907  1.00  0.00     0.031 A 
ATOM     37  C   UNL A   1      38.536  30.748  30.143  1.00  0.00     0.074 A 
ATOM     38  C   UNL A   1      38.202  32.115  32.174  1.00  0.00     0.049 A 
ATOM     39  N   UNL A   1      39.534  29.992  30.522  1.00  0.00    -0.248 NA
ATOM     40  C   UNL A   1      38.049  30.467  28.785  1.00  0.00     0.031 C 
ATOM     41  C   UNL A   1      37.572  33.132  33.014  1.00  0.00     0.029 A 
ATOM     42  N   UNL A   1      39.178  31.574  32.976  1.00  0.00    -0.354 N 
ATOM     43  C   UNL A   1      39.802  29.151  29.448  1.00  0.00     0.074 A 
ATOM     44  C   UNL A   1      38.829  29.457  28.422  1.00  0.00     0.031 C 
ATOM     45  C   UNL A   1      38.187  33.157  34.206  1.00  0.00     0.029 A 
ATOM     46  C   UNL A   1      39.227  32.130  34.236  1.00  0.00     0.049 A 
ATOM     47  H   UNL A   1      39.783  30.858  32.679  1.00  0.00     0.167 HD
ATOM     48  C   UNL A   1      40.787  28.229  29.329  1.00  0.00     0.034 A 
ATOM     49  C   UNL A   1      40.012  31.842  35.296  1.00  0.00     0.034 A 
ATOM     50  C   UNL A   1      41.750  27.948  30.363  1.00  0.00     0.049 A 
ATOM     51  C   UNL A   1      41.079  30.784  35.149  1.00  0.00     0.074 A 
ATOM     52  C   UNL A   1      42.816  27.066  30.314  1.00  0.00     0.029 A 
ATOM     53  N   UNL A   1      41.771  28.528  31.624  1.00  0.00    -0.354 N 
ATOM     54  N   UNL A   1      41.384  30.066  34.094  1.00  0.00    -0.248 NA
ATOM     55  C   UNL A   1      41.919  30.501  36.323  1.00  0.00     0.031 C 
ATOM     56  C   UNL A   1      43.428  27.052  31.565  1.00  0.00     0.029 A 
ATOM     57  C   UNL A   1      42.810  27.997  32.370  1.00  0.00     0.049 A 
ATOM     58  H   UNL A   1      41.142  29.217  31.941  1.00  0.00     0.167 HD
ATOM     59  C   UNL A   1      42.470  29.278  34.463  1.00  0.00     0.074 A 
ATOM     60  C   UNL A   1      42.779  29.613  35.837  1.00  0.00     0.031 C 
ATOM     61  C   UNL A   1      43.146  28.362  33.726  1.00  0.00     0.034 A 
BRANCH  48  62
ATOM     62  C   UNL A   1      40.918  27.458  28.038  1.00  0.00     0.023 A 
ATOM     63  C   UNL A   1      40.644  26.077  28.013  1.00  0.00     0.031 A 
ATOM     64  C   UNL A   1      41.478  28.047  26.891  1.00  0.00     0.131 A 
ATOM     65  C   UNL A   1      40.978  25.322  26.882  1.00  0.00     0.055 A 
ATOM     66  C   UNL A   1      41.764  27.297  25.749  1.00  0.00     0.041 A 
ATOM     67  F   UNL A   1      41.765  29.359  26.866  1.00  0.00    -0.206 F 
ATOM     68  C   UNL A   1      41.530  25.926  25.748  1.00  0.00     0.022 A 
BRANCH  65  69
ATOM     69  S   UNL A   1      40.793  23.518  26.871  1.00  0.00     0.124 S 
ATOM     70  O   UNL A   1      41.749  23.126  25.837  1.00  0.00    -0.237 OA
ATOM     71  O   UNL A   1      41.171  23.164  28.236  1.00  0.00    -0.237 OA
ATOM     72  O   UNL A   1      39.389  23.311  26.529  1.00  0.00    -0.744 OA
ENDBRANCH  65  69
ENDBRANCH  48  62
BRANCH  49  73
ATOM     73  C   UNL A   1      39.843  32.620  36.560  1.00  0.00     0.023 A 
ATOM     74  C   UNL A   1      38.934  32.201  37.550  1.00  0.00     0.031 A 
ATOM     75  C   UNL A   1      40.505  33.843  36.750  1.00  0.00     0.131 A 
ATOM     76  C   UNL A   1      38.663  33.031  38.646  1.00  0.00     0.055 A 
ATOM     77  C   UNL A   1      40.289  34.631  37.883  1.00  0.00     0.041 A 
ATOM     78  F   UNL A   1      41.371  34.295  35.830  1.00  0.00    -0.206 F 
ATOM     79  C   UNL A   1      39.348  34.235  38.828  1.00  0.00     0.022 A 
BRANCH  76  80
ATOM     80  S   UNL A   1      37.313  32.643  39.795  1.00  0.00     0.124 S 
ATOM     81  O   UNL A   1      36.149  32.661  38.915  1.00  0.00    -0.237 OA
ATOM     82  O   UNL A   1      37.711  31.326  40.287  1.00  0.00    -0.237 OA
ATOM     83  O   UNL A   1      37.378  33.718  40.778  1.00  0.00    -0.744 OA
ENDBRANCH  76  80
ENDBRANCH  49  73
BRANCH  61  84
ATOM     84  C   UNL A   1      44.329  27.644  34.334  1.00  0.00     0.023 A 
ATOM     85  C   UNL A   1      44.133  26.400  34.967  1.00  0.00     0.031 A 
ATOM     86  C   UNL A   1      45.573  28.278  34.487  1.00  0.00     0.131 A 
ATOM     87  C   UNL A   1      45.135  25.869  35.788  1.00  0.00     0.055 A 
ATOM     88  C   UNL A   1      46.591  27.714  35.258  1.00  0.00     0.041 A 
ATOM     89  F   UNL A   1      45.807  29.469  33.912  1.00  0.00    -0.206 F 
ATOM     90  C   UNL A   1      46.366  26.516  35.932  1.00  0.00     0.022 A 
BRANCH  87  91
ATOM     91  S   UNL A   1      44.831  24.388  36.794  1.00  0.00     0.124 S 
ATOM     92  O   UNL A   1      44.036  24.928  37.895  1.00  0.00    -0.237 OA
ATOM     93  O   UNL A   1      44.106  23.529  35.863  1.00  0.00    -0.237 OA
ATOM     94  O   UNL A   1      46.168  23.932  37.162  1.00  0.00    -0.744 OA
ENDBRANCH  87  91
ENDBRANCH  61  84
ENDBRANCH  35  36
ENDBRANCH  28  30
ENDBRANCH  27  28
ENDBRANCH  26  27
ENDBRANCH  25  26
ENDBRANCH   1  25
TORSDOF 21
ENDMDL
