MODEL 1
REMARK VINA RESULT:     -11.7      0.000      0.000
REMARK SMILES [NH3+][C@]1(C(=O)OCCOCCOC(=O)c2ccc(-c3c4nc(c(-c5cc(S(=O)(=O)[O-])ccc5F)c5ccc([nH]5)c(-c5cc(S(=O)(=O)[O-])ccc5F)c5nc(c(-c6cc(S(=O)(=O)[O-])ccc6F)c6ccc3[nH]6)C=C5)C=C4)cc2)CC[C@@H](Sc2cc3ccccc3[nH]2)C1
REMARK SMILES IDX 9 1 8 2 7 3 6 4 5 5 3 6 4 7 2 8 77 9 90 10 78 11 79 12 1 13
REMARK SMILES IDX 80 17 81 18 82 19 89 20 83 21 88 22 84 24 87 25 85 26 86 27
REMARK SMILES IDX 10 28 11 29 12 30 13 31 14 32 15 33 76 34 16 35 75 36 17 37
REMARK SMILES IDX 18 38 19 39 69 40 20 41 74 42 68 43 70 44 21 45 73 46 67 47
REMARK SMILES IDX 66 48 22 50 54 51 34 52 53 53 35 54 38 55 52 56 71 57 36 58
REMARK SMILES IDX 37 59 51 61 72 62 39 63 23 64 24 65 32 66 25 67 31 68 33 69
REMARK SMILES IDX 30 70 26 71 27 72 28 73 29 74 55 75 56 76 64 77 57 78 63 79
REMARK SMILES IDX 65 80 62 81 58 82 59 83 60 84 61 85 40 86 41 87 49 88 42 89
REMARK SMILES IDX 48 90 50 91 47 92 43 93 44 94 45 95 46 96
REMARK H PARENT 1 14 1 15 1 16 89 23 70 49 38 60
REMARK Flexibility Score: inf
ROOT
ATOM      1  C   UNL A   1      36.485  19.868  25.003  1.00  0.00     0.202 C 
ENDROOT
BRANCH   1   2
ATOM      2  O   UNL A   1      35.790  20.977  25.569  1.00  0.00    -0.374 OA
BRANCH   2   3
ATOM      3  C   UNL A   1      34.556  21.363  24.964  1.00  0.00     0.202 C 
BRANCH   3   4
ATOM      4  C   UNL A   1      33.973  22.718  25.382  1.00  0.00     0.261 C 
BRANCH   4   5
ATOM      5  O   UNL A   1      32.536  22.708  25.385  1.00  0.00    -0.459 OA
BRANCH   5   6
ATOM      6  C   UNL A   1      31.939  23.261  26.474  1.00  0.00     0.368 C 
ATOM      7  O   UNL A   1      32.172  22.958  27.641  1.00  0.00    -0.245 OA
BRANCH   6   8
ATOM      8  C   UNL A   1      30.918  24.361  26.095  1.00  0.00     0.193 C 
ATOM      9  C   UNL A   1      31.337  25.802  26.427  1.00  0.00     0.082 C 
ATOM     10  C   UNL A   1      30.694  24.355  24.579  1.00  0.00     0.096 C 
ATOM     11  C   UNL A   1      30.572  26.651  25.429  1.00  0.00     0.022 C 
ATOM     12  C   UNL A   1      30.588  25.829  24.148  1.00  0.00     0.060 C 
BRANCH   8  13
ATOM     13  N   UNL A   1      29.617  24.064  26.760  1.00  0.00    -0.343 N 
ATOM     14  H   UNL A   1      29.561  23.067  26.969  1.00  0.00     0.345 HD
ATOM     15  H   UNL A   1      28.850  24.325  26.140  1.00  0.00     0.345 HD
ATOM     16  H   UNL A   1      29.549  24.597  27.627  1.00  0.00     0.345 HD
ENDBRANCH   8  13
BRANCH  12  17
ATOM     17  S   UNL A   1      31.892  26.076  22.933  1.00  0.00    -0.105 SA
BRANCH  17  18
ATOM     18  C   UNL A   1      32.714  27.570  23.217  1.00  0.00     0.073 A 
ATOM     19  C   UNL A   1      32.137  28.815  23.364  1.00  0.00     0.043 A 
ATOM     20  N   UNL A   1      33.850  27.565  23.985  1.00  0.00    -0.350 N 
ATOM     21  C   UNL A   1      32.542  29.226  24.674  1.00  0.00     0.001 A 
ATOM     22  C   UNL A   1      33.603  28.401  25.056  1.00  0.00     0.046 A 
ATOM     23  H   UNL A   1      34.679  27.065  23.807  1.00  0.00     0.167 HD
ATOM     24  C   UNL A   1      31.990  30.103  25.625  1.00  0.00     0.010 A 
ATOM     25  C   UNL A   1      34.149  28.401  26.342  1.00  0.00     0.027 A 
ATOM     26  C   UNL A   1      32.461  30.047  26.942  1.00  0.00     0.001 A 
ATOM     27  C   UNL A   1      33.521  29.209  27.292  1.00  0.00     0.002 A 
ENDBRANCH  17  18
ENDBRANCH  12  17
ENDBRANCH   6   8
ENDBRANCH   5   6
ENDBRANCH   4   5
ENDBRANCH   3   4
ENDBRANCH   2   3
ENDBRANCH   1   2
BRANCH   1  28
ATOM     28  C   UNL A   1      38.012  19.956  24.891  1.00  0.00     0.261 C 
BRANCH  28  29
ATOM     29  O   UNL A   1      38.540  21.189  25.413  1.00  0.00    -0.460 OA
BRANCH  29  30
ATOM     30  C   UNL A   1      39.629  21.038  26.203  1.00  0.00     0.338 C 
ATOM     31  O   UNL A   1      40.355  20.049  26.268  1.00  0.00    -0.246 OA
BRANCH  30  32
ATOM     32  C   UNL A   1      39.973  22.304  26.873  1.00  0.00     0.060 A 
ATOM     33  C   UNL A   1      39.269  23.449  26.478  1.00  0.00     0.016 A 
ATOM     34  C   UNL A   1      41.027  22.398  27.784  1.00  0.00     0.016 A 
ATOM     35  C   UNL A   1      39.655  24.702  26.947  1.00  0.00     0.010 A 
ATOM     36  C   UNL A   1      41.419  23.661  28.248  1.00  0.00     0.010 A 
ATOM     37  C   UNL A   1      40.761  24.821  27.799  1.00  0.00    -0.014 A 
BRANCH  37  38
ATOM     38  C   UNL A   1      41.310  26.170  28.083  1.00  0.00     0.031 A 
ATOM     39  C   UNL A   1      42.696  26.511  27.604  1.00  0.00     0.074 A 
ATOM     40  C   UNL A   1      40.563  27.097  28.709  1.00  0.00     0.049 A 
ATOM     41  N   UNL A   1      43.376  27.620  27.742  1.00  0.00    -0.248 NA
ATOM     42  C   UNL A   1      43.410  25.456  26.869  1.00  0.00     0.031 C 
ATOM     43  C   UNL A   1      39.190  26.899  29.174  1.00  0.00     0.029 A 
ATOM     44  N   UNL A   1      40.853  28.392  29.059  1.00  0.00    -0.354 N 
ATOM     45  C   UNL A   1      44.598  27.397  27.117  1.00  0.00     0.074 A 
ATOM     46  C   UNL A   1      44.577  26.034  26.628  1.00  0.00     0.031 C 
ATOM     47  C   UNL A   1      38.761  28.031  29.756  1.00  0.00     0.029 A 
ATOM     48  C   UNL A   1      39.836  29.021  29.738  1.00  0.00     0.049 A 
ATOM     49  H   UNL A   1      41.708  28.829  28.845  1.00  0.00     0.167 HD
ATOM     50  C   UNL A   1      45.639  28.253  26.959  1.00  0.00     0.034 A 
ATOM     51  C   UNL A   1      39.789  30.245  30.302  1.00  0.00     0.034 A 
ATOM     52  C   UNL A   1      45.649  29.605  27.462  1.00  0.00     0.049 A 
ATOM     53  C   UNL A   1      40.989  31.154  30.181  1.00  0.00     0.074 A 
ATOM     54  C   UNL A   1      46.645  30.561  27.347  1.00  0.00     0.029 A 
ATOM     55  N   UNL A   1      44.620  30.193  28.188  1.00  0.00    -0.354 N 
ATOM     56  N   UNL A   1      42.137  30.934  29.582  1.00  0.00    -0.248 NA
ATOM     57  C   UNL A   1      40.882  32.479  30.805  1.00  0.00     0.031 C 
ATOM     58  C   UNL A   1      46.249  31.697  28.062  1.00  0.00     0.029 A 
ATOM     59  C   UNL A   1      44.971  31.483  28.556  1.00  0.00     0.049 A 
ATOM     60  H   UNL A   1      43.766  29.757  28.408  1.00  0.00     0.167 HD
ATOM     61  C   UNL A   1      42.876  32.105  29.734  1.00  0.00     0.074 A 
ATOM     62  C   UNL A   1      42.038  33.031  30.467  1.00  0.00     0.031 C 
ATOM     63  C   UNL A   1      44.131  32.392  29.302  1.00  0.00     0.034 A 
BRANCH  50  64
ATOM     64  C   UNL A   1      46.872  27.725  26.265  1.00  0.00     0.023 A 
ATOM     65  C   UNL A   1      47.139  27.998  24.912  1.00  0.00     0.031 A 
ATOM     66  C   UNL A   1      47.785  26.915  26.965  1.00  0.00     0.131 A 
ATOM     67  C   UNL A   1      48.251  27.412  24.286  1.00  0.00     0.055 A 
ATOM     68  C   UNL A   1      48.929  26.398  26.356  1.00  0.00     0.041 A 
ATOM     69  F   UNL A   1      47.572  26.602  28.253  1.00  0.00    -0.206 F 
ATOM     70  C   UNL A   1      49.161  26.634  25.005  1.00  0.00     0.022 A 
BRANCH  67  71
ATOM     71  S   UNL A   1      48.420  27.572  22.486  1.00  0.00     0.124 S 
ATOM     72  O   UNL A   1      48.477  26.173  22.069  1.00  0.00    -0.237 OA
ATOM     73  O   UNL A   1      47.210  28.300  22.118  1.00  0.00    -0.237 OA
ATOM     74  O   UNL A   1      49.667  28.315  22.323  1.00  0.00    -0.744 OA
ENDBRANCH  67  71
ENDBRANCH  50  64
BRANCH  51  75
ATOM     75  C   UNL A   1      38.587  30.673  31.072  1.00  0.00     0.023 A 
ATOM     76  C   UNL A   1      37.510  31.322  30.447  1.00  0.00     0.031 A 
ATOM     77  C   UNL A   1      38.522  30.479  32.463  1.00  0.00     0.131 A 
ATOM     78  C   UNL A   1      36.436  31.793  31.218  1.00  0.00     0.055 A 
ATOM     79  C   UNL A   1      37.427  30.904  33.219  1.00  0.00     0.041 A 
ATOM     80  F   UNL A   1      39.525  29.864  33.111  1.00  0.00    -0.206 F 
ATOM     81  C   UNL A   1      36.381  31.577  32.596  1.00  0.00     0.022 A 
BRANCH  78  82
ATOM     82  S   UNL A   1      35.142  32.769  30.402  1.00  0.00     0.124 S 
ATOM     83  O   UNL A   1      34.777  31.904  29.286  1.00  0.00    -0.237 OA
ATOM     84  O   UNL A   1      34.149  32.902  31.463  1.00  0.00    -0.237 OA
ATOM     85  O   UNL A   1      35.829  34.006  30.035  1.00  0.00    -0.744 OA
ENDBRANCH  78  82
ENDBRANCH  51  75
BRANCH  63  86
ATOM     86  C   UNL A   1      44.653  33.782  29.578  1.00  0.00     0.023 A 
ATOM     87  C   UNL A   1      44.346  34.870  28.742  1.00  0.00     0.031 A 
ATOM     88  C   UNL A   1      45.479  34.017  30.693  1.00  0.00     0.131 A 
ATOM     89  C   UNL A   1      44.907  36.131  28.999  1.00  0.00     0.055 A 
ATOM     90  C   UNL A   1      45.985  35.287  30.978  1.00  0.00     0.041 A 
ATOM     91  F   UNL A   1      45.807  33.017  31.525  1.00  0.00    -0.206 F 
ATOM     92  C   UNL A   1      45.711  36.350  30.121  1.00  0.00     0.022 A 
BRANCH  89  93
ATOM     93  S   UNL A   1      44.648  37.463  27.797  1.00  0.00     0.124 S 
ATOM     94  O   UNL A   1      43.649  36.878  26.907  1.00  0.00    -0.237 OA
ATOM     95  O   UNL A   1      44.186  38.560  28.640  1.00  0.00    -0.237 OA
ATOM     96  O   UNL A   1      45.970  37.653  27.204  1.00  0.00    -0.744 OA
ENDBRANCH  89  93
ENDBRANCH  63  86
ENDBRANCH  37  38
ENDBRANCH  30  32
ENDBRANCH  29  30
ENDBRANCH  28  29
ENDBRANCH   1  28
TORSDOF 20
ENDMDL
MODEL 2
REMARK VINA RESULT:     -11.7      2.019      2.675
REMARK SMILES [NH3+][C@]1(C(=O)OCCOCCOC(=O)c2ccc(-c3c4nc(c(-c5cc(S(=O)(=O)[O-])ccc5F)c5ccc([nH]5)c(-c5cc(S(=O)(=O)[O-])ccc5F)c5nc(c(-c6cc(S(=O)(=O)[O-])ccc6F)c6ccc3[nH]6)C=C5)C=C4)cc2)CC[C@@H](Sc2cc3ccccc3[nH]2)C1
REMARK SMILES IDX 9 1 8 2 7 3 6 4 5 5 3 6 4 7 2 8 77 9 90 10 78 11 79 12 1 13
REMARK SMILES IDX 80 17 81 18 82 19 89 20 83 21 88 22 84 24 87 25 85 26 86 27
REMARK SMILES IDX 10 28 11 29 12 30 13 31 14 32 15 33 76 34 16 35 75 36 17 37
REMARK SMILES IDX 18 38 19 39 69 40 20 41 74 42 68 43 70 44 21 45 73 46 67 47
REMARK SMILES IDX 66 48 22 50 54 51 34 52 53 53 35 54 38 55 52 56 71 57 36 58
REMARK SMILES IDX 37 59 51 61 72 62 39 63 23 64 24 65 32 66 25 67 31 68 33 69
REMARK SMILES IDX 30 70 26 71 27 72 28 73 29 74 55 75 56 76 64 77 57 78 63 79
REMARK SMILES IDX 65 80 62 81 58 82 59 83 60 84 61 85 40 86 41 87 49 88 42 89
REMARK SMILES IDX 48 90 50 91 47 92 43 93 44 94 45 95 46 96
REMARK H PARENT 1 14 1 15 1 16 89 23 70 49 38 60
REMARK Flexibility Score: inf
ROOT
ATOM      1  C   UNL A   1      35.699  20.737  25.137  1.00  0.00     0.202 C 
ENDROOT
BRANCH   1   2
ATOM      2  O   UNL A   1      35.289  21.348  26.358  1.00  0.00    -0.374 OA
BRANCH   2   3
ATOM      3  C   UNL A   1      35.017  22.749  26.339  1.00  0.00     0.202 C 
BRANCH   3   4
ATOM      4  C   UNL A   1      33.563  23.177  26.572  1.00  0.00     0.261 C 
BRANCH   4   5
ATOM      5  O   UNL A   1      33.250  24.410  25.905  1.00  0.00    -0.459 OA
BRANCH   5   6
ATOM      6  C   UNL A   1      32.451  24.308  24.810  1.00  0.00     0.368 C 
ATOM      7  O   UNL A   1      31.335  23.797  24.792  1.00  0.00    -0.245 OA
BRANCH   6   8
ATOM      8  C   UNL A   1      33.092  24.936  23.549  1.00  0.00     0.193 C 
ATOM      9  C   UNL A   1      32.143  25.160  22.360  1.00  0.00     0.082 C 
ATOM     10  C   UNL A   1      33.635  26.329  23.886  1.00  0.00     0.096 C 
ATOM     11  C   UNL A   1      32.773  26.306  21.592  1.00  0.00     0.022 C 
ATOM     12  C   UNL A   1      33.323  27.224  22.674  1.00  0.00     0.060 C 
BRANCH   8  13
ATOM     13  N   UNL A   1      34.233  24.084  23.110  1.00  0.00    -0.343 N 
ATOM     14  H   UNL A   1      33.933  23.110  23.063  1.00  0.00     0.345 HD
ATOM     15  H   UNL A   1      35.000  24.171  23.778  1.00  0.00     0.345 HD
ATOM     16  H   UNL A   1      34.550  24.387  22.189  1.00  0.00     0.345 HD
ENDBRANCH   8  13
BRANCH  12  17
ATOM     17  S   UNL A   1      32.318  28.574  23.310  1.00  0.00    -0.105 SA
BRANCH  17  18
ATOM     18  C   UNL A   1      30.860  28.733  22.393  1.00  0.00     0.073 A 
ATOM     19  C   UNL A   1      29.606  28.286  22.754  1.00  0.00     0.043 A 
ATOM     20  N   UNL A   1      30.678  29.857  21.629  1.00  0.00    -0.350 N 
ATOM     21  C   UNL A   1      28.814  29.479  22.780  1.00  0.00     0.001 A 
ATOM     22  C   UNL A   1      29.527  30.463  22.092  1.00  0.00     0.046 A 
ATOM     23  H   UNL A   1      31.254  30.169  20.894  1.00  0.00     0.167 HD
ATOM     24  C   UNL A   1      27.646  29.847  23.471  1.00  0.00     0.010 A 
ATOM     25  C   UNL A   1      29.139  31.804  22.052  1.00  0.00     0.027 A 
ATOM     26  C   UNL A   1      27.297  31.202  23.522  1.00  0.00     0.001 A 
ATOM     27  C   UNL A   1      28.032  32.161  22.825  1.00  0.00     0.002 A 
ENDBRANCH  17  18
ENDBRANCH  12  17
ENDBRANCH   6   8
ENDBRANCH   5   6
ENDBRANCH   4   5
ENDBRANCH   3   4
ENDBRANCH   2   3
ENDBRANCH   1   2
BRANCH   1  28
ATOM     28  C   UNL A   1      37.165  20.309  25.002  1.00  0.00     0.261 C 
BRANCH  28  29
ATOM     29  O   UNL A   1      38.084  21.404  25.167  1.00  0.00    -0.460 OA
BRANCH  29  30
ATOM     30  C   UNL A   1      39.098  21.155  26.027  1.00  0.00     0.338 C 
ATOM     31  O   UNL A   1      39.703  20.093  26.159  1.00  0.00    -0.246 OA
BRANCH  30  32
ATOM     32  C   UNL A   1      39.542  22.393  26.692  1.00  0.00     0.060 A 
ATOM     33  C   UNL A   1      38.883  23.578  26.342  1.00  0.00     0.016 A 
ATOM     34  C   UNL A   1      40.641  22.419  27.553  1.00  0.00     0.016 A 
ATOM     35  C   UNL A   1      39.358  24.803  26.803  1.00  0.00     0.010 A 
ATOM     36  C   UNL A   1      41.122  23.653  28.009  1.00  0.00     0.010 A 
ATOM     37  C   UNL A   1      40.507  24.852  27.603  1.00  0.00    -0.014 A 
BRANCH  37  38
ATOM     38  C   UNL A   1      41.141  26.167  27.873  1.00  0.00     0.031 A 
ATOM     39  C   UNL A   1      42.541  26.419  27.379  1.00  0.00     0.074 A 
ATOM     40  C   UNL A   1      40.459  27.142  28.499  1.00  0.00     0.049 A 
ATOM     41  N   UNL A   1      43.289  27.484  27.504  1.00  0.00    -0.248 NA
ATOM     42  C   UNL A   1      43.182  25.316  26.645  1.00  0.00     0.031 C 
ATOM     43  C   UNL A   1      39.080  27.032  28.978  1.00  0.00     0.029 A 
ATOM     44  N   UNL A   1      40.831  28.419  28.838  1.00  0.00    -0.354 N 
ATOM     45  C   UNL A   1      44.490  27.183  26.870  1.00  0.00     0.074 A 
ATOM     46  C   UNL A   1      44.379  25.820  26.390  1.00  0.00     0.031 C 
ATOM     47  C   UNL A   1      38.727  28.192  29.557  1.00  0.00     0.029 A 
ATOM     48  C   UNL A   1      39.862  29.113  29.522  1.00  0.00     0.049 A 
ATOM     49  H   UNL A   1      41.710  28.801  28.614  1.00  0.00     0.167 HD
ATOM     50  C   UNL A   1      45.580  27.971  26.697  1.00  0.00     0.034 A 
ATOM     51  C   UNL A   1      39.896  30.341  30.078  1.00  0.00     0.034 A 
ATOM     52  C   UNL A   1      45.678  29.323  27.190  1.00  0.00     0.049 A 
ATOM     53  C   UNL A   1      41.148  31.173  29.941  1.00  0.00     0.074 A 
ATOM     54  C   UNL A   1      46.730  30.215  27.060  1.00  0.00     0.029 A 
ATOM     55  N   UNL A   1      44.695  29.978  27.922  1.00  0.00    -0.354 N 
ATOM     56  N   UNL A   1      42.274  30.880  29.333  1.00  0.00    -0.248 NA
ATOM     57  C   UNL A   1      41.129  32.507  30.557  1.00  0.00     0.031 C 
ATOM     58  C   UNL A   1      46.411  31.378  27.772  1.00  0.00     0.029 A 
ATOM     59  C   UNL A   1      45.128  31.246  28.278  1.00  0.00     0.049 A 
ATOM     60  H   UNL A   1      43.817  29.597  28.152  1.00  0.00     0.167 HD
ATOM     61  C   UNL A   1      43.086  32.004  29.471  1.00  0.00     0.074 A 
ATOM     62  C   UNL A   1      42.314  32.984  30.205  1.00  0.00     0.031 C 
ATOM     63  C   UNL A   1      44.353  32.209  29.026  1.00  0.00     0.034 A 
BRANCH  50  64
ATOM     64  C   UNL A   1      46.772  27.364  25.995  1.00  0.00     0.023 A 
ATOM     65  C   UNL A   1      47.797  26.710  26.700  1.00  0.00     0.031 A 
ATOM     66  C   UNL A   1      46.893  27.461  24.597  1.00  0.00     0.131 A 
ATOM     67  C   UNL A   1      48.929  26.239  26.015  1.00  0.00     0.055 A 
ATOM     68  C   UNL A   1      47.985  26.924  23.913  1.00  0.00     0.041 A 
ATOM     69  F   UNL A   1      45.957  28.094  23.873  1.00  0.00    -0.206 F 
ATOM     70  C   UNL A   1      49.017  26.320  24.623  1.00  0.00     0.022 A 
BRANCH  67  71
ATOM     71  S   UNL A   1      50.343  25.639  26.979  1.00  0.00     0.124 S 
ATOM     72  O   UNL A   1      50.608  26.777  27.856  1.00  0.00    -0.237 OA
ATOM     73  O   UNL A   1      49.803  24.448  27.625  1.00  0.00    -0.237 OA
ATOM     74  O   UNL A   1      51.367  25.390  25.967  1.00  0.00    -0.744 OA
ENDBRANCH  67  71
ENDBRANCH  50  64
BRANCH  51  75
ATOM     75  C   UNL A   1      38.729  30.847  30.856  1.00  0.00     0.023 A 
ATOM     76  C   UNL A   1      37.605  31.393  30.217  1.00  0.00     0.031 A 
ATOM     77  C   UNL A   1      38.748  30.835  32.263  1.00  0.00     0.131 A 
ATOM     78  C   UNL A   1      36.565  31.944  30.983  1.00  0.00     0.055 A 
ATOM     79  C   UNL A   1      37.688  31.338  33.020  1.00  0.00     0.041 A 
ATOM     80  F   UNL A   1      39.800  30.325  32.924  1.00  0.00    -0.206 F 
ATOM     81  C   UNL A   1      36.593  31.908  32.379  1.00  0.00     0.022 A 
BRANCH  78  82
ATOM     82  S   UNL A   1      35.205  32.785  30.126  1.00  0.00     0.124 S 
ATOM     83  O   UNL A   1      34.204  32.885  31.184  1.00  0.00    -0.237 OA
ATOM     84  O   UNL A   1      35.834  34.037  29.717  1.00  0.00    -0.237 OA
ATOM     85  O   UNL A   1      34.872  31.871  29.036  1.00  0.00    -0.744 OA
ENDBRANCH  78  82
ENDBRANCH  51  75
BRANCH  63  86
ATOM     86  C   UNL A   1      44.961  33.566  29.288  1.00  0.00     0.023 A 
ATOM     87  C   UNL A   1      44.814  34.633  28.384  1.00  0.00     0.031 A 
ATOM     88  C   UNL A   1      45.710  33.790  30.459  1.00  0.00     0.131 A 
ATOM     89  C   UNL A   1      45.454  35.857  28.637  1.00  0.00     0.055 A 
ATOM     90  C   UNL A   1      46.292  35.028  30.734  1.00  0.00     0.041 A 
ATOM     91  F   UNL A   1      45.885  32.808  31.357  1.00  0.00    -0.206 F 
ATOM     92  C   UNL A   1      46.178  36.067  29.814  1.00  0.00     0.022 A 
BRANCH  89  93
ATOM     93  S   UNL A   1      45.404  37.146  27.362  1.00  0.00     0.124 S 
ATOM     94  O   UNL A   1      46.020  38.277  28.050  1.00  0.00    -0.237 OA
ATOM     95  O   UNL A   1      46.188  36.551  26.285  1.00  0.00    -0.237 OA
ATOM     96  O   UNL A   1      43.978  37.295  27.079  1.00  0.00    -0.744 OA
ENDBRANCH  89  93
ENDBRANCH  63  86
ENDBRANCH  37  38
ENDBRANCH  30  32
ENDBRANCH  29  30
ENDBRANCH  28  29
ENDBRANCH   1  28
TORSDOF 20
ENDMDL
MODEL 3
REMARK VINA RESULT:     -11.4      5.104      8.221
REMARK SMILES [NH3+][C@]1(C(=O)OCCOCCOC(=O)c2ccc(-c3c4nc(c(-c5cc(S(=O)(=O)[O-])ccc5F)c5ccc([nH]5)c(-c5cc(S(=O)(=O)[O-])ccc5F)c5nc(c(-c6cc(S(=O)(=O)[O-])ccc6F)c6ccc3[nH]6)C=C5)C=C4)cc2)CC[C@@H](Sc2cc3ccccc3[nH]2)C1
REMARK SMILES IDX 9 1 8 2 7 3 6 4 5 5 3 6 4 7 2 8 77 9 90 10 78 11 79 12 1 13
REMARK SMILES IDX 80 17 81 18 82 19 89 20 83 21 88 22 84 24 87 25 85 26 86 27
REMARK SMILES IDX 10 28 11 29 12 30 13 31 14 32 15 33 76 34 16 35 75 36 17 37
REMARK SMILES IDX 18 38 19 39 69 40 20 41 74 42 68 43 70 44 21 45 73 46 67 47
REMARK SMILES IDX 66 48 22 50 54 51 34 52 53 53 35 54 38 55 52 56 71 57 36 58
REMARK SMILES IDX 37 59 51 61 72 62 39 63 23 64 24 65 32 66 25 67 31 68 33 69
REMARK SMILES IDX 30 70 26 71 27 72 28 73 29 74 55 75 56 76 64 77 57 78 63 79
REMARK SMILES IDX 65 80 62 81 58 82 59 83 60 84 61 85 40 86 41 87 49 88 42 89
REMARK SMILES IDX 48 90 50 91 47 92 43 93 44 94 45 95 46 96
REMARK H PARENT 1 14 1 15 1 16 89 23 70 49 38 60
REMARK Flexibility Score: inf
ROOT
ATOM      1  C   UNL A   1      31.200  29.996  24.769  1.00  0.00     0.202 C 
ENDROOT
BRANCH   1   2
ATOM      2  O   UNL A   1      31.856  28.743  24.593  1.00  0.00    -0.374 OA
BRANCH   2   3
ATOM      3  C   UNL A   1      32.877  28.664  23.599  1.00  0.00     0.202 C 
BRANCH   3   4
ATOM      4  C   UNL A   1      32.960  27.364  22.790  1.00  0.00     0.261 C 
BRANCH   4   5
ATOM      5  O   UNL A   1      32.379  26.253  23.493  1.00  0.00    -0.459 OA
BRANCH   5   6
ATOM      6  C   UNL A   1      33.250  25.308  23.935  1.00  0.00     0.368 C 
ATOM      7  O   UNL A   1      34.168  24.827  23.277  1.00  0.00    -0.245 OA
BRANCH   6   8
ATOM      8  C   UNL A   1      32.981  24.895  25.402  1.00  0.00     0.193 C 
ATOM      9  C   UNL A   1      31.790  23.947  25.620  1.00  0.00     0.082 C 
ATOM     10  C   UNL A   1      34.192  24.138  25.956  1.00  0.00     0.096 C 
ATOM     11  C   UNL A   1      32.130  23.210  26.901  1.00  0.00     0.022 C 
ATOM     12  C   UNL A   1      33.634  22.993  26.819  1.00  0.00     0.060 C 
BRANCH   8  13
ATOM     13  N   UNL A   1      32.784  26.124  26.223  1.00  0.00    -0.343 N 
ATOM     14  H   UNL A   1      32.052  26.698  25.806  1.00  0.00     0.345 HD
ATOM     15  H   UNL A   1      33.655  26.654  26.256  1.00  0.00     0.345 HD
ATOM     16  H   UNL A   1      32.511  25.860  27.170  1.00  0.00     0.345 HD
ENDBRANCH   8  13
BRANCH  12  17
ATOM     17  S   UNL A   1      34.291  21.478  26.105  1.00  0.00    -0.105 SA
BRANCH  17  18
ATOM     18  C   UNL A   1      33.007  20.434  25.604  1.00  0.00     0.073 A 
ATOM     19  C   UNL A   1      32.584  20.209  24.310  1.00  0.00     0.043 A 
ATOM     20  N   UNL A   1      32.784  19.276  26.303  1.00  0.00    -0.350 N 
ATOM     21  C   UNL A   1      32.770  18.801  24.131  1.00  0.00     0.001 A 
ATOM     22  C   UNL A   1      32.926  18.240  25.401  1.00  0.00     0.046 A 
ATOM     23  H   UNL A   1      32.564  19.198  27.260  1.00  0.00     0.167 HD
ATOM     24  C   UNL A   1      32.991  17.992  23.002  1.00  0.00     0.010 A 
ATOM     25  C   UNL A   1      33.291  16.909  25.612  1.00  0.00     0.027 A 
ATOM     26  C   UNL A   1      33.451  16.684  23.194  1.00  0.00     0.001 A 
ATOM     27  C   UNL A   1      33.599  16.155  24.477  1.00  0.00     0.002 A 
ENDBRANCH  17  18
ENDBRANCH  12  17
ENDBRANCH   6   8
ENDBRANCH   5   6
ENDBRANCH   4   5
ENDBRANCH   3   4
ENDBRANCH   2   3
ENDBRANCH   1   2
BRANCH   1  28
ATOM     28  C   UNL A   1      31.490  30.787  26.051  1.00  0.00     0.261 C 
BRANCH  28  29
ATOM     29  O   UNL A   1      32.802  30.528  26.582  1.00  0.00    -0.460 OA
BRANCH  29  30
ATOM     30  C   UNL A   1      33.357  31.576  27.233  1.00  0.00     0.338 C 
ATOM     31  O   UNL A   1      32.800  32.630  27.531  1.00  0.00    -0.246 OA
BRANCH  30  32
ATOM     32  C   UNL A   1      34.703  31.238  27.726  1.00  0.00     0.060 A 
ATOM     33  C   UNL A   1      34.938  29.905  28.082  1.00  0.00     0.016 A 
ATOM     34  C   UNL A   1      35.681  32.212  27.940  1.00  0.00     0.016 A 
ATOM     35  C   UNL A   1      36.128  29.549  28.710  1.00  0.00     0.010 A 
ATOM     36  C   UNL A   1      36.875  31.854  28.578  1.00  0.00     0.010 A 
ATOM     37  C   UNL A   1      37.086  30.529  29.003  1.00  0.00    -0.014 A 
BRANCH  37  38
ATOM     38  C   UNL A   1      38.225  30.181  29.890  1.00  0.00     0.031 A 
ATOM     39  C   UNL A   1      39.248  29.186  29.409  1.00  0.00     0.074 A 
ATOM     40  C   UNL A   1      38.375  30.785  31.082  1.00  0.00     0.049 A 
ATOM     41  N   UNL A   1      40.315  28.731  30.013  1.00  0.00    -0.248 NA
ATOM     42  C   UNL A   1      39.035  28.630  28.064  1.00  0.00     0.031 C 
ATOM     43  C   UNL A   1      37.477  31.801  31.631  1.00  0.00     0.029 A 
ATOM     44  N   UNL A   1      39.341  30.634  32.045  1.00  0.00    -0.354 N 
ATOM     45  C   UNL A   1      40.900  27.833  29.127  1.00  0.00     0.074 A 
ATOM     46  C   UNL A   1      40.049  27.784  27.957  1.00  0.00     0.031 C 
ATOM     47  C   UNL A   1      37.931  32.175  32.839  1.00  0.00     0.029 A 
ATOM     48  C   UNL A   1      39.128  31.402  33.165  1.00  0.00     0.049 A 
ATOM     49  H   UNL A   1      40.112  30.031  31.944  1.00  0.00     0.167 HD
ATOM     50  C   UNL A   1      42.046  27.121  29.273  1.00  0.00     0.034 A 
ATOM     51  C   UNL A   1      39.808  31.457  34.328  1.00  0.00     0.034 A 
ATOM     52  C   UNL A   1      42.878  27.173  30.450  1.00  0.00     0.049 A 
ATOM     53  C   UNL A   1      41.038  30.598  34.499  1.00  0.00     0.074 A 
ATOM     54  C   UNL A   1      44.065  26.505  30.698  1.00  0.00     0.029 A 
ATOM     55  N   UNL A   1      42.606  27.927  31.586  1.00  0.00    -0.354 N 
ATOM     56  N   UNL A   1      41.585  29.758  33.651  1.00  0.00    -0.248 NA
ATOM     57  C   UNL A   1      41.746  30.703  35.782  1.00  0.00     0.031 C 
ATOM     58  C   UNL A   1      44.470  26.797  32.005  1.00  0.00     0.029 A 
ATOM     59  C   UNL A   1      43.582  27.713  32.547  1.00  0.00     0.049 A 
ATOM     60  H   UNL A   1      41.833  28.527  31.691  1.00  0.00     0.167 HD
ATOM     61  C   UNL A   1      42.717  29.256  34.290  1.00  0.00     0.074 A 
ATOM     62  C   UNL A   1      42.781  29.900  35.585  1.00  0.00     0.031 C 
ATOM     63  C   UNL A   1      43.625  28.350  33.843  1.00  0.00     0.034 A 
BRANCH  50  64
ATOM     64  C   UNL A   1      42.427  26.183  28.153  1.00  0.00     0.023 A 
ATOM     65  C   UNL A   1      41.823  24.923  28.000  1.00  0.00     0.031 A 
ATOM     66  C   UNL A   1      43.429  26.548  27.235  1.00  0.00     0.131 A 
ATOM     67  C   UNL A   1      42.273  24.048  26.997  1.00  0.00     0.055 A 
ATOM     68  C   UNL A   1      43.818  25.704  26.194  1.00  0.00     0.041 A 
ATOM     69  F   UNL A   1      44.057  27.729  27.344  1.00  0.00    -0.206 F 
ATOM     70  C   UNL A   1      43.248  24.440  26.078  1.00  0.00     0.022 A 
BRANCH  67  71
ATOM     71  S   UNL A   1      41.658  22.341  26.992  1.00  0.00     0.124 S 
ATOM     72  O   UNL A   1      41.843  21.964  25.593  1.00  0.00    -0.237 OA
ATOM     73  O   UNL A   1      42.537  21.685  27.953  1.00  0.00    -0.237 OA
ATOM     74  O   UNL A   1      40.265  22.477  27.413  1.00  0.00    -0.744 OA
ENDBRANCH  67  71
ENDBRANCH  50  64
BRANCH  51  75
ATOM     75  C   UNL A   1      39.323  32.319  35.443  1.00  0.00     0.023 A 
ATOM     76  C   UNL A   1      39.771  33.641  35.595  1.00  0.00     0.031 A 
ATOM     77  C   UNL A   1      38.433  31.810  36.406  1.00  0.00     0.131 A 
ATOM     78  C   UNL A   1      39.364  34.393  36.708  1.00  0.00     0.055 A 
ATOM     79  C   UNL A   1      37.991  32.580  37.484  1.00  0.00     0.041 A 
ATOM     80  F   UNL A   1      37.973  30.552  36.309  1.00  0.00    -0.206 F 
ATOM     81  C   UNL A   1      38.468  33.877  37.646  1.00  0.00     0.022 A 
BRANCH  78  82
ATOM     82  S   UNL A   1      40.090  36.037  36.959  1.00  0.00     0.124 S 
ATOM     83  O   UNL A   1      39.341  36.518  38.116  1.00  0.00    -0.237 OA
ATOM     84  O   UNL A   1      41.494  35.716  37.192  1.00  0.00    -0.237 OA
ATOM     85  O   UNL A   1      39.809  36.728  35.703  1.00  0.00    -0.744 OA
ENDBRANCH  78  82
ENDBRANCH  51  75
BRANCH  63  86
ATOM     86  C   UNL A   1      44.789  28.038  34.754  1.00  0.00     0.023 A 
ATOM     87  C   UNL A   1      44.745  26.981  35.680  1.00  0.00     0.031 A 
ATOM     88  C   UNL A   1      45.958  28.820  34.698  1.00  0.00     0.131 A 
ATOM     89  C   UNL A   1      45.824  26.769  36.552  1.00  0.00     0.055 A 
ATOM     90  C   UNL A   1      47.052  28.566  35.527  1.00  0.00     0.041 A 
ATOM     91  F   UNL A   1      46.057  29.843  33.835  1.00  0.00    -0.206 F 
ATOM     92  C   UNL A   1      46.984  27.545  36.470  1.00  0.00     0.022 A 
BRANCH  89  93
ATOM     93  S   UNL A   1      45.657  25.525  37.860  1.00  0.00     0.124 S 
ATOM     94  O   UNL A   1      46.208  26.224  39.017  1.00  0.00    -0.237 OA
ATOM     95  O   UNL A   1      44.217  25.289  37.885  1.00  0.00    -0.237 OA
ATOM     96  O   UNL A   1      46.459  24.404  37.373  1.00  0.00    -0.744 OA
ENDBRANCH  89  93
ENDBRANCH  63  86
ENDBRANCH  37  38
ENDBRANCH  30  32
ENDBRANCH  29  30
ENDBRANCH  28  29
ENDBRANCH   1  28
TORSDOF 20
ENDMDL
