MODEL 1
REMARK VINA RESULT:     -10.5      0.000      0.000
REMARK SMILES O=C(OCCOCCOC(=O)[C@@H](F)Sc1ccccc1O)c1ccc(-c2c3nc(c(-c4cc(S(=O)(=O)[O-])ccc4F)c4ccc([nH]4)c(-c4cc(S(=O)(=O)[O-])ccc4F)c4nc(c(-c5cc(S(=O)(=O)[O-])ccc5F)c5ccc2[nH]5)C=C4)C=C3)cc1
REMARK SMILES IDX 6 1 5 2 4 3 3 4 2 5 1 6 22 7 23 8 84 9 24 10 83 11 25 12
REMARK SMILES IDX 26 13 27 14 77 15 28 16 82 17 76 18 78 19 29 20 81 21 75 22
REMARK SMILES IDX 74 23 30 25 62 26 42 27 61 28 43 29 46 30 60 31 79 32 44 33
REMARK SMILES IDX 45 34 59 36 80 37 47 38 31 39 32 40 40 41 33 42 39 43 41 44
REMARK SMILES IDX 38 45 34 46 35 47 36 48 37 49 63 50 64 51 72 52 65 53 71 54
REMARK SMILES IDX 73 55 70 56 66 57 67 58 68 59 69 60 48 61 49 62 57 63 50 64
REMARK SMILES IDX 56 65 58 66 55 67 51 68 52 69 53 70 54 71 7 72 8 73 9 74
REMARK SMILES IDX 10 75 11 76 12 77 13 78 14 79 15 80 16 81 20 82 17 83 19 84
REMARK SMILES IDX 18 85 21 86
REMARK H PARENT 78 24 46 35 21 87
REMARK Flexibility Score: inf
ROOT
ATOM      1  O   UNL A   1      31.640  29.800  27.332  1.00  0.00    -0.374 OA
ENDROOT
BRANCH   1   2
ATOM      2  C   UNL A   1      32.207  30.718  26.391  1.00  0.00     0.202 C 
BRANCH   2   3
ATOM      3  C   UNL A   1      31.641  32.148  26.424  1.00  0.00     0.261 C 
BRANCH   3   4
ATOM      4  O   UNL A   1      32.044  32.850  27.616  1.00  0.00    -0.460 OA
BRANCH   4   5
ATOM      5  C   UNL A   1      33.195  33.521  27.866  1.00  0.00     0.338 C 
ATOM      6  O   UNL A   1      33.205  34.739  27.688  1.00  0.00    -0.246 OA
BRANCH   5   7
ATOM      7  C   UNL A   1      34.467  32.868  28.309  1.00  0.00     0.060 A 
ATOM      8  C   UNL A   1      34.562  31.582  28.838  1.00  0.00     0.016 A 
ATOM      9  C   UNL A   1      35.665  33.581  28.117  1.00  0.00     0.016 A 
ATOM     10  C   UNL A   1      35.768  31.027  29.206  1.00  0.00     0.010 A 
ATOM     11  C   UNL A   1      36.900  33.028  28.478  1.00  0.00     0.010 A 
ATOM     12  C   UNL A   1      36.939  31.753  29.049  1.00  0.00    -0.014 A 
BRANCH  12  13
ATOM     13  C   UNL A   1      38.117  31.187  29.718  1.00  0.00     0.031 A 
ATOM     14  C   UNL A   1      38.297  31.508  31.170  1.00  0.00     0.074 A 
ATOM     15  C   UNL A   1      38.813  30.215  29.102  1.00  0.00     0.049 A 
ATOM     16  N   UNL A   1      39.187  31.068  32.013  1.00  0.00    -0.248 NA
ATOM     17  C   UNL A   1      37.310  32.432  31.758  1.00  0.00     0.031 C 
ATOM     18  C   UNL A   1      38.547  29.723  27.745  1.00  0.00     0.029 A 
ATOM     19  N   UNL A   1      39.834  29.424  29.549  1.00  0.00    -0.354 N 
ATOM     20  C   UNL A   1      38.886  31.681  33.225  1.00  0.00     0.074 A 
ATOM     21  C   UNL A   1      37.736  32.527  33.006  1.00  0.00     0.031 C 
ATOM     22  C   UNL A   1      39.367  28.692  27.486  1.00  0.00     0.029 A 
ATOM     23  C   UNL A   1      40.260  28.501  28.622  1.00  0.00     0.049 A 
ATOM     24  H   UNL A   1      40.225  29.505  30.448  1.00  0.00     0.167 HD
ATOM     25  C   UNL A   1      39.531  31.546  34.406  1.00  0.00     0.034 A 
ATOM     26  C   UNL A   1      41.283  27.628  28.691  1.00  0.00     0.034 A 
ATOM     27  C   UNL A   1      40.684  30.695  34.560  1.00  0.00     0.049 A 
ATOM     28  C   UNL A   1      42.074  27.601  29.975  1.00  0.00     0.074 A 
ATOM     29  C   UNL A   1      41.499  30.530  35.662  1.00  0.00     0.029 A 
ATOM     30  N   UNL A   1      41.187  29.867  33.559  1.00  0.00    -0.354 N 
ATOM     31  N   UNL A   1      41.859  28.264  31.092  1.00  0.00    -0.248 NA
ATOM     32  C   UNL A   1      43.241  26.718  30.013  1.00  0.00     0.031 C 
ATOM     33  C   UNL A   1      42.538  29.663  35.303  1.00  0.00     0.029 A 
ATOM     34  C   UNL A   1      42.319  29.211  34.008  1.00  0.00     0.049 A 
ATOM     35  H   UNL A   1      40.794  29.763  32.663  1.00  0.00     0.167 HD
ATOM     36  C   UNL A   1      42.848  27.850  31.977  1.00  0.00     0.074 A 
ATOM     37  C   UNL A   1      43.645  26.868  31.265  1.00  0.00     0.031 C 
ATOM     38  C   UNL A   1      43.083  28.238  33.258  1.00  0.00     0.034 A 
BRANCH  25  39
ATOM     39  C   UNL A   1      39.073  32.433  35.537  1.00  0.00     0.023 A 
ATOM     40  C   UNL A   1      39.493  33.771  35.663  1.00  0.00     0.031 A 
ATOM     41  C   UNL A   1      38.295  31.890  36.574  1.00  0.00     0.131 A 
ATOM     42  C   UNL A   1      39.210  34.485  36.840  1.00  0.00     0.055 A 
ATOM     43  C   UNL A   1      37.941  32.634  37.701  1.00  0.00     0.041 A 
ATOM     44  F   UNL A   1      37.898  30.608  36.530  1.00  0.00    -0.206 F 
ATOM     45  C   UNL A   1      38.415  33.934  37.847  1.00  0.00     0.022 A 
BRANCH  42  46
ATOM     46  S   UNL A   1      40.047  36.072  37.119  1.00  0.00     0.124 S 
ATOM     47  O   UNL A   1      39.820  36.753  35.846  1.00  0.00    -0.237 OA
ATOM     48  O   UNL A   1      39.330  36.611  38.268  1.00  0.00    -0.237 OA
ATOM     49  O   UNL A   1      41.435  35.688  37.373  1.00  0.00    -0.744 OA
ENDBRANCH  42  46
ENDBRANCH  25  39
BRANCH  26  50
ATOM     50  C   UNL A   1      41.660  26.786  27.517  1.00  0.00     0.023 A 
ATOM     51  C   UNL A   1      41.373  25.413  27.473  1.00  0.00     0.031 A 
ATOM     52  C   UNL A   1      42.380  27.337  26.438  1.00  0.00     0.131 A 
ATOM     53  C   UNL A   1      41.846  24.631  26.404  1.00  0.00     0.055 A 
ATOM     54  C   UNL A   1      42.793  26.568  25.349  1.00  0.00     0.041 A 
ATOM     55  F   UNL A   1      42.695  28.642  26.424  1.00  0.00    -0.206 F 
ATOM     56  C   UNL A   1      42.541  25.202  25.336  1.00  0.00     0.022 A 
BRANCH  53  57
ATOM     57  S   UNL A   1      41.637  22.829  26.484  1.00  0.00     0.124 S 
ATOM     58  O   UNL A   1      42.334  22.396  25.279  1.00  0.00    -0.237 OA
ATOM     59  O   UNL A   1      42.284  22.507  27.752  1.00  0.00    -0.237 OA
ATOM     60  O   UNL A   1      40.186  22.655  26.464  1.00  0.00    -0.744 OA
ENDBRANCH  53  57
ENDBRANCH  26  50
BRANCH  38  61
ATOM     61  C   UNL A   1      44.211  27.542  33.975  1.00  0.00     0.023 A 
ATOM     62  C   UNL A   1      44.002  26.378  34.733  1.00  0.00     0.031 A 
ATOM     63  C   UNL A   1      45.514  28.067  33.907  1.00  0.00     0.131 A 
ATOM     64  C   UNL A   1      45.066  25.819  35.453  1.00  0.00     0.055 A 
ATOM     65  C   UNL A   1      46.583  27.461  34.562  1.00  0.00     0.041 A 
ATOM     66  F   UNL A   1      45.767  29.179  33.197  1.00  0.00    -0.206 F 
ATOM     67  C   UNL A   1      46.359  26.340  35.356  1.00  0.00     0.022 A 
BRANCH  64  68
ATOM     68  S   UNL A   1      44.709  24.478  36.620  1.00  0.00     0.124 S 
ATOM     69  O   UNL A   1      43.695  25.085  37.476  1.00  0.00    -0.237 OA
ATOM     70  O   UNL A   1      44.243  23.413  35.737  1.00  0.00    -0.237 OA
ATOM     71  O   UNL A   1      45.998  24.232  37.262  1.00  0.00    -0.744 OA
ENDBRANCH  64  68
ENDBRANCH  38  61
ENDBRANCH  12  13
ENDBRANCH   5   7
ENDBRANCH   4   5
ENDBRANCH   3   4
ENDBRANCH   2   3
ENDBRANCH   1   2
BRANCH   1  72
ATOM     72  C   UNL A   1      32.232  28.495  27.362  1.00  0.00     0.202 C 
BRANCH  72  73
ATOM     73  C   UNL A   1      31.371  27.520  26.576  1.00  0.00     0.261 C 
BRANCH  73  74
ATOM     74  O   UNL A   1      31.780  26.211  26.987  1.00  0.00    -0.460 OA
BRANCH  74  75
ATOM     75  C   UNL A   1      32.182  25.346  26.016  1.00  0.00     0.351 C 
ATOM     76  O   UNL A   1      32.650  24.228  26.216  1.00  0.00    -0.248 OA
BRANCH  75  77
ATOM     77  C   UNL A   1      31.981  25.961  24.639  1.00  0.00     0.338 C 
ATOM     78  F   UNL A   1      33.061  25.775  23.817  1.00  0.00    -0.222 F 
BRANCH  77  79
ATOM     79  S   UNL A   1      30.473  25.308  23.844  1.00  0.00    -0.073 SA
BRANCH  79  80
ATOM     80  C   UNL A   1      29.742  26.853  23.310  1.00  0.00     0.052 A 
ATOM     81  C   UNL A   1      30.581  27.822  22.741  1.00  0.00     0.019 A 
ATOM     82  C   UNL A   1      28.389  27.163  23.512  1.00  0.00     0.129 A 
ATOM     83  C   UNL A   1      30.086  29.089  22.423  1.00  0.00     0.001 A 
ATOM     84  C   UNL A   1      27.889  28.422  23.172  1.00  0.00     0.047 A 
ATOM     85  C   UNL A   1      28.742  29.387  22.638  1.00  0.00     0.004 A 
BRANCH  82  86
ATOM     86  O   UNL A   1      27.548  26.231  24.056  1.00  0.00    -0.507 OA
ATOM     87  H   UNL A   1      27.750  25.845  24.885  1.00  0.00     0.293 HD
ENDBRANCH  82  86
ENDBRANCH  79  80
ENDBRANCH  77  79
ENDBRANCH  75  77
ENDBRANCH  74  75
ENDBRANCH  73  74
ENDBRANCH  72  73
ENDBRANCH   1  72
TORSDOF 20
ENDMDL
MODEL 2
REMARK VINA RESULT:     -10.1      1.276      2.376
REMARK SMILES O=C(OCCOCCOC(=O)[C@@H](F)Sc1ccccc1O)c1ccc(-c2c3nc(c(-c4cc(S(=O)(=O)[O-])ccc4F)c4ccc([nH]4)c(-c4cc(S(=O)(=O)[O-])ccc4F)c4nc(c(-c5cc(S(=O)(=O)[O-])ccc5F)c5ccc2[nH]5)C=C4)C=C3)cc1
REMARK SMILES IDX 6 1 5 2 4 3 3 4 2 5 1 6 22 7 23 8 84 9 24 10 83 11 25 12
REMARK SMILES IDX 26 13 27 14 77 15 28 16 82 17 76 18 78 19 29 20 81 21 75 22
REMARK SMILES IDX 74 23 30 25 62 26 42 27 61 28 43 29 46 30 60 31 79 32 44 33
REMARK SMILES IDX 45 34 59 36 80 37 47 38 31 39 32 40 40 41 33 42 39 43 41 44
REMARK SMILES IDX 38 45 34 46 35 47 36 48 37 49 63 50 64 51 72 52 65 53 71 54
REMARK SMILES IDX 73 55 70 56 66 57 67 58 68 59 69 60 48 61 49 62 57 63 50 64
REMARK SMILES IDX 56 65 58 66 55 67 51 68 52 69 53 70 54 71 7 72 8 73 9 74
REMARK SMILES IDX 10 75 11 76 12 77 13 78 14 79 15 80 16 81 20 82 17 83 19 84
REMARK SMILES IDX 18 85 21 86
REMARK H PARENT 78 24 46 35 21 87
REMARK Flexibility Score: inf
ROOT
ATOM      1  O   UNL A   1      31.422  30.319  26.615  1.00  0.00    -0.374 OA
ENDROOT
BRANCH   1   2
ATOM      2  C   UNL A   1      32.399  31.303  26.972  1.00  0.00     0.202 C 
BRANCH   2   3
ATOM      3  C   UNL A   1      32.029  32.761  26.653  1.00  0.00     0.261 C 
BRANCH   3   4
ATOM      4  O   UNL A   1      32.113  33.597  27.824  1.00  0.00    -0.460 OA
BRANCH   4   5
ATOM      5  C   UNL A   1      33.201  34.180  28.383  1.00  0.00     0.338 C 
ATOM      6  O   UNL A   1      33.193  35.402  28.529  1.00  0.00    -0.246 OA
BRANCH   5   7
ATOM      7  C   UNL A   1      34.430  33.434  28.800  1.00  0.00     0.060 A 
ATOM      8  C   UNL A   1      34.437  32.279  29.579  1.00  0.00     0.016 A 
ATOM      9  C   UNL A   1      35.668  33.898  28.316  1.00  0.00     0.016 A 
ATOM     10  C   UNL A   1      35.603  31.624  29.911  1.00  0.00     0.010 A 
ATOM     11  C   UNL A   1      36.861  33.239  28.637  1.00  0.00     0.010 A 
ATOM     12  C   UNL A   1      36.821  32.111  29.461  1.00  0.00    -0.014 A 
BRANCH  12  13
ATOM     13  C   UNL A   1      38.003  31.509  30.090  1.00  0.00     0.031 A 
ATOM     14  C   UNL A   1      38.232  31.809  31.538  1.00  0.00     0.074 A 
ATOM     15  C   UNL A   1      38.657  30.527  29.443  1.00  0.00     0.049 A 
ATOM     16  N   UNL A   1      39.135  31.339  32.351  1.00  0.00    -0.248 NA
ATOM     17  C   UNL A   1      37.286  32.750  32.165  1.00  0.00     0.031 C 
ATOM     18  C   UNL A   1      38.340  30.057  28.090  1.00  0.00     0.029 A 
ATOM     19  N   UNL A   1      39.670  29.706  29.852  1.00  0.00    -0.354 N 
ATOM     20  C   UNL A   1      38.884  31.945  33.577  1.00  0.00     0.074 A 
ATOM     21  C   UNL A   1      37.751  32.822  33.401  1.00  0.00     0.031 C 
ATOM     22  C   UNL A   1      39.126  29.009  27.796  1.00  0.00     0.029 A 
ATOM     23  C   UNL A   1      40.046  28.784  28.904  1.00  0.00     0.049 A 
ATOM     24  H   UNL A   1      40.088  29.768  30.741  1.00  0.00     0.167 HD
ATOM     25  C   UNL A   1      39.560  31.781  34.738  1.00  0.00     0.034 A 
ATOM     26  C   UNL A   1      41.049  27.886  28.934  1.00  0.00     0.034 A 
ATOM     27  C   UNL A   1      40.695  30.901  34.850  1.00  0.00     0.049 A 
ATOM     28  C   UNL A   1      41.875  27.825  30.195  1.00  0.00     0.074 A 
ATOM     29  C   UNL A   1      41.537  30.703  35.925  1.00  0.00     0.029 A 
ATOM     30  N   UNL A   1      41.148  30.072  33.826  1.00  0.00    -0.354 N 
ATOM     31  N   UNL A   1      41.709  28.480  31.324  1.00  0.00    -0.248 NA
ATOM     32  C   UNL A   1      43.021  26.913  30.189  1.00  0.00     0.031 C 
ATOM     33  C   UNL A   1      42.544  29.816  35.527  1.00  0.00     0.029 A 
ATOM     34  C   UNL A   1      42.277  29.383  34.235  1.00  0.00     0.049 A 
ATOM     35  H   UNL A   1      40.727  29.987  32.941  1.00  0.00     0.167 HD
ATOM     36  C   UNL A   1      42.713  28.032  32.176  1.00  0.00     0.074 A 
ATOM     37  C   UNL A   1      43.464  27.039  31.430  1.00  0.00     0.031 C 
ATOM     38  C   UNL A   1      42.994  28.400  33.453  1.00  0.00     0.034 A 
BRANCH  25  39
ATOM     39  C   UNL A   1      39.157  32.667  35.891  1.00  0.00     0.023 A 
ATOM     40  C   UNL A   1      39.606  33.995  36.014  1.00  0.00     0.031 A 
ATOM     41  C   UNL A   1      38.403  32.129  36.949  1.00  0.00     0.131 A 
ATOM     42  C   UNL A   1      39.376  34.704  37.206  1.00  0.00     0.055 A 
ATOM     43  C   UNL A   1      38.101  32.869  38.093  1.00  0.00     0.041 A 
ATOM     44  F   UNL A   1      37.981  30.855  36.908  1.00  0.00    -0.206 F 
ATOM     45  C   UNL A   1      38.605  34.159  38.234  1.00  0.00     0.022 A 
BRANCH  42  46
ATOM     46  S   UNL A   1      40.252  36.272  37.469  1.00  0.00     0.124 S 
ATOM     47  O   UNL A   1      39.363  36.953  38.407  1.00  0.00    -0.237 OA
ATOM     48  O   UNL A   1      41.533  35.831  38.010  1.00  0.00    -0.237 OA
ATOM     49  O   UNL A   1      40.309  36.863  36.134  1.00  0.00    -0.744 OA
ENDBRANCH  42  46
ENDBRANCH  25  39
BRANCH  26  50
ATOM     50  C   UNL A   1      41.371  27.048  27.741  1.00  0.00     0.023 A 
ATOM     51  C   UNL A   1      41.096  25.671  27.711  1.00  0.00     0.031 A 
ATOM     52  C   UNL A   1      42.027  27.606  26.625  1.00  0.00     0.131 A 
ATOM     53  C   UNL A   1      41.519  24.894  26.618  1.00  0.00     0.055 A 
ATOM     54  C   UNL A   1      42.389  26.841  25.515  1.00  0.00     0.041 A 
ATOM     55  F   UNL A   1      42.328  28.914  26.596  1.00  0.00    -0.206 F 
ATOM     56  C   UNL A   1      42.149  25.472  25.515  1.00  0.00     0.022 A 
BRANCH  53  57
ATOM     57  S   UNL A   1      41.333  23.091  26.708  1.00  0.00     0.124 S 
ATOM     58  O   UNL A   1      39.889  22.935  26.574  1.00  0.00    -0.237 OA
ATOM     59  O   UNL A   1      42.135  22.648  25.572  1.00  0.00    -0.237 OA
ATOM     60  O   UNL A   1      41.878  22.758  28.022  1.00  0.00    -0.744 OA
ENDBRANCH  53  57
ENDBRANCH  26  50
BRANCH  38  61
ATOM     61  C   UNL A   1      44.125  27.669  34.130  1.00  0.00     0.023 A 
ATOM     62  C   UNL A   1      43.949  26.397  34.699  1.00  0.00     0.031 A 
ATOM     63  C   UNL A   1      45.394  28.268  34.216  1.00  0.00     0.131 A 
ATOM     64  C   UNL A   1      45.008  25.797  35.395  1.00  0.00     0.055 A 
ATOM     65  C   UNL A   1      46.464  27.631  34.841  1.00  0.00     0.041 A 
ATOM     66  F   UNL A   1      45.614  29.484  33.690  1.00  0.00    -0.206 F 
ATOM     67  C   UNL A   1      46.269  26.395  35.451  1.00  0.00     0.022 A 
BRANCH  64  68
ATOM     68  S   UNL A   1      44.675  24.282  36.334  1.00  0.00     0.124 S 
ATOM     69  O   UNL A   1      45.950  23.579  36.234  1.00  0.00    -0.237 OA
ATOM     70  O   UNL A   1      44.337  24.802  37.655  1.00  0.00    -0.237 OA
ATOM     71  O   UNL A   1      43.567  23.666  35.607  1.00  0.00    -0.744 OA
ENDBRANCH  64  68
ENDBRANCH  38  61
ENDBRANCH  12  13
ENDBRANCH   5   7
ENDBRANCH   4   5
ENDBRANCH   3   4
ENDBRANCH   2   3
ENDBRANCH   1   2
BRANCH   1  72
ATOM     72  C   UNL A   1      31.904  29.217  25.835  1.00  0.00     0.202 C 
BRANCH  72  73
ATOM     73  C   UNL A   1      31.380  29.325  24.413  1.00  0.00     0.261 C 
BRANCH  73  74
ATOM     74  O   UNL A   1      30.902  28.021  24.066  1.00  0.00    -0.460 OA
BRANCH  74  75
ATOM     75  C   UNL A   1      30.714  27.753  22.744  1.00  0.00     0.351 C 
ATOM     76  O   UNL A   1      30.144  28.493  21.948  1.00  0.00    -0.248 OA
BRANCH  75  77
ATOM     77  C   UNL A   1      31.303  26.396  22.388  1.00  0.00     0.338 C 
ATOM     78  F   UNL A   1      32.643  26.459  22.115  1.00  0.00    -0.222 F 
BRANCH  77  79
ATOM     79  S   UNL A   1      30.993  25.180  23.714  1.00  0.00    -0.073 SA
BRANCH  79  80
ATOM     80  C   UNL A   1      32.664  24.574  23.939  1.00  0.00     0.052 A 
ATOM     81  C   UNL A   1      33.430  25.113  24.982  1.00  0.00     0.019 A 
ATOM     82  C   UNL A   1      33.259  23.648  23.070  1.00  0.00     0.129 A 
ATOM     83  C   UNL A   1      34.776  24.768  25.124  1.00  0.00     0.001 A 
ATOM     84  C   UNL A   1      34.598  23.285  23.226  1.00  0.00     0.047 A 
ATOM     85  C   UNL A   1      35.358  23.855  24.247  1.00  0.00     0.004 A 
BRANCH  82  86
ATOM     86  O   UNL A   1      32.529  23.099  22.051  1.00  0.00    -0.507 OA
ATOM     87  H   UNL A   1      32.788  22.279  21.679  1.00  0.00     0.293 HD
ENDBRANCH  82  86
ENDBRANCH  79  80
ENDBRANCH  77  79
ENDBRANCH  75  77
ENDBRANCH  74  75
ENDBRANCH  73  74
ENDBRANCH  72  73
ENDBRANCH   1  72
TORSDOF 20
ENDMDL
MODEL 3
REMARK VINA RESULT:     -10.0      4.647     10.174
REMARK SMILES O=C(OCCOCCOC(=O)[C@@H](F)Sc1ccccc1O)c1ccc(-c2c3nc(c(-c4cc(S(=O)(=O)[O-])ccc4F)c4ccc([nH]4)c(-c4cc(S(=O)(=O)[O-])ccc4F)c4nc(c(-c5cc(S(=O)(=O)[O-])ccc5F)c5ccc2[nH]5)C=C4)C=C3)cc1
REMARK SMILES IDX 6 1 5 2 4 3 3 4 2 5 1 6 22 7 23 8 84 9 24 10 83 11 25 12
REMARK SMILES IDX 26 13 27 14 77 15 28 16 82 17 76 18 78 19 29 20 81 21 75 22
REMARK SMILES IDX 74 23 30 25 62 26 42 27 61 28 43 29 46 30 60 31 79 32 44 33
REMARK SMILES IDX 45 34 59 36 80 37 47 38 31 39 32 40 40 41 33 42 39 43 41 44
REMARK SMILES IDX 38 45 34 46 35 47 36 48 37 49 63 50 64 51 72 52 65 53 71 54
REMARK SMILES IDX 73 55 70 56 66 57 67 58 68 59 69 60 48 61 49 62 57 63 50 64
REMARK SMILES IDX 56 65 58 66 55 67 51 68 52 69 53 70 54 71 7 72 8 73 9 74
REMARK SMILES IDX 10 75 11 76 12 77 13 78 14 79 15 80 16 81 20 82 17 83 19 84
REMARK SMILES IDX 18 85 21 86
REMARK H PARENT 78 24 46 35 21 87
REMARK Flexibility Score: inf
ROOT
ATOM      1  O   UNL A   1      35.320  21.192  25.569  1.00  0.00    -0.374 OA
ENDROOT
BRANCH   1   2
ATOM      2  C   UNL A   1      36.540  21.721  25.037  1.00  0.00     0.202 C 
BRANCH   2   3
ATOM      3  C   UNL A   1      37.628  20.687  24.698  1.00  0.00     0.261 C 
BRANCH   3   4
ATOM      4  O   UNL A   1      38.384  20.310  25.866  1.00  0.00    -0.460 OA
BRANCH   4   5
ATOM      5  C   UNL A   1      39.663  20.614  26.191  1.00  0.00     0.338 C 
ATOM      6  O   UNL A   1      40.518  19.739  26.058  1.00  0.00    -0.246 OA
BRANCH   5   7
ATOM      7  C   UNL A   1      40.097  21.939  26.738  1.00  0.00     0.060 A 
ATOM      8  C   UNL A   1      39.572  23.171  26.356  1.00  0.00     0.016 A 
ATOM      9  C   UNL A   1      41.063  21.934  27.762  1.00  0.00     0.016 A 
ATOM     10  C   UNL A   1      39.998  24.356  26.915  1.00  0.00     0.010 A 
ATOM     11  C   UNL A   1      41.500  23.129  28.346  1.00  0.00     0.010 A 
ATOM     12  C   UNL A   1      40.977  24.344  27.896  1.00  0.00    -0.014 A 
BRANCH  12  13
ATOM     13  C   UNL A   1      41.549  25.657  28.222  1.00  0.00     0.031 A 
ATOM     14  C   UNL A   1      42.882  25.987  27.627  1.00  0.00     0.074 A 
ATOM     15  C   UNL A   1      40.762  26.587  28.792  1.00  0.00     0.049 A 
ATOM     16  N   UNL A   1      43.561  27.098  27.676  1.00  0.00    -0.248 NA
ATOM     17  C   UNL A   1      43.525  24.920  26.838  1.00  0.00     0.031 C 
ATOM     18  C   UNL A   1      39.373  26.369  29.212  1.00  0.00     0.029 A 
ATOM     19  N   UNL A   1      40.985  27.910  29.054  1.00  0.00    -0.354 N 
ATOM     20  C   UNL A   1      44.722  26.857  26.949  1.00  0.00     0.074 A 
ATOM     21  C   UNL A   1      44.659  25.495  26.476  1.00  0.00     0.031 C 
ATOM     22  C   UNL A   1      38.861  27.530  29.651  1.00  0.00     0.029 A 
ATOM     23  C   UNL A   1      39.903  28.549  29.614  1.00  0.00     0.049 A 
ATOM     24  H   UNL A   1      41.837  28.361  28.860  1.00  0.00     0.167 HD
ATOM     25  C   UNL A   1      45.747  27.709  26.716  1.00  0.00     0.034 A 
ATOM     26  C   UNL A   1      39.796  29.811  30.069  1.00  0.00     0.034 A 
ATOM     27  C   UNL A   1      45.760  29.056  27.228  1.00  0.00     0.049 A 
ATOM     28  C   UNL A   1      41.009  30.697  29.921  1.00  0.00     0.074 A 
ATOM     29  C   UNL A   1      46.764  30.001  27.159  1.00  0.00     0.029 A 
ATOM     30  N   UNL A   1      44.702  29.642  27.918  1.00  0.00    -0.354 N 
ATOM     31  N   UNL A   1      42.155  30.436  29.330  1.00  0.00    -0.248 NA
ATOM     32  C   UNL A   1      40.920  32.039  30.501  1.00  0.00     0.031 C 
ATOM     33  C   UNL A   1      46.345  31.128  27.874  1.00  0.00     0.029 A 
ATOM     34  C   UNL A   1      45.041  30.926  28.307  1.00  0.00     0.049 A 
ATOM     35  H   UNL A   1      43.838  29.208  28.102  1.00  0.00     0.167 HD
ATOM     36  C   UNL A   1      42.913  31.597  29.437  1.00  0.00     0.074 A 
ATOM     37  C   UNL A   1      42.081  32.561  30.135  1.00  0.00     0.031 C 
ATOM     38  C   UNL A   1      44.175  31.853  29.004  1.00  0.00     0.034 A 
BRANCH  25  39
ATOM     39  C   UNL A   1      46.952  27.145  26.004  1.00  0.00     0.023 A 
ATOM     40  C   UNL A   1      47.957  26.425  26.677  1.00  0.00     0.031 A 
ATOM     41  C   UNL A   1      47.155  27.438  24.644  1.00  0.00     0.131 A 
ATOM     42  C   UNL A   1      49.153  26.107  26.013  1.00  0.00     0.055 A 
ATOM     43  C   UNL A   1      48.308  27.041  23.966  1.00  0.00     0.041 A 
ATOM     44  F   UNL A   1      46.251  28.156  23.958  1.00  0.00    -0.206 F 
ATOM     45  C   UNL A   1      49.325  26.387  24.656  1.00  0.00     0.022 A 
BRANCH  42  46
ATOM     46  S   UNL A   1      50.555  25.490  26.990  1.00  0.00     0.124 S 
ATOM     47  O   UNL A   1      51.533  25.192  25.947  1.00  0.00    -0.237 OA
ATOM     48  O   UNL A   1      50.864  26.627  27.851  1.00  0.00    -0.237 OA
ATOM     49  O   UNL A   1      50.008  24.320  27.674  1.00  0.00    -0.744 OA
ENDBRANCH  42  46
ENDBRANCH  25  39
BRANCH  26  50
ATOM     50  C   UNL A   1      38.558  30.281  30.759  1.00  0.00     0.023 A 
ATOM     51  C   UNL A   1      37.535  30.945  30.065  1.00  0.00     0.031 A 
ATOM     52  C   UNL A   1      38.409  30.130  32.153  1.00  0.00     0.131 A 
ATOM     53  C   UNL A   1      36.439  31.475  30.768  1.00  0.00     0.055 A 
ATOM     54  C   UNL A   1      37.289  30.603  32.837  1.00  0.00     0.041 A 
ATOM     55  F   UNL A   1      39.357  29.514  32.876  1.00  0.00    -0.206 F 
ATOM     56  C   UNL A   1      36.302  31.295  32.146  1.00  0.00     0.022 A 
BRANCH  53  57
ATOM     57  S   UNL A   1      35.242  32.504  29.870  1.00  0.00     0.124 S 
ATOM     58  O   UNL A   1      34.787  31.590  28.830  1.00  0.00    -0.237 OA
ATOM     59  O   UNL A   1      34.275  32.823  30.915  1.00  0.00    -0.237 OA
ATOM     60  O   UNL A   1      36.047  33.631  29.403  1.00  0.00    -0.744 OA
ENDBRANCH  53  57
ENDBRANCH  26  50
BRANCH  38  61
ATOM     61  C   UNL A   1      44.691  33.251  29.224  1.00  0.00     0.023 A 
ATOM     62  C   UNL A   1      45.400  33.606  30.384  1.00  0.00     0.031 A 
ATOM     63  C   UNL A   1      44.452  34.245  28.259  1.00  0.00     0.131 A 
ATOM     64  C   UNL A   1      45.781  34.939  30.583  1.00  0.00     0.055 A 
ATOM     65  C   UNL A   1      44.903  35.553  28.428  1.00  0.00     0.041 A 
ATOM     66  F   UNL A   1      43.777  33.959  27.134  1.00  0.00    -0.206 F 
ATOM     67  C   UNL A   1      45.556  35.910  29.604  1.00  0.00     0.022 A 
BRANCH  64  68
ATOM     68  S   UNL A   1      46.461  35.412  32.196  1.00  0.00     0.124 S 
ATOM     69  O   UNL A   1      47.874  35.598  31.884  1.00  0.00    -0.237 OA
ATOM     70  O   UNL A   1      45.712  36.626  32.505  1.00  0.00    -0.237 OA
ATOM     71  O   UNL A   1      46.158  34.262  33.044  1.00  0.00    -0.744 OA
ENDBRANCH  64  68
ENDBRANCH  38  61
ENDBRANCH  12  13
ENDBRANCH   5   7
ENDBRANCH   4   5
ENDBRANCH   3   4
ENDBRANCH   2   3
ENDBRANCH   1   2
BRANCH   1  72
ATOM     72  C   UNL A   1      34.116  21.799  25.084  1.00  0.00     0.202 C 
BRANCH  72  73
ATOM     73  C   UNL A   1      34.232  23.311  25.164  1.00  0.00     0.261 C 
BRANCH  73  74
ATOM     74  O   UNL A   1      33.144  23.834  24.394  1.00  0.00    -0.460 OA
BRANCH  74  75
ATOM     75  C   UNL A   1      33.446  24.447  23.216  1.00  0.00     0.351 C 
ATOM     76  O   UNL A   1      33.786  23.869  22.187  1.00  0.00    -0.248 OA
BRANCH  75  77
ATOM     77  C   UNL A   1      33.316  25.957  23.353  1.00  0.00     0.338 C 
ATOM     78  F   UNL A   1      33.845  26.629  22.284  1.00  0.00    -0.222 F 
BRANCH  77  79
ATOM     79  S   UNL A   1      31.573  26.444  23.597  1.00  0.00    -0.073 SA
BRANCH  79  80
ATOM     80  C   UNL A   1      31.787  27.590  24.956  1.00  0.00     0.052 A 
ATOM     81  C   UNL A   1      31.761  27.082  26.263  1.00  0.00     0.019 A 
ATOM     82  C   UNL A   1      31.897  28.976  24.771  1.00  0.00     0.129 A 
ATOM     83  C   UNL A   1      31.798  27.947  27.360  1.00  0.00     0.001 A 
ATOM     84  C   UNL A   1      31.958  29.839  25.867  1.00  0.00     0.047 A 
ATOM     85  C   UNL A   1      31.896  29.322  27.161  1.00  0.00     0.004 A 
BRANCH  82  86
ATOM     86  O   UNL A   1      31.936  29.495  23.505  1.00  0.00    -0.507 OA
ATOM     87  H   UNL A   1      31.256  29.290  22.894  1.00  0.00     0.293 HD
ENDBRANCH  82  86
ENDBRANCH  79  80
ENDBRANCH  77  79
ENDBRANCH  75  77
ENDBRANCH  74  75
ENDBRANCH  73  74
ENDBRANCH  72  73
ENDBRANCH   1  72
TORSDOF 20
ENDMDL
