MODEL 1
REMARK VINA RESULT:     -10.2      0.000      0.000
REMARK SMILES O=C(OCCOCCOC(=O)c1cccc(CSc2nc(-c3ccccc3)n[nH]2)c1)c1ccc(-c2c3nc(c(-c4cc(S(=O)(=O)[O-])ccc4F)c4ccc([nH]4)c(-c4cc(S(=O)(=O)[O-])ccc4F)c4nc(c(-c5cc(S(=O)(=O)[O-])ccc5F)c5ccc2[nH]5)C=C4)C=C3)cc1
REMARK SMILES IDX 7 1 6 2 5 3 4 4 3 5 2 6 1 7 31 8 32 9 93 10 33 11 92 12
REMARK SMILES IDX 34 13 35 14 36 15 86 16 37 17 91 18 85 19 87 20 38 21 90 22
REMARK SMILES IDX 84 23 83 24 39 26 71 27 51 28 70 29 52 30 55 31 69 32 88 33
REMARK SMILES IDX 53 34 54 35 68 37 89 38 56 39 40 40 41 41 49 42 42 43 48 44
REMARK SMILES IDX 50 45 47 46 43 47 44 48 45 49 46 50 72 51 73 52 81 53 74 54
REMARK SMILES IDX 80 55 82 56 79 57 75 58 76 59 77 60 78 61 57 62 58 63 66 64
REMARK SMILES IDX 59 65 65 66 67 67 64 68 60 69 61 70 62 71 63 72 8 73 9 74
REMARK SMILES IDX 10 75 11 76 12 77 13 78 30 79 14 80 16 81 15 82 17 83 18 84
REMARK SMILES IDX 19 85 20 86 29 87 21 88 28 89 22 91 23 92 27 93 24 94 26 95
REMARK SMILES IDX 25 96
REMARK H PARENT 87 25 55 36 29 90
REMARK Flexibility Score: inf
ROOT
ATOM      1  C   UNL A   1      47.939  41.855  29.589  1.00  0.00     0.202 C 
ENDROOT
BRANCH   1   2
ATOM      2  O   UNL A   1      47.390  40.776  28.828  1.00  0.00    -0.374 OA
BRANCH   2   3
ATOM      3  C   UNL A   1      47.913  39.477  29.103  1.00  0.00     0.202 C 
BRANCH   3   4
ATOM      4  C   UNL A   1      47.399  38.371  28.178  1.00  0.00     0.261 C 
BRANCH   4   5
ATOM      5  O   UNL A   1      46.243  37.738  28.748  1.00  0.00    -0.460 OA
BRANCH   5   6
ATOM      6  C   UNL A   1      46.209  36.696  29.614  1.00  0.00     0.338 C 
ATOM      7  O   UNL A   1      46.628  36.874  30.758  1.00  0.00    -0.246 OA
BRANCH   6   8
ATOM      8  C   UNL A   1      45.676  35.345  29.265  1.00  0.00     0.060 A 
ATOM      9  C   UNL A   1      45.177  34.982  28.013  1.00  0.00     0.016 A 
ATOM     10  C   UNL A   1      45.758  34.347  30.251  1.00  0.00     0.016 A 
ATOM     11  C   UNL A   1      44.703  33.709  27.758  1.00  0.00     0.010 A 
ATOM     12  C   UNL A   1      45.321  33.044  29.992  1.00  0.00     0.010 A 
ATOM     13  C   UNL A   1      44.769  32.733  28.745  1.00  0.00    -0.014 A 
BRANCH  13  14
ATOM     14  C   UNL A   1      44.106  31.453  28.449  1.00  0.00     0.031 A 
ATOM     15  C   UNL A   1      44.886  30.420  27.695  1.00  0.00     0.074 A 
ATOM     16  C   UNL A   1      42.924  31.176  29.030  1.00  0.00     0.049 A 
ATOM     17  N   UNL A   1      44.542  29.213  27.344  1.00  0.00    -0.248 NA
ATOM     18  C   UNL A   1      46.252  30.801  27.297  1.00  0.00     0.031 C 
ATOM     19  C   UNL A   1      42.191  32.089  29.914  1.00  0.00     0.029 A 
ATOM     20  N   UNL A   1      42.163  30.042  29.018  1.00  0.00    -0.354 N 
ATOM     21  C   UNL A   1      45.636  28.697  26.659  1.00  0.00     0.074 A 
ATOM     22  C   UNL A   1      46.650  29.727  26.635  1.00  0.00     0.031 C 
ATOM     23  C   UNL A   1      41.105  31.458  30.390  1.00  0.00     0.029 A 
ATOM     24  C   UNL A   1      41.024  30.135  29.785  1.00  0.00     0.049 A 
ATOM     25  H   UNL A   1      42.405  29.235  28.508  1.00  0.00     0.167 HD
ATOM     26  C   UNL A   1      45.764  27.473  26.095  1.00  0.00     0.034 A 
ATOM     27  C   UNL A   1      40.020  29.251  29.946  1.00  0.00     0.034 A 
ATOM     28  C   UNL A   1      44.714  26.486  26.143  1.00  0.00     0.049 A 
ATOM     29  C   UNL A   1      40.136  27.939  29.211  1.00  0.00     0.074 A 
ATOM     30  C   UNL A   1      44.662  25.242  25.546  1.00  0.00     0.029 A 
ATOM     31  N   UNL A   1      43.515  26.648  26.833  1.00  0.00    -0.354 N 
ATOM     32  N   UNL A   1      41.131  27.489  28.476  1.00  0.00    -0.248 NA
ATOM     33  C   UNL A   1      38.998  27.022  29.316  1.00  0.00     0.031 C 
ATOM     34  C   UNL A   1      43.407  24.682  25.817  1.00  0.00     0.029 A 
ATOM     35  C   UNL A   1      42.705  25.539  26.654  1.00  0.00     0.049 A 
ATOM     36  H   UNL A   1      43.277  27.437  27.371  1.00  0.00     0.167 HD
ATOM     37  C   UNL A   1      40.747  26.222  28.050  1.00  0.00     0.074 A 
ATOM     38  C   UNL A   1      39.440  25.977  28.632  1.00  0.00     0.031 C 
ATOM     39  C   UNL A   1      41.404  25.341  27.252  1.00  0.00     0.034 A 
BRANCH  26  40
ATOM     40  C   UNL A   1      47.020  27.220  25.296  1.00  0.00     0.023 A 
ATOM     41  C   UNL A   1      47.215  27.760  24.011  1.00  0.00     0.031 A 
ATOM     42  C   UNL A   1      47.984  26.320  25.782  1.00  0.00     0.131 A 
ATOM     43  C   UNL A   1      48.293  27.322  23.224  1.00  0.00     0.055 A 
ATOM     44  C   UNL A   1      49.102  25.956  25.028  1.00  0.00     0.041 A 
ATOM     45  F   UNL A   1      47.837  25.744  26.986  1.00  0.00    -0.206 F 
ATOM     46  C   UNL A   1      49.251  26.442  23.733  1.00  0.00     0.022 A 
BRANCH  43  47
ATOM     47  S   UNL A   1      48.326  27.771  21.465  1.00  0.00     0.124 S 
ATOM     48  O   UNL A   1      48.657  26.493  20.840  1.00  0.00    -0.237 OA
ATOM     49  O   UNL A   1      46.971  28.261  21.238  1.00  0.00    -0.237 OA
ATOM     50  O   UNL A   1      49.376  28.784  21.387  1.00  0.00    -0.744 OA
ENDBRANCH  43  47
ENDBRANCH  26  40
BRANCH  27  51
ATOM     51  C   UNL A   1      38.815  29.592  30.761  1.00  0.00     0.023 A 
ATOM     52  C   UNL A   1      37.860  30.518  30.311  1.00  0.00     0.031 A 
ATOM     53  C   UNL A   1      38.627  29.032  32.040  1.00  0.00     0.131 A 
ATOM     54  C   UNL A   1      36.793  30.889  31.147  1.00  0.00     0.055 A 
ATOM     55  C   UNL A   1      37.532  29.358  32.842  1.00  0.00     0.041 A 
ATOM     56  F   UNL A   1      39.510  28.148  32.533  1.00  0.00    -0.206 F 
ATOM     57  C   UNL A   1      36.614  30.303  32.401  1.00  0.00     0.022 A 
BRANCH  54  58
ATOM     58  S   UNL A   1      35.689  32.229  30.612  1.00  0.00     0.124 S 
ATOM     59  O   UNL A   1      36.642  33.269  30.243  1.00  0.00    -0.237 OA
ATOM     60  O   UNL A   1      34.963  31.603  29.513  1.00  0.00    -0.237 OA
ATOM     61  O   UNL A   1      34.892  32.509  31.805  1.00  0.00    -0.744 OA
ENDBRANCH  54  58
ENDBRANCH  27  51
BRANCH  39  62
ATOM     62  C   UNL A   1      40.723  24.016  27.018  1.00  0.00     0.023 A 
ATOM     63  C   UNL A   1      39.573  23.909  26.219  1.00  0.00     0.031 A 
ATOM     64  C   UNL A   1      41.228  22.852  27.621  1.00  0.00     0.131 A 
ATOM     65  C   UNL A   1      38.923  22.673  26.101  1.00  0.00     0.055 A 
ATOM     66  C   UNL A   1      40.618  21.611  27.441  1.00  0.00     0.041 A 
ATOM     67  F   UNL A   1      42.325  22.902  28.394  1.00  0.00    -0.206 F 
ATOM     68  C   UNL A   1      39.449  21.520  26.690  1.00  0.00     0.022 A 
BRANCH  65  69
ATOM     69  S   UNL A   1      37.319  22.615  25.259  1.00  0.00     0.124 S 
ATOM     70  O   UNL A   1      36.447  22.086  26.303  1.00  0.00    -0.237 OA
ATOM     71  O   UNL A   1      37.105  24.012  24.898  1.00  0.00    -0.237 OA
ATOM     72  O   UNL A   1      37.556  21.713  24.133  1.00  0.00    -0.744 OA
ENDBRANCH  65  69
ENDBRANCH  39  62
ENDBRANCH  13  14
ENDBRANCH   6   8
ENDBRANCH   5   6
ENDBRANCH   4   5
ENDBRANCH   3   4
ENDBRANCH   2   3
ENDBRANCH   1   2
BRANCH   1  73
ATOM     73  C   UNL A   1      46.817  42.802  30.021  1.00  0.00     0.261 C 
BRANCH  73  74
ATOM     74  O   UNL A   1      45.662  42.541  29.209  1.00  0.00    -0.460 OA
BRANCH  74  75
ATOM     75  C   UNL A   1      44.774  41.674  29.764  1.00  0.00     0.338 C 
ATOM     76  O   UNL A   1      44.612  41.423  30.945  1.00  0.00    -0.246 OA
BRANCH  75  77
ATOM     77  C   UNL A   1      43.874  41.229  28.686  1.00  0.00     0.060 A 
ATOM     78  C   UNL A   1      42.995  40.169  28.922  1.00  0.00     0.016 A 
ATOM     79  C   UNL A   1      43.886  41.871  27.449  1.00  0.00     0.020 A 
ATOM     80  C   UNL A   1      42.071  39.803  27.947  1.00  0.00     0.001 A 
ATOM     81  C   UNL A   1      43.052  41.415  26.421  1.00  0.00    -0.037 A 
ATOM     82  C   UNL A   1      42.101  40.421  26.697  1.00  0.00     0.004 A 
BRANCH  81  83
ATOM     83  C   UNL A   1      43.316  41.859  25.007  1.00  0.00     0.113 C 
BRANCH  83  84
ATOM     84  S   UNL A   1      41.786  41.920  23.998  1.00  0.00    -0.082 SA
BRANCH  84  85
ATOM     85  C   UNL A   1      42.328  42.663  22.536  1.00  0.00     0.184 A 
ATOM     86  N   UNL A   1      41.604  43.154  21.561  1.00  0.00    -0.201 NA
ATOM     87  N   UNL A   1      43.644  42.803  22.241  1.00  0.00    -0.254 N 
ATOM     88  C   UNL A   1      42.549  43.520  20.616  1.00  0.00     0.182 A 
ATOM     89  N   UNL A   1      43.818  43.302  21.010  1.00  0.00    -0.153 NA
ATOM     90  H   UNL A   1      44.378  42.567  22.853  1.00  0.00     0.192 HD
BRANCH  88  91
ATOM     91  C   UNL A   1      42.198  44.148  19.345  1.00  0.00     0.021 A 
ATOM     92  C   UNL A   1      40.938  43.939  18.761  1.00  0.00     0.012 A 
ATOM     93  C   UNL A   1      43.134  44.937  18.663  1.00  0.00     0.012 A 
ATOM     94  C   UNL A   1      40.633  44.490  17.512  1.00  0.00     0.001 A 
ATOM     95  C   UNL A   1      42.831  45.478  17.409  1.00  0.00     0.001 A 
ATOM     96  C   UNL A   1      41.582  45.249  16.832  1.00  0.00     0.000 A 
ENDBRANCH  88  91
ENDBRANCH  84  85
ENDBRANCH  83  84
ENDBRANCH  81  83
ENDBRANCH  75  77
ENDBRANCH  74  75
ENDBRANCH  73  74
ENDBRANCH   1  73
TORSDOF 21
ENDMDL
MODEL 2
REMARK VINA RESULT:     -10.1      5.754     13.943
REMARK SMILES O=C(OCCOCCOC(=O)c1cccc(CSc2nc(-c3ccccc3)n[nH]2)c1)c1ccc(-c2c3nc(c(-c4cc(S(=O)(=O)[O-])ccc4F)c4ccc([nH]4)c(-c4cc(S(=O)(=O)[O-])ccc4F)c4nc(c(-c5cc(S(=O)(=O)[O-])ccc5F)c5ccc2[nH]5)C=C4)C=C3)cc1
REMARK SMILES IDX 7 1 6 2 5 3 4 4 3 5 2 6 1 7 31 8 32 9 93 10 33 11 92 12
REMARK SMILES IDX 34 13 35 14 36 15 86 16 37 17 91 18 85 19 87 20 38 21 90 22
REMARK SMILES IDX 84 23 83 24 39 26 71 27 51 28 70 29 52 30 55 31 69 32 88 33
REMARK SMILES IDX 53 34 54 35 68 37 89 38 56 39 40 40 41 41 49 42 42 43 48 44
REMARK SMILES IDX 50 45 47 46 43 47 44 48 45 49 46 50 72 51 73 52 81 53 74 54
REMARK SMILES IDX 80 55 82 56 79 57 75 58 76 59 77 60 78 61 57 62 58 63 66 64
REMARK SMILES IDX 59 65 65 66 67 67 64 68 60 69 61 70 62 71 63 72 8 73 9 74
REMARK SMILES IDX 10 75 11 76 12 77 13 78 30 79 14 80 16 81 15 82 17 83 18 84
REMARK SMILES IDX 19 85 20 86 29 87 21 88 28 89 22 91 23 92 27 93 24 94 26 95
REMARK SMILES IDX 25 96
REMARK H PARENT 87 25 55 36 29 90
REMARK Flexibility Score: inf
ROOT
ATOM      1  C   UNL A   1      40.171  22.546  27.192  1.00  0.00     0.202 C 
ENDROOT
BRANCH   1   2
ATOM      2  O   UNL A   1      41.424  23.154  26.868  1.00  0.00    -0.374 OA
BRANCH   2   3
ATOM      3  C   UNL A   1      42.415  22.299  26.298  1.00  0.00     0.202 C 
BRANCH   3   4
ATOM      4  C   UNL A   1      43.002  22.793  24.974  1.00  0.00     0.261 C 
BRANCH   4   5
ATOM      5  O   UNL A   1      44.433  22.882  25.064  1.00  0.00    -0.460 OA
BRANCH   5   6
ATOM      6  C   UNL A   1      45.204  23.991  24.962  1.00  0.00     0.338 C 
ATOM      7  O   UNL A   1      46.150  23.974  24.174  1.00  0.00    -0.246 OA
BRANCH   6   8
ATOM      8  C   UNL A   1      44.963  25.243  25.741  1.00  0.00     0.060 A 
ATOM      9  C   UNL A   1      44.410  26.414  25.221  1.00  0.00     0.016 A 
ATOM     10  C   UNL A   1      45.242  25.207  27.118  1.00  0.00     0.016 A 
ATOM     11  C   UNL A   1      44.211  27.537  26.002  1.00  0.00     0.010 A 
ATOM     12  C   UNL A   1      45.004  26.322  27.928  1.00  0.00     0.010 A 
ATOM     13  C   UNL A   1      44.508  27.499  27.359  1.00  0.00    -0.014 A 
BRANCH  13  14
ATOM     14  C   UNL A   1      44.414  28.774  28.088  1.00  0.00     0.031 A 
ATOM     15  C   UNL A   1      45.611  29.674  28.078  1.00  0.00     0.074 A 
ATOM     16  C   UNL A   1      43.219  29.177  28.555  1.00  0.00     0.049 A 
ATOM     17  N   UNL A   1      45.768  30.853  28.611  1.00  0.00    -0.248 NA
ATOM     18  C   UNL A   1      46.790  29.178  27.348  1.00  0.00     0.031 C 
ATOM     19  C   UNL A   1      41.974  28.408  28.447  1.00  0.00     0.029 A 
ATOM     20  N   UNL A   1      42.836  30.344  29.156  1.00  0.00    -0.354 N 
ATOM     21  C   UNL A   1      47.071  31.230  28.307  1.00  0.00     0.074 A 
ATOM     22  C   UNL A   1      47.664  30.150  27.552  1.00  0.00     0.031 C 
ATOM     23  C   UNL A   1      40.961  29.145  28.929  1.00  0.00     0.029 A 
ATOM     24  C   UNL A   1      41.493  30.397  29.451  1.00  0.00     0.049 A 
ATOM     25  H   UNL A   1      43.463  31.075  29.359  1.00  0.00     0.167 HD
ATOM     26  C   UNL A   1      47.706  32.378  28.645  1.00  0.00     0.034 A 
ATOM     27  C   UNL A   1      40.792  31.347  30.099  1.00  0.00     0.034 A 
ATOM     28  C   UNL A   1      47.066  33.419  29.409  1.00  0.00     0.049 A 
ATOM     29  C   UNL A   1      41.552  32.563  30.566  1.00  0.00     0.074 A 
ATOM     30  C   UNL A   1      47.605  34.593  29.901  1.00  0.00     0.029 A 
ATOM     31  N   UNL A   1      45.729  33.400  29.798  1.00  0.00    -0.354 N 
ATOM     32  N   UNL A   1      42.815  32.874  30.367  1.00  0.00    -0.248 NA
ATOM     33  C   UNL A   1      40.803  33.547  31.352  1.00  0.00     0.031 C 
ATOM     34  C   UNL A   1      46.614  35.246  30.644  1.00  0.00     0.029 A 
ATOM     35  C   UNL A   1      45.431  34.525  30.547  1.00  0.00     0.049 A 
ATOM     36  H   UNL A   1      45.087  32.688  29.573  1.00  0.00     0.167 HD
ATOM     37  C   UNL A   1      43.006  34.107  30.983  1.00  0.00     0.074 A 
ATOM     38  C   UNL A   1      41.719  34.486  31.539  1.00  0.00     0.031 C 
ATOM     39  C   UNL A   1      44.132  34.859  31.087  1.00  0.00     0.034 A 
BRANCH  26  40
ATOM     40  C   UNL A   1      49.172  32.473  28.294  1.00  0.00     0.023 A 
ATOM     41  C   UNL A   1      49.626  33.125  27.133  1.00  0.00     0.031 A 
ATOM     42  C   UNL A   1      50.120  31.789  29.075  1.00  0.00     0.131 A 
ATOM     43  C   UNL A   1      50.969  32.999  26.738  1.00  0.00     0.055 A 
ATOM     44  C   UNL A   1      51.471  31.742  28.723  1.00  0.00     0.041 A 
ATOM     45  F   UNL A   1      49.744  31.118  30.175  1.00  0.00    -0.206 F 
ATOM     46  C   UNL A   1      51.898  32.331  27.539  1.00  0.00     0.022 A 
BRANCH  43  47
ATOM     47  S   UNL A   1      51.444  33.556  25.077  1.00  0.00     0.124 S 
ATOM     48  O   UNL A   1      50.300  34.383  24.703  1.00  0.00    -0.237 OA
ATOM     49  O   UNL A   1      52.693  34.267  25.327  1.00  0.00    -0.237 OA
ATOM     50  O   UNL A   1      51.576  32.311  24.321  1.00  0.00    -0.744 OA
ENDBRANCH  43  47
ENDBRANCH  26  40
BRANCH  27  51
ATOM     51  C   UNL A   1      39.340  31.164  30.401  1.00  0.00     0.023 A 
ATOM     52  C   UNL A   1      38.342  31.706  29.575  1.00  0.00     0.031 A 
ATOM     53  C   UNL A   1      38.926  30.485  31.564  1.00  0.00     0.131 A 
ATOM     54  C   UNL A   1      36.990  31.600  29.944  1.00  0.00     0.055 A 
ATOM     55  C   UNL A   1      37.578  30.329  31.895  1.00  0.00     0.041 A 
ATOM     56  F   UNL A   1      39.830  29.953  32.401  1.00  0.00    -0.206 F 
ATOM     57  C   UNL A   1      36.602  30.902  31.089  1.00  0.00     0.022 A 
BRANCH  54  58
ATOM     58  S   UNL A   1      35.744  32.477  28.957  1.00  0.00     0.124 S 
ATOM     59  O   UNL A   1      36.289  33.829  28.924  1.00  0.00    -0.237 OA
ATOM     60  O   UNL A   1      35.779  31.740  27.699  1.00  0.00    -0.237 OA
ATOM     61  O   UNL A   1      34.518  32.318  29.738  1.00  0.00    -0.744 OA
ENDBRANCH  54  58
ENDBRANCH  27  51
BRANCH  39  62
ATOM     62  C   UNL A   1      43.988  36.185  31.788  1.00  0.00     0.023 A 
ATOM     63  C   UNL A   1      43.889  37.390  31.073  1.00  0.00     0.031 A 
ATOM     64  C   UNL A   1      43.969  36.239  33.192  1.00  0.00     0.131 A 
ATOM     65  C   UNL A   1      43.845  38.607  31.768  1.00  0.00     0.055 A 
ATOM     66  C   UNL A   1      43.852  37.447  33.877  1.00  0.00     0.041 A 
ATOM     67  F   UNL A   1      44.061  35.114  33.921  1.00  0.00    -0.206 F 
ATOM     68  C   UNL A   1      43.806  38.642  33.164  1.00  0.00     0.022 A 
BRANCH  65  69
ATOM     69  S   UNL A   1      43.952  40.149  30.820  1.00  0.00     0.124 S 
ATOM     70  O   UNL A   1      42.751  40.080  29.993  1.00  0.00    -0.237 OA
ATOM     71  O   UNL A   1      43.946  41.162  31.869  1.00  0.00    -0.237 OA
ATOM     72  O   UNL A   1      45.214  40.015  30.092  1.00  0.00    -0.744 OA
ENDBRANCH  65  69
ENDBRANCH  39  62
ENDBRANCH  13  14
ENDBRANCH   6   8
ENDBRANCH   5   6
ENDBRANCH   4   5
ENDBRANCH   3   4
ENDBRANCH   2   3
ENDBRANCH   1   2
BRANCH   1  73
ATOM     73  C   UNL A   1      39.034  23.333  26.536  1.00  0.00     0.261 C 
BRANCH  73  74
ATOM     74  O   UNL A   1      38.097  22.398  25.977  1.00  0.00    -0.460 OA
BRANCH  74  75
ATOM     75  C   UNL A   1      36.842  22.897  25.813  1.00  0.00     0.338 C 
ATOM     76  O   UNL A   1      36.499  24.065  25.789  1.00  0.00    -0.246 OA
BRANCH  75  77
ATOM     77  C   UNL A   1      35.972  21.764  25.451  1.00  0.00     0.060 A 
ATOM     78  C   UNL A   1      36.551  20.564  25.032  1.00  0.00     0.016 A 
ATOM     79  C   UNL A   1      34.587  21.882  25.543  1.00  0.00     0.020 A 
ATOM     80  C   UNL A   1      35.747  19.455  24.782  1.00  0.00     0.001 A 
ATOM     81  C   UNL A   1      33.770  20.811  25.161  1.00  0.00    -0.037 A 
ATOM     82  C   UNL A   1      34.359  19.578  24.842  1.00  0.00     0.004 A 
BRANCH  81  83
ATOM     83  C   UNL A   1      32.305  21.053  24.918  1.00  0.00     0.113 C 
BRANCH  83  84
ATOM     84  S   UNL A   1      32.011  22.406  23.714  1.00  0.00    -0.082 SA
BRANCH  84  85
ATOM     85  C   UNL A   1      31.726  23.767  24.739  1.00  0.00     0.184 A 
ATOM     86  N   UNL A   1      32.460  24.843  24.878  1.00  0.00    -0.201 NA
ATOM     87  N   UNL A   1      30.647  23.842  25.557  1.00  0.00    -0.254 N 
ATOM     88  C   UNL A   1      31.817  25.538  25.890  1.00  0.00     0.182 A 
ATOM     89  N   UNL A   1      30.699  24.933  26.334  1.00  0.00    -0.153 NA
ATOM     90  H   UNL A   1      29.919  23.180  25.577  1.00  0.00     0.192 HD
BRANCH  88  91
ATOM     91  C   UNL A   1      32.276  26.836  26.376  1.00  0.00     0.021 A 
ATOM     92  C   UNL A   1      31.380  27.744  26.963  1.00  0.00     0.012 A 
ATOM     93  C   UNL A   1      33.616  27.216  26.223  1.00  0.00     0.012 A 
ATOM     94  C   UNL A   1      31.814  29.012  27.366  1.00  0.00     0.001 A 
ATOM     95  C   UNL A   1      34.046  28.488  26.616  1.00  0.00     0.001 A 
ATOM     96  C   UNL A   1      33.143  29.386  27.182  1.00  0.00     0.000 A 
ENDBRANCH  88  91
ENDBRANCH  84  85
ENDBRANCH  83  84
ENDBRANCH  81  83
ENDBRANCH  75  77
ENDBRANCH  74  75
ENDBRANCH  73  74
ENDBRANCH   1  73
TORSDOF 21
ENDMDL
MODEL 3
REMARK VINA RESULT:     -10.0      3.245      4.759
REMARK SMILES O=C(OCCOCCOC(=O)c1cccc(CSc2nc(-c3ccccc3)n[nH]2)c1)c1ccc(-c2c3nc(c(-c4cc(S(=O)(=O)[O-])ccc4F)c4ccc([nH]4)c(-c4cc(S(=O)(=O)[O-])ccc4F)c4nc(c(-c5cc(S(=O)(=O)[O-])ccc5F)c5ccc2[nH]5)C=C4)C=C3)cc1
REMARK SMILES IDX 7 1 6 2 5 3 4 4 3 5 2 6 1 7 31 8 32 9 93 10 33 11 92 12
REMARK SMILES IDX 34 13 35 14 36 15 86 16 37 17 91 18 85 19 87 20 38 21 90 22
REMARK SMILES IDX 84 23 83 24 39 26 71 27 51 28 70 29 52 30 55 31 69 32 88 33
REMARK SMILES IDX 53 34 54 35 68 37 89 38 56 39 40 40 41 41 49 42 42 43 48 44
REMARK SMILES IDX 50 45 47 46 43 47 44 48 45 49 46 50 72 51 73 52 81 53 74 54
REMARK SMILES IDX 80 55 82 56 79 57 75 58 76 59 77 60 78 61 57 62 58 63 66 64
REMARK SMILES IDX 59 65 65 66 67 67 64 68 60 69 61 70 62 71 63 72 8 73 9 74
REMARK SMILES IDX 10 75 11 76 12 77 13 78 30 79 14 80 16 81 15 82 17 83 18 84
REMARK SMILES IDX 19 85 20 86 29 87 21 88 28 89 22 91 23 92 27 93 24 94 26 95
REMARK SMILES IDX 25 96
REMARK H PARENT 87 25 55 36 29 90
REMARK Flexibility Score: inf
ROOT
ATOM      1  C   UNL A   1      43.941  42.811  30.465  1.00  0.00     0.202 C 
ENDROOT
BRANCH   1   2
ATOM      2  O   UNL A   1      42.639  42.500  30.965  1.00  0.00    -0.374 OA
BRANCH   2   3
ATOM      3  C   UNL A   1      42.501  42.452  32.386  1.00  0.00     0.202 C 
BRANCH   3   4
ATOM      4  C   UNL A   1      43.738  41.946  33.132  1.00  0.00     0.261 C 
BRANCH   4   5
ATOM      5  O   UNL A   1      43.378  40.896  34.043  1.00  0.00    -0.460 OA
BRANCH   5   6
ATOM      6  C   UNL A   1      44.071  39.766  34.324  1.00  0.00     0.338 C 
ATOM      7  O   UNL A   1      44.808  39.763  35.309  1.00  0.00    -0.246 OA
BRANCH   6   8
ATOM      8  C   UNL A   1      43.980  38.515  33.512  1.00  0.00     0.060 A 
ATOM      9  C   UNL A   1      43.863  38.471  32.122  1.00  0.00     0.016 A 
ATOM     10  C   UNL A   1      44.099  37.294  34.198  1.00  0.00     0.016 A 
ATOM     11  C   UNL A   1      43.787  37.275  31.434  1.00  0.00     0.010 A 
ATOM     12  C   UNL A   1      44.067  36.077  33.508  1.00  0.00     0.010 A 
ATOM     13  C   UNL A   1      43.887  36.072  32.122  1.00  0.00    -0.014 A 
BRANCH  13  14
ATOM     14  C   UNL A   1      43.643  34.846  31.342  1.00  0.00     0.031 A 
ATOM     15  C   UNL A   1      44.823  34.173  30.712  1.00  0.00     0.074 A 
ATOM     16  C   UNL A   1      42.429  34.268  31.390  1.00  0.00     0.049 A 
ATOM     17  N   UNL A   1      44.877  33.075  30.013  1.00  0.00    -0.248 NA
ATOM     18  C   UNL A   1      46.128  34.824  30.919  1.00  0.00     0.031 C 
ATOM     19  C   UNL A   1      41.277  34.798  32.128  1.00  0.00     0.029 A 
ATOM     20  N   UNL A   1      41.974  33.092  30.865  1.00  0.00    -0.354 N 
ATOM     21  C   UNL A   1      46.214  32.916  29.668  1.00  0.00     0.074 A 
ATOM     22  C   UNL A   1      46.936  34.036  30.228  1.00  0.00     0.031 C 
ATOM     23  C   UNL A   1      40.261  33.925  32.039  1.00  0.00     0.029 A 
ATOM     24  C   UNL A   1      40.662  32.821  31.177  1.00  0.00     0.049 A 
ATOM     25  H   UNL A   1      42.532  32.496  30.315  1.00  0.00     0.167 HD
ATOM     26  C   UNL A   1      46.774  31.922  28.939  1.00  0.00     0.034 A 
ATOM     27  C   UNL A   1      39.874  31.803  30.776  1.00  0.00     0.034 A 
ATOM     28  C   UNL A   1      46.001  30.832  28.396  1.00  0.00     0.049 A 
ATOM     29  C   UNL A   1      40.496  30.771  29.868  1.00  0.00     0.074 A 
ATOM     30  C   UNL A   1      46.410  29.804  27.569  1.00  0.00     0.029 A 
ATOM     31  N   UNL A   1      44.642  30.639  28.632  1.00  0.00    -0.354 N 
ATOM     32  N   UNL A   1      41.742  30.676  29.457  1.00  0.00    -0.248 NA
ATOM     33  C   UNL A   1      39.609  29.720  29.361  1.00  0.00     0.031 C 
ATOM     34  C   UNL A   1      45.285  29.032  27.249  1.00  0.00     0.029 A 
ATOM     35  C   UNL A   1      44.189  29.526  27.943  1.00  0.00     0.049 A 
ATOM     36  H   UNL A   1      44.083  31.211  29.205  1.00  0.00     0.167 HD
ATOM     37  C   UNL A   1      41.795  29.536  28.662  1.00  0.00     0.074 A 
ATOM     38  C   UNL A   1      40.458  28.971  28.673  1.00  0.00     0.031 C 
ATOM     39  C   UNL A   1      42.842  29.002  27.980  1.00  0.00     0.034 A 
BRANCH  26  40
ATOM     40  C   UNL A   1      48.239  32.065  28.605  1.00  0.00     0.023 A 
ATOM     41  C   UNL A   1      48.700  32.946  27.609  1.00  0.00     0.031 A 
ATOM     42  C   UNL A   1      49.177  31.213  29.212  1.00  0.00     0.131 A 
ATOM     43  C   UNL A   1      50.039  32.885  27.186  1.00  0.00     0.055 A 
ATOM     44  C   UNL A   1      50.526  31.220  28.848  1.00  0.00     0.041 A 
ATOM     45  F   UNL A   1      48.793  30.326  30.144  1.00  0.00    -0.206 F 
ATOM     46  C   UNL A   1      50.960  32.044  27.816  1.00  0.00     0.022 A 
BRANCH  43  47
ATOM     47  S   UNL A   1      50.519  33.780  25.681  1.00  0.00     0.124 S 
ATOM     48  O   UNL A   1      49.231  34.296  25.221  1.00  0.00    -0.237 OA
ATOM     49  O   UNL A   1      51.461  34.771  26.188  1.00  0.00    -0.237 OA
ATOM     50  O   UNL A   1      51.103  32.741  24.834  1.00  0.00    -0.744 OA
ENDBRANCH  43  47
ENDBRANCH  26  40
BRANCH  27  51
ATOM     51  C   UNL A   1      38.432  31.745  31.160  1.00  0.00     0.023 A 
ATOM     52  C   UNL A   1      37.437  32.353  30.378  1.00  0.00     0.031 A 
ATOM     53  C   UNL A   1      38.030  31.124  32.359  1.00  0.00     0.131 A 
ATOM     54  C   UNL A   1      36.103  32.365  30.822  1.00  0.00     0.055 A 
ATOM     55  C   UNL A   1      36.695  31.086  32.766  1.00  0.00     0.041 A 
ATOM     56  F   UNL A   1      38.933  30.535  33.158  1.00  0.00    -0.206 F 
ATOM     57  C   UNL A   1      35.724  31.722  32.002  1.00  0.00     0.022 A 
BRANCH  54  58
ATOM     58  S   UNL A   1      34.879  33.323  29.884  1.00  0.00     0.124 S 
ATOM     59  O   UNL A   1      34.111  33.951  30.953  1.00  0.00    -0.237 OA
ATOM     60  O   UNL A   1      35.726  34.210  29.095  1.00  0.00    -0.237 OA
ATOM     61  O   UNL A   1      34.163  32.304  29.119  1.00  0.00    -0.744 OA
ENDBRANCH  54  58
ENDBRANCH  27  51
BRANCH  39  62
ATOM     62  C   UNL A   1      42.573  27.717  27.241  1.00  0.00     0.023 A 
ATOM     63  C   UNL A   1      42.717  26.465  27.863  1.00  0.00     0.031 A 
ATOM     64  C   UNL A   1      42.186  27.751  25.891  1.00  0.00     0.131 A 
ATOM     65  C   UNL A   1      42.542  25.295  27.112  1.00  0.00     0.055 A 
ATOM     66  C   UNL A   1      41.943  26.583  25.169  1.00  0.00     0.041 A 
ATOM     67  F   UNL A   1      42.035  28.923  25.252  1.00  0.00    -0.206 F 
ATOM     68  C   UNL A   1      42.137  25.345  25.776  1.00  0.00     0.022 A 
BRANCH  65  69
ATOM     69  S   UNL A   1      42.961  23.705  27.878  1.00  0.00     0.124 S 
ATOM     70  O   UNL A   1      43.674  24.127  29.079  1.00  0.00    -0.237 OA
ATOM     71  O   UNL A   1      41.649  23.106  28.093  1.00  0.00    -0.237 OA
ATOM     72  O   UNL A   1      43.786  23.046  26.867  1.00  0.00    -0.744 OA
ENDBRANCH  65  69
ENDBRANCH  39  62
ENDBRANCH  13  14
ENDBRANCH   6   8
ENDBRANCH   5   6
ENDBRANCH   4   5
ENDBRANCH   3   4
ENDBRANCH   2   3
ENDBRANCH   1   2
BRANCH   1  73
ATOM     73  C   UNL A   1      44.310  41.832  29.348  1.00  0.00     0.261 C 
BRANCH  73  74
ATOM     74  O   UNL A   1      44.424  42.566  28.118  1.00  0.00    -0.460 OA
BRANCH  74  75
ATOM     75  C   UNL A   1      44.416  41.789  27.002  1.00  0.00     0.338 C 
ATOM     76  O   UNL A   1      44.363  40.574  26.937  1.00  0.00    -0.246 OA
BRANCH  75  77
ATOM     77  C   UNL A   1      44.269  42.694  25.848  1.00  0.00     0.060 A 
ATOM     78  C   UNL A   1      45.051  43.849  25.780  1.00  0.00     0.016 A 
ATOM     79  C   UNL A   1      43.372  42.390  24.826  1.00  0.00     0.020 A 
ATOM     80  C   UNL A   1      44.994  44.661  24.650  1.00  0.00     0.001 A 
ATOM     81  C   UNL A   1      43.214  43.276  23.753  1.00  0.00    -0.037 A 
ATOM     82  C   UNL A   1      44.076  44.378  23.640  1.00  0.00     0.004 A 
BRANCH  81  83
ATOM     83  C   UNL A   1      42.015  43.138  22.854  1.00  0.00     0.113 C 
BRANCH  83  84
ATOM     84  S   UNL A   1      42.377  42.141  21.358  1.00  0.00    -0.082 SA
BRANCH  84  85
ATOM     85  C   UNL A   1      42.999  43.320  20.260  1.00  0.00     0.184 A 
ATOM     86  N   UNL A   1      42.352  44.289  19.660  1.00  0.00    -0.201 NA
ATOM     87  N   UNL A   1      44.302  43.342  19.886  1.00  0.00    -0.254 N 
ATOM     88  C   UNL A   1      43.313  44.848  18.832  1.00  0.00     0.182 A 
ATOM     89  N   UNL A   1      44.524  44.271  18.945  1.00  0.00    -0.153 NA
ATOM     90  H   UNL A   1      44.997  42.752  20.257  1.00  0.00     0.192 HD
BRANCH  88  91
ATOM     91  C   UNL A   1      43.046  45.997  17.972  1.00  0.00     0.021 A 
ATOM     92  C   UNL A   1      43.763  47.194  18.125  1.00  0.00     0.012 A 
ATOM     93  C   UNL A   1      42.035  45.936  17.003  1.00  0.00     0.012 A 
ATOM     94  C   UNL A   1      43.457  48.313  17.341  1.00  0.00     0.001 A 
ATOM     95  C   UNL A   1      41.723  47.059  16.228  1.00  0.00     0.001 A 
ATOM     96  C   UNL A   1      42.431  48.247  16.402  1.00  0.00     0.000 A 
ENDBRANCH  88  91
ENDBRANCH  84  85
ENDBRANCH  83  84
ENDBRANCH  81  83
ENDBRANCH  75  77
ENDBRANCH  74  75
ENDBRANCH  73  74
ENDBRANCH   1  73
TORSDOF 21
ENDMDL
