MODEL 1
REMARK VINA RESULT:     -10.1      0.000      0.000
REMARK SMILES Cc1cc(C)c2c(c1)C=C(C(=O)OCCOCCOC(=O)c1ccc(-c3c4nc(c(-c5cc(S(=O)(=O)[O-])ccc5F)c5ccc([nH]5)c(-c5cc(S(=O)(=O)[O-])ccc5F)c5nc(c(-c6cc(S(=O)(=O)[O-])ccc6F)c6ccc3[nH]6)C=C5)C=C4)cc1)[C@@H](C(F)(F)F)O2
REMARK SMILES IDX 17 1 16 2 15 3 14 4 13 5 11 6 12 7 10 8 1 9 2 10 3 11 8 12
REMARK SMILES IDX 4 13 7 14 5 15 6 16 9 17 90 18 85 19 86 20 87 21 88 22 89 23
REMARK SMILES IDX 18 24 19 25 20 26 21 27 22 28 23 29 84 30 24 31 83 32 25 33
REMARK SMILES IDX 26 34 27 35 77 36 28 37 82 38 76 39 78 40 29 41 81 42 75 43
REMARK SMILES IDX 74 44 30 46 62 47 42 48 61 49 43 50 46 51 60 52 79 53 44 54
REMARK SMILES IDX 45 55 59 57 80 58 47 59 31 60 32 61 40 62 33 63 39 64 41 65
REMARK SMILES IDX 38 66 34 67 35 68 36 69 37 70 63 71 64 72 72 73 65 74 71 75
REMARK SMILES IDX 73 76 70 77 66 78 67 79 68 80 69 81 48 82 49 83 57 84 50 85
REMARK SMILES IDX 56 86 58 87 55 88 51 89 52 90 53 91 54 92
REMARK H PARENT 78 45 46 56
REMARK Flexibility Score: inf
ROOT
ATOM      1  C   UNL A   1      34.125  35.170  28.186  1.00  0.00     0.202 C 
ENDROOT
BRANCH   1   2
ATOM      2  O   UNL A   1      33.183  36.089  28.737  1.00  0.00    -0.374 OA
BRANCH   2   3
ATOM      3  C   UNL A   1      33.281  36.404  30.124  1.00  0.00     0.202 C 
BRANCH   3   4
ATOM      4  C   UNL A   1      32.869  35.321  31.127  1.00  0.00     0.261 C 
BRANCH   4   5
ATOM      5  O   UNL A   1      33.911  35.036  32.072  1.00  0.00    -0.460 OA
BRANCH   5   6
ATOM      6  C   UNL A   1      34.713  34.003  31.727  1.00  0.00     0.338 C 
ATOM      7  O   UNL A   1      34.392  32.996  31.116  1.00  0.00    -0.246 OA
BRANCH   6   8
ATOM      8  C   UNL A   1      36.111  34.320  32.074  1.00  0.00     0.087 C 
ATOM      9  C   UNL A   1      41.694  34.052  29.534  1.00  0.00     0.044 C 
ATOM     10  C   UNL A   1      40.699  34.284  30.632  1.00  0.00    -0.050 A 
ATOM     11  C   UNL A   1      41.106  34.482  31.956  1.00  0.00     0.010 A 
ATOM     12  C   UNL A   1      39.332  34.263  30.339  1.00  0.00     0.015 A 
ATOM     13  C   UNL A   1      40.165  34.676  32.981  1.00  0.00    -0.008 A 
ATOM     14  C   UNL A   1      38.386  34.429  31.355  1.00  0.00     0.018 A 
ATOM     15  C   UNL A   1      40.626  34.855  34.400  1.00  0.00     0.048 C 
ATOM     16  C   UNL A   1      38.797  34.664  32.668  1.00  0.00     0.130 A 
ATOM     17  C   UNL A   1      36.977  34.269  31.054  1.00  0.00     0.027 C 
ATOM     18  O   UNL A   1      37.920  34.889  33.693  1.00  0.00    -0.475 OA
ATOM     19  C   UNL A   1      36.500  34.639  33.490  1.00  0.00     0.316 C 
BRANCH  19  20
ATOM     20  C   UNL A   1      36.060  33.555  34.484  1.00  0.00     0.430 C 
ATOM     21  F   UNL A   1      36.707  33.685  35.667  1.00  0.00    -0.167 F 
ATOM     22  F   UNL A   1      34.737  33.623  34.752  1.00  0.00    -0.167 F 
ATOM     23  F   UNL A   1      36.316  32.311  34.017  1.00  0.00    -0.167 F 
ENDBRANCH  19  20
ENDBRANCH   6   8
ENDBRANCH   5   6
ENDBRANCH   4   5
ENDBRANCH   3   4
ENDBRANCH   2   3
ENDBRANCH   1   2
BRANCH   1  24
ATOM     24  C   UNL A   1      33.710  33.701  28.026  1.00  0.00     0.261 C 
BRANCH  24  25
ATOM     25  O   UNL A   1      34.777  32.859  27.557  1.00  0.00    -0.460 OA
BRANCH  25  26
ATOM     26  C   UNL A   1      34.612  31.538  27.815  1.00  0.00     0.338 C 
ATOM     27  O   UNL A   1      33.699  30.820  27.429  1.00  0.00    -0.246 OA
BRANCH  26  28
ATOM     28  C   UNL A   1      35.812  31.014  28.488  1.00  0.00     0.060 A 
ATOM     29  C   UNL A   1      37.023  31.691  28.298  1.00  0.00     0.016 A 
ATOM     30  C   UNL A   1      35.761  29.844  29.249  1.00  0.00     0.016 A 
ATOM     31  C   UNL A   1      38.195  31.189  28.859  1.00  0.00     0.010 A 
ATOM     32  C   UNL A   1      36.941  29.337  29.803  1.00  0.00     0.010 A 
ATOM     33  C   UNL A   1      38.167  29.996  29.595  1.00  0.00    -0.014 A 
BRANCH  33  34
ATOM     34  C   UNL A   1      39.441  29.398  30.064  1.00  0.00     0.031 A 
ATOM     35  C   UNL A   1      40.087  29.923  31.316  1.00  0.00     0.074 A 
ATOM     36  C   UNL A   1      39.982  28.356  29.405  1.00  0.00     0.049 A 
ATOM     37  N   UNL A   1      41.184  29.526  31.907  1.00  0.00    -0.248 NA
ATOM     38  C   UNL A   1      39.408  31.039  31.994  1.00  0.00     0.031 C 
ATOM     39  C   UNL A   1      39.420  27.737  28.205  1.00  0.00     0.029 A 
ATOM     40  N   UNL A   1      41.116  27.624  29.660  1.00  0.00    -0.354 N 
ATOM     41  C   UNL A   1      41.322  30.332  33.031  1.00  0.00     0.074 A 
ATOM     42  C   UNL A   1      40.222  31.273  33.013  1.00  0.00     0.031 C 
ATOM     43  C   UNL A   1      40.198  26.705  27.840  1.00  0.00     0.029 A 
ATOM     44  C   UNL A   1      41.335  26.610  28.756  1.00  0.00     0.049 A 
ATOM     45  H   UNL A   1      41.716  27.808  30.418  1.00  0.00     0.167 HD
ATOM     46  C   UNL A   1      42.269  30.278  33.998  1.00  0.00     0.034 A 
ATOM     47  C   UNL A   1      42.337  25.711  28.672  1.00  0.00     0.034 A 
ATOM     48  C   UNL A   1      43.359  29.339  34.003  1.00  0.00     0.049 A 
ATOM     49  C   UNL A   1      43.433  25.734  29.708  1.00  0.00     0.074 A 
ATOM     50  C   UNL A   1      44.369  29.202  34.941  1.00  0.00     0.029 A 
ATOM     51  N   UNL A   1      43.590  28.379  33.028  1.00  0.00    -0.354 N 
ATOM     52  N   UNL A   1      43.558  26.516  30.755  1.00  0.00    -0.248 NA
ATOM     53  C   UNL A   1      44.522  24.759  29.555  1.00  0.00     0.031 C 
ATOM     54  C   UNL A   1      45.245  28.208  34.498  1.00  0.00     0.029 A 
ATOM     55  C   UNL A   1      44.741  27.670  33.325  1.00  0.00     0.049 A 
ATOM     56  H   UNL A   1      43.020  28.226  32.240  1.00  0.00     0.167 HD
ATOM     57  C   UNL A   1      44.720  26.105  31.402  1.00  0.00     0.074 A 
ATOM     58  C   UNL A   1      45.264  25.010  30.625  1.00  0.00     0.031 C 
ATOM     59  C   UNL A   1      45.275  26.582  32.542  1.00  0.00     0.034 A 
BRANCH  46  60
ATOM     60  C   UNL A   1      42.182  31.274  35.123  1.00  0.00     0.023 A 
ATOM     61  C   UNL A   1      41.047  31.353  35.946  1.00  0.00     0.031 A 
ATOM     62  C   UNL A   1      43.267  32.123  35.406  1.00  0.00     0.131 A 
ATOM     63  C   UNL A   1      41.007  32.285  36.994  1.00  0.00     0.055 A 
ATOM     64  C   UNL A   1      43.246  33.005  36.487  1.00  0.00     0.041 A 
ATOM     65  F   UNL A   1      44.369  32.100  34.641  1.00  0.00    -0.206 F 
ATOM     66  C   UNL A   1      42.109  33.093  37.285  1.00  0.00     0.022 A 
BRANCH  63  67
ATOM     67  S   UNL A   1      39.467  32.476  37.929  1.00  0.00     0.124 S 
ATOM     68  O   UNL A   1      38.661  31.380  37.395  1.00  0.00    -0.237 OA
ATOM     69  O   UNL A   1      39.912  32.328  39.310  1.00  0.00    -0.237 OA
ATOM     70  O   UNL A   1      39.007  33.815  37.562  1.00  0.00    -0.744 OA
ENDBRANCH  63  67
ENDBRANCH  46  60
BRANCH  47  71
ATOM     71  C   UNL A   1      42.355  24.719  27.562  1.00  0.00     0.023 A 
ATOM     72  C   UNL A   1      41.597  23.540  27.633  1.00  0.00     0.031 A 
ATOM     73  C   UNL A   1      43.133  24.936  26.411  1.00  0.00     0.131 A 
ATOM     74  C   UNL A   1      41.648  22.613  26.581  1.00  0.00     0.055 A 
ATOM     75  C   UNL A   1      43.147  24.032  25.349  1.00  0.00     0.041 A 
ATOM     76  F   UNL A   1      43.874  26.051  26.293  1.00  0.00    -0.206 F 
ATOM     77  C   UNL A   1      42.406  22.857  25.433  1.00  0.00     0.022 A 
BRANCH  74  78
ATOM     78  S   UNL A   1      40.733  21.055  26.748  1.00  0.00     0.124 S 
ATOM     79  O   UNL A   1      41.565  20.138  25.976  1.00  0.00    -0.237 OA
ATOM     80  O   UNL A   1      40.728  20.858  28.193  1.00  0.00    -0.237 OA
ATOM     81  O   UNL A   1      39.431  21.362  26.160  1.00  0.00    -0.744 OA
ENDBRANCH  74  78
ENDBRANCH  47  71
BRANCH  59  82
ATOM     82  C   UNL A   1      46.520  25.912  33.060  1.00  0.00     0.023 A 
ATOM     83  C   UNL A   1      46.459  24.815  33.933  1.00  0.00     0.031 A 
ATOM     84  C   UNL A   1      47.782  26.319  32.588  1.00  0.00     0.131 A 
ATOM     85  C   UNL A   1      47.641  24.162  34.314  1.00  0.00     0.055 A 
ATOM     86  C   UNL A   1      48.950  25.641  32.937  1.00  0.00     0.041 A 
ATOM     87  F   UNL A   1      47.891  27.360  31.745  1.00  0.00    -0.206 F 
ATOM     88  C   UNL A   1      48.882  24.557  33.806  1.00  0.00     0.022 A 
BRANCH  85  89
ATOM     89  S   UNL A   1      47.541  22.786  35.491  1.00  0.00     0.124 S 
ATOM     90  O   UNL A   1      48.611  23.113  36.430  1.00  0.00    -0.237 OA
ATOM     91  O   UNL A   1      46.182  22.908  36.006  1.00  0.00    -0.237 OA
ATOM     92  O   UNL A   1      47.783  21.607  34.662  1.00  0.00    -0.744 OA
ENDBRANCH  85  89
ENDBRANCH  59  82
ENDBRANCH  33  34
ENDBRANCH  26  28
ENDBRANCH  25  26
ENDBRANCH  24  25
ENDBRANCH   1  24
TORSDOF 18
ENDMDL
MODEL 2
REMARK VINA RESULT:     -10.1      6.342     12.672
REMARK SMILES Cc1cc(C)c2c(c1)C=C(C(=O)OCCOCCOC(=O)c1ccc(-c3c4nc(c(-c5cc(S(=O)(=O)[O-])ccc5F)c5ccc([nH]5)c(-c5cc(S(=O)(=O)[O-])ccc5F)c5nc(c(-c6cc(S(=O)(=O)[O-])ccc6F)c6ccc3[nH]6)C=C5)C=C4)cc1)[C@@H](C(F)(F)F)O2
REMARK SMILES IDX 17 1 16 2 15 3 14 4 13 5 11 6 12 7 10 8 1 9 2 10 3 11 8 12
REMARK SMILES IDX 4 13 7 14 5 15 6 16 9 17 90 18 85 19 86 20 87 21 88 22 89 23
REMARK SMILES IDX 18 24 19 25 20 26 21 27 22 28 23 29 84 30 24 31 83 32 25 33
REMARK SMILES IDX 26 34 27 35 77 36 28 37 82 38 76 39 78 40 29 41 81 42 75 43
REMARK SMILES IDX 74 44 30 46 62 47 42 48 61 49 43 50 46 51 60 52 79 53 44 54
REMARK SMILES IDX 45 55 59 57 80 58 47 59 31 60 32 61 40 62 33 63 39 64 41 65
REMARK SMILES IDX 38 66 34 67 35 68 36 69 37 70 63 71 64 72 72 73 65 74 71 75
REMARK SMILES IDX 73 76 70 77 66 78 67 79 68 80 69 81 48 82 49 83 57 84 50 85
REMARK SMILES IDX 56 86 58 87 55 88 51 89 52 90 53 91 54 92
REMARK H PARENT 78 45 46 56
REMARK Flexibility Score: inf
ROOT
ATOM      1  C   UNL A   1      36.254  21.322  24.998  1.00  0.00     0.202 C 
ENDROOT
BRANCH   1   2
ATOM      2  O   UNL A   1      35.810  21.947  26.202  1.00  0.00    -0.374 OA
BRANCH   2   3
ATOM      3  C   UNL A   1      35.830  23.370  26.270  1.00  0.00     0.202 C 
BRANCH   3   4
ATOM      4  C   UNL A   1      34.666  24.127  25.619  1.00  0.00     0.261 C 
BRANCH   4   5
ATOM      5  O   UNL A   1      33.394  23.715  26.141  1.00  0.00    -0.460 OA
BRANCH   5   6
ATOM      6  C   UNL A   1      32.380  23.763  25.248  1.00  0.00     0.338 C 
ATOM      7  O   UNL A   1      31.726  24.744  24.930  1.00  0.00    -0.246 OA
BRANCH   6   8
ATOM      8  C   UNL A   1      32.247  22.458  24.574  1.00  0.00     0.087 C 
ATOM      9  C   UNL A   1      33.142  16.504  25.775  1.00  0.00     0.044 C 
ATOM     10  C   UNL A   1      32.815  17.695  24.924  1.00  0.00    -0.050 A 
ATOM     11  C   UNL A   1      32.699  17.589  23.534  1.00  0.00     0.010 A 
ATOM     12  C   UNL A   1      32.660  18.949  25.524  1.00  0.00     0.015 A 
ATOM     13  C   UNL A   1      32.415  18.715  22.744  1.00  0.00    -0.008 A 
ATOM     14  C   UNL A   1      32.402  20.081  24.745  1.00  0.00     0.018 A 
ATOM     15  C   UNL A   1      32.327  18.582  21.249  1.00  0.00     0.048 C 
ATOM     16  C   UNL A   1      32.251  19.964  23.362  1.00  0.00     0.130 A 
ATOM     17  C   UNL A   1      32.380  21.389  25.369  1.00  0.00     0.027 C 
ATOM     18  O   UNL A   1      31.943  21.026  22.556  1.00  0.00    -0.475 OA
ATOM     19  C   UNL A   1      32.011  22.378  23.093  1.00  0.00     0.316 C 
BRANCH  19  20
ATOM     20  C   UNL A   1      33.055  23.160  22.283  1.00  0.00     0.430 C 
ATOM     21  F   UNL A   1      34.301  22.971  22.781  1.00  0.00    -0.167 F 
ATOM     22  F   UNL A   1      33.088  22.768  20.990  1.00  0.00    -0.167 F 
ATOM     23  F   UNL A   1      32.810  24.490  22.299  1.00  0.00    -0.167 F 
ENDBRANCH  19  20
ENDBRANCH   6   8
ENDBRANCH   5   6
ENDBRANCH   4   5
ENDBRANCH   3   4
ENDBRANCH   2   3
ENDBRANCH   1   2
BRANCH   1  24
ATOM     24  C   UNL A   1      37.430  20.339  25.072  1.00  0.00     0.261 C 
BRANCH  24  25
ATOM     25  O   UNL A   1      38.712  20.989  25.060  1.00  0.00    -0.460 OA
BRANCH  25  26
ATOM     26  C   UNL A   1      39.462  20.787  26.172  1.00  0.00     0.338 C 
ATOM     27  O   UNL A   1      39.853  19.714  26.612  1.00  0.00    -0.246 OA
BRANCH  26  28
ATOM     28  C   UNL A   1      39.920  22.083  26.700  1.00  0.00     0.060 A 
ATOM     29  C   UNL A   1      39.380  23.249  26.142  1.00  0.00     0.016 A 
ATOM     30  C   UNL A   1      40.904  22.154  27.687  1.00  0.00     0.016 A 
ATOM     31  C   UNL A   1      39.838  24.496  26.564  1.00  0.00     0.010 A 
ATOM     32  C   UNL A   1      41.368  23.407  28.101  1.00  0.00     0.010 A 
ATOM     33  C   UNL A   1      40.852  24.583  27.528  1.00  0.00    -0.014 A 
BRANCH  33  34
ATOM     34  C   UNL A   1      41.428  25.909  27.861  1.00  0.00     0.031 A 
ATOM     35  C   UNL A   1      42.811  26.255  27.381  1.00  0.00     0.074 A 
ATOM     36  C   UNL A   1      40.696  26.816  28.535  1.00  0.00     0.049 A 
ATOM     37  N   UNL A   1      43.487  27.363  27.542  1.00  0.00    -0.248 NA
ATOM     38  C   UNL A   1      43.526  25.219  26.618  1.00  0.00     0.031 C 
ATOM     39  C   UNL A   1      39.329  26.606  29.011  1.00  0.00     0.029 A 
ATOM     40  N   UNL A   1      40.993  28.098  28.923  1.00  0.00    -0.354 N 
ATOM     41  C   UNL A   1      44.699  27.165  26.892  1.00  0.00     0.074 A 
ATOM     42  C   UNL A   1      44.685  25.812  26.375  1.00  0.00     0.031 C 
ATOM     43  C   UNL A   1      38.897  27.729  29.608  1.00  0.00     0.029 A 
ATOM     44  C   UNL A   1      39.966  28.726  29.592  1.00  0.00     0.049 A 
ATOM     45  H   UNL A   1      41.859  28.530  28.741  1.00  0.00     0.167 HD
ATOM     46  C   UNL A   1      45.721  28.038  26.725  1.00  0.00     0.034 A 
ATOM     47  C   UNL A   1      39.897  29.960  30.132  1.00  0.00     0.034 A 
ATOM     48  C   UNL A   1      45.724  29.380  27.245  1.00  0.00     0.049 A 
ATOM     49  C   UNL A   1      41.086  30.880  30.017  1.00  0.00     0.074 A 
ATOM     50  C   UNL A   1      46.710  30.344  27.127  1.00  0.00     0.029 A 
ATOM     51  N   UNL A   1      44.697  29.950  27.985  1.00  0.00    -0.354 N 
ATOM     52  N   UNL A   1      42.233  30.670  29.415  1.00  0.00    -0.248 NA
ATOM     53  C   UNL A   1      40.976  32.201  30.654  1.00  0.00     0.031 C 
ATOM     54  C   UNL A   1      46.311  31.470  27.851  1.00  0.00     0.029 A 
ATOM     55  C   UNL A   1      45.041  31.240  28.355  1.00  0.00     0.049 A 
ATOM     56  H   UNL A   1      43.850  29.504  28.214  1.00  0.00     0.167 HD
ATOM     57  C   UNL A   1      42.966  31.843  29.570  1.00  0.00     0.074 A 
ATOM     58  C   UNL A   1      42.137  32.756  30.330  1.00  0.00     0.031 C 
ATOM     59  C   UNL A   1      44.207  32.139  29.113  1.00  0.00     0.034 A 
BRANCH  46  60
ATOM     60  C   UNL A   1      46.932  27.567  25.966  1.00  0.00     0.023 A 
ATOM     61  C   UNL A   1      47.101  27.860  24.602  1.00  0.00     0.031 A 
ATOM     62  C   UNL A   1      47.952  26.857  26.623  1.00  0.00     0.131 A 
ATOM     63  C   UNL A   1      48.250  27.416  23.930  1.00  0.00     0.055 A 
ATOM     64  C   UNL A   1      49.120  26.472  25.964  1.00  0.00     0.041 A 
ATOM     65  F   UNL A   1      47.833  26.537  27.921  1.00  0.00    -0.206 F 
ATOM     66  C   UNL A   1      49.271  26.746  24.609  1.00  0.00     0.022 A 
BRANCH  63  67
ATOM     67  S   UNL A   1      48.358  27.664  22.138  1.00  0.00     0.124 S 
ATOM     68  O   UNL A   1      48.583  26.299  21.666  1.00  0.00    -0.237 OA
ATOM     69  O   UNL A   1      47.060  28.245  21.818  1.00  0.00    -0.237 OA
ATOM     70  O   UNL A   1      49.500  28.565  21.986  1.00  0.00    -0.744 OA
ENDBRANCH  63  67
ENDBRANCH  46  60
BRANCH  47  71
ATOM     71  C   UNL A   1      38.660  30.394  30.839  1.00  0.00     0.023 A 
ATOM     72  C   UNL A   1      37.657  31.110  30.167  1.00  0.00     0.031 A 
ATOM     73  C   UNL A   1      38.462  30.096  32.199  1.00  0.00     0.131 A 
ATOM     74  C   UNL A   1      36.510  31.523  30.863  1.00  0.00     0.055 A 
ATOM     75  C   UNL A   1      37.301  30.473  32.875  1.00  0.00     0.041 A 
ATOM     76  F   UNL A   1      39.390  29.410  32.886  1.00  0.00    -0.206 F 
ATOM     77  C   UNL A   1      36.317  31.197  32.207  1.00  0.00     0.022 A 
BRANCH  74  78
ATOM     78  S   UNL A   1      35.279  32.531  29.990  1.00  0.00     0.124 S 
ATOM     79  O   UNL A   1      34.782  31.592  28.990  1.00  0.00    -0.237 OA
ATOM     80  O   UNL A   1      34.354  32.880  31.062  1.00  0.00    -0.237 OA
ATOM     81  O   UNL A   1      36.065  33.645  29.462  1.00  0.00    -0.744 OA
ENDBRANCH  74  78
ENDBRANCH  47  71
BRANCH  59  82
ATOM     82  C   UNL A   1      44.751  33.519  29.378  1.00  0.00     0.023 A 
ATOM     83  C   UNL A   1      44.362  34.625  28.608  1.00  0.00     0.031 A 
ATOM     84  C   UNL A   1      45.593  33.738  30.485  1.00  0.00     0.131 A 
ATOM     85  C   UNL A   1      44.819  35.907  28.951  1.00  0.00     0.055 A 
ATOM     86  C   UNL A   1      46.011  35.019  30.846  1.00  0.00     0.041 A 
ATOM     87  F   UNL A   1      45.987  32.712  31.256  1.00  0.00    -0.206 F 
ATOM     88  C   UNL A   1      45.624  36.112  30.075  1.00  0.00     0.022 A 
BRANCH  85  89
ATOM     89  S   UNL A   1      44.352  37.312  27.904  1.00  0.00     0.124 S 
ATOM     90  O   UNL A   1      45.640  37.962  27.679  1.00  0.00    -0.237 OA
ATOM     91  O   UNL A   1      43.757  36.659  26.744  1.00  0.00    -0.237 OA
ATOM     92  O   UNL A   1      43.415  38.064  28.737  1.00  0.00    -0.744 OA
ENDBRANCH  85  89
ENDBRANCH  59  82
ENDBRANCH  33  34
ENDBRANCH  26  28
ENDBRANCH  25  26
ENDBRANCH  24  25
ENDBRANCH   1  24
TORSDOF 18
ENDMDL
MODEL 3
REMARK VINA RESULT:     -10.1      5.664     11.551
REMARK SMILES Cc1cc(C)c2c(c1)C=C(C(=O)OCCOCCOC(=O)c1ccc(-c3c4nc(c(-c5cc(S(=O)(=O)[O-])ccc5F)c5ccc([nH]5)c(-c5cc(S(=O)(=O)[O-])ccc5F)c5nc(c(-c6cc(S(=O)(=O)[O-])ccc6F)c6ccc3[nH]6)C=C5)C=C4)cc1)[C@@H](C(F)(F)F)O2
REMARK SMILES IDX 17 1 16 2 15 3 14 4 13 5 11 6 12 7 10 8 1 9 2 10 3 11 8 12
REMARK SMILES IDX 4 13 7 14 5 15 6 16 9 17 90 18 85 19 86 20 87 21 88 22 89 23
REMARK SMILES IDX 18 24 19 25 20 26 21 27 22 28 23 29 84 30 24 31 83 32 25 33
REMARK SMILES IDX 26 34 27 35 77 36 28 37 82 38 76 39 78 40 29 41 81 42 75 43
REMARK SMILES IDX 74 44 30 46 62 47 42 48 61 49 43 50 46 51 60 52 79 53 44 54
REMARK SMILES IDX 45 55 59 57 80 58 47 59 31 60 32 61 40 62 33 63 39 64 41 65
REMARK SMILES IDX 38 66 34 67 35 68 36 69 37 70 63 71 64 72 72 73 65 74 71 75
REMARK SMILES IDX 73 76 70 77 66 78 67 79 68 80 69 81 48 82 49 83 57 84 50 85
REMARK SMILES IDX 56 86 58 87 55 88 51 89 52 90 53 91 54 92
REMARK H PARENT 78 45 46 56
REMARK Flexibility Score: inf
ROOT
ATOM      1  C   UNL A   1      35.908  20.537  25.009  1.00  0.00     0.202 C 
ENDROOT
BRANCH   1   2
ATOM      2  O   UNL A   1      35.216  21.523  25.774  1.00  0.00    -0.374 OA
BRANCH   2   3
ATOM      3  C   UNL A   1      34.170  21.092  26.642  1.00  0.00     0.202 C 
BRANCH   3   4
ATOM      4  C   UNL A   1      33.189  22.153  27.152  1.00  0.00     0.261 C 
BRANCH   4   5
ATOM      5  O   UNL A   1      32.096  22.359  26.245  1.00  0.00    -0.460 OA
BRANCH   5   6
ATOM      6  C   UNL A   1      31.341  23.448  26.515  1.00  0.00     0.338 C 
ATOM      7  O   UNL A   1      30.363  23.503  27.244  1.00  0.00    -0.246 OA
BRANCH   6   8
ATOM      8  C   UNL A   1      31.954  24.643  25.905  1.00  0.00     0.087 C 
ATOM      9  C   UNL A   1      32.052  30.729  26.707  1.00  0.00     0.044 C 
ATOM     10  C   UNL A   1      32.356  29.435  26.014  1.00  0.00    -0.050 A 
ATOM     11  C   UNL A   1      32.911  29.407  24.730  1.00  0.00     0.010 A 
ATOM     12  C   UNL A   1      32.044  28.226  26.643  1.00  0.00     0.015 A 
ATOM     13  C   UNL A   1      33.171  28.189  24.080  1.00  0.00    -0.008 A 
ATOM     14  C   UNL A   1      32.275  27.008  25.996  1.00  0.00     0.018 A 
ATOM     15  C   UNL A   1      33.738  28.186  22.688  1.00  0.00     0.048 C 
ATOM     16  C   UNL A   1      32.863  26.984  24.730  1.00  0.00     0.130 A 
ATOM     17  C   UNL A   1      31.821  25.775  26.608  1.00  0.00     0.027 C 
ATOM     18  O   UNL A   1      33.164  25.824  24.072  1.00  0.00    -0.475 OA
ATOM     19  C   UNL A   1      32.643  24.559  24.573  1.00  0.00     0.316 C 
BRANCH  19  20
ATOM     20  C   UNL A   1      31.752  23.946  23.483  1.00  0.00     0.430 C 
ATOM     21  F   UNL A   1      31.911  24.590  22.301  1.00  0.00    -0.167 F 
ATOM     22  F   UNL A   1      32.047  22.646  23.262  1.00  0.00    -0.167 F 
ATOM     23  F   UNL A   1      30.440  24.015  23.808  1.00  0.00    -0.167 F 
ENDBRANCH  19  20
ENDBRANCH   6   8
ENDBRANCH   5   6
ENDBRANCH   4   5
ENDBRANCH   3   4
ENDBRANCH   2   3
ENDBRANCH   1   2
BRANCH   1  24
ATOM     24  C   UNL A   1      37.442  20.568  24.989  1.00  0.00     0.261 C 
BRANCH  24  25
ATOM     25  O   UNL A   1      37.993  21.720  25.649  1.00  0.00    -0.460 OA
BRANCH  25  26
ATOM     26  C   UNL A   1      39.213  21.523  26.209  1.00  0.00     0.338 C 
ATOM     27  O   UNL A   1      39.914  20.524  26.117  1.00  0.00    -0.246 OA
BRANCH  26  28
ATOM     28  C   UNL A   1      39.689  22.781  26.808  1.00  0.00     0.060 A 
ATOM     29  C   UNL A   1      39.083  23.976  26.400  1.00  0.00     0.016 A 
ATOM     30  C   UNL A   1      40.750  22.794  27.715  1.00  0.00     0.016 A 
ATOM     31  C   UNL A   1      39.549  25.194  26.889  1.00  0.00     0.010 A 
ATOM     32  C   UNL A   1      41.223  24.019  28.197  1.00  0.00     0.010 A 
ATOM     33  C   UNL A   1      40.638  25.226  27.772  1.00  0.00    -0.014 A 
BRANCH  33  34
ATOM     34  C   UNL A   1      41.215  26.533  28.171  1.00  0.00     0.031 A 
ATOM     35  C   UNL A   1      42.641  26.850  27.818  1.00  0.00     0.074 A 
ATOM     36  C   UNL A   1      40.448  27.450  28.791  1.00  0.00     0.049 A 
ATOM     37  N   UNL A   1      43.327  27.939  28.052  1.00  0.00    -0.248 NA
ATOM     38  C   UNL A   1      43.395  25.805  27.107  1.00  0.00     0.031 C 
ATOM     39  C   UNL A   1      39.040  27.269  29.144  1.00  0.00     0.029 A 
ATOM     40  N   UNL A   1      40.740  28.721  29.220  1.00  0.00    -0.354 N 
ATOM     41  C   UNL A   1      44.586  27.718  27.507  1.00  0.00     0.074 A 
ATOM     42  C   UNL A   1      44.586  26.372  26.974  1.00  0.00     0.031 C 
ATOM     43  C   UNL A   1      38.584  28.396  29.715  1.00  0.00     0.029 A 
ATOM     44  C   UNL A   1      39.674  29.366  29.805  1.00  0.00     0.049 A 
ATOM     45  H   UNL A   1      41.629  29.133  29.120  1.00  0.00     0.167 HD
ATOM     46  C   UNL A   1      45.639  28.567  27.442  1.00  0.00     0.034 A 
ATOM     47  C   UNL A   1      39.587  30.595  30.353  1.00  0.00     0.034 A 
ATOM     48  C   UNL A   1      45.629  29.903  27.978  1.00  0.00     0.049 A 
ATOM     49  C   UNL A   1      40.803  31.488  30.354  1.00  0.00     0.074 A 
ATOM     50  C   UNL A   1      46.645  30.843  27.958  1.00  0.00     0.029 A 
ATOM     51  N   UNL A   1      44.556  30.490  28.633  1.00  0.00    -0.354 N 
ATOM     52  N   UNL A   1      41.993  31.255  29.851  1.00  0.00    -0.248 NA
ATOM     53  C   UNL A   1      40.670  32.804  30.996  1.00  0.00     0.031 C 
ATOM     54  C   UNL A   1      46.211  31.971  28.659  1.00  0.00     0.029 A 
ATOM     55  C   UNL A   1      44.897  31.767  29.048  1.00  0.00     0.049 A 
ATOM     56  H   UNL A   1      43.681  30.063  28.781  1.00  0.00     0.167 HD
ATOM     57  C   UNL A   1      42.737  32.408  30.086  1.00  0.00     0.074 A 
ATOM     58  C   UNL A   1      41.867  33.333  30.781  1.00  0.00     0.031 C 
ATOM     59  C   UNL A   1      44.021  32.678  29.742  1.00  0.00     0.034 A 
BRANCH  46  60
ATOM     60  C   UNL A   1      46.901  28.075  26.784  1.00  0.00     0.023 A 
ATOM     61  C   UNL A   1      47.053  28.091  25.388  1.00  0.00     0.031 A 
ATOM     62  C   UNL A   1      47.981  27.627  27.565  1.00  0.00     0.131 A 
ATOM     63  C   UNL A   1      48.249  27.636  24.812  1.00  0.00     0.055 A 
ATOM     64  C   UNL A   1      49.190  27.234  26.989  1.00  0.00     0.041 A 
ATOM     65  F   UNL A   1      47.881  27.576  28.903  1.00  0.00    -0.206 F 
ATOM     66  C   UNL A   1      49.327  27.232  25.604  1.00  0.00     0.022 A 
BRANCH  63  67
ATOM     67  S   UNL A   1      48.351  27.513  23.007  1.00  0.00     0.124 S 
ATOM     68  O   UNL A   1      48.309  26.066  22.808  1.00  0.00    -0.237 OA
ATOM     69  O   UNL A   1      47.172  28.252  22.570  1.00  0.00    -0.237 OA
ATOM     70  O   UNL A   1      49.633  28.142  22.693  1.00  0.00    -0.744 OA
ENDBRANCH  63  67
ENDBRANCH  46  60
BRANCH  47  71
ATOM     71  C   UNL A   1      38.304  31.053  30.955  1.00  0.00     0.023 A 
ATOM     72  C   UNL A   1      37.340  31.720  30.183  1.00  0.00     0.031 A 
ATOM     73  C   UNL A   1      38.022  30.827  32.314  1.00  0.00     0.131 A 
ATOM     74  C   UNL A   1      36.147  32.156  30.780  1.00  0.00     0.055 A 
ATOM     75  C   UNL A   1      36.817  31.226  32.893  1.00  0.00     0.041 A 
ATOM     76  F   UNL A   1      38.910  30.190  33.095  1.00  0.00    -0.206 F 
ATOM     77  C   UNL A   1      35.872  31.901  32.125  1.00  0.00     0.022 A 
BRANCH  74  78
ATOM     78  S   UNL A   1      34.967  33.100  29.777  1.00  0.00     0.124 S 
ATOM     79  O   UNL A   1      35.838  34.079  29.137  1.00  0.00    -0.237 OA
ATOM     80  O   UNL A   1      34.411  32.068  28.909  1.00  0.00    -0.237 OA
ATOM     81  O   UNL A   1      34.039  33.644  30.767  1.00  0.00    -0.744 OA
ENDBRANCH  74  78
ENDBRANCH  47  71
BRANCH  59  82
ATOM     82  C   UNL A   1      44.572  34.041  30.072  1.00  0.00     0.023 A 
ATOM     83  C   UNL A   1      44.378  35.140  29.221  1.00  0.00     0.031 A 
ATOM     84  C   UNL A   1      45.212  34.257  31.306  1.00  0.00     0.131 A 
ATOM     85  C   UNL A   1      44.826  36.411  29.613  1.00  0.00     0.055 A 
ATOM     86  C   UNL A   1      45.618  35.529  31.709  1.00  0.00     0.041 A 
ATOM     87  F   UNL A   1      45.414  33.238  32.157  1.00  0.00    -0.206 F 
ATOM     88  C   UNL A   1      45.426  36.614  30.860  1.00  0.00     0.022 A 
BRANCH  85  89
ATOM     89  S   UNL A   1      44.619  37.803  28.470  1.00  0.00     0.124 S 
ATOM     90  O   UNL A   1      45.390  37.361  27.312  1.00  0.00    -0.237 OA
ATOM     91  O   UNL A   1      43.172  37.854  28.291  1.00  0.00    -0.237 OA
ATOM     92  O   UNL A   1      45.190  38.934  29.199  1.00  0.00    -0.744 OA
ENDBRANCH  85  89
ENDBRANCH  59  82
ENDBRANCH  33  34
ENDBRANCH  26  28
ENDBRANCH  25  26
ENDBRANCH  24  25
ENDBRANCH   1  24
TORSDOF 18
ENDMDL
