MODEL 1
REMARK VINA RESULT:     -10.1      0.000      0.000
REMARK SMILES CN(CC(N)=O)S(=O)(=O)c1ccc(C(=O)OCCOCCOC(=O)c2ccc(-c3c4nc(c(-c5cc(S(=O)(=O)[O-])ccc5F)c5ccc([nH]5)c(-c5cc(S(=O)(=O)[O-])ccc5F)c5nc(c(-c6cc(S(=O)(=O)[O-])ccc6F)c6ccc3[nH]6)C=C5)C=C4)cc2)cc1Br
REMARK SMILES IDX 18 1 17 2 16 3 14 4 15 5 13 6 10 7 11 8 89 9 12 10 88 11
REMARK SMILES IDX 90 12 7 13 8 14 9 15 2 16 1 17 3 18 4 19 5 20 6 21 19 24
REMARK SMILES IDX 20 25 21 26 22 27 23 28 24 29 25 30 26 31 87 32 27 33 86 34
REMARK SMILES IDX 28 35 29 36 30 37 80 38 31 39 85 40 79 41 81 42 32 43 84 44
REMARK SMILES IDX 78 45 77 46 33 48 65 49 45 50 64 51 46 52 49 53 63 54 82 55
REMARK SMILES IDX 47 56 48 57 62 59 83 60 50 61 34 62 35 63 43 64 36 65 42 66
REMARK SMILES IDX 44 67 41 68 37 69 38 70 39 71 40 72 66 73 67 74 75 75 68 76
REMARK SMILES IDX 74 77 76 78 73 79 69 80 70 81 71 82 72 83 51 84 52 85 60 86
REMARK SMILES IDX 53 87 59 88 61 89 58 90 54 91 55 92 56 93 57 94
REMARK H PARENT 5 22 5 23 81 47 49 58
REMARK Flexibility Score: inf
ROOT
ATOM      1  C   UNL A   1      33.008  29.395  26.471  1.00  0.00     0.202 C 
ENDROOT
BRANCH   1   2
ATOM      2  C   UNL A   1      33.060  29.567  24.949  1.00  0.00     0.261 C 
BRANCH   2   3
ATOM      3  O   UNL A   1      33.236  28.296  24.294  1.00  0.00    -0.460 OA
BRANCH   3   4
ATOM      4  C   UNL A   1      32.154  27.486  24.323  1.00  0.00     0.338 C 
ATOM      5  O   UNL A   1      31.025  27.742  23.937  1.00  0.00    -0.246 OA
BRANCH   4   6
ATOM      6  C   UNL A   1      32.547  26.127  24.750  1.00  0.00     0.061 A 
ATOM      7  C   UNL A   1      33.337  23.493  25.317  1.00  0.00     0.096 A 
ATOM      8  C   UNL A   1      34.212  24.387  24.668  1.00  0.00     0.024 A 
ATOM      9  C   UNL A   1      32.069  23.936  25.708  1.00  0.00     0.038 A 
ATOM     10  C   UNL A   1      33.814  25.686  24.369  1.00  0.00     0.017 A 
ATOM     11  C   UNL A   1      31.691  25.271  25.452  1.00  0.00     0.032 A 
ATOM     12  Br  UNL A   1      30.717  22.858  26.486  1.00  0.00    -0.049 Br
BRANCH   7  13
ATOM     13  S   UNL A   1      33.947  21.822  25.389  1.00  0.00     0.244 S 
ATOM     14  O   UNL A   1      33.868  21.422  26.776  1.00  0.00    -0.207 OA
ATOM     15  O   UNL A   1      35.228  21.861  24.706  1.00  0.00    -0.207 OA
BRANCH  13  16
ATOM     16  N   UNL A   1      32.919  20.795  24.526  1.00  0.00    -0.192 NA
ATOM     17  C   UNL A   1      32.462  21.374  23.238  1.00  0.00     0.125 C 
BRANCH  16  18
ATOM     18  C   UNL A   1      33.322  19.372  24.399  1.00  0.00     0.201 C 
BRANCH  18  19
ATOM     19  C   UNL A   1      32.649  18.399  25.354  1.00  0.00     0.232 C 
ATOM     20  N   UNL A   1      32.883  18.607  26.682  1.00  0.00    -0.369 N 
ATOM     21  O   UNL A   1      31.913  17.486  24.987  1.00  0.00    -0.274 OA
ATOM     22  H   UNL A   1      33.474  19.341  26.969  1.00  0.00     0.159 HD
ATOM     23  H   UNL A   1      32.460  18.024  27.354  1.00  0.00     0.159 HD
ENDBRANCH  18  19
ENDBRANCH  16  18
ENDBRANCH  13  16
ENDBRANCH   7  13
ENDBRANCH   4   6
ENDBRANCH   3   4
ENDBRANCH   2   3
ENDBRANCH   1   2
BRANCH   1  24
ATOM     24  O   UNL A   1      32.613  30.566  27.188  1.00  0.00    -0.374 OA
BRANCH  24  25
ATOM     25  C   UNL A   1      31.673  31.418  26.532  1.00  0.00     0.202 C 
BRANCH  25  26
ATOM     26  C   UNL A   1      31.774  32.903  26.896  1.00  0.00     0.261 C 
BRANCH  26  27
ATOM     27  O   UNL A   1      33.143  33.293  27.113  1.00  0.00    -0.460 OA
BRANCH  27  28
ATOM     28  C   UNL A   1      33.334  34.101  28.186  1.00  0.00     0.338 C 
ATOM     29  O   UNL A   1      32.624  35.029  28.535  1.00  0.00    -0.246 OA
BRANCH  28  30
ATOM     30  C   UNL A   1      34.451  33.593  29.011  1.00  0.00     0.060 A 
ATOM     31  C   UNL A   1      35.740  34.016  28.667  1.00  0.00     0.016 A 
ATOM     32  C   UNL A   1      34.260  32.689  30.060  1.00  0.00     0.016 A 
ATOM     33  C   UNL A   1      36.847  33.493  29.330  1.00  0.00     0.010 A 
ATOM     34  C   UNL A   1      35.375  32.161  30.723  1.00  0.00     0.010 A 
ATOM     35  C   UNL A   1      36.675  32.532  30.335  1.00  0.00    -0.014 A 
BRANCH  35  36
ATOM     36  C   UNL A   1      37.864  31.814  30.858  1.00  0.00     0.031 A 
ATOM     37  C   UNL A   1      38.372  32.151  32.235  1.00  0.00     0.074 A 
ATOM     38  C   UNL A   1      38.448  30.836  30.141  1.00  0.00     0.049 A 
ATOM     39  N   UNL A   1      39.376  31.640  32.898  1.00  0.00    -0.248 NA
ATOM     40  C   UNL A   1      37.648  33.209  32.955  1.00  0.00     0.031 C 
ATOM     41  C   UNL A   1      38.023  30.397  28.812  1.00  0.00     0.029 A 
ATOM     42  N   UNL A   1      39.522  30.034  30.432  1.00  0.00    -0.354 N 
ATOM     43  C   UNL A   1      39.405  32.311  34.116  1.00  0.00     0.074 A 
ATOM     44  C   UNL A   1      38.343  33.294  34.079  1.00  0.00     0.031 C 
ATOM     45  C   UNL A   1      38.833  29.406  28.401  1.00  0.00     0.029 A 
ATOM     46  C   UNL A   1      39.850  29.160  29.422  1.00  0.00     0.049 A 
ATOM     47  H   UNL A   1      40.013  30.081  31.284  1.00  0.00     0.167 HD
ATOM     48  C   UNL A   1      40.232  32.116  35.174  1.00  0.00     0.034 A 
ATOM     49  C   UNL A   1      40.864  28.276  29.328  1.00  0.00     0.034 A 
ATOM     50  C   UNL A   1      41.293  31.140  35.194  1.00  0.00     0.049 A 
ATOM     51  C   UNL A   1      41.817  28.126  30.489  1.00  0.00     0.074 A 
ATOM     52  C   UNL A   1      42.178  30.848  36.219  1.00  0.00     0.029 A 
ATOM     53  N   UNL A   1      41.623  30.301  34.137  1.00  0.00    -0.354 N 
ATOM     54  N   UNL A   1      41.820  28.754  31.643  1.00  0.00    -0.248 NA
ATOM     55  C   UNL A   1      42.894  27.139  30.340  1.00  0.00     0.031 C 
ATOM     56  C   UNL A   1      43.084  29.885  35.757  1.00  0.00     0.029 A 
ATOM     57  C   UNL A   1      42.718  29.519  34.471  1.00  0.00     0.049 A 
ATOM     58  H   UNL A   1      41.148  30.268  33.275  1.00  0.00     0.167 HD
ATOM     59  C   UNL A   1      42.882  28.214  32.366  1.00  0.00     0.074 A 
ATOM     60  C   UNL A   1      43.484  27.201  31.524  1.00  0.00     0.031 C 
ATOM     61  C   UNL A   1      43.318  28.523  33.615  1.00  0.00     0.034 A 
BRANCH  48  62
ATOM     62  C   UNL A   1      40.048  33.016  36.372  1.00  0.00     0.023 A 
ATOM     63  C   UNL A   1      40.815  34.181  36.547  1.00  0.00     0.031 A 
ATOM     64  C   UNL A   1      39.111  32.688  37.368  1.00  0.00     0.131 A 
ATOM     65  C   UNL A   1      40.680  34.938  37.722  1.00  0.00     0.055 A 
ATOM     66  C   UNL A   1      38.927  33.487  38.498  1.00  0.00     0.041 A 
ATOM     67  F   UNL A   1      38.367  31.576  37.265  1.00  0.00    -0.206 F 
ATOM     68  C   UNL A   1      39.725  34.612  38.687  1.00  0.00     0.022 A 
BRANCH  65  69
ATOM     69  S   UNL A   1      41.865  36.276  38.034  1.00  0.00     0.124 S 
ATOM     70  O   UNL A   1      41.052  37.216  38.803  1.00  0.00    -0.237 OA
ATOM     71  O   UNL A   1      42.923  35.594  38.769  1.00  0.00    -0.237 OA
ATOM     72  O   UNL A   1      42.229  36.730  36.693  1.00  0.00    -0.744 OA
ENDBRANCH  65  69
ENDBRANCH  48  62
BRANCH  49  73
ATOM     73  C   UNL A   1      41.063  27.486  28.079  1.00  0.00     0.023 A 
ATOM     74  C   UNL A   1      40.741  26.121  28.019  1.00  0.00     0.031 A 
ATOM     75  C   UNL A   1      41.637  28.080  26.940  1.00  0.00     0.131 A 
ATOM     76  C   UNL A   1      41.039  25.383  26.862  1.00  0.00     0.055 A 
ATOM     77  C   UNL A   1      41.885  27.353  25.775  1.00  0.00     0.041 A 
ATOM     78  F   UNL A   1      41.963  29.381  26.943  1.00  0.00    -0.206 F 
ATOM     79  C   UNL A   1      41.598  25.992  25.736  1.00  0.00     0.022 A 
BRANCH  76  80
ATOM     80  S   UNL A   1      40.762  23.590  26.880  1.00  0.00     0.124 S 
ATOM     81  O   UNL A   1      39.363  23.501  26.480  1.00  0.00    -0.237 OA
ATOM     82  O   UNL A   1      41.741  23.125  25.904  1.00  0.00    -0.237 OA
ATOM     83  O   UNL A   1      41.041  23.218  28.266  1.00  0.00    -0.744 OA
ENDBRANCH  76  80
ENDBRANCH  49  73
BRANCH  61  84
ATOM     84  C   UNL A   1      44.480  27.721  34.152  1.00  0.00     0.023 A 
ATOM     85  C   UNL A   1      44.290  26.489  34.802  1.00  0.00     0.031 A 
ATOM     86  C   UNL A   1      45.793  28.208  34.026  1.00  0.00     0.131 A 
ATOM     87  C   UNL A   1      45.390  25.815  35.355  1.00  0.00     0.055 A 
ATOM     88  C   UNL A   1      46.889  27.503  34.526  1.00  0.00     0.041 A 
ATOM     89  F   UNL A   1      46.032  29.380  33.416  1.00  0.00    -0.206 F 
ATOM     90  C   UNL A   1      46.689  26.306  35.206  1.00  0.00     0.022 A 
BRANCH  87  91
ATOM     91  S   UNL A   1      45.088  24.331  36.355  1.00  0.00     0.124 S 
ATOM     92  O   UNL A   1      43.961  23.719  35.658  1.00  0.00    -0.237 OA
ATOM     93  O   UNL A   1      46.360  23.623  36.254  1.00  0.00    -0.237 OA
ATOM     94  O   UNL A   1      44.781  24.867  37.680  1.00  0.00    -0.744 OA
ENDBRANCH  87  91
ENDBRANCH  61  84
ENDBRANCH  35  36
ENDBRANCH  28  30
ENDBRANCH  27  28
ENDBRANCH  26  27
ENDBRANCH  25  26
ENDBRANCH  24  25
ENDBRANCH   1  24
TORSDOF 21
ENDMDL
MODEL 2
REMARK VINA RESULT:     -10.1      1.578      2.340
REMARK SMILES CN(CC(N)=O)S(=O)(=O)c1ccc(C(=O)OCCOCCOC(=O)c2ccc(-c3c4nc(c(-c5cc(S(=O)(=O)[O-])ccc5F)c5ccc([nH]5)c(-c5cc(S(=O)(=O)[O-])ccc5F)c5nc(c(-c6cc(S(=O)(=O)[O-])ccc6F)c6ccc3[nH]6)C=C5)C=C4)cc2)cc1Br
REMARK SMILES IDX 18 1 17 2 16 3 14 4 15 5 13 6 10 7 11 8 89 9 12 10 88 11
REMARK SMILES IDX 90 12 7 13 8 14 9 15 2 16 1 17 3 18 4 19 5 20 6 21 19 24
REMARK SMILES IDX 20 25 21 26 22 27 23 28 24 29 25 30 26 31 87 32 27 33 86 34
REMARK SMILES IDX 28 35 29 36 30 37 80 38 31 39 85 40 79 41 81 42 32 43 84 44
REMARK SMILES IDX 78 45 77 46 33 48 65 49 45 50 64 51 46 52 49 53 63 54 82 55
REMARK SMILES IDX 47 56 48 57 62 59 83 60 50 61 34 62 35 63 43 64 36 65 42 66
REMARK SMILES IDX 44 67 41 68 37 69 38 70 39 71 40 72 66 73 67 74 75 75 68 76
REMARK SMILES IDX 74 77 76 78 73 79 69 80 70 81 71 82 72 83 51 84 52 85 60 86
REMARK SMILES IDX 53 87 59 88 61 89 58 90 54 91 55 92 56 93 57 94
REMARK H PARENT 5 22 5 23 81 47 49 58
REMARK Flexibility Score: inf
ROOT
ATOM      1  C   UNL A   1      31.794  28.710  27.243  1.00  0.00     0.202 C 
ENDROOT
BRANCH   1   2
ATOM      2  C   UNL A   1      31.918  27.308  26.638  1.00  0.00     0.261 C 
BRANCH   2   3
ATOM      3  O   UNL A   1      30.716  26.545  26.859  1.00  0.00    -0.460 OA
BRANCH   3   4
ATOM      4  C   UNL A   1      30.251  25.887  25.773  1.00  0.00     0.338 C 
ATOM      5  O   UNL A   1      29.425  26.279  24.965  1.00  0.00    -0.246 OA
BRANCH   4   6
ATOM      6  C   UNL A   1      31.016  24.638  25.570  1.00  0.00     0.061 A 
ATOM      7  C   UNL A   1      32.609  22.334  25.380  1.00  0.00     0.096 A 
ATOM      8  C   UNL A   1      31.890  22.622  26.558  1.00  0.00     0.024 A 
ATOM      9  C   UNL A   1      32.502  23.196  24.283  1.00  0.00     0.038 A 
ATOM     10  C   UNL A   1      31.116  23.773  26.659  1.00  0.00     0.017 A 
ATOM     11  C   UNL A   1      31.672  24.334  24.372  1.00  0.00     0.032 A 
ATOM     12  Br  UNL A   1      33.475  23.041  22.663  1.00  0.00    -0.049 Br
BRANCH   7  13
ATOM     13  S   UNL A   1      33.719  20.952  25.541  1.00  0.00     0.244 S 
ATOM     14  O   UNL A   1      33.748  20.304  24.249  1.00  0.00    -0.207 OA
ATOM     15  O   UNL A   1      33.255  20.233  26.714  1.00  0.00    -0.207 OA
BRANCH  13  16
ATOM     16  N   UNL A   1      35.287  21.503  25.846  1.00  0.00    -0.192 NA
ATOM     17  C   UNL A   1      36.328  20.730  25.122  1.00  0.00     0.125 C 
BRANCH  16  18
ATOM     18  C   UNL A   1      35.522  22.968  25.786  1.00  0.00     0.201 C 
BRANCH  18  19
ATOM     19  C   UNL A   1      36.970  23.407  25.633  1.00  0.00     0.232 C 
ATOM     20  N   UNL A   1      37.728  23.372  26.768  1.00  0.00    -0.369 N 
ATOM     21  O   UNL A   1      37.466  23.752  24.564  1.00  0.00    -0.274 OA
ATOM     22  H   UNL A   1      37.323  23.095  27.622  1.00  0.00     0.159 HD
ATOM     23  H   UNL A   1      38.679  23.625  26.732  1.00  0.00     0.159 HD
ENDBRANCH  18  19
ENDBRANCH  16  18
ENDBRANCH  13  16
ENDBRANCH   7  13
ENDBRANCH   4   6
ENDBRANCH   3   4
ENDBRANCH   2   3
ENDBRANCH   1   2
BRANCH   1  24
ATOM     24  O   UNL A   1      31.245  29.691  26.360  1.00  0.00    -0.374 OA
BRANCH  24  25
ATOM     25  C   UNL A   1      32.044  30.855  26.140  1.00  0.00     0.202 C 
BRANCH  25  26
ATOM     26  C   UNL A   1      31.643  32.086  26.961  1.00  0.00     0.261 C 
BRANCH  26  27
ATOM     27  O   UNL A   1      32.599  33.150  26.801  1.00  0.00    -0.460 OA
BRANCH  27  28
ATOM     28  C   UNL A   1      33.098  33.638  27.964  1.00  0.00     0.338 C 
ATOM     29  O   UNL A   1      32.535  34.394  28.739  1.00  0.00    -0.246 OA
BRANCH  28  30
ATOM     30  C   UNL A   1      34.384  32.981  28.280  1.00  0.00     0.060 A 
ATOM     31  C   UNL A   1      34.327  31.668  28.761  1.00  0.00     0.016 A 
ATOM     32  C   UNL A   1      35.613  33.637  28.161  1.00  0.00     0.016 A 
ATOM     33  C   UNL A   1      35.489  31.026  29.181  1.00  0.00     0.010 A 
ATOM     34  C   UNL A   1      36.780  32.991  28.588  1.00  0.00     0.010 A 
ATOM     35  C   UNL A   1      36.718  31.696  29.135  1.00  0.00    -0.014 A 
BRANCH  35  36
ATOM     36  C   UNL A   1      37.895  31.092  29.807  1.00  0.00     0.031 A 
ATOM     37  C   UNL A   1      38.188  31.464  31.236  1.00  0.00     0.074 A 
ATOM     38  C   UNL A   1      38.657  30.182  29.173  1.00  0.00     0.049 A 
ATOM     39  N   UNL A   1      39.146  31.046  32.024  1.00  0.00    -0.248 NA
ATOM     40  C   UNL A   1      37.279  32.440  31.856  1.00  0.00     0.031 C 
ATOM     41  C   UNL A   1      38.449  29.716  27.802  1.00  0.00     0.029 A 
ATOM     42  N   UNL A   1      39.759  29.485  29.601  1.00  0.00    -0.354 N 
ATOM     43  C   UNL A   1      38.954  31.705  33.234  1.00  0.00     0.074 A 
ATOM     44  C   UNL A   1      37.814  32.582  33.059  1.00  0.00     0.031 C 
ATOM     45  C   UNL A   1      39.398  28.812  27.501  1.00  0.00     0.029 A 
ATOM     46  C   UNL A   1      40.296  28.657  28.644  1.00  0.00     0.049 A 
ATOM     47  H   UNL A   1      40.131  29.571  30.509  1.00  0.00     0.167 HD
ATOM     48  C   UNL A   1      39.655  31.582  34.389  1.00  0.00     0.034 A 
ATOM     49  C   UNL A   1      41.395  27.876  28.682  1.00  0.00     0.034 A 
ATOM     50  C   UNL A   1      40.795  30.713  34.546  1.00  0.00     0.049 A 
ATOM     51  C   UNL A   1      42.203  27.809  29.955  1.00  0.00     0.074 A 
ATOM     52  C   UNL A   1      41.567  30.499  35.676  1.00  0.00     0.029 A 
ATOM     53  N   UNL A   1      41.337  29.920  33.542  1.00  0.00    -0.354 N 
ATOM     54  N   UNL A   1      41.998  28.422  31.099  1.00  0.00    -0.248 NA
ATOM     55  C   UNL A   1      43.381  26.932  29.947  1.00  0.00     0.031 C 
ATOM     56  C   UNL A   1      42.614  29.632  35.336  1.00  0.00     0.029 A 
ATOM     57  C   UNL A   1      42.451  29.245  34.015  1.00  0.00     0.049 A 
ATOM     58  H   UNL A   1      40.980  29.849  32.627  1.00  0.00     0.167 HD
ATOM     59  C   UNL A   1      43.008  27.981  31.952  1.00  0.00     0.074 A 
ATOM     60  C   UNL A   1      43.807  27.040  31.197  1.00  0.00     0.031 C 
ATOM     61  C   UNL A   1      43.249  28.320  33.245  1.00  0.00     0.034 A 
BRANCH  48  62
ATOM     62  C   UNL A   1      39.233  32.449  35.550  1.00  0.00     0.023 A 
ATOM     63  C   UNL A   1      39.668  33.780  35.676  1.00  0.00     0.031 A 
ATOM     64  C   UNL A   1      38.409  31.927  36.562  1.00  0.00     0.131 A 
ATOM     65  C   UNL A   1      39.331  34.521  36.821  1.00  0.00     0.055 A 
ATOM     66  C   UNL A   1      38.015  32.693  37.660  1.00  0.00     0.041 A 
ATOM     67  F   UNL A   1      37.983  30.655  36.506  1.00  0.00    -0.206 F 
ATOM     68  C   UNL A   1      38.489  33.994  37.801  1.00  0.00     0.022 A 
BRANCH  65  69
ATOM     69  S   UNL A   1      40.123  36.134  37.075  1.00  0.00     0.124 S 
ATOM     70  O   UNL A   1      41.488  35.742  37.415  1.00  0.00    -0.237 OA
ATOM     71  O   UNL A   1      39.946  36.778  35.779  1.00  0.00    -0.237 OA
ATOM     72  O   UNL A   1      39.358  36.720  38.174  1.00  0.00    -0.744 OA
ENDBRANCH  65  69
ENDBRANCH  48  62
BRANCH  49  73
ATOM     73  C   UNL A   1      41.826  27.120  27.471  1.00  0.00     0.023 A 
ATOM     74  C   UNL A   1      41.661  25.729  27.380  1.00  0.00     0.031 A 
ATOM     75  C   UNL A   1      42.469  27.780  26.407  1.00  0.00     0.131 A 
ATOM     76  C   UNL A   1      42.174  25.036  26.272  1.00  0.00     0.055 A 
ATOM     77  C   UNL A   1      42.932  27.092  25.284  1.00  0.00     0.041 A 
ATOM     78  F   UNL A   1      42.652  29.109  26.443  1.00  0.00    -0.206 F 
ATOM     79  C   UNL A   1      42.798  25.709  25.218  1.00  0.00     0.022 A 
BRANCH  76  80
ATOM     80  S   UNL A   1      42.088  23.224  26.266  1.00  0.00     0.124 S 
ATOM     81  O   UNL A   1      42.907  22.884  27.423  1.00  0.00    -0.237 OA
ATOM     82  O   UNL A   1      40.654  22.990  26.402  1.00  0.00    -0.237 OA
ATOM     83  O   UNL A   1      42.656  22.861  24.969  1.00  0.00    -0.744 OA
ENDBRANCH  76  80
ENDBRANCH  49  73
BRANCH  61  84
ATOM     84  C   UNL A   1      44.406  27.630  33.929  1.00  0.00     0.023 A 
ATOM     85  C   UNL A   1      44.216  26.498  34.742  1.00  0.00     0.031 A 
ATOM     86  C   UNL A   1      45.713  28.123  33.776  1.00  0.00     0.131 A 
ATOM     87  C   UNL A   1      45.308  25.935  35.420  1.00  0.00     0.055 A 
ATOM     88  C   UNL A   1      46.804  27.521  34.406  1.00  0.00     0.041 A 
ATOM     89  F   UNL A   1      45.952  29.201  33.012  1.00  0.00    -0.206 F 
ATOM     90  C   UNL A   1      46.603  26.429  35.244  1.00  0.00     0.022 A 
BRANCH  87  91
ATOM     91  S   UNL A   1      44.998  24.602  36.612  1.00  0.00     0.124 S 
ATOM     92  O   UNL A   1      45.291  23.412  35.820  1.00  0.00    -0.237 OA
ATOM     93  O   UNL A   1      45.948  24.909  37.677  1.00  0.00    -0.237 OA
ATOM     94  O   UNL A   1      43.591  24.780  36.967  1.00  0.00    -0.744 OA
ENDBRANCH  87  91
ENDBRANCH  61  84
ENDBRANCH  35  36
ENDBRANCH  28  30
ENDBRANCH  27  28
ENDBRANCH  26  27
ENDBRANCH  25  26
ENDBRANCH  24  25
ENDBRANCH   1  24
TORSDOF 21
ENDMDL
MODEL 3
REMARK VINA RESULT:     -10.0      5.020     10.208
REMARK SMILES CN(CC(N)=O)S(=O)(=O)c1ccc(C(=O)OCCOCCOC(=O)c2ccc(-c3c4nc(c(-c5cc(S(=O)(=O)[O-])ccc5F)c5ccc([nH]5)c(-c5cc(S(=O)(=O)[O-])ccc5F)c5nc(c(-c6cc(S(=O)(=O)[O-])ccc6F)c6ccc3[nH]6)C=C5)C=C4)cc2)cc1Br
REMARK SMILES IDX 18 1 17 2 16 3 14 4 15 5 13 6 10 7 11 8 89 9 12 10 88 11
REMARK SMILES IDX 90 12 7 13 8 14 9 15 2 16 1 17 3 18 4 19 5 20 6 21 19 24
REMARK SMILES IDX 20 25 21 26 22 27 23 28 24 29 25 30 26 31 87 32 27 33 86 34
REMARK SMILES IDX 28 35 29 36 30 37 80 38 31 39 85 40 79 41 81 42 32 43 84 44
REMARK SMILES IDX 78 45 77 46 33 48 65 49 45 50 64 51 46 52 49 53 63 54 82 55
REMARK SMILES IDX 47 56 48 57 62 59 83 60 50 61 34 62 35 63 43 64 36 65 42 66
REMARK SMILES IDX 44 67 41 68 37 69 38 70 39 71 40 72 66 73 67 74 75 75 68 76
REMARK SMILES IDX 74 77 76 78 73 79 69 80 70 81 71 82 72 83 51 84 52 85 60 86
REMARK SMILES IDX 53 87 59 88 61 89 58 90 54 91 55 92 56 93 57 94
REMARK H PARENT 5 22 5 23 81 47 49 58
REMARK Flexibility Score: inf
ROOT
ATOM      1  C   UNL A   1      35.102  21.062  24.992  1.00  0.00     0.202 C 
ENDROOT
BRANCH   1   2
ATOM      2  C   UNL A   1      34.073  19.949  24.771  1.00  0.00     0.261 C 
BRANCH   2   3
ATOM      3  O   UNL A   1      32.738  20.489  24.709  1.00  0.00    -0.460 OA
BRANCH   3   4
ATOM      4  C   UNL A   1      32.357  20.925  23.487  1.00  0.00     0.338 C 
ATOM      5  O   UNL A   1      32.044  20.247  22.522  1.00  0.00    -0.246 OA
BRANCH   4   6
ATOM      6  C   UNL A   1      32.198  22.394  23.499  1.00  0.00     0.061 A 
ATOM      7  C   UNL A   1      32.145  25.201  23.555  1.00  0.00     0.096 A 
ATOM      8  C   UNL A   1      32.914  24.511  22.597  1.00  0.00     0.024 A 
ATOM      9  C   UNL A   1      31.376  24.474  24.470  1.00  0.00     0.038 A 
ATOM     10  C   UNL A   1      32.956  23.120  22.581  1.00  0.00     0.017 A 
ATOM     11  C   UNL A   1      31.380  23.064  24.415  1.00  0.00     0.032 A 
ATOM     12  Br  UNL A   1      30.373  25.216  25.898  1.00  0.00    -0.049 Br
BRANCH   7  13
ATOM     13  S   UNL A   1      32.417  26.960  23.556  1.00  0.00     0.244 S 
ATOM     14  O   UNL A   1      32.832  27.306  22.215  1.00  0.00    -0.207 OA
ATOM     15  O   UNL A   1      33.298  27.203  24.684  1.00  0.00    -0.207 OA
BRANCH  13  16
ATOM     16  N   UNL A   1      30.961  27.769  23.839  1.00  0.00    -0.192 NA
ATOM     17  C   UNL A   1      31.111  28.943  24.735  1.00  0.00     0.125 C 
BRANCH  16  18
ATOM     18  C   UNL A   1      30.097  28.055  22.666  1.00  0.00     0.201 C 
BRANCH  18  19
ATOM     19  C   UNL A   1      30.062  29.502  22.200  1.00  0.00     0.232 C 
ATOM     20  N   UNL A   1      31.191  29.959  21.583  1.00  0.00    -0.369 N 
ATOM     21  O   UNL A   1      29.084  30.235  22.330  1.00  0.00    -0.274 OA
ATOM     22  H   UNL A   1      31.971  29.366  21.482  1.00  0.00     0.159 HD
ATOM     23  H   UNL A   1      31.225  30.881  21.240  1.00  0.00     0.159 HD
ENDBRANCH  18  19
ENDBRANCH  16  18
ENDBRANCH  13  16
ENDBRANCH   7  13
ENDBRANCH   4   6
ENDBRANCH   3   4
ENDBRANCH   2   3
ENDBRANCH   1   2
BRANCH   1  24
ATOM     24  O   UNL A   1      36.431  20.601  25.245  1.00  0.00    -0.374 OA
BRANCH  24  25
ATOM     25  C   UNL A   1      37.395  21.606  25.565  1.00  0.00     0.202 C 
BRANCH  25  26
ATOM     26  C   UNL A   1      38.858  21.184  25.395  1.00  0.00     0.261 C 
BRANCH  26  27
ATOM     27  O   UNL A   1      39.613  21.432  26.595  1.00  0.00    -0.460 OA
BRANCH  27  28
ATOM     28  C   UNL A   1      40.824  22.007  26.389  1.00  0.00     0.338 C 
ATOM     29  O   UNL A   1      41.709  21.600  25.654  1.00  0.00    -0.246 OA
BRANCH  28  30
ATOM     30  C   UNL A   1      40.878  23.328  27.050  1.00  0.00     0.060 A 
ATOM     31  C   UNL A   1      40.345  24.415  26.346  1.00  0.00     0.016 A 
ATOM     32  C   UNL A   1      41.476  23.521  28.299  1.00  0.00     0.016 A 
ATOM     33  C   UNL A   1      40.459  25.704  26.859  1.00  0.00     0.010 A 
ATOM     34  C   UNL A   1      41.594  24.820  28.811  1.00  0.00     0.010 A 
ATOM     35  C   UNL A   1      41.119  25.920  28.076  1.00  0.00    -0.014 A 
BRANCH  35  36
ATOM     36  C   UNL A   1      41.442  27.310  28.484  1.00  0.00     0.031 A 
ATOM     37  C   UNL A   1      42.876  27.767  28.440  1.00  0.00     0.074 A 
ATOM     38  C   UNL A   1      40.467  28.170  28.832  1.00  0.00     0.049 A 
ATOM     39  N   UNL A   1      43.386  28.936  28.731  1.00  0.00    -0.248 NA
ATOM     40  C   UNL A   1      43.867  26.766  28.014  1.00  0.00     0.031 C 
ATOM     41  C   UNL A   1      39.040  27.853  28.875  1.00  0.00     0.029 A 
ATOM     42  N   UNL A   1      40.531  29.486  29.213  1.00  0.00    -0.354 N 
ATOM     43  C   UNL A   1      44.755  28.815  28.521  1.00  0.00     0.074 A 
ATOM     44  C   UNL A   1      44.999  27.445  28.119  1.00  0.00     0.031 C 
ATOM     45  C   UNL A   1      38.363  28.947  29.267  1.00  0.00     0.029 A 
ATOM     46  C   UNL A   1      39.309  30.031  29.529  1.00  0.00     0.049 A 
ATOM     47  H   UNL A   1      41.374  29.994  29.256  1.00  0.00     0.167 HD
ATOM     48  C   UNL A   1      45.720  29.761  28.638  1.00  0.00     0.034 A 
ATOM     49  C   UNL A   1      38.992  31.258  29.991  1.00  0.00     0.034 A 
ATOM     50  C   UNL A   1      45.465  31.120  29.050  1.00  0.00     0.049 A 
ATOM     51  C   UNL A   1      40.091  32.275  30.184  1.00  0.00     0.074 A 
ATOM     52  C   UNL A   1      46.365  32.164  29.185  1.00  0.00     0.029 A 
ATOM     53  N   UNL A   1      44.219  31.624  29.403  1.00  0.00    -0.354 N 
ATOM     54  N   UNL A   1      41.380  32.152  29.961  1.00  0.00    -0.248 NA
ATOM     55  C   UNL A   1      39.690  33.599  30.675  1.00  0.00     0.031 C 
ATOM     56  C   UNL A   1      45.677  33.276  29.686  1.00  0.00     0.029 A 
ATOM     57  C   UNL A   1      44.333  32.951  29.790  1.00  0.00     0.049 A 
ATOM     58  H   UNL A   1      43.378  31.113  29.382  1.00  0.00     0.167 HD
ATOM     59  C   UNL A   1      41.937  33.394  30.260  1.00  0.00     0.074 A 
ATOM     60  C   UNL A   1      40.842  34.253  30.662  1.00  0.00     0.031 C 
ATOM     61  C   UNL A   1      43.234  33.791  30.203  1.00  0.00     0.034 A 
BRANCH  48  62
ATOM     62  C   UNL A   1      47.143  29.337  28.367  1.00  0.00     0.023 A 
ATOM     63  C   UNL A   1      47.583  29.008  27.073  1.00  0.00     0.031 A 
ATOM     64  C   UNL A   1      48.064  29.231  29.423  1.00  0.00     0.131 A 
ATOM     65  C   UNL A   1      48.888  28.525  26.879  1.00  0.00     0.055 A 
ATOM     66  C   UNL A   1      49.382  28.823  29.213  1.00  0.00     0.041 A 
ATOM     67  F   UNL A   1      47.693  29.509  30.683  1.00  0.00    -0.206 F 
ATOM     68  C   UNL A   1      49.797  28.453  27.936  1.00  0.00     0.022 A 
BRANCH  65  69
ATOM     69  S   UNL A   1      49.336  27.864  25.251  1.00  0.00     0.124 S 
ATOM     70  O   UNL A   1      48.125  28.134  24.479  1.00  0.00    -0.237 OA
ATOM     71  O   UNL A   1      50.508  28.656  24.901  1.00  0.00    -0.237 OA
ATOM     72  O   UNL A   1      49.594  26.449  25.515  1.00  0.00    -0.744 OA
ENDBRANCH  65  69
ENDBRANCH  48  62
BRANCH  49  73
ATOM     73  C   UNL A   1      37.582  31.591  30.344  1.00  0.00     0.023 A 
ATOM     74  C   UNL A   1      36.670  32.028  29.371  1.00  0.00     0.031 A 
ATOM     75  C   UNL A   1      37.146  31.532  31.680  1.00  0.00     0.131 A 
ATOM     76  C   UNL A   1      35.381  32.434  29.754  1.00  0.00     0.055 A 
ATOM     77  C   UNL A   1      35.848  31.889  32.048  1.00  0.00     0.041 A 
ATOM     78  F   UNL A   1      37.977  31.121  32.649  1.00  0.00    -0.206 F 
ATOM     79  C   UNL A   1      34.960  32.357  31.084  1.00  0.00     0.022 A 
BRANCH  76  80
ATOM     80  S   UNL A   1      34.286  33.148  28.497  1.00  0.00     0.124 S 
ATOM     81  O   UNL A   1      33.458  34.043  29.296  1.00  0.00    -0.237 OA
ATOM     82  O   UNL A   1      35.239  33.787  27.595  1.00  0.00    -0.237 OA
ATOM     83  O   UNL A   1      33.596  31.982  27.947  1.00  0.00    -0.744 OA
ENDBRANCH  76  80
ENDBRANCH  49  73
BRANCH  61  84
ATOM     84  C   UNL A   1      43.525  35.233  30.547  1.00  0.00     0.023 A 
ATOM     85  C   UNL A   1      43.447  36.254  29.584  1.00  0.00     0.031 A 
ATOM     86  C   UNL A   1      43.901  35.585  31.855  1.00  0.00     0.131 A 
ATOM     87  C   UNL A   1      43.800  37.568  29.927  1.00  0.00     0.055 A 
ATOM     88  C   UNL A   1      44.193  36.905  32.206  1.00  0.00     0.041 A 
ATOM     89  F   UNL A   1      43.991  34.652  32.815  1.00  0.00    -0.206 F 
ATOM     90  C   UNL A   1      44.156  37.902  31.236  1.00  0.00     0.022 A 
BRANCH  87  91
ATOM     91  S   UNL A   1      43.879  38.819  28.616  1.00  0.00     0.124 S 
ATOM     92  O   UNL A   1      42.685  39.615  28.884  1.00  0.00    -0.237 OA
ATOM     93  O   UNL A   1      45.155  39.474  28.886  1.00  0.00    -0.237 OA
ATOM     94  O   UNL A   1      43.835  38.031  27.386  1.00  0.00    -0.744 OA
ENDBRANCH  87  91
ENDBRANCH  61  84
ENDBRANCH  35  36
ENDBRANCH  28  30
ENDBRANCH  27  28
ENDBRANCH  26  27
ENDBRANCH  25  26
ENDBRANCH  24  25
ENDBRANCH   1  24
TORSDOF 21
ENDMDL
