MODEL 1
REMARK VINA RESULT:      -7.9      0.000      0.000
REMARK SMILES CC[C@@H](Oc1ccc(/C=C2\SC(=S)N(NC(=O)c3ccccc3O)C2=O)cc1)C(=O)OCCOCCOC(=O)c1ccc(-c2c3nc(c(-c4cc(S(=O)(=O)[O-])ccc4F)c4ccc([nH]4)c(-c4cc(S(=O)(=O)[O-])ccc4F)c4nc(c(-c5cc(S(=O)(=O)[O-])ccc5F)c5ccc2[nH]5)C=C4)C=C3)cc1
REMARK SMILES IDX 32 1 31 2 29 3 30 4 3 5 2 6 1 7 4 8 5 9 6 10 28 11 7 12
REMARK SMILES IDX 27 13 8 14 9 15 10 16 11 17 25 18 12 19 14 20 26 21 13 22
REMARK SMILES IDX 15 23 16 24 17 26 18 27 19 28 23 29 20 30 22 31 21 32 24 33
REMARK SMILES IDX 33 35 34 36 35 37 36 38 37 39 38 40 39 41 40 42 41 43 102 44
REMARK SMILES IDX 42 45 101 46 43 47 44 48 45 49 95 50 46 51 100 52 94 53
REMARK SMILES IDX 96 54 47 55 99 56 93 57 92 58 48 60 80 61 60 62 79 63 61 64
REMARK SMILES IDX 64 65 78 66 97 67 62 68 63 69 77 71 98 72 65 73 49 74 50 75
REMARK SMILES IDX 58 76 51 77 57 78 59 79 56 80 52 81 53 82 54 83 55 84 81 85
REMARK SMILES IDX 82 86 90 87 83 88 89 89 91 90 88 91 84 92 85 93 86 94 87 95
REMARK SMILES IDX 66 96 67 97 75 98 68 99 74 100 76 101 73 102 69 103 70 104
REMARK SMILES IDX 71 105 72 106
REMARK H PARENT 15 25 24 34 96 59 64 70
REMARK Flexibility Score: inf
ROOT
ATOM      1  C   UNL A   1      34.790  33.786  28.867  1.00  0.00     0.261 C 
ENDROOT
BRANCH   1   2
ATOM      2  O   UNL A   1      34.785  32.354  28.983  1.00  0.00    -0.461 OA
BRANCH   2   3
ATOM      3  C   UNL A   1      35.812  31.778  29.670  1.00  0.00     0.347 C 
ATOM      4  O   UNL A   1      35.709  31.244  30.769  1.00  0.00    -0.248 OA
BRANCH   3   5
ATOM      5  C   UNL A   1      37.136  31.874  28.904  1.00  0.00     0.282 C 
BRANCH   5   6
ATOM      6  C   UNL A   1      38.214  32.627  29.711  1.00  0.00     0.054 C 
ATOM      7  C   UNL A   1      38.440  34.069  29.277  1.00  0.00     0.008 C 
ENDBRANCH   5   6
BRANCH   5   8
ATOM      8  O   UNL A   1      37.435  30.491  28.730  1.00  0.00    -0.479 OA
BRANCH   8   9
ATOM      9  C   UNL A   1      38.699  30.017  28.866  1.00  0.00     0.120 A 
ATOM     10  C   UNL A   1      39.032  29.070  27.897  1.00  0.00     0.047 A 
ATOM     11  C   UNL A   1      39.615  30.323  29.866  1.00  0.00     0.047 A 
ATOM     12  C   UNL A   1      40.216  28.348  27.985  1.00  0.00     0.012 A 
ATOM     13  C   UNL A   1      40.795  29.579  29.980  1.00  0.00     0.012 A 
ATOM     14  C   UNL A   1      41.072  28.558  29.064  1.00  0.00    -0.024 A 
BRANCH  14  15
ATOM     15  C   UNL A   1      42.174  27.617  29.248  1.00  0.00     0.029 C 
ATOM     16  C   UNL A   1      43.378  27.768  28.681  1.00  0.00     0.082 C 
ATOM     17  S   UNL A   1      43.874  28.948  27.523  1.00  0.00    -0.052 SA
ATOM     18  C   UNL A   1      44.486  26.818  28.948  1.00  0.00     0.285 C 
ATOM     19  C   UNL A   1      45.322  28.048  27.104  1.00  0.00     0.168 C 
ATOM     20  N   UNL A   1      45.420  26.946  27.931  1.00  0.00    -0.198 N 
ATOM     21  O   UNL A   1      44.532  26.071  29.915  1.00  0.00    -0.266 OA
ATOM     22  S   UNL A   1      46.375  28.491  25.887  1.00  0.00    -0.050 S 
BRANCH  20  23
ATOM     23  N   UNL A   1      46.456  26.013  27.774  1.00  0.00    -0.254 N 
ATOM     24  C   UNL A   1      46.337  24.803  27.119  1.00  0.00     0.274 C 
ATOM     25  H   UNL A   1      47.333  26.238  28.160  1.00  0.00     0.192 HD
ATOM     26  O   UNL A   1      47.326  24.106  26.905  1.00  0.00    -0.267 OA
BRANCH  24  27
ATOM     27  C   UNL A   1      45.009  24.297  26.711  1.00  0.00     0.083 A 
ATOM     28  C   UNL A   1      44.581  24.637  25.420  1.00  0.00     0.018 A 
ATOM     29  C   UNL A   1      44.227  23.447  27.500  1.00  0.00     0.128 A 
ATOM     30  C   UNL A   1      43.413  24.081  24.902  1.00  0.00     0.001 A 
ATOM     31  C   UNL A   1      43.067  22.880  26.974  1.00  0.00     0.047 A 
ATOM     32  C   UNL A   1      42.663  23.192  25.672  1.00  0.00     0.004 A 
BRANCH  29  33
ATOM     33  O   UNL A   1      44.547  23.098  28.782  1.00  0.00    -0.507 OA
ATOM     34  H   UNL A   1      45.325  22.603  28.951  1.00  0.00     0.293 HD
ENDBRANCH  29  33
ENDBRANCH  24  27
ENDBRANCH  20  23
ENDBRANCH  14  15
ENDBRANCH   8   9
ENDBRANCH   5   8
ENDBRANCH   3   5
ENDBRANCH   2   3
ENDBRANCH   1   2
BRANCH   1  35
ATOM     35  C   UNL A   1      34.805  34.447  30.248  1.00  0.00     0.202 C 
BRANCH  35  36
ATOM     36  O   UNL A   1      33.523  34.702  30.826  1.00  0.00    -0.374 OA
BRANCH  36  37
ATOM     37  C   UNL A   1      33.443  34.781  32.246  1.00  0.00     0.202 C 
BRANCH  37  38
ATOM     38  C   UNL A   1      34.263  33.753  33.034  1.00  0.00     0.261 C 
BRANCH  38  39
ATOM     39  O   UNL A   1      35.570  34.241  33.387  1.00  0.00    -0.460 OA
BRANCH  39  40
ATOM     40  C   UNL A   1      35.995  33.859  34.615  1.00  0.00     0.338 C 
ATOM     41  O   UNL A   1      35.396  34.009  35.674  1.00  0.00    -0.246 OA
BRANCH  40  42
ATOM     42  C   UNL A   1      37.238  33.072  34.525  1.00  0.00     0.060 A 
ATOM     43  C   UNL A   1      38.355  33.562  35.213  1.00  0.00     0.016 A 
ATOM     44  C   UNL A   1      37.353  31.945  33.706  1.00  0.00     0.016 A 
ATOM     45  C   UNL A   1      39.602  32.966  35.041  1.00  0.00     0.010 A 
ATOM     46  C   UNL A   1      38.610  31.349  33.530  1.00  0.00     0.010 A 
ATOM     47  C   UNL A   1      39.746  31.880  34.166  1.00  0.00    -0.014 A 
BRANCH  47  48
ATOM     48  C   UNL A   1      41.113  31.417  33.810  1.00  0.00     0.031 A 
ATOM     49  C   UNL A   1      41.820  32.055  32.643  1.00  0.00     0.074 A 
ATOM     50  C   UNL A   1      41.741  30.486  34.550  1.00  0.00     0.049 A 
ATOM     51  N   UNL A   1      43.009  31.812  32.157  1.00  0.00    -0.248 NA
ATOM     52  C   UNL A   1      41.081  33.110  31.931  1.00  0.00     0.031 C 
ATOM     53  C   UNL A   1      41.180  29.829  35.729  1.00  0.00     0.029 A 
ATOM     54  N   UNL A   1      42.990  29.931  34.417  1.00  0.00    -0.354 N 
ATOM     55  C   UNL A   1      43.169  32.686  31.086  1.00  0.00     0.074 A 
ATOM     56  C   UNL A   1      41.934  33.433  30.969  1.00  0.00     0.031 C 
ATOM     57  C   UNL A   1      42.078  28.950  36.207  1.00  0.00     0.029 A 
ATOM     58  C   UNL A   1      43.265  28.961  35.352  1.00  0.00     0.049 A 
ATOM     59  H   UNL A   1      43.627  30.202  33.719  1.00  0.00     0.167 HD
ATOM     60  C   UNL A   1      44.247  32.859  30.281  1.00  0.00     0.034 A 
ATOM     61  C   UNL A   1      44.339  28.156  35.488  1.00  0.00     0.034 A 
ATOM     62  C   UNL A   1      45.467  32.096  30.396  1.00  0.00     0.049 A 
ATOM     63  C   UNL A   1      45.494  28.305  34.527  1.00  0.00     0.074 A 
ATOM     64  C   UNL A   1      46.620  32.192  29.635  1.00  0.00     0.029 A 
ATOM     65  N   UNL A   1      45.690  31.087  31.323  1.00  0.00    -0.354 N 
ATOM     66  N   UNL A   1      45.632  29.138  33.520  1.00  0.00    -0.248 NA
ATOM     67  C   UNL A   1      46.642  27.409  34.727  1.00  0.00     0.031 C 
ATOM     68  C   UNL A   1      47.511  31.199  30.058  1.00  0.00     0.029 A 
ATOM     69  C   UNL A   1      46.946  30.531  31.132  1.00  0.00     0.049 A 
ATOM     70  H   UNL A   1      45.049  30.807  32.016  1.00  0.00     0.167 HD
ATOM     71  C   UNL A   1      46.893  28.883  32.987  1.00  0.00     0.074 A 
ATOM     72  C   UNL A   1      47.479  27.830  33.790  1.00  0.00     0.031 C 
ATOM     73  C   UNL A   1      47.514  29.470  31.932  1.00  0.00     0.034 A 
BRANCH  60  74
ATOM     74  C   UNL A   1      44.127  33.880  29.176  1.00  0.00     0.023 A 
ATOM     75  C   UNL A   1      43.965  33.500  27.832  1.00  0.00     0.031 A 
ATOM     76  C   UNL A   1      44.208  35.253  29.467  1.00  0.00     0.131 A 
ATOM     77  C   UNL A   1      43.958  34.477  26.825  1.00  0.00     0.055 A 
ATOM     78  C   UNL A   1      44.124  36.224  28.467  1.00  0.00     0.041 A 
ATOM     79  F   UNL A   1      44.384  35.675  30.728  1.00  0.00    -0.206 F 
ATOM     80  C   UNL A   1      44.013  35.838  27.134  1.00  0.00     0.022 A 
BRANCH  77  81
ATOM     81  S   UNL A   1      44.016  33.938  25.093  1.00  0.00     0.124 S 
ATOM     82  O   UNL A   1      42.786  34.521  24.562  1.00  0.00    -0.237 OA
ATOM     83  O   UNL A   1      45.261  34.531  24.620  1.00  0.00    -0.237 OA
ATOM     84  O   UNL A   1      44.016  32.479  25.187  1.00  0.00    -0.744 OA
ENDBRANCH  77  81
ENDBRANCH  60  74
BRANCH  61  85
ATOM     85  C   UNL A   1      44.361  27.103  36.542  1.00  0.00     0.023 A 
ATOM     86  C   UNL A   1      44.648  27.414  37.881  1.00  0.00     0.031 A 
ATOM     87  C   UNL A   1      44.150  25.754  36.208  1.00  0.00     0.131 A 
ATOM     88  C   UNL A   1      44.756  26.383  38.829  1.00  0.00     0.055 A 
ATOM     89  C   UNL A   1      44.210  24.738  37.164  1.00  0.00     0.041 A 
ATOM     90  F   UNL A   1      43.873  25.403  34.942  1.00  0.00    -0.206 F 
ATOM     91  C   UNL A   1      44.528  25.050  38.482  1.00  0.00     0.022 A 
BRANCH  88  92
ATOM     92  S   UNL A   1      45.281  26.802  40.514  1.00  0.00     0.124 S 
ATOM     93  O   UNL A   1      44.256  26.146  41.317  1.00  0.00    -0.237 OA
ATOM     94  O   UNL A   1      46.615  26.213  40.570  1.00  0.00    -0.237 OA
ATOM     95  O   UNL A   1      45.246  28.263  40.529  1.00  0.00    -0.744 OA
ENDBRANCH  88  92
ENDBRANCH  61  85
BRANCH  73  96
ATOM     96  C   UNL A   1      48.917  29.011  31.617  1.00  0.00     0.023 A 
ATOM     97  C   UNL A   1      49.168  27.952  30.729  1.00  0.00     0.031 A 
ATOM     98  C   UNL A   1      50.018  29.639  32.227  1.00  0.00     0.131 A 
ATOM     99  C   UNL A   1      50.486  27.518  30.513  1.00  0.00     0.055 A 
ATOM    100  C   UNL A   1      51.330  29.239  31.966  1.00  0.00     0.041 A 
ATOM    101  F   UNL A   1      49.836  30.655  33.085  1.00  0.00    -0.206 F 
ATOM    102  C   UNL A   1      51.568  28.165  31.115  1.00  0.00     0.022 A 
BRANCH  99 103
ATOM    103  S   UNL A   1      50.763  26.040  29.497  1.00  0.00     0.124 S 
ATOM    104  O   UNL A   1      51.220  25.072  30.488  1.00  0.00    -0.237 OA
ATOM    105  O   UNL A   1      49.440  25.798  28.931  1.00  0.00    -0.237 OA
ATOM    106  O   UNL A   1      51.777  26.469  28.537  1.00  0.00    -0.744 OA
ENDBRANCH  99 103
ENDBRANCH  73  96
ENDBRANCH  47  48
ENDBRANCH  40  42
ENDBRANCH  39  40
ENDBRANCH  38  39
ENDBRANCH  37  38
ENDBRANCH  36  37
ENDBRANCH  35  36
ENDBRANCH   1  35
TORSDOF 24
ENDMDL
MODEL 2
REMARK VINA RESULT:      -7.8      2.088      2.677
REMARK SMILES CC[C@@H](Oc1ccc(/C=C2\SC(=S)N(NC(=O)c3ccccc3O)C2=O)cc1)C(=O)OCCOCCOC(=O)c1ccc(-c2c3nc(c(-c4cc(S(=O)(=O)[O-])ccc4F)c4ccc([nH]4)c(-c4cc(S(=O)(=O)[O-])ccc4F)c4nc(c(-c5cc(S(=O)(=O)[O-])ccc5F)c5ccc2[nH]5)C=C4)C=C3)cc1
REMARK SMILES IDX 32 1 31 2 29 3 30 4 3 5 2 6 1 7 4 8 5 9 6 10 28 11 7 12
REMARK SMILES IDX 27 13 8 14 9 15 10 16 11 17 25 18 12 19 14 20 26 21 13 22
REMARK SMILES IDX 15 23 16 24 17 26 18 27 19 28 23 29 20 30 22 31 21 32 24 33
REMARK SMILES IDX 33 35 34 36 35 37 36 38 37 39 38 40 39 41 40 42 41 43 102 44
REMARK SMILES IDX 42 45 101 46 43 47 44 48 45 49 95 50 46 51 100 52 94 53
REMARK SMILES IDX 96 54 47 55 99 56 93 57 92 58 48 60 80 61 60 62 79 63 61 64
REMARK SMILES IDX 64 65 78 66 97 67 62 68 63 69 77 71 98 72 65 73 49 74 50 75
REMARK SMILES IDX 58 76 51 77 57 78 59 79 56 80 52 81 53 82 54 83 55 84 81 85
REMARK SMILES IDX 82 86 90 87 83 88 89 89 91 90 88 91 84 92 85 93 86 94 87 95
REMARK SMILES IDX 66 96 67 97 75 98 68 99 74 100 76 101 73 102 69 103 70 104
REMARK SMILES IDX 71 105 72 106
REMARK H PARENT 15 25 24 34 96 59 64 70
REMARK Flexibility Score: inf
ROOT
ATOM      1  C   UNL A   1      34.593  33.252  29.935  1.00  0.00     0.261 C 
ENDROOT
BRANCH   1   2
ATOM      2  O   UNL A   1      34.916  31.904  30.315  1.00  0.00    -0.461 OA
BRANCH   2   3
ATOM      3  C   UNL A   1      36.184  31.471  30.065  1.00  0.00     0.347 C 
ATOM      4  O   UNL A   1      37.179  32.188  30.042  1.00  0.00    -0.248 OA
BRANCH   3   5
ATOM      5  C   UNL A   1      36.232  29.961  29.810  1.00  0.00     0.282 C 
BRANCH   5   6
ATOM      6  C   UNL A   1      36.333  29.633  28.306  1.00  0.00     0.054 C 
ATOM      7  C   UNL A   1      35.205  30.202  27.456  1.00  0.00     0.008 C 
ENDBRANCH   5   6
BRANCH   5   8
ATOM      8  O   UNL A   1      37.410  29.613  30.535  1.00  0.00    -0.479 OA
BRANCH   8   9
ATOM      9  C   UNL A   1      38.594  29.403  29.906  1.00  0.00     0.120 A 
ATOM     10  C   UNL A   1      39.023  28.078  29.981  1.00  0.00     0.047 A 
ATOM     11  C   UNL A   1      39.403  30.350  29.288  1.00  0.00     0.047 A 
ATOM     12  C   UNL A   1      40.294  27.716  29.550  1.00  0.00     0.012 A 
ATOM     13  C   UNL A   1      40.695  30.001  28.880  1.00  0.00     0.012 A 
ATOM     14  C   UNL A   1      41.157  28.692  29.056  1.00  0.00    -0.024 A 
BRANCH  14  15
ATOM     15  C   UNL A   1      42.552  28.317  28.844  1.00  0.00     0.029 C 
ATOM     16  C   UNL A   1      42.968  27.562  27.819  1.00  0.00     0.082 C 
ATOM     17  S   UNL A   1      42.013  26.742  26.638  1.00  0.00    -0.052 SA
ATOM     18  C   UNL A   1      44.406  27.260  27.611  1.00  0.00     0.285 C 
ATOM     19  C   UNL A   1      43.361  25.743  26.120  1.00  0.00     0.168 C 
ATOM     20  N   UNL A   1      44.500  26.145  26.791  1.00  0.00    -0.198 N 
ATOM     21  O   UNL A   1      45.321  27.912  28.093  1.00  0.00    -0.266 OA
ATOM     22  S   UNL A   1      43.233  24.514  24.999  1.00  0.00    -0.050 S 
BRANCH  20  23
ATOM     23  N   UNL A   1      45.719  25.473  26.615  1.00  0.00    -0.254 N 
ATOM     24  C   UNL A   1      46.194  24.469  27.435  1.00  0.00     0.274 C 
ATOM     25  H   UNL A   1      46.276  25.738  25.849  1.00  0.00     0.192 HD
ATOM     26  O   UNL A   1      47.203  23.837  27.133  1.00  0.00    -0.267 OA
BRANCH  24  27
ATOM     27  C   UNL A   1      45.528  24.172  28.721  1.00  0.00     0.083 A 
ATOM     28  C   UNL A   1      45.870  24.993  29.805  1.00  0.00     0.018 A 
ATOM     29  C   UNL A   1      44.538  23.195  28.876  1.00  0.00     0.128 A 
ATOM     30  C   UNL A   1      45.183  24.879  31.013  1.00  0.00     0.001 A 
ATOM     31  C   UNL A   1      43.842  23.094  30.079  1.00  0.00     0.047 A 
ATOM     32  C   UNL A   1      44.160  23.940  31.145  1.00  0.00     0.004 A 
BRANCH  29  33
ATOM     33  O   UNL A   1      44.173  22.327  27.886  1.00  0.00    -0.507 OA
ATOM     34  H   UNL A   1      43.308  22.365  27.526  1.00  0.00     0.293 HD
ENDBRANCH  29  33
ENDBRANCH  24  27
ENDBRANCH  20  23
ENDBRANCH  14  15
ENDBRANCH   8   9
ENDBRANCH   5   8
ENDBRANCH   3   5
ENDBRANCH   2   3
ENDBRANCH   1   2
BRANCH   1  35
ATOM     35  C   UNL A   1      34.804  34.215  31.108  1.00  0.00     0.202 C 
BRANCH  35  36
ATOM     36  O   UNL A   1      33.773  34.217  32.098  1.00  0.00    -0.374 OA
BRANCH  36  37
ATOM     37  C   UNL A   1      34.010  33.487  33.297  1.00  0.00     0.202 C 
BRANCH  37  38
ATOM     38  C   UNL A   1      35.387  32.828  33.435  1.00  0.00     0.261 C 
BRANCH  38  39
ATOM     39  O   UNL A   1      36.322  33.644  34.164  1.00  0.00    -0.460 OA
BRANCH  39  40
ATOM     40  C   UNL A   1      37.154  32.949  34.977  1.00  0.00     0.338 C 
ATOM     41  O   UNL A   1      36.890  32.516  36.092  1.00  0.00    -0.246 OA
BRANCH  40  42
ATOM     42  C   UNL A   1      38.415  32.621  34.288  1.00  0.00     0.060 A 
ATOM     43  C   UNL A   1      38.431  31.462  33.503  1.00  0.00     0.016 A 
ATOM     44  C   UNL A   1      39.587  33.357  34.484  1.00  0.00     0.016 A 
ATOM     45  C   UNL A   1      39.626  31.000  32.958  1.00  0.00     0.010 A 
ATOM     46  C   UNL A   1      40.791  32.888  33.939  1.00  0.00     0.010 A 
ATOM     47  C   UNL A   1      40.822  31.687  33.206  1.00  0.00    -0.014 A 
BRANCH  47  48
ATOM     48  C   UNL A   1      42.111  31.052  32.827  1.00  0.00     0.031 A 
ATOM     49  C   UNL A   1      42.813  31.512  31.576  1.00  0.00     0.074 A 
ATOM     50  C   UNL A   1      42.680  30.122  33.614  1.00  0.00     0.049 A 
ATOM     51  N   UNL A   1      43.941  31.103  31.056  1.00  0.00    -0.248 NA
ATOM     52  C   UNL A   1      42.148  32.578  30.810  1.00  0.00     0.031 C 
ATOM     53  C   UNL A   1      42.122  29.627  34.872  1.00  0.00     0.029 A 
ATOM     54  N   UNL A   1      43.856  29.426  33.471  1.00  0.00    -0.354 N 
ATOM     55  C   UNL A   1      44.129  31.865  29.907  1.00  0.00     0.074 A 
ATOM     56  C   UNL A   1      42.973  32.728  29.785  1.00  0.00     0.031 C 
ATOM     57  C   UNL A   1      42.951  28.700  35.381  1.00  0.00     0.029 A 
ATOM     58  C   UNL A   1      44.082  28.512  34.473  1.00  0.00     0.049 A 
ATOM     59  H   UNL A   1      44.477  29.569  32.722  1.00  0.00     0.167 HD
ATOM     60  C   UNL A   1      45.172  31.853  29.040  1.00  0.00     0.034 A 
ATOM     61  C   UNL A   1      45.074  27.611  34.627  1.00  0.00     0.034 A 
ATOM     62  C   UNL A   1      46.311  30.976  29.162  1.00  0.00     0.049 A 
ATOM     63  C   UNL A   1      46.181  27.554  33.603  1.00  0.00     0.074 A 
ATOM     64  C   UNL A   1      47.423  30.885  28.341  1.00  0.00     0.029 A 
ATOM     65  N   UNL A   1      46.481  30.028  30.162  1.00  0.00    -0.354 N 
ATOM     66  N   UNL A   1      46.347  28.282  32.522  1.00  0.00    -0.248 NA
ATOM     67  C   UNL A   1      47.240  26.560  33.825  1.00  0.00     0.031 C 
ATOM     68  C   UNL A   1      48.229  29.839  28.806  1.00  0.00     0.029 A 
ATOM     69  C   UNL A   1      47.660  29.326  29.961  1.00  0.00     0.049 A 
ATOM     70  H   UNL A   1      45.855  29.876  30.907  1.00  0.00     0.167 HD
ATOM     71  C   UNL A   1      47.542  27.851  31.953  1.00  0.00     0.074 A 
ATOM     72  C   UNL A   1      48.061  26.810  32.815  1.00  0.00     0.031 C 
ATOM     73  C   UNL A   1      48.160  28.279  30.822  1.00  0.00     0.034 A 
BRANCH  60  74
ATOM     74  C   UNL A   1      45.095  32.788  27.857  1.00  0.00     0.023 A 
ATOM     75  C   UNL A   1      45.578  34.107  27.923  1.00  0.00     0.031 A 
ATOM     76  C   UNL A   1      44.500  32.365  26.656  1.00  0.00     0.131 A 
ATOM     77  C   UNL A   1      45.397  34.974  26.835  1.00  0.00     0.055 A 
ATOM     78  C   UNL A   1      44.391  33.210  25.550  1.00  0.00     0.041 A 
ATOM     79  F   UNL A   1      44.001  31.124  26.540  1.00  0.00    -0.206 F 
ATOM     80  C   UNL A   1      44.827  34.529  25.640  1.00  0.00     0.022 A 
BRANCH  77  81
ATOM     81  S   UNL A   1      45.790  36.733  27.052  1.00  0.00     0.124 S 
ATOM     82  O   UNL A   1      46.682  36.977  25.921  1.00  0.00    -0.237 OA
ATOM     83  O   UNL A   1      44.476  37.361  26.977  1.00  0.00    -0.237 OA
ATOM     84  O   UNL A   1      46.431  36.781  28.365  1.00  0.00    -0.744 OA
ENDBRANCH  77  81
ENDBRANCH  60  74
BRANCH  61  85
ATOM     85  C   UNL A   1      45.046  26.651  35.767  1.00  0.00     0.023 A 
ATOM     86  C   UNL A   1      45.601  26.981  37.015  1.00  0.00     0.031 A 
ATOM     87  C   UNL A   1      44.511  25.361  35.602  1.00  0.00     0.131 A 
ATOM     88  C   UNL A   1      45.645  26.017  38.035  1.00  0.00     0.055 A 
ATOM     89  C   UNL A   1      44.513  24.423  36.636  1.00  0.00     0.041 A 
ATOM     90  F   UNL A   1      43.970  24.995  34.430  1.00  0.00    -0.206 F 
ATOM     91  C   UNL A   1      45.094  24.745  37.858  1.00  0.00     0.022 A 
BRANCH  88  92
ATOM     92  S   UNL A   1      46.507  26.423  39.578  1.00  0.00     0.124 S 
ATOM     93  O   UNL A   1      47.392  25.274  39.736  1.00  0.00    -0.237 OA
ATOM     94  O   UNL A   1      47.152  27.687  39.240  1.00  0.00    -0.237 OA
ATOM     95  O   UNL A   1      45.427  26.518  40.557  1.00  0.00    -0.744 OA
ENDBRANCH  88  92
ENDBRANCH  61  85
BRANCH  73  96
ATOM     96  C   UNL A   1      49.488  27.647  30.482  1.00  0.00     0.023 A 
ATOM     97  C   UNL A   1      50.681  28.051  31.103  1.00  0.00     0.031 A 
ATOM     98  C   UNL A   1      49.557  26.632  29.510  1.00  0.00     0.131 A 
ATOM     99  C   UNL A   1      51.902  27.478  30.711  1.00  0.00     0.055 A 
ATOM    100  C   UNL A   1      50.767  26.028  29.164  1.00  0.00     0.041 A 
ATOM    101  F   UNL A   1      48.448  26.208  28.884  1.00  0.00    -0.206 F 
ATOM    102  C   UNL A   1      51.949  26.459  29.756  1.00  0.00     0.022 A 
BRANCH  99 103
ATOM    103  S   UNL A   1      53.441  28.141  31.407  1.00  0.00     0.124 S 
ATOM    104  O   UNL A   1      52.972  28.763  32.642  1.00  0.00    -0.237 OA
ATOM    105  O   UNL A   1      54.255  26.941  31.566  1.00  0.00    -0.237 OA
ATOM    106  O   UNL A   1      53.907  29.074  30.383  1.00  0.00    -0.744 OA
ENDBRANCH  99 103
ENDBRANCH  73  96
ENDBRANCH  47  48
ENDBRANCH  40  42
ENDBRANCH  39  40
ENDBRANCH  38  39
ENDBRANCH  37  38
ENDBRANCH  36  37
ENDBRANCH  35  36
ENDBRANCH   1  35
TORSDOF 24
ENDMDL
MODEL 3
REMARK VINA RESULT:      -7.6      4.870      7.418
REMARK SMILES CC[C@@H](Oc1ccc(/C=C2\SC(=S)N(NC(=O)c3ccccc3O)C2=O)cc1)C(=O)OCCOCCOC(=O)c1ccc(-c2c3nc(c(-c4cc(S(=O)(=O)[O-])ccc4F)c4ccc([nH]4)c(-c4cc(S(=O)(=O)[O-])ccc4F)c4nc(c(-c5cc(S(=O)(=O)[O-])ccc5F)c5ccc2[nH]5)C=C4)C=C3)cc1
REMARK SMILES IDX 32 1 31 2 29 3 30 4 3 5 2 6 1 7 4 8 5 9 6 10 28 11 7 12
REMARK SMILES IDX 27 13 8 14 9 15 10 16 11 17 25 18 12 19 14 20 26 21 13 22
REMARK SMILES IDX 15 23 16 24 17 26 18 27 19 28 23 29 20 30 22 31 21 32 24 33
REMARK SMILES IDX 33 35 34 36 35 37 36 38 37 39 38 40 39 41 40 42 41 43 102 44
REMARK SMILES IDX 42 45 101 46 43 47 44 48 45 49 95 50 46 51 100 52 94 53
REMARK SMILES IDX 96 54 47 55 99 56 93 57 92 58 48 60 80 61 60 62 79 63 61 64
REMARK SMILES IDX 64 65 78 66 97 67 62 68 63 69 77 71 98 72 65 73 49 74 50 75
REMARK SMILES IDX 58 76 51 77 57 78 59 79 56 80 52 81 53 82 54 83 55 84 81 85
REMARK SMILES IDX 82 86 90 87 83 88 89 89 91 90 88 91 84 92 85 93 86 94 87 95
REMARK SMILES IDX 66 96 67 97 75 98 68 99 74 100 76 101 73 102 69 103 70 104
REMARK SMILES IDX 71 105 72 106
REMARK H PARENT 15 25 24 34 96 59 64 70
REMARK Flexibility Score: inf
ROOT
ATOM      1  C   UNL A   1      31.400  26.612  25.566  1.00  0.00     0.261 C 
ENDROOT
BRANCH   1   2
ATOM      2  O   UNL A   1      32.441  25.636  25.737  1.00  0.00    -0.461 OA
BRANCH   2   3
ATOM      3  C   UNL A   1      32.091  24.436  26.280  1.00  0.00     0.347 C 
ATOM      4  O   UNL A   1      31.376  24.295  27.268  1.00  0.00    -0.248 OA
BRANCH   3   5
ATOM      5  C   UNL A   1      32.699  23.260  25.509  1.00  0.00     0.282 C 
BRANCH   5   6
ATOM      6  C   UNL A   1      31.861  22.890  24.268  1.00  0.00     0.054 C 
ATOM      7  C   UNL A   1      32.446  21.769  23.419  1.00  0.00     0.008 C 
ENDBRANCH   5   6
BRANCH   5   8
ATOM      8  O   UNL A   1      33.976  23.801  25.178  1.00  0.00    -0.479 OA
BRANCH   8   9
ATOM      9  C   UNL A   1      35.126  23.173  25.531  1.00  0.00     0.120 A 
ATOM     10  C   UNL A   1      36.191  24.054  25.719  1.00  0.00     0.047 A 
ATOM     11  C   UNL A   1      35.340  21.804  25.650  1.00  0.00     0.047 A 
ATOM     12  C   UNL A   1      37.483  23.577  25.909  1.00  0.00     0.012 A 
ATOM     13  C   UNL A   1      36.642  21.316  25.809  1.00  0.00     0.012 A 
ATOM     14  C   UNL A   1      37.720  22.204  25.891  1.00  0.00    -0.024 A 
BRANCH  14  15
ATOM     15  C   UNL A   1      39.109  21.757  25.850  1.00  0.00     0.029 C 
ATOM     16  C   UNL A   1      40.152  22.555  26.117  1.00  0.00     0.082 C 
ATOM     17  S   UNL A   1      40.150  24.257  26.405  1.00  0.00    -0.052 SA
ATOM     18  C   UNL A   1      41.542  22.038  26.124  1.00  0.00     0.285 C 
ATOM     19  C   UNL A   1      41.885  24.382  26.169  1.00  0.00     0.168 C 
ATOM     20  N   UNL A   1      42.405  23.116  25.986  1.00  0.00    -0.198 N 
ATOM     21  O   UNL A   1      41.835  20.857  26.240  1.00  0.00    -0.266 OA
ATOM     22  S   UNL A   1      42.723  25.825  26.169  1.00  0.00    -0.050 S 
BRANCH  20  23
ATOM     23  N   UNL A   1      43.768  22.925  25.712  1.00  0.00    -0.254 N 
ATOM     24  C   UNL A   1      44.772  22.929  26.660  1.00  0.00     0.274 C 
ATOM     25  H   UNL A   1      44.027  22.778  24.775  1.00  0.00     0.192 HD
ATOM     26  O   UNL A   1      45.921  22.618  26.357  1.00  0.00    -0.267 OA
BRANCH  24  27
ATOM     27  C   UNL A   1      44.495  23.363  28.046  1.00  0.00     0.083 A 
ATOM     28  C   UNL A   1      45.074  24.575  28.448  1.00  0.00     0.018 A 
ATOM     29  C   UNL A   1      43.636  22.683  28.915  1.00  0.00     0.128 A 
ATOM     30  C   UNL A   1      44.746  25.131  29.683  1.00  0.00     0.001 A 
ATOM     31  C   UNL A   1      43.298  23.248  30.144  1.00  0.00     0.047 A 
ATOM     32  C   UNL A   1      43.847  24.476  30.525  1.00  0.00     0.004 A 
BRANCH  29  33
ATOM     33  O   UNL A   1      43.062  21.478  28.621  1.00  0.00    -0.507 OA
ATOM     34  H   UNL A   1      43.515  20.682  28.824  1.00  0.00     0.293 HD
ENDBRANCH  29  33
ENDBRANCH  24  27
ENDBRANCH  20  23
ENDBRANCH  14  15
ENDBRANCH   8   9
ENDBRANCH   5   8
ENDBRANCH   3   5
ENDBRANCH   2   3
ENDBRANCH   1   2
BRANCH   1  35
ATOM     35  C   UNL A   1      31.876  27.770  24.683  1.00  0.00     0.202 C 
BRANCH  35  36
ATOM     36  O   UNL A   1      31.558  29.080  25.158  1.00  0.00    -0.374 OA
BRANCH  36  37
ATOM     37  C   UNL A   1      32.036  29.448  26.448  1.00  0.00     0.202 C 
BRANCH  37  38
ATOM     38  C   UNL A   1      32.244  30.946  26.698  1.00  0.00     0.261 C 
BRANCH  38  39
ATOM     39  O   UNL A   1      33.218  31.206  27.725  1.00  0.00    -0.460 OA
BRANCH  39  40
ATOM     40  C   UNL A   1      33.286  32.503  28.113  1.00  0.00     0.338 C 
ATOM     41  O   UNL A   1      32.545  33.412  27.756  1.00  0.00    -0.246 OA
BRANCH  40  42
ATOM     42  C   UNL A   1      34.293  32.686  29.174  1.00  0.00     0.060 A 
ATOM     43  C   UNL A   1      34.505  33.992  29.634  1.00  0.00     0.016 A 
ATOM     44  C   UNL A   1      35.092  31.637  29.636  1.00  0.00     0.016 A 
ATOM     45  C   UNL A   1      35.550  34.264  30.512  1.00  0.00     0.010 A 
ATOM     46  C   UNL A   1      36.148  31.913  30.516  1.00  0.00     0.010 A 
ATOM     47  C   UNL A   1      36.405  33.234  30.928  1.00  0.00    -0.014 A 
BRANCH  47  48
ATOM     48  C   UNL A   1      37.650  33.581  31.661  1.00  0.00     0.031 A 
ATOM     49  C   UNL A   1      38.868  34.000  30.879  1.00  0.00     0.074 A 
ATOM     50  C   UNL A   1      37.682  33.582  33.006  1.00  0.00     0.049 A 
ATOM     51  N   UNL A   1      40.053  34.347  31.307  1.00  0.00    -0.248 NA
ATOM     52  C   UNL A   1      38.722  34.031  29.415  1.00  0.00     0.031 C 
ATOM     53  C   UNL A   1      36.557  33.240  33.874  1.00  0.00     0.029 A 
ATOM     54  N   UNL A   1      38.701  33.880  33.877  1.00  0.00    -0.354 N 
ATOM     55  C   UNL A   1      40.797  34.645  30.169  1.00  0.00     0.074 A 
ATOM     56  C   UNL A   1      39.937  34.394  29.031  1.00  0.00     0.031 C 
ATOM     57  C   UNL A   1      36.950  33.338  35.156  1.00  0.00     0.029 A 
ATOM     58  C   UNL A   1      38.361  33.720  35.199  1.00  0.00     0.049 A 
ATOM     59  H   UNL A   1      39.590  34.181  33.581  1.00  0.00     0.167 HD
ATOM     60  C   UNL A   1      42.073  35.097  30.081  1.00  0.00     0.034 A 
ATOM     61  C   UNL A   1      39.109  33.843  36.316  1.00  0.00     0.034 A 
ATOM     62  C   UNL A   1      42.927  35.327  31.221  1.00  0.00     0.049 A 
ATOM     63  C   UNL A   1      40.554  34.262  36.189  1.00  0.00     0.074 A 
ATOM     64  C   UNL A   1      44.233  35.785  31.244  1.00  0.00     0.029 A 
ATOM     65  N   UNL A   1      42.564  35.105  32.544  1.00  0.00    -0.354 N 
ATOM     66  N   UNL A   1      41.243  34.543  35.107  1.00  0.00    -0.248 NA
ATOM     67  C   UNL A   1      41.319  34.389  37.438  1.00  0.00     0.031 C 
ATOM     68  C   UNL A   1      44.680  35.777  32.570  1.00  0.00     0.029 A 
ATOM     69  C   UNL A   1      43.630  35.385  33.385  1.00  0.00     0.049 A 
ATOM     70  H   UNL A   1      41.678  34.794  32.840  1.00  0.00     0.167 HD
ATOM     71  C   UNL A   1      42.513  34.906  35.548  1.00  0.00     0.074 A 
ATOM     72  C   UNL A   1      42.490  34.821  36.994  1.00  0.00     0.031 C 
ATOM     73  C   UNL A   1      43.599  35.282  34.825  1.00  0.00     0.034 A 
BRANCH  60  74
ATOM     74  C   UNL A   1      42.631  35.319  28.696  1.00  0.00     0.023 A 
ATOM     75  C   UNL A   1      43.321  34.307  28.005  1.00  0.00     0.031 A 
ATOM     76  C   UNL A   1      42.500  36.572  28.071  1.00  0.00     0.131 A 
ATOM     77  C   UNL A   1      43.910  34.586  26.762  1.00  0.00     0.055 A 
ATOM     78  C   UNL A   1      43.024  36.819  26.800  1.00  0.00     0.041 A 
ATOM     79  F   UNL A   1      41.871  37.582  28.690  1.00  0.00    -0.206 F 
ATOM     80  C   UNL A   1      43.748  35.828  26.145  1.00  0.00     0.022 A 
BRANCH  77  81
ATOM     81  S   UNL A   1      45.012  33.345  26.027  1.00  0.00     0.124 S 
ATOM     82  O   UNL A   1      44.092  32.235  25.794  1.00  0.00    -0.237 OA
ATOM     83  O   UNL A   1      45.505  34.027  24.836  1.00  0.00    -0.237 OA
ATOM     84  O   UNL A   1      46.009  33.111  27.070  1.00  0.00    -0.744 OA
ENDBRANCH  77  81
ENDBRANCH  60  74
BRANCH  61  85
ATOM     85  C   UNL A   1      38.528  33.519  37.649  1.00  0.00     0.023 A 
ATOM     86  C   UNL A   1      38.555  34.447  38.703  1.00  0.00     0.031 A 
ATOM     87  C   UNL A   1      37.985  32.247  37.902  1.00  0.00     0.131 A 
ATOM     88  C   UNL A   1      38.086  34.073  39.973  1.00  0.00     0.055 A 
ATOM     89  C   UNL A   1      37.475  31.898  39.154  1.00  0.00     0.041 A 
ATOM     90  F   UNL A   1      37.936  31.324  36.929  1.00  0.00    -0.206 F 
ATOM     91  C   UNL A   1      37.536  32.810  40.202  1.00  0.00     0.022 A 
BRANCH  88  92
ATOM     92  S   UNL A   1      38.279  35.239  41.350  1.00  0.00     0.124 S 
ATOM     93  O   UNL A   1      37.013  35.077  42.056  1.00  0.00    -0.237 OA
ATOM     94  O   UNL A   1      39.462  34.715  42.025  1.00  0.00    -0.237 OA
ATOM     95  O   UNL A   1      38.463  36.525  40.683  1.00  0.00    -0.744 OA
ENDBRANCH  88  92
ENDBRANCH  61  85
BRANCH  73  96
ATOM     96  C   UNL A   1      44.838  35.669  35.596  1.00  0.00     0.023 A 
ATOM     97  C   UNL A   1      45.834  34.732  35.917  1.00  0.00     0.031 A 
ATOM     98  C   UNL A   1      45.015  36.997  36.025  1.00  0.00     0.131 A 
ATOM     99  C   UNL A   1      46.940  35.123  36.689  1.00  0.00     0.055 A 
ATOM    100  C   UNL A   1      46.144  37.392  36.745  1.00  0.00     0.041 A 
ATOM    101  F   UNL A   1      44.094  37.933  35.747  1.00  0.00    -0.206 F 
ATOM    102  C   UNL A   1      47.107  36.450  37.092  1.00  0.00     0.022 A 
BRANCH  99 103
ATOM    103  S   UNL A   1      48.118  33.855  37.232  1.00  0.00     0.124 S 
ATOM    104  O   UNL A   1      47.425  32.622  36.871  1.00  0.00    -0.237 OA
ATOM    105  O   UNL A   1      49.305  34.173  36.445  1.00  0.00    -0.237 OA
ATOM    106  O   UNL A   1      48.245  34.096  38.668  1.00  0.00    -0.744 OA
ENDBRANCH  99 103
ENDBRANCH  73  96
ENDBRANCH  47  48
ENDBRANCH  40  42
ENDBRANCH  39  40
ENDBRANCH  38  39
ENDBRANCH  37  38
ENDBRANCH  36  37
ENDBRANCH  35  36
ENDBRANCH   1  35
TORSDOF 24
ENDMDL
