MODEL 1
REMARK VINA RESULT:     -11.1      0.000      0.000
REMARK SMILES C[C@H](C(=O)OCCOCCOC(=O)c1ccc(-c2c3nc(c(-c4cc(S(=O)(=O)[O-])ccc4F)c4ccc([nH]4)c(-c4cc(S(=O)(=O)[O-])ccc4F)c4nc(c(-c5cc(S(=O)(=O)[O-])ccc5F)c5ccc2[nH]5)C=C4)C=C3)cc1)c1cccc(C(=O)c2ccccc2)c1
REMARK SMILES IDX 8 1 7 2 6 3 5 4 3 5 4 6 2 7 1 8 77 9 78 10 90 11 79 12 81 13
REMARK SMILES IDX 80 14 82 15 83 16 84 17 85 18 89 19 86 20 88 21 87 22 9 23
REMARK SMILES IDX 10 24 11 25 12 26 13 27 14 28 15 29 76 30 16 31 75 32 17 33
REMARK SMILES IDX 18 34 19 35 69 36 20 37 74 38 68 39 70 40 21 41 73 42 67 43
REMARK SMILES IDX 66 44 22 46 54 47 34 48 53 49 35 50 38 51 52 52 71 53 36 54
REMARK SMILES IDX 37 55 51 57 72 58 39 59 23 60 24 61 32 62 25 63 31 64 33 65
REMARK SMILES IDX 30 66 26 67 27 68 28 69 29 70 55 71 56 72 64 73 57 74 63 75
REMARK SMILES IDX 65 76 62 77 58 78 59 79 60 80 61 81 40 82 41 83 49 84 42 85
REMARK SMILES IDX 48 86 50 87 47 88 43 89 44 90 45 91 46 92
REMARK H PARENT 70 45 38 56
REMARK Flexibility Score: inf
ROOT
ATOM      1  O   UNL A   1      32.764  28.695  25.835  1.00  0.00    -0.374 OA
ENDROOT
BRANCH   1   2
ATOM      2  C   UNL A   1      33.623  28.300  24.759  1.00  0.00     0.202 C 
BRANCH   2   3
ATOM      3  C   UNL A   1      33.230  28.848  23.384  1.00  0.00     0.261 C 
BRANCH   3   4
ATOM      4  O   UNL A   1      32.344  27.926  22.718  1.00  0.00    -0.463 OA
BRANCH   4   5
ATOM      5  C   UNL A   1      32.903  26.811  22.190  1.00  0.00     0.313 C 
ATOM      6  O   UNL A   1      33.955  26.801  21.558  1.00  0.00    -0.252 OA
BRANCH   5   7
ATOM      7  C   UNL A   1      32.203  25.516  22.580  1.00  0.00     0.126 C 
ATOM      8  C   UNL A   1      32.839  24.364  21.775  1.00  0.00     0.025 C 
BRANCH   7   9
ATOM      9  C   UNL A   1      32.009  25.116  24.043  1.00  0.00    -0.033 A 
ATOM     10  C   UNL A   1      31.092  25.683  24.934  1.00  0.00     0.004 A 
ATOM     11  C   UNL A   1      32.804  24.053  24.525  1.00  0.00     0.016 A 
ATOM     12  C   UNL A   1      31.004  25.234  26.260  1.00  0.00     0.001 A 
ATOM     13  C   UNL A   1      32.746  23.617  25.856  1.00  0.00     0.023 A 
ATOM     14  C   UNL A   1      31.831  24.208  26.722  1.00  0.00     0.012 A 
BRANCH  13  15
ATOM     15  C   UNL A   1      33.611  22.505  26.345  1.00  0.00     0.193 C 
ATOM     16  O   UNL A   1      33.150  21.619  27.057  1.00  0.00    -0.289 OA
BRANCH  15  17
ATOM     17  C   UNL A   1      35.034  22.422  25.939  1.00  0.00     0.022 A 
ATOM     18  C   UNL A   1      35.533  21.190  25.506  1.00  0.00     0.012 A 
ATOM     19  C   UNL A   1      35.862  23.551  25.965  1.00  0.00     0.012 A 
ATOM     20  C   UNL A   1      36.851  21.095  25.060  1.00  0.00     0.001 A 
ATOM     21  C   UNL A   1      37.181  23.450  25.518  1.00  0.00     0.001 A 
ATOM     22  C   UNL A   1      37.671  22.225  25.060  1.00  0.00     0.000 A 
ENDBRANCH  15  17
ENDBRANCH  13  15
ENDBRANCH   7   9
ENDBRANCH   5   7
ENDBRANCH   4   5
ENDBRANCH   3   4
ENDBRANCH   2   3
ENDBRANCH   1   2
BRANCH   1  23
ATOM     23  C   UNL A   1      31.943  29.835  25.590  1.00  0.00     0.202 C 
BRANCH  23  24
ATOM     24  C   UNL A   1      32.009  30.965  26.619  1.00  0.00     0.261 C 
BRANCH  24  25
ATOM     25  O   UNL A   1      33.022  30.721  27.607  1.00  0.00    -0.460 OA
BRANCH  25  26
ATOM     26  C   UNL A   1      33.875  31.756  27.790  1.00  0.00     0.338 C 
ATOM     27  O   UNL A   1      33.582  32.942  27.862  1.00  0.00    -0.246 OA
BRANCH  26  28
ATOM     28  C   UNL A   1      35.226  31.247  28.084  1.00  0.00     0.060 A 
ATOM     29  C   UNL A   1      35.379  29.859  28.186  1.00  0.00     0.016 A 
ATOM     30  C   UNL A   1      36.311  32.100  28.308  1.00  0.00     0.016 A 
ATOM     31  C   UNL A   1      36.600  29.319  28.578  1.00  0.00     0.010 A 
ATOM     32  C   UNL A   1      37.536  31.556  28.705  1.00  0.00     0.010 A 
ATOM     33  C   UNL A   1      37.673  30.167  28.881  1.00  0.00    -0.014 A 
BRANCH  33  34
ATOM     34  C   UNL A   1      38.877  29.605  29.539  1.00  0.00     0.031 A 
ATOM     35  C   UNL A   1      39.266  30.121  30.897  1.00  0.00     0.074 A 
ATOM     36  C   UNL A   1      39.581  28.621  28.954  1.00  0.00     0.049 A 
ATOM     37  N   UNL A   1      40.290  29.804  31.645  1.00  0.00    -0.248 NA
ATOM     38  C   UNL A   1      38.380  31.136  31.487  1.00  0.00     0.031 C 
ATOM     39  C   UNL A   1      39.266  28.014  27.661  1.00  0.00     0.029 A 
ATOM     40  N   UNL A   1      40.710  27.962  29.368  1.00  0.00    -0.354 N 
ATOM     41  C   UNL A   1      40.175  30.581  32.794  1.00  0.00     0.074 A 
ATOM     42  C   UNL A   1      39.006  31.418  32.618  1.00  0.00     0.031 C 
ATOM     43  C   UNL A   1      40.186  27.074  27.386  1.00  0.00     0.029 A 
ATOM     44  C   UNL A   1      41.178  27.043  28.459  1.00  0.00     0.049 A 
ATOM     45  H   UNL A   1      41.144  28.131  30.237  1.00  0.00     0.167 HD
ATOM     46  C   UNL A   1      40.964  30.585  33.896  1.00  0.00     0.034 A 
ATOM     47  C   UNL A   1      42.293  26.286  28.480  1.00  0.00     0.034 A 
ATOM     48  C   UNL A   1      42.133  29.752  34.043  1.00  0.00     0.049 A 
ATOM     49  C   UNL A   1      43.209  26.372  29.677  1.00  0.00     0.074 A 
ATOM     50  C   UNL A   1      43.004  29.669  35.115  1.00  0.00     0.029 A 
ATOM     51  N   UNL A   1      42.604  28.867  33.081  1.00  0.00    -0.354 N 
ATOM     52  N   UNL A   1      43.088  27.108  30.760  1.00  0.00    -0.248 NA
ATOM     53  C   UNL A   1      44.404  25.520  29.661  1.00  0.00     0.031 C 
ATOM     54  C   UNL A   1      44.040  28.794  34.771  1.00  0.00     0.029 A 
ATOM     55  C   UNL A   1      43.771  28.260  33.520  1.00  0.00     0.049 A 
ATOM     56  H   UNL A   1      42.171  28.694  32.213  1.00  0.00     0.167 HD
ATOM     57  C   UNL A   1      44.177  26.781  31.565  1.00  0.00     0.074 A 
ATOM     58  C   UNL A   1      44.932  25.773  30.849  1.00  0.00     0.031 C 
ATOM     59  C   UNL A   1      44.520  27.265  32.787  1.00  0.00     0.034 A 
BRANCH  46  60
ATOM     60  C   UNL A   1      40.612  31.558  34.998  1.00  0.00     0.023 A 
ATOM     61  C   UNL A   1      39.606  31.280  35.940  1.00  0.00     0.031 A 
ATOM     62  C   UNL A   1      41.267  32.800  35.085  1.00  0.00     0.131 A 
ATOM     63  C   UNL A   1      39.233  32.255  36.877  1.00  0.00     0.055 A 
ATOM     64  C   UNL A   1      40.950  33.733  36.074  1.00  0.00     0.041 A 
ATOM     65  F   UNL A   1      42.218  33.134  34.199  1.00  0.00    -0.206 F 
ATOM     66  C   UNL A   1      39.916  33.470  36.968  1.00  0.00     0.022 A 
BRANCH  63  67
ATOM     67  S   UNL A   1      37.742  31.977  37.874  1.00  0.00     0.124 S 
ATOM     68  O   UNL A   1      37.416  30.594  37.535  1.00  0.00    -0.237 OA
ATOM     69  O   UNL A   1      38.223  32.206  39.231  1.00  0.00    -0.237 OA
ATOM     70  O   UNL A   1      36.800  32.973  37.367  1.00  0.00    -0.744 OA
ENDBRANCH  63  67
ENDBRANCH  46  60
BRANCH  47  71
ATOM     71  C   UNL A   1      42.633  25.414  27.318  1.00  0.00     0.023 A 
ATOM     72  C   UNL A   1      42.204  24.080  27.256  1.00  0.00     0.031 A 
ATOM     73  C   UNL A   1      43.437  25.898  26.269  1.00  0.00     0.131 A 
ATOM     74  C   UNL A   1      42.617  23.262  26.192  1.00  0.00     0.055 A 
ATOM     75  C   UNL A   1      43.799  25.096  25.185  1.00  0.00     0.041 A 
ATOM     76  F   UNL A   1      43.877  27.166  26.279  1.00  0.00    -0.206 F 
ATOM     77  C   UNL A   1      43.399  23.765  25.149  1.00  0.00     0.022 A 
BRANCH  74  78
ATOM     78  S   UNL A   1      42.190  21.499  26.234  1.00  0.00     0.124 S 
ATOM     79  O   UNL A   1      42.386  21.180  27.643  1.00  0.00    -0.237 OA
ATOM     80  O   UNL A   1      40.808  21.513  25.766  1.00  0.00    -0.237 OA
ATOM     81  O   UNL A   1      43.151  20.894  25.316  1.00  0.00    -0.744 OA
ENDBRANCH  74  78
ENDBRANCH  47  71
BRANCH  59  82
ATOM     82  C   UNL A   1      45.743  26.669  33.445  1.00  0.00     0.023 A 
ATOM     83  C   UNL A   1      45.680  25.481  34.193  1.00  0.00     0.031 A 
ATOM     84  C   UNL A   1      46.991  27.309  33.324  1.00  0.00     0.131 A 
ATOM     85  C   UNL A   1      46.830  25.001  34.839  1.00  0.00     0.055 A 
ATOM     86  C   UNL A   1      48.143  26.790  33.913  1.00  0.00     0.041 A 
ATOM     87  F   UNL A   1      47.110  28.449  32.624  1.00  0.00    -0.206 F 
ATOM     88  C   UNL A   1      48.064  25.637  34.689  1.00  0.00     0.022 A 
BRANCH  85  89
ATOM     89  S   UNL A   1      46.670  23.587  35.965  1.00  0.00     0.124 S 
ATOM     90  O   UNL A   1      46.824  22.457  35.054  1.00  0.00    -0.237 OA
ATOM     91  O   UNL A   1      47.770  23.808  36.899  1.00  0.00    -0.237 OA
ATOM     92  O   UNL A   1      45.333  23.750  36.532  1.00  0.00    -0.744 OA
ENDBRANCH  85  89
ENDBRANCH  59  82
ENDBRANCH  33  34
ENDBRANCH  26  28
ENDBRANCH  25  26
ENDBRANCH  24  25
ENDBRANCH  23  24
ENDBRANCH   1  23
TORSDOF 20
ENDMDL
MODEL 2
REMARK VINA RESULT:     -11.0      1.591      2.120
REMARK SMILES C[C@H](C(=O)OCCOCCOC(=O)c1ccc(-c2c3nc(c(-c4cc(S(=O)(=O)[O-])ccc4F)c4ccc([nH]4)c(-c4cc(S(=O)(=O)[O-])ccc4F)c4nc(c(-c5cc(S(=O)(=O)[O-])ccc5F)c5ccc2[nH]5)C=C4)C=C3)cc1)c1cccc(C(=O)c2ccccc2)c1
REMARK SMILES IDX 8 1 7 2 6 3 5 4 3 5 4 6 2 7 1 8 77 9 78 10 90 11 79 12 81 13
REMARK SMILES IDX 80 14 82 15 83 16 84 17 85 18 89 19 86 20 88 21 87 22 9 23
REMARK SMILES IDX 10 24 11 25 12 26 13 27 14 28 15 29 76 30 16 31 75 32 17 33
REMARK SMILES IDX 18 34 19 35 69 36 20 37 74 38 68 39 70 40 21 41 73 42 67 43
REMARK SMILES IDX 66 44 22 46 54 47 34 48 53 49 35 50 38 51 52 52 71 53 36 54
REMARK SMILES IDX 37 55 51 57 72 58 39 59 23 60 24 61 32 62 25 63 31 64 33 65
REMARK SMILES IDX 30 66 26 67 27 68 28 69 29 70 55 71 56 72 64 73 57 74 63 75
REMARK SMILES IDX 65 76 62 77 58 78 59 79 60 80 61 81 40 82 41 83 49 84 42 85
REMARK SMILES IDX 48 86 50 87 47 88 43 89 44 90 45 91 46 92
REMARK H PARENT 70 45 38 56
REMARK Flexibility Score: inf
ROOT
ATOM      1  O   UNL A   1      33.054  30.070  26.198  1.00  0.00    -0.374 OA
ENDROOT
BRANCH   1   2
ATOM      2  C   UNL A   1      33.034  28.902  25.371  1.00  0.00     0.202 C 
BRANCH   2   3
ATOM      3  C   UNL A   1      31.659  28.244  25.214  1.00  0.00     0.261 C 
BRANCH   3   4
ATOM      4  O   UNL A   1      31.791  26.976  24.543  1.00  0.00    -0.463 OA
BRANCH   4   5
ATOM      5  C   UNL A   1      31.571  26.963  23.207  1.00  0.00     0.313 C 
ATOM      6  O   UNL A   1      31.360  27.968  22.533  1.00  0.00    -0.252 OA
BRANCH   5   7
ATOM      7  C   UNL A   1      31.766  25.602  22.554  1.00  0.00     0.126 C 
ATOM      8  C   UNL A   1      31.989  25.820  21.043  1.00  0.00     0.025 C 
BRANCH   7   9
ATOM      9  C   UNL A   1      32.758  24.579  23.108  1.00  0.00    -0.033 A 
ATOM     10  C   UNL A   1      34.144  24.745  23.195  1.00  0.00     0.004 A 
ATOM     11  C   UNL A   1      32.220  23.374  23.609  1.00  0.00     0.016 A 
ATOM     12  C   UNL A   1      34.959  23.732  23.722  1.00  0.00     0.001 A 
ATOM     13  C   UNL A   1      33.027  22.343  24.109  1.00  0.00     0.023 A 
ATOM     14  C   UNL A   1      34.405  22.533  24.173  1.00  0.00     0.012 A 
BRANCH  13  15
ATOM     15  C   UNL A   1      32.434  21.071  24.614  1.00  0.00     0.193 C 
ATOM     16  O   UNL A   1      31.571  21.084  25.486  1.00  0.00    -0.289 OA
BRANCH  15  17
ATOM     17  C   UNL A   1      32.841  19.768  24.037  1.00  0.00     0.022 A 
ATOM     18  C   UNL A   1      33.884  19.065  24.648  1.00  0.00     0.012 A 
ATOM     19  C   UNL A   1      32.188  19.235  22.919  1.00  0.00     0.012 A 
ATOM     20  C   UNL A   1      34.248  17.808  24.165  1.00  0.00     0.001 A 
ATOM     21  C   UNL A   1      32.557  17.976  22.439  1.00  0.00     0.001 A 
ATOM     22  C   UNL A   1      33.581  17.263  23.066  1.00  0.00     0.000 A 
ENDBRANCH  15  17
ENDBRANCH  13  15
ENDBRANCH   7   9
ENDBRANCH   5   7
ENDBRANCH   4   5
ENDBRANCH   3   4
ENDBRANCH   2   3
ENDBRANCH   1   2
BRANCH   1  23
ATOM     23  C   UNL A   1      31.798  30.717  26.394  1.00  0.00     0.202 C 
BRANCH  23  24
ATOM     24  C   UNL A   1      31.838  32.143  26.949  1.00  0.00     0.261 C 
BRANCH  24  25
ATOM     25  O   UNL A   1      33.141  32.727  26.811  1.00  0.00    -0.460 OA
BRANCH  25  26
ATOM     26  C   UNL A   1      33.659  33.201  27.968  1.00  0.00     0.338 C 
ATOM     27  O   UNL A   1      33.117  33.971  28.751  1.00  0.00    -0.246 OA
BRANCH  26  28
ATOM     28  C   UNL A   1      34.925  32.511  28.272  1.00  0.00     0.060 A 
ATOM     29  C   UNL A   1      34.842  31.176  28.685  1.00  0.00     0.016 A 
ATOM     30  C   UNL A   1      36.161  33.162  28.210  1.00  0.00     0.016 A 
ATOM     31  C   UNL A   1      35.987  30.503  29.100  1.00  0.00     0.010 A 
ATOM     32  C   UNL A   1      37.310  32.485  28.631  1.00  0.00     0.010 A 
ATOM     33  C   UNL A   1      37.220  31.168  29.116  1.00  0.00    -0.014 A 
BRANCH  33  34
ATOM     34  C   UNL A   1      38.376  30.534  29.797  1.00  0.00     0.031 A 
ATOM     35  C   UNL A   1      38.692  30.938  31.211  1.00  0.00     0.074 A 
ATOM     36  C   UNL A   1      39.098  29.584  29.178  1.00  0.00     0.049 A 
ATOM     37  N   UNL A   1      39.666  30.545  31.989  1.00  0.00    -0.248 NA
ATOM     38  C   UNL A   1      37.788  31.922  31.825  1.00  0.00     0.031 C 
ATOM     39  C   UNL A   1      38.849  29.083  27.827  1.00  0.00     0.029 A 
ATOM     40  N   UNL A   1      40.191  28.874  29.605  1.00  0.00    -0.354 N 
ATOM     41  C   UNL A   1      39.496  31.235  33.186  1.00  0.00     0.074 A 
ATOM     42  C   UNL A   1      38.352  32.104  33.009  1.00  0.00     0.031 C 
ATOM     43  C   UNL A   1      39.770  28.149  27.533  1.00  0.00     0.029 A 
ATOM     44  C   UNL A   1      40.697  28.018  28.656  1.00  0.00     0.049 A 
ATOM     45  H   UNL A   1      40.576  28.968  30.507  1.00  0.00     0.167 HD
ATOM     46  C   UNL A   1      40.219  31.140  34.328  1.00  0.00     0.034 A 
ATOM     47  C   UNL A   1      41.798  27.240  28.681  1.00  0.00     0.034 A 
ATOM     48  C   UNL A   1      41.365  30.276  34.477  1.00  0.00     0.049 A 
ATOM     49  C   UNL A   1      42.644  27.217  29.932  1.00  0.00     0.074 A 
ATOM     50  C   UNL A   1      42.171  30.094  35.587  1.00  0.00     0.029 A 
ATOM     51  N   UNL A   1      41.878  29.457  33.478  1.00  0.00    -0.354 N 
ATOM     52  N   UNL A   1      42.471  27.871  31.059  1.00  0.00    -0.248 NA
ATOM     53  C   UNL A   1      43.825  26.346  29.918  1.00  0.00     0.031 C 
ATOM     54  C   UNL A   1      43.212  29.229  35.236  1.00  0.00     0.029 A 
ATOM     55  C   UNL A   1      43.009  28.797  33.934  1.00  0.00     0.049 A 
ATOM     56  H   UNL A   1      41.494  29.359  32.576  1.00  0.00     0.167 HD
ATOM     57  C   UNL A   1      43.506  27.463  31.898  1.00  0.00     0.074 A 
ATOM     58  C   UNL A   1      44.286  26.498  31.150  1.00  0.00     0.031 C 
ATOM     59  C   UNL A   1      43.784  27.846  33.171  1.00  0.00     0.034 A 
BRANCH  46  60
ATOM     60  C   UNL A   1      39.818  32.033  35.480  1.00  0.00     0.023 A 
ATOM     61  C   UNL A   1      38.995  31.573  36.523  1.00  0.00     0.031 A 
ATOM     62  C   UNL A   1      40.235  33.376  35.516  1.00  0.00     0.131 A 
ATOM     63  C   UNL A   1      38.554  32.464  37.513  1.00  0.00     0.055 A 
ATOM     64  C   UNL A   1      39.862  34.236  36.551  1.00  0.00     0.041 A 
ATOM     65  F   UNL A   1      41.000  33.881  34.535  1.00  0.00    -0.206 F 
ATOM     66  C   UNL A   1      39.003  33.786  37.549  1.00  0.00     0.022 A 
BRANCH  63  67
ATOM     67  S   UNL A   1      37.264  31.913  38.665  1.00  0.00     0.124 S 
ATOM     68  O   UNL A   1      37.939  32.057  39.953  1.00  0.00    -0.237 OA
ATOM     69  O   UNL A   1      36.183  32.855  38.400  1.00  0.00    -0.237 OA
ATOM     70  O   UNL A   1      37.006  30.534  38.256  1.00  0.00    -0.744 OA
ENDBRANCH  63  67
ENDBRANCH  46  60
BRANCH  47  71
ATOM     71  C   UNL A   1      42.192  26.453  27.477  1.00  0.00     0.023 A 
ATOM     72  C   UNL A   1      41.870  25.093  27.356  1.00  0.00     0.031 A 
ATOM     73  C   UNL A   1      42.943  27.047  26.445  1.00  0.00     0.131 A 
ATOM     74  C   UNL A   1      42.334  24.360  26.251  1.00  0.00     0.055 A 
ATOM     75  C   UNL A   1      43.354  26.328  25.322  1.00  0.00     0.041 A 
ATOM     76  F   UNL A   1      43.280  28.345  26.511  1.00  0.00    -0.206 F 
ATOM     77  C   UNL A   1      43.061  24.972  25.227  1.00  0.00     0.022 A 
BRANCH  74  78
ATOM     78  S   UNL A   1      42.049  22.569  26.214  1.00  0.00     0.124 S 
ATOM     79  O   UNL A   1      42.630  22.150  27.485  1.00  0.00    -0.237 OA
ATOM     80  O   UNL A   1      40.595  22.497  26.120  1.00  0.00    -0.237 OA
ATOM     81  O   UNL A   1      42.772  22.134  25.022  1.00  0.00    -0.744 OA
ENDBRANCH  74  78
ENDBRANCH  47  71
BRANCH  59  82
ATOM     82  C   UNL A   1      44.958  27.179  33.849  1.00  0.00     0.023 A 
ATOM     83  C   UNL A   1      44.825  25.961  34.538  1.00  0.00     0.031 A 
ATOM     84  C   UNL A   1      46.230  27.779  33.810  1.00  0.00     0.131 A 
ATOM     85  C   UNL A   1      45.930  25.412  35.207  1.00  0.00     0.055 A 
ATOM     86  C   UNL A   1      47.339  27.195  34.421  1.00  0.00     0.041 A 
ATOM     87  F   UNL A   1      46.417  28.945  33.170  1.00  0.00    -0.206 F 
ATOM     88  C   UNL A   1      47.189  26.011  35.138  1.00  0.00     0.022 A 
BRANCH  85  89
ATOM     89  S   UNL A   1      45.676  23.955  36.258  1.00  0.00     0.124 S 
ATOM     90  O   UNL A   1      46.933  23.233  36.082  1.00  0.00    -0.237 OA
ATOM     91  O   UNL A   1      45.461  24.552  37.572  1.00  0.00    -0.237 OA
ATOM     92  O   UNL A   1      44.503  23.309  35.671  1.00  0.00    -0.744 OA
ENDBRANCH  85  89
ENDBRANCH  59  82
ENDBRANCH  33  34
ENDBRANCH  26  28
ENDBRANCH  25  26
ENDBRANCH  24  25
ENDBRANCH  23  24
ENDBRANCH   1  23
TORSDOF 20
ENDMDL
MODEL 3
REMARK VINA RESULT:     -10.9      2.186      3.421
REMARK SMILES C[C@H](C(=O)OCCOCCOC(=O)c1ccc(-c2c3nc(c(-c4cc(S(=O)(=O)[O-])ccc4F)c4ccc([nH]4)c(-c4cc(S(=O)(=O)[O-])ccc4F)c4nc(c(-c5cc(S(=O)(=O)[O-])ccc5F)c5ccc2[nH]5)C=C4)C=C3)cc1)c1cccc(C(=O)c2ccccc2)c1
REMARK SMILES IDX 8 1 7 2 6 3 5 4 3 5 4 6 2 7 1 8 77 9 78 10 90 11 79 12 81 13
REMARK SMILES IDX 80 14 82 15 83 16 84 17 85 18 89 19 86 20 88 21 87 22 9 23
REMARK SMILES IDX 10 24 11 25 12 26 13 27 14 28 15 29 76 30 16 31 75 32 17 33
REMARK SMILES IDX 18 34 19 35 69 36 20 37 74 38 68 39 70 40 21 41 73 42 67 43
REMARK SMILES IDX 66 44 22 46 54 47 34 48 53 49 35 50 38 51 52 52 71 53 36 54
REMARK SMILES IDX 37 55 51 57 72 58 39 59 23 60 24 61 32 62 25 63 31 64 33 65
REMARK SMILES IDX 30 66 26 67 27 68 28 69 29 70 55 71 56 72 64 73 57 74 63 75
REMARK SMILES IDX 65 76 62 77 58 78 59 79 60 80 61 81 40 82 41 83 49 84 42 85
REMARK SMILES IDX 48 86 50 87 47 88 43 89 44 90 45 91 46 92
REMARK H PARENT 70 45 38 56
REMARK Flexibility Score: inf
ROOT
ATOM      1  O   UNL A   1      32.563  29.770  26.882  1.00  0.00    -0.374 OA
ENDROOT
BRANCH   1   2
ATOM      2  C   UNL A   1      32.569  28.443  26.345  1.00  0.00     0.202 C 
BRANCH   2   3
ATOM      3  C   UNL A   1      31.452  27.531  26.861  1.00  0.00     0.261 C 
BRANCH   3   4
ATOM      4  O   UNL A   1      31.813  26.149  26.672  1.00  0.00    -0.463 OA
BRANCH   4   5
ATOM      5  C   UNL A   1      30.799  25.258  26.566  1.00  0.00     0.313 C 
ATOM      6  O   UNL A   1      29.612  25.568  26.508  1.00  0.00    -0.252 OA
BRANCH   5   7
ATOM      7  C   UNL A   1      31.250  23.818  26.359  1.00  0.00     0.126 C 
ATOM      8  C   UNL A   1      30.121  22.886  26.844  1.00  0.00     0.025 C 
BRANCH   7   9
ATOM      9  C   UNL A   1      31.817  23.338  25.023  1.00  0.00    -0.033 A 
ATOM     10  C   UNL A   1      32.120  22.014  24.690  1.00  0.00     0.004 A 
ATOM     11  C   UNL A   1      32.017  24.316  24.025  1.00  0.00     0.016 A 
ATOM     12  C   UNL A   1      32.641  21.690  23.428  1.00  0.00     0.001 A 
ATOM     13  C   UNL A   1      32.566  24.008  22.773  1.00  0.00     0.023 A 
ATOM     14  C   UNL A   1      32.868  22.682  22.473  1.00  0.00     0.012 A 
BRANCH  13  15
ATOM     15  C   UNL A   1      32.785  25.065  21.743  1.00  0.00     0.193 C 
ATOM     16  O   UNL A   1      33.113  24.766  20.598  1.00  0.00    -0.289 OA
BRANCH  15  17
ATOM     17  C   UNL A   1      32.565  26.493  22.069  1.00  0.00     0.022 A 
ATOM     18  C   UNL A   1      31.251  26.961  22.158  1.00  0.00     0.012 A 
ATOM     19  C   UNL A   1      33.642  27.356  22.305  1.00  0.00     0.012 A 
ATOM     20  C   UNL A   1      31.012  28.286  22.524  1.00  0.00     0.001 A 
ATOM     21  C   UNL A   1      33.396  28.682  22.670  1.00  0.00     0.001 A 
ATOM     22  C   UNL A   1      32.083  29.143  22.785  1.00  0.00     0.000 A 
ENDBRANCH  15  17
ENDBRANCH  13  15
ENDBRANCH   7   9
ENDBRANCH   5   7
ENDBRANCH   4   5
ENDBRANCH   3   4
ENDBRANCH   2   3
ENDBRANCH   1   2
BRANCH   1  23
ATOM     23  C   UNL A   1      31.601  30.664  26.325  1.00  0.00     0.202 C 
BRANCH  23  24
ATOM     24  C   UNL A   1      31.510  32.055  26.953  1.00  0.00     0.261 C 
BRANCH  24  25
ATOM     25  O   UNL A   1      32.685  32.835  26.684  1.00  0.00    -0.460 OA
BRANCH  25  26
ATOM     26  C   UNL A   1      33.221  33.422  27.779  1.00  0.00     0.338 C 
ATOM     27  O   UNL A   1      32.688  34.259  28.495  1.00  0.00    -0.246 OA
BRANCH  26  28
ATOM     28  C   UNL A   1      34.499  32.773  28.122  1.00  0.00     0.060 A 
ATOM     29  C   UNL A   1      34.451  31.425  28.499  1.00  0.00     0.016 A 
ATOM     30  C   UNL A   1      35.710  33.471  28.131  1.00  0.00     0.016 A 
ATOM     31  C   UNL A   1      35.602  30.786  28.948  1.00  0.00     0.010 A 
ATOM     32  C   UNL A   1      36.865  32.828  28.585  1.00  0.00     0.010 A 
ATOM     33  C   UNL A   1      36.806  31.496  29.034  1.00  0.00    -0.014 A 
BRANCH  33  34
ATOM     34  C   UNL A   1      37.956  30.890  29.749  1.00  0.00     0.031 A 
ATOM     35  C   UNL A   1      38.217  31.297  31.174  1.00  0.00     0.074 A 
ATOM     36  C   UNL A   1      38.721  29.961  29.152  1.00  0.00     0.049 A 
ATOM     37  N   UNL A   1      39.175  30.926  31.982  1.00  0.00    -0.248 NA
ATOM     38  C   UNL A   1      37.269  32.255  31.762  1.00  0.00     0.031 C 
ATOM     39  C   UNL A   1      38.529  29.458  27.792  1.00  0.00     0.029 A 
ATOM     40  N   UNL A   1      39.818  29.277  29.611  1.00  0.00    -0.354 N 
ATOM     41  C   UNL A   1      38.949  31.607  33.174  1.00  0.00     0.074 A 
ATOM     42  C   UNL A   1      37.790  32.448  32.963  1.00  0.00     0.031 C 
ATOM     43  C   UNL A   1      39.482  28.549  27.525  1.00  0.00     0.029 A 
ATOM     44  C   UNL A   1      40.376  28.438  28.676  1.00  0.00     0.049 A 
ATOM     45  H   UNL A   1      40.172  29.378  30.525  1.00  0.00     0.167 HD
ATOM     46  C   UNL A   1      39.638  31.527  34.339  1.00  0.00     0.034 A 
ATOM     47  C   UNL A   1      41.495  27.689  28.735  1.00  0.00     0.034 A 
ATOM     48  C   UNL A   1      40.800  30.691  34.522  1.00  0.00     0.049 A 
ATOM     49  C   UNL A   1      42.301  27.683  30.012  1.00  0.00     0.074 A 
ATOM     50  C   UNL A   1      41.575  30.527  35.656  1.00  0.00     0.029 A 
ATOM     51  N   UNL A   1      41.366  29.890  33.537  1.00  0.00    -0.354 N 
ATOM     52  N   UNL A   1      42.075  28.327  31.135  1.00  0.00    -0.248 NA
ATOM     53  C   UNL A   1      43.504  26.842  30.033  1.00  0.00     0.031 C 
ATOM     54  C   UNL A   1      42.648  29.689  35.336  1.00  0.00     0.029 A 
ATOM     55  C   UNL A   1      42.497  29.257  34.028  1.00  0.00     0.049 A 
ATOM     56  H   UNL A   1      41.013  29.785  32.624  1.00  0.00     0.167 HD
ATOM     57  C   UNL A   1      43.093  27.943  32.005  1.00  0.00     0.074 A 
ATOM     58  C   UNL A   1      43.922  27.001  31.280  1.00  0.00     0.031 C 
ATOM     59  C   UNL A   1      43.321  28.329  33.287  1.00  0.00     0.034 A 
BRANCH  46  60
ATOM     60  C   UNL A   1      39.177  32.405  35.480  1.00  0.00     0.023 A 
ATOM     61  C   UNL A   1      39.609  33.736  35.613  1.00  0.00     0.031 A 
ATOM     62  C   UNL A   1      38.323  31.890  36.471  1.00  0.00     0.131 A 
ATOM     63  C   UNL A   1      39.248  34.481  36.746  1.00  0.00     0.055 A 
ATOM     64  C   UNL A   1      37.898  32.664  37.553  1.00  0.00     0.041 A 
ATOM     65  F   UNL A   1      37.897  30.618  36.414  1.00  0.00    -0.206 F 
ATOM     66  C   UNL A   1      38.374  33.963  37.704  1.00  0.00     0.022 A 
BRANCH  63  67
ATOM     67  S   UNL A   1      40.059  36.079  37.029  1.00  0.00     0.124 S 
ATOM     68  O   UNL A   1      41.439  35.669  37.281  1.00  0.00    -0.237 OA
ATOM     69  O   UNL A   1      39.820  36.780  35.773  1.00  0.00    -0.237 OA
ATOM     70  O   UNL A   1      39.356  36.619  38.191  1.00  0.00    -0.744 OA
ENDBRANCH  63  67
ENDBRANCH  46  60
BRANCH  47  71
ATOM     71  C   UNL A   1      41.947  26.916  27.541  1.00  0.00     0.023 A 
ATOM     72  C   UNL A   1      41.705  25.539  27.428  1.00  0.00     0.031 A 
ATOM     73  C   UNL A   1      42.674  27.544  26.513  1.00  0.00     0.131 A 
ATOM     74  C   UNL A   1      42.223  24.825  26.335  1.00  0.00     0.055 A 
ATOM     75  C   UNL A   1      43.139  26.841  25.401  1.00  0.00     0.041 A 
ATOM     76  F   UNL A   1      42.936  28.859  26.571  1.00  0.00    -0.206 F 
ATOM     77  C   UNL A   1      42.925  25.469  25.314  1.00  0.00     0.022 A 
BRANCH  74  78
ATOM     78  S   UNL A   1      42.041  23.021  26.310  1.00  0.00     0.124 S 
ATOM     79  O   UNL A   1      42.793  22.630  27.497  1.00  0.00    -0.237 OA
ATOM     80  O   UNL A   1      40.593  22.862  26.388  1.00  0.00    -0.237 OA
ATOM     81  O   UNL A   1      42.641  22.636  25.035  1.00  0.00    -0.744 OA
ENDBRANCH  74  78
ENDBRANCH  47  71
BRANCH  59  82
ATOM     82  C   UNL A   1      44.489  27.689  34.001  1.00  0.00     0.023 A 
ATOM     83  C   UNL A   1      44.339  26.533  34.786  1.00  0.00     0.031 A 
ATOM     84  C   UNL A   1      45.774  28.253  33.897  1.00  0.00     0.131 A 
ATOM     85  C   UNL A   1      45.440  26.013  35.482  1.00  0.00     0.055 A 
ATOM     86  C   UNL A   1      46.879  27.693  34.537  1.00  0.00     0.041 A 
ATOM     87  F   UNL A   1      45.978  29.360  33.163  1.00  0.00    -0.206 F 
ATOM     88  C   UNL A   1      46.713  26.573  35.349  1.00  0.00     0.022 A 
BRANCH  85  89
ATOM     89  S   UNL A   1      45.169  24.650  36.649  1.00  0.00     0.124 S 
ATOM     90  O   UNL A   1      46.329  24.768  37.527  1.00  0.00    -0.237 OA
ATOM     91  O   UNL A   1      43.882  24.999  37.242  1.00  0.00    -0.237 OA
ATOM     92  O   UNL A   1      45.157  23.465  35.795  1.00  0.00    -0.744 OA
ENDBRANCH  85  89
ENDBRANCH  59  82
ENDBRANCH  33  34
ENDBRANCH  26  28
ENDBRANCH  25  26
ENDBRANCH  24  25
ENDBRANCH  23  24
ENDBRANCH   1  23
TORSDOF 20
ENDMDL
