MODEL 1
REMARK VINA RESULT:     -10.1      0.000      0.000
REMARK SMILES COC(=O)/C(=C/c1ccc(C)o1)CC(=O)OCCOCCOC(=O)c1ccc(-c2c3nc(c(-c4cc(S(=O)(=O)[O-])ccc4F)c4ccc([nH]4)c(-c4cc(S(=O)(=O)[O-])ccc4F)c4nc(c(-c5cc(S(=O)(=O)[O-])ccc5F)c5ccc2[nH]5)C=C4)C=C3)cc1
REMARK SMILES IDX 19 1 18 2 17 3 16 4 14 5 15 6 13 7 5 8 6 9 3 10 4 11 2 12
REMARK SMILES IDX 1 13 7 14 8 15 12 16 9 17 10 18 11 19 20 20 21 21 22 22
REMARK SMILES IDX 23 23 24 24 25 25 26 26 87 27 27 28 86 29 28 30 29 31 30 32
REMARK SMILES IDX 80 33 31 34 85 35 79 36 81 37 32 38 84 39 78 40 77 41 33 43
REMARK SMILES IDX 65 44 45 45 64 46 46 47 49 48 63 49 82 50 47 51 48 52 62 54
REMARK SMILES IDX 83 55 50 56 34 57 35 58 43 59 36 60 42 61 44 62 41 63 37 64
REMARK SMILES IDX 38 65 39 66 40 67 66 68 67 69 75 70 68 71 74 72 76 73 73 74
REMARK SMILES IDX 69 75 70 76 71 77 72 78 51 79 52 80 60 81 53 82 59 83 61 84
REMARK SMILES IDX 58 85 54 86 55 87 56 88 57 89
REMARK H PARENT 81 42 49 53
REMARK Flexibility Score: inf
ROOT
ATOM      1  O   UNL A   1      31.796  29.628  27.124  1.00  0.00    -0.374 OA
ENDROOT
BRANCH   1   2
ATOM      2  C   UNL A   1      32.404  28.377  26.799  1.00  0.00     0.202 C 
BRANCH   2   3
ATOM      3  C   UNL A   1      31.455  27.250  26.379  1.00  0.00     0.261 C 
BRANCH   3   4
ATOM      4  O   UNL A   1      31.915  26.582  25.188  1.00  0.00    -0.463 OA
BRANCH   4   5
ATOM      5  C   UNL A   1      32.806  25.577  25.384  1.00  0.00     0.310 C 
ATOM      6  O   UNL A   1      32.661  24.657  26.184  1.00  0.00    -0.252 OA
BRANCH   5   7
ATOM      7  C   UNL A   1      34.016  25.643  24.467  1.00  0.00     0.166 C 
BRANCH   7   8
ATOM      8  C   UNL A   1      33.861  25.029  23.098  1.00  0.00     0.052 C 
ATOM      9  C   UNL A   1      34.016  23.730  22.773  1.00  0.00     0.059 C 
BRANCH   8  10
ATOM     10  C   UNL A   1      33.339  25.974  22.057  1.00  0.00     0.334 C 
ATOM     11  O   UNL A   1      33.774  27.110  21.917  1.00  0.00    -0.247 OA
BRANCH  10  12
ATOM     12  O   UNL A   1      32.339  25.432  21.320  1.00  0.00    -0.466 OA
ATOM     13  C   UNL A   1      32.479  25.548  19.901  1.00  0.00     0.282 C 
ENDBRANCH  10  12
ENDBRANCH   8  10
BRANCH   9  14
ATOM     14  C   UNL A   1      34.412  22.671  23.640  1.00  0.00     0.127 A 
ATOM     15  C   UNL A   1      33.712  21.762  24.428  1.00  0.00     0.050 A 
ATOM     16  O   UNL A   1      35.755  22.417  23.843  1.00  0.00    -0.462 OA
ATOM     17  C   UNL A   1      34.647  20.939  25.101  1.00  0.00     0.046 A 
ATOM     18  C   UNL A   1      35.884  21.387  24.716  1.00  0.00     0.101 A 
ATOM     19  C   UNL A   1      37.262  20.996  25.065  1.00  0.00     0.087 C 
ENDBRANCH   9  14
ENDBRANCH   7   8
ENDBRANCH   5   7
ENDBRANCH   4   5
ENDBRANCH   3   4
ENDBRANCH   2   3
ENDBRANCH   1   2
BRANCH   1  20
ATOM     20  C   UNL A   1      31.602  30.561  26.060  1.00  0.00     0.202 C 
BRANCH  20  21
ATOM     21  C   UNL A   1      31.632  32.051  26.426  1.00  0.00     0.261 C 
BRANCH  21  22
ATOM     22  O   UNL A   1      32.193  32.309  27.727  1.00  0.00    -0.460 OA
BRANCH  22  23
ATOM     23  C   UNL A   1      33.165  33.257  27.731  1.00  0.00     0.338 C 
ATOM     24  O   UNL A   1      33.003  34.467  27.648  1.00  0.00    -0.246 OA
BRANCH  23  25
ATOM     25  C   UNL A   1      34.488  32.672  28.023  1.00  0.00     0.060 A 
ATOM     26  C   UNL A   1      34.530  31.301  28.306  1.00  0.00     0.016 A 
ATOM     27  C   UNL A   1      35.640  33.453  28.140  1.00  0.00     0.016 A 
ATOM     28  C   UNL A   1      35.708  30.716  28.766  1.00  0.00     0.010 A 
ATOM     29  C   UNL A   1      36.823  32.863  28.610  1.00  0.00     0.010 A 
ATOM     30  C   UNL A   1      36.852  31.501  28.962  1.00  0.00    -0.014 A 
BRANCH  30  31
ATOM     31  C   UNL A   1      38.017  30.913  29.676  1.00  0.00     0.031 A 
ATOM     32  C   UNL A   1      38.276  31.309  31.106  1.00  0.00     0.074 A 
ATOM     33  C   UNL A   1      38.797  29.993  29.079  1.00  0.00     0.049 A 
ATOM     34  N   UNL A   1      39.221  30.914  31.921  1.00  0.00    -0.248 NA
ATOM     35  C   UNL A   1      37.343  32.283  31.693  1.00  0.00     0.031 C 
ATOM     36  C   UNL A   1      38.618  29.496  27.716  1.00  0.00     0.029 A 
ATOM     37  N   UNL A   1      39.894  29.311  29.545  1.00  0.00    -0.354 N 
ATOM     38  C   UNL A   1      38.996  31.586  33.119  1.00  0.00     0.074 A 
ATOM     39  C   UNL A   1      37.849  32.445  32.906  1.00  0.00     0.031 C 
ATOM     40  C   UNL A   1      39.576  28.590  27.453  1.00  0.00     0.029 A 
ATOM     41  C   UNL A   1      40.455  28.467  28.615  1.00  0.00     0.049 A 
ATOM     42  H   UNL A   1      40.246  29.417  30.457  1.00  0.00     0.167 HD
ATOM     43  C   UNL A   1      39.675  31.487  34.289  1.00  0.00     0.034 A 
ATOM     44  C   UNL A   1      41.561  27.698  28.687  1.00  0.00     0.034 A 
ATOM     45  C   UNL A   1      40.825  30.638  34.483  1.00  0.00     0.049 A 
ATOM     46  C   UNL A   1      42.352  27.670  29.973  1.00  0.00     0.074 A 
ATOM     47  C   UNL A   1      41.580  30.454  35.629  1.00  0.00     0.029 A 
ATOM     48  N   UNL A   1      41.397  29.837  33.502  1.00  0.00    -0.354 N 
ATOM     49  N   UNL A   1      42.122  28.302  31.100  1.00  0.00    -0.248 NA
ATOM     50  C   UNL A   1      43.548  26.816  29.997  1.00  0.00     0.031 C 
ATOM     51  C   UNL A   1      42.646  29.601  35.322  1.00  0.00     0.029 A 
ATOM     52  C   UNL A   1      42.514  29.187  34.006  1.00  0.00     0.049 A 
ATOM     53  H   UNL A   1      41.058  29.744  32.582  1.00  0.00     0.167 HD
ATOM     54  C   UNL A   1      43.127  27.898  31.976  1.00  0.00     0.074 A 
ATOM     55  C   UNL A   1      43.957  26.959  31.249  1.00  0.00     0.031 C 
ATOM     56  C   UNL A   1      43.343  28.264  33.266  1.00  0.00     0.034 A 
BRANCH  43  57
ATOM     57  C   UNL A   1      39.217  32.366  35.431  1.00  0.00     0.023 A 
ATOM     58  C   UNL A   1      39.665  33.692  35.571  1.00  0.00     0.031 A 
ATOM     59  C   UNL A   1      38.346  31.859  36.410  1.00  0.00     0.131 A 
ATOM     60  C   UNL A   1      39.294  34.440  36.700  1.00  0.00     0.055 A 
ATOM     61  C   UNL A   1      37.920  32.633  37.491  1.00  0.00     0.041 A 
ATOM     62  F   UNL A   1      37.902  30.593  36.342  1.00  0.00    -0.206 F 
ATOM     63  C   UNL A   1      38.407  33.927  37.649  1.00  0.00     0.022 A 
BRANCH  60  64
ATOM     64  S   UNL A   1      40.101  36.039  36.985  1.00  0.00     0.124 S 
ATOM     65  O   UNL A   1      41.409  35.624  37.489  1.00  0.00    -0.237 OA
ATOM     66  O   UNL A   1      40.088  36.640  35.657  1.00  0.00    -0.237 OA
ATOM     67  O   UNL A   1      39.240  36.687  37.973  1.00  0.00    -0.744 OA
ENDBRANCH  60  64
ENDBRANCH  43  57
BRANCH  44  68
ATOM     68  C   UNL A   1      42.018  26.921  27.498  1.00  0.00     0.023 A 
ATOM     69  C   UNL A   1      41.785  25.541  27.394  1.00  0.00     0.031 A 
ATOM     70  C   UNL A   1      42.747  27.547  26.471  1.00  0.00     0.131 A 
ATOM     71  C   UNL A   1      42.312  24.823  26.308  1.00  0.00     0.055 A 
ATOM     72  C   UNL A   1      43.226  26.838  25.368  1.00  0.00     0.041 A 
ATOM     73  F   UNL A   1      43.001  28.864  26.523  1.00  0.00    -0.206 F 
ATOM     74  C   UNL A   1      43.020  25.465  25.289  1.00  0.00     0.022 A 
BRANCH  71  75
ATOM     75  S   UNL A   1      42.130  23.018  26.286  1.00  0.00     0.124 S 
ATOM     76  O   UNL A   1      40.685  22.864  26.410  1.00  0.00    -0.237 OA
ATOM     77  O   UNL A   1      42.705  22.673  24.991  1.00  0.00    -0.237 OA
ATOM     78  O   UNL A   1      42.908  22.584  27.446  1.00  0.00    -0.744 OA
ENDBRANCH  71  75
ENDBRANCH  44  68
BRANCH  56  79
ATOM     79  C   UNL A   1      44.499  27.610  33.982  1.00  0.00     0.023 A 
ATOM     80  C   UNL A   1      44.332  26.440  34.745  1.00  0.00     0.031 A 
ATOM     81  C   UNL A   1      45.786  28.172  33.909  1.00  0.00     0.131 A 
ATOM     82  C   UNL A   1      45.422  25.902  35.447  1.00  0.00     0.055 A 
ATOM     83  C   UNL A   1      46.878  27.600  34.562  1.00  0.00     0.041 A 
ATOM     84  F   UNL A   1      46.003  29.290  33.196  1.00  0.00    -0.206 F 
ATOM     85  C   UNL A   1      46.696  26.465  35.348  1.00  0.00     0.022 A 
BRANCH  82  86
ATOM     86  S   UNL A   1      45.134  24.502  36.566  1.00  0.00     0.124 S 
ATOM     87  O   UNL A   1      44.965  23.395  35.630  1.00  0.00    -0.237 OA
ATOM     88  O   UNL A   1      46.356  24.482  37.361  1.00  0.00    -0.237 OA
ATOM     89  O   UNL A   1      43.927  24.887  37.294  1.00  0.00    -0.744 OA
ENDBRANCH  82  86
ENDBRANCH  56  79
ENDBRANCH  30  31
ENDBRANCH  23  25
ENDBRANCH  22  23
ENDBRANCH  21  22
ENDBRANCH  20  21
ENDBRANCH   1  20
TORSDOF 21
ENDMDL
MODEL 2
REMARK VINA RESULT:     -10.0      1.574      2.423
REMARK SMILES COC(=O)/C(=C/c1ccc(C)o1)CC(=O)OCCOCCOC(=O)c1ccc(-c2c3nc(c(-c4cc(S(=O)(=O)[O-])ccc4F)c4ccc([nH]4)c(-c4cc(S(=O)(=O)[O-])ccc4F)c4nc(c(-c5cc(S(=O)(=O)[O-])ccc5F)c5ccc2[nH]5)C=C4)C=C3)cc1
REMARK SMILES IDX 19 1 18 2 17 3 16 4 14 5 15 6 13 7 5 8 6 9 3 10 4 11 2 12
REMARK SMILES IDX 1 13 7 14 8 15 12 16 9 17 10 18 11 19 20 20 21 21 22 22
REMARK SMILES IDX 23 23 24 24 25 25 26 26 87 27 27 28 86 29 28 30 29 31 30 32
REMARK SMILES IDX 80 33 31 34 85 35 79 36 81 37 32 38 84 39 78 40 77 41 33 43
REMARK SMILES IDX 65 44 45 45 64 46 46 47 49 48 63 49 82 50 47 51 48 52 62 54
REMARK SMILES IDX 83 55 50 56 34 57 35 58 43 59 36 60 42 61 44 62 41 63 37 64
REMARK SMILES IDX 38 65 39 66 40 67 66 68 67 69 75 70 68 71 74 72 76 73 73 74
REMARK SMILES IDX 69 75 70 76 71 77 72 78 51 79 52 80 60 81 53 82 59 83 61 84
REMARK SMILES IDX 58 85 54 86 55 87 56 88 57 89
REMARK H PARENT 81 42 49 53
REMARK Flexibility Score: inf
ROOT
ATOM      1  O   UNL A   1      32.810  30.348  27.039  1.00  0.00    -0.374 OA
ENDROOT
BRANCH   1   2
ATOM      2  C   UNL A   1      33.406  29.377  26.179  1.00  0.00     0.202 C 
BRANCH   2   3
ATOM      3  C   UNL A   1      32.614  28.083  25.964  1.00  0.00     0.261 C 
BRANCH   3   4
ATOM      4  O   UNL A   1      32.572  27.706  24.575  1.00  0.00    -0.463 OA
BRANCH   4   5
ATOM      5  C   UNL A   1      31.929  28.573  23.750  1.00  0.00     0.310 C 
ATOM      6  O   UNL A   1      32.382  28.999  22.692  1.00  0.00    -0.252 OA
BRANCH   5   7
ATOM      7  C   UNL A   1      30.533  28.946  24.220  1.00  0.00     0.166 C 
BRANCH   7   8
ATOM      8  C   UNL A   1      29.383  28.241  23.547  1.00  0.00     0.052 C 
ATOM      9  C   UNL A   1      29.042  26.943  23.678  1.00  0.00     0.059 C 
BRANCH   8  10
ATOM     10  C   UNL A   1      28.471  29.151  22.778  1.00  0.00     0.334 C 
ATOM     11  O   UNL A   1      27.408  29.557  23.227  1.00  0.00    -0.247 OA
BRANCH  10  12
ATOM     12  O   UNL A   1      28.954  29.446  21.546  1.00  0.00    -0.466 OA
ATOM     13  C   UNL A   1      29.240  30.827  21.304  1.00  0.00     0.282 C 
ENDBRANCH  10  12
ENDBRANCH   8  10
BRANCH   9  14
ATOM     14  C   UNL A   1      29.726  25.951  24.437  1.00  0.00     0.127 A 
ATOM     15  C   UNL A   1      29.775  25.644  25.793  1.00  0.00     0.050 A 
ATOM     16  O   UNL A   1      30.573  25.064  23.801  1.00  0.00    -0.462 OA
ATOM     17  C   UNL A   1      30.651  24.546  25.973  1.00  0.00     0.046 A 
ATOM     18  C   UNL A   1      31.121  24.235  24.723  1.00  0.00     0.101 A 
ATOM     19  C   UNL A   1      32.075  23.232  24.215  1.00  0.00     0.087 C 
ENDBRANCH   9  14
ENDBRANCH   7   8
ENDBRANCH   5   7
ENDBRANCH   4   5
ENDBRANCH   3   4
ENDBRANCH   2   3
ENDBRANCH   1   2
BRANCH   1  20
ATOM     20  C   UNL A   1      31.750  31.141  26.503  1.00  0.00     0.202 C 
BRANCH  20  21
ATOM     21  C   UNL A   1      31.603  32.569  27.046  1.00  0.00     0.261 C 
BRANCH  21  22
ATOM     22  O   UNL A   1      32.791  33.368  26.880  1.00  0.00    -0.460 OA
BRANCH  22  23
ATOM     23  C   UNL A   1      33.352  33.771  28.049  1.00  0.00     0.338 C 
ATOM     24  O   UNL A   1      32.861  34.537  28.867  1.00  0.00    -0.246 OA
BRANCH  23  25
ATOM     25  C   UNL A   1      34.600  33.035  28.331  1.00  0.00     0.060 A 
ATOM     26  C   UNL A   1      34.475  31.772  28.924  1.00  0.00     0.016 A 
ATOM     27  C   UNL A   1      35.861  33.604  28.138  1.00  0.00     0.016 A 
ATOM     28  C   UNL A   1      35.605  31.099  29.383  1.00  0.00     0.010 A 
ATOM     29  C   UNL A   1      36.997  32.927  28.608  1.00  0.00     0.010 A 
ATOM     30  C   UNL A   1      36.870  31.689  29.267  1.00  0.00    -0.014 A 
BRANCH  30  31
ATOM     31  C   UNL A   1      38.023  31.070  29.974  1.00  0.00     0.031 A 
ATOM     32  C   UNL A   1      38.288  31.441  31.410  1.00  0.00     0.074 A 
ATOM     33  C   UNL A   1      38.787  30.145  29.365  1.00  0.00     0.049 A 
ATOM     34  N   UNL A   1      39.224  31.017  32.220  1.00  0.00    -0.248 NA
ATOM     35  C   UNL A   1      37.372  32.423  32.009  1.00  0.00     0.031 C 
ATOM     36  C   UNL A   1      38.601  29.670  27.994  1.00  0.00     0.029 A 
ATOM     37  N   UNL A   1      39.870  29.436  29.822  1.00  0.00    -0.354 N 
ATOM     38  C   UNL A   1      39.010  31.676  33.427  1.00  0.00     0.074 A 
ATOM     39  C   UNL A   1      37.879  32.558  33.225  1.00  0.00     0.031 C 
ATOM     40  C   UNL A   1      39.542  28.751  27.720  1.00  0.00     0.029 A 
ATOM     41  C   UNL A   1      40.417  28.595  28.881  1.00  0.00     0.049 A 
ATOM     42  H   UNL A   1      40.223  29.522  30.736  1.00  0.00     0.167 HD
ATOM     43  C   UNL A   1      39.685  31.548  34.597  1.00  0.00     0.034 A 
ATOM     44  C   UNL A   1      41.509  27.805  28.942  1.00  0.00     0.034 A 
ATOM     45  C   UNL A   1      40.819  30.674  34.779  1.00  0.00     0.049 A 
ATOM     46  C   UNL A   1      42.298  27.744  30.229  1.00  0.00     0.074 A 
ATOM     47  C   UNL A   1      41.569  30.461  35.924  1.00  0.00     0.029 A 
ATOM     48  N   UNL A   1      41.378  29.878  33.787  1.00  0.00    -0.354 N 
ATOM     49  N   UNL A   1      42.077  28.364  31.365  1.00  0.00    -0.248 NA
ATOM     50  C   UNL A   1      43.477  26.868  30.242  1.00  0.00     0.031 C 
ATOM     51  C   UNL A   1      42.620  29.593  35.605  1.00  0.00     0.029 A 
ATOM     52  C   UNL A   1      42.482  29.200  34.283  1.00  0.00     0.049 A 
ATOM     53  H   UNL A   1      41.039  29.804  32.866  1.00  0.00     0.167 HD
ATOM     54  C   UNL A   1      43.074  27.929  32.236  1.00  0.00     0.074 A 
ATOM     55  C   UNL A   1      43.887  26.985  31.496  1.00  0.00     0.031 C 
ATOM     56  C   UNL A   1      43.294  28.273  33.531  1.00  0.00     0.034 A 
BRANCH  43  57
ATOM     57  C   UNL A   1      39.242  32.418  35.750  1.00  0.00     0.023 A 
ATOM     58  C   UNL A   1      39.627  33.767  35.852  1.00  0.00     0.031 A 
ATOM     59  C   UNL A   1      38.450  31.881  36.779  1.00  0.00     0.131 A 
ATOM     60  C   UNL A   1      39.278  34.511  36.990  1.00  0.00     0.055 A 
ATOM     61  C   UNL A   1      38.041  32.649  37.872  1.00  0.00     0.041 A 
ATOM     62  F   UNL A   1      38.069  30.594  36.749  1.00  0.00    -0.206 F 
ATOM     63  C   UNL A   1      38.468  33.968  37.989  1.00  0.00     0.022 A 
BRANCH  60  64
ATOM     64  S   UNL A   1      40.015  36.153  37.214  1.00  0.00     0.124 S 
ATOM     65  O   UNL A   1      41.378  35.813  37.616  1.00  0.00    -0.237 OA
ATOM     66  O   UNL A   1      39.868  36.748  35.890  1.00  0.00    -0.237 OA
ATOM     67  O   UNL A   1      39.197  36.756  38.264  1.00  0.00    -0.744 OA
ENDBRANCH  60  64
ENDBRANCH  43  57
BRANCH  44  68
ATOM     68  C   UNL A   1      41.953  27.037  27.743  1.00  0.00     0.023 A 
ATOM     69  C   UNL A   1      41.708  25.660  27.626  1.00  0.00     0.031 A 
ATOM     70  C   UNL A   1      42.681  27.667  26.719  1.00  0.00     0.131 A 
ATOM     71  C   UNL A   1      42.224  24.949  26.530  1.00  0.00     0.055 A 
ATOM     72  C   UNL A   1      43.148  26.967  25.605  1.00  0.00     0.041 A 
ATOM     73  F   UNL A   1      42.946  28.982  26.783  1.00  0.00    -0.206 F 
ATOM     74  C   UNL A   1      42.931  25.596  25.513  1.00  0.00     0.022 A 
BRANCH  71  75
ATOM     75  S   UNL A   1      42.027  23.146  26.491  1.00  0.00     0.124 S 
ATOM     76  O   UNL A   1      40.581  23.002  26.614  1.00  0.00    -0.237 OA
ATOM     77  O   UNL A   1      42.599  22.809  25.191  1.00  0.00    -0.237 OA
ATOM     78  O   UNL A   1      42.802  22.694  27.646  1.00  0.00    -0.744 OA
ENDBRANCH  71  75
ENDBRANCH  44  68
BRANCH  56  79
ATOM     79  C   UNL A   1      44.438  27.587  34.239  1.00  0.00     0.023 A 
ATOM     80  C   UNL A   1      44.254  26.392  34.958  1.00  0.00     0.031 A 
ATOM     81  C   UNL A   1      45.728  28.145  34.203  1.00  0.00     0.131 A 
ATOM     82  C   UNL A   1      45.332  25.823  35.655  1.00  0.00     0.055 A 
ATOM     83  C   UNL A   1      46.808  27.543  34.850  1.00  0.00     0.041 A 
ATOM     84  F   UNL A   1      45.961  29.285  33.533  1.00  0.00    -0.206 F 
ATOM     85  C   UNL A   1      46.611  26.382  35.592  1.00  0.00     0.022 A 
BRANCH  82  86
ATOM     86  S   UNL A   1      45.022  24.386  36.719  1.00  0.00     0.124 S 
ATOM     87  O   UNL A   1      46.370  24.026  37.143  1.00  0.00    -0.237 OA
ATOM     88  O   UNL A   1      44.157  24.945  37.753  1.00  0.00    -0.237 OA
ATOM     89  O   UNL A   1      44.377  23.429  35.823  1.00  0.00    -0.744 OA
ENDBRANCH  82  86
ENDBRANCH  56  79
ENDBRANCH  30  31
ENDBRANCH  23  25
ENDBRANCH  22  23
ENDBRANCH  21  22
ENDBRANCH  20  21
ENDBRANCH   1  20
TORSDOF 21
ENDMDL
MODEL 3
REMARK VINA RESULT:      -9.7      1.865      3.043
REMARK SMILES COC(=O)/C(=C/c1ccc(C)o1)CC(=O)OCCOCCOC(=O)c1ccc(-c2c3nc(c(-c4cc(S(=O)(=O)[O-])ccc4F)c4ccc([nH]4)c(-c4cc(S(=O)(=O)[O-])ccc4F)c4nc(c(-c5cc(S(=O)(=O)[O-])ccc5F)c5ccc2[nH]5)C=C4)C=C3)cc1
REMARK SMILES IDX 19 1 18 2 17 3 16 4 14 5 15 6 13 7 5 8 6 9 3 10 4 11 2 12
REMARK SMILES IDX 1 13 7 14 8 15 12 16 9 17 10 18 11 19 20 20 21 21 22 22
REMARK SMILES IDX 23 23 24 24 25 25 26 26 87 27 27 28 86 29 28 30 29 31 30 32
REMARK SMILES IDX 80 33 31 34 85 35 79 36 81 37 32 38 84 39 78 40 77 41 33 43
REMARK SMILES IDX 65 44 45 45 64 46 46 47 49 48 63 49 82 50 47 51 48 52 62 54
REMARK SMILES IDX 83 55 50 56 34 57 35 58 43 59 36 60 42 61 44 62 41 63 37 64
REMARK SMILES IDX 38 65 39 66 40 67 66 68 67 69 75 70 68 71 74 72 76 73 73 74
REMARK SMILES IDX 69 75 70 76 71 77 72 78 51 79 52 80 60 81 53 82 59 83 61 84
REMARK SMILES IDX 58 85 54 86 55 87 56 88 57 89
REMARK H PARENT 81 42 49 53
REMARK Flexibility Score: inf
ROOT
ATOM      1  O   UNL A   1      32.781  30.434  26.790  1.00  0.00    -0.374 OA
ENDROOT
BRANCH   1   2
ATOM      2  C   UNL A   1      33.048  29.316  25.944  1.00  0.00     0.202 C 
BRANCH   2   3
ATOM      3  C   UNL A   1      33.394  27.999  26.647  1.00  0.00     0.261 C 
BRANCH   3   4
ATOM      4  O   UNL A   1      32.865  26.861  25.940  1.00  0.00    -0.463 OA
BRANCH   4   5
ATOM      5  C   UNL A   1      31.672  26.393  26.389  1.00  0.00     0.310 C 
ATOM      6  O   UNL A   1      30.836  27.063  26.985  1.00  0.00    -0.252 OA
BRANCH   5   7
ATOM      7  C   UNL A   1      31.413  24.937  26.036  1.00  0.00     0.166 C 
BRANCH   7   8
ATOM      8  C   UNL A   1      31.674  24.532  24.608  1.00  0.00     0.052 C 
ATOM      9  C   UNL A   1      31.163  25.104  23.499  1.00  0.00     0.059 C 
BRANCH   8  10
ATOM     10  C   UNL A   1      32.726  23.474  24.452  1.00  0.00     0.334 C 
ATOM     11  O   UNL A   1      32.457  22.295  24.261  1.00  0.00    -0.247 OA
BRANCH  10  12
ATOM     12  O   UNL A   1      33.982  23.973  24.563  1.00  0.00    -0.466 OA
ATOM     13  C   UNL A   1      34.904  23.567  23.546  1.00  0.00     0.282 C 
ENDBRANCH  10  12
ENDBRANCH   8  10
BRANCH   9  14
ATOM     14  C   UNL A   1      30.228  26.177  23.442  1.00  0.00     0.127 A 
ATOM     15  C   UNL A   1      28.908  26.324  23.857  1.00  0.00     0.050 A 
ATOM     16  O   UNL A   1      30.587  27.369  22.843  1.00  0.00    -0.462 OA
ATOM     17  C   UNL A   1      28.474  27.628  23.518  1.00  0.00     0.046 A 
ATOM     18  C   UNL A   1      29.536  28.225  22.890  1.00  0.00     0.101 A 
ATOM     19  C   UNL A   1      29.742  29.547  22.270  1.00  0.00     0.087 C 
ENDBRANCH   9  14
ENDBRANCH   7   8
ENDBRANCH   5   7
ENDBRANCH   4   5
ENDBRANCH   3   4
ENDBRANCH   2   3
ENDBRANCH   1   2
BRANCH   1  20
ATOM     20  C   UNL A   1      31.718  31.309  26.409  1.00  0.00     0.202 C 
BRANCH  20  21
ATOM     21  C   UNL A   1      31.735  32.725  27.001  1.00  0.00     0.261 C 
BRANCH  21  22
ATOM     22  O   UNL A   1      33.021  33.368  26.910  1.00  0.00    -0.460 OA
BRANCH  22  23
ATOM     23  C   UNL A   1      33.565  33.686  28.112  1.00  0.00     0.338 C 
ATOM     24  O   UNL A   1      33.064  34.394  28.975  1.00  0.00    -0.246 OA
BRANCH  23  25
ATOM     25  C   UNL A   1      34.808  32.930  28.359  1.00  0.00     0.060 A 
ATOM     26  C   UNL A   1      34.676  31.648  28.910  1.00  0.00     0.016 A 
ATOM     27  C   UNL A   1      36.073  33.493  28.177  1.00  0.00     0.016 A 
ATOM     28  C   UNL A   1      35.802  30.949  29.338  1.00  0.00     0.010 A 
ATOM     29  C   UNL A   1      37.206  32.790  28.616  1.00  0.00     0.010 A 
ATOM     30  C   UNL A   1      37.072  31.532  29.233  1.00  0.00    -0.014 A 
BRANCH  30  31
ATOM     31  C   UNL A   1      38.224  30.878  29.909  1.00  0.00     0.031 A 
ATOM     32  C   UNL A   1      38.508  31.204  31.352  1.00  0.00     0.074 A 
ATOM     33  C   UNL A   1      38.970  29.961  29.266  1.00  0.00     0.049 A 
ATOM     34  N   UNL A   1      39.446  30.745  32.140  1.00  0.00    -0.248 NA
ATOM     35  C   UNL A   1      37.611  32.180  31.989  1.00  0.00     0.031 C 
ATOM     36  C   UNL A   1      38.763  29.528  27.885  1.00  0.00     0.029 A 
ATOM     37  N   UNL A   1      40.048  29.226  29.692  1.00  0.00    -0.354 N 
ATOM     38  C   UNL A   1      39.253  31.372  33.368  1.00  0.00     0.074 A 
ATOM     39  C   UNL A   1      38.132  32.274  33.203  1.00  0.00     0.031 C 
ATOM     40  C   UNL A   1      39.690  28.605  27.575  1.00  0.00     0.029 A 
ATOM     41  C   UNL A   1      40.575  28.405  28.722  1.00  0.00     0.049 A 
ATOM     42  H   UNL A   1      40.411  29.281  30.604  1.00  0.00     0.167 HD
ATOM     43  C   UNL A   1      39.938  31.202  34.527  1.00  0.00     0.034 A 
ATOM     44  C   UNL A   1      41.657  27.600  28.749  1.00  0.00     0.034 A 
ATOM     45  C   UNL A   1      41.063  30.310  34.672  1.00  0.00     0.049 A 
ATOM     46  C   UNL A   1      42.458  27.492  30.025  1.00  0.00     0.074 A 
ATOM     47  C   UNL A   1      41.822  30.054  35.802  1.00  0.00     0.029 A 
ATOM     48  N   UNL A   1      41.601  29.535  33.652  1.00  0.00    -0.354 N 
ATOM     49  N   UNL A   1      42.257  28.082  31.181  1.00  0.00    -0.248 NA
ATOM     50  C   UNL A   1      43.626  26.601  30.001  1.00  0.00     0.031 C 
ATOM     51  C   UNL A   1      42.858  29.182  35.449  1.00  0.00     0.029 A 
ATOM     52  C   UNL A   1      42.701  28.829  34.117  1.00  0.00     0.049 A 
ATOM     53  H   UNL A   1      41.252  29.491  32.733  1.00  0.00     0.167 HD
ATOM     54  C   UNL A   1      43.256  27.610  32.028  1.00  0.00     0.074 A 
ATOM     55  C   UNL A   1      44.050  26.677  31.254  1.00  0.00     0.031 C 
ATOM     56  C   UNL A   1      43.494  27.913  33.331  1.00  0.00     0.034 A 
BRANCH  43  57
ATOM     57  C   UNL A   1      39.519  32.044  35.709  1.00  0.00     0.023 A 
ATOM     58  C   UNL A   1      38.740  31.519  36.755  1.00  0.00     0.031 A 
ATOM     59  C   UNL A   1      39.876  33.402  35.774  1.00  0.00     0.131 A 
ATOM     60  C   UNL A   1      38.288  32.361  37.783  1.00  0.00     0.055 A 
ATOM     61  C   UNL A   1      39.488  34.218  36.839  1.00  0.00     0.041 A 
ATOM     62  F   UNL A   1      40.600  33.967  34.794  1.00  0.00    -0.206 F 
ATOM     63  C   UNL A   1      38.676  33.702  37.844  1.00  0.00     0.022 A 
BRANCH  60  64
ATOM     64  S   UNL A   1      37.070  31.716  38.962  1.00  0.00     0.124 S 
ATOM     65  O   UNL A   1      37.821  31.757  40.215  1.00  0.00    -0.237 OA
ATOM     66  O   UNL A   1      35.975  32.672  38.840  1.00  0.00    -0.237 OA
ATOM     67  O   UNL A   1      36.784  30.373  38.461  1.00  0.00    -0.744 OA
ENDBRANCH  60  64
ENDBRANCH  43  57
BRANCH  44  68
ATOM     68  C   UNL A   1      42.078  26.860  27.524  1.00  0.00     0.023 A 
ATOM     69  C   UNL A   1      41.875  25.478  27.398  1.00  0.00     0.031 A 
ATOM     70  C   UNL A   1      42.746  27.527  26.481  1.00  0.00     0.131 A 
ATOM     71  C   UNL A   1      42.370  24.797  26.275  1.00  0.00     0.055 A 
ATOM     72  C   UNL A   1      43.192  26.855  25.341  1.00  0.00     0.041 A 
ATOM     73  F   UNL A   1      42.969  28.848  26.551  1.00  0.00    -0.206 F 
ATOM     74  C   UNL A   1      43.016  25.479  25.240  1.00  0.00     0.022 A 
BRANCH  71  75
ATOM     75  S   UNL A   1      42.231  22.989  26.220  1.00  0.00     0.124 S 
ATOM     76  O   UNL A   1      42.726  22.694  24.880  1.00  0.00    -0.237 OA
ATOM     77  O   UNL A   1      43.093  22.587  27.326  1.00  0.00    -0.237 OA
ATOM     78  O   UNL A   1      40.804  22.751  26.426  1.00  0.00    -0.744 OA
ENDBRANCH  71  75
ENDBRANCH  44  68
BRANCH  56  79
ATOM     79  C   UNL A   1      44.635  27.193  34.007  1.00  0.00     0.023 A 
ATOM     80  C   UNL A   1      44.443  25.982  34.695  1.00  0.00     0.031 A 
ATOM     81  C   UNL A   1      45.933  27.734  33.971  1.00  0.00     0.131 A 
ATOM     82  C   UNL A   1      45.520  25.380  35.365  1.00  0.00     0.055 A 
ATOM     83  C   UNL A   1      47.012  27.101  34.589  1.00  0.00     0.041 A 
ATOM     84  F   UNL A   1      46.174  28.889  33.329  1.00  0.00    -0.206 F 
ATOM     85  C   UNL A   1      46.806  25.923  35.303  1.00  0.00     0.022 A 
BRANCH  82  86
ATOM     86  S   UNL A   1      45.202  23.920  36.394  1.00  0.00     0.124 S 
ATOM     87  O   UNL A   1      44.353  23.114  35.523  1.00  0.00    -0.237 OA
ATOM     88  O   UNL A   1      46.546  23.404  36.628  1.00  0.00    -0.237 OA
ATOM     89  O   UNL A   1      44.536  24.469  37.573  1.00  0.00    -0.744 OA
ENDBRANCH  82  86
ENDBRANCH  56  79
ENDBRANCH  30  31
ENDBRANCH  23  25
ENDBRANCH  22  23
ENDBRANCH  21  22
ENDBRANCH  20  21
ENDBRANCH   1  20
TORSDOF 21
ENDMDL
