MODEL 1
REMARK VINA RESULT:     -11.9      0.000      0.000
REMARK SMILES Cc1ccc(C(=O)c2cccc(C)c2C(=O)OCCOCCOC(=O)c2ccc(-c3c4nc(c(-c5cc(S(=O)(=O)[O-])ccc5F)c5ccc([nH]5)c(-c5cc(S(=O)(=O)[O-])ccc5F)c5nc(c(-c6cc(S(=O)(=O)[O-])ccc6F)c6ccc3[nH]6)C=C5)C=C4)cc2)c(C)c1
REMARK SMILES IDX 21 1 20 2 19 3 18 4 17 5 15 6 16 7 14 8 8 9 9 10 10 11 12 12
REMARK SMILES IDX 11 13 13 14 6 15 7 16 5 17 1 18 2 19 3 20 91 21 4 22 89 23
REMARK SMILES IDX 90 24 22 25 23 26 24 27 25 28 26 29 27 30 88 31 28 32 87 33
REMARK SMILES IDX 29 34 30 35 31 36 81 37 32 38 86 39 80 40 82 41 33 42 85 43
REMARK SMILES IDX 79 44 78 45 34 47 66 48 46 49 65 50 47 51 50 52 64 53 83 54
REMARK SMILES IDX 48 55 49 56 63 58 84 59 51 60 35 61 36 62 44 63 37 64 43 65
REMARK SMILES IDX 45 66 42 67 38 68 39 69 40 70 41 71 67 72 68 73 76 74 69 75
REMARK SMILES IDX 75 76 77 77 74 78 70 79 71 80 72 81 73 82 52 83 53 84 61 85
REMARK SMILES IDX 54 86 60 87 62 88 59 89 55 90 56 91 57 92 58 93
REMARK H PARENT 82 46 50 57
REMARK Flexibility Score: inf
ROOT
ATOM      1  C   UNL A   1      32.876  29.502  26.737  1.00  0.00     0.202 C 
ENDROOT
BRANCH   1   2
ATOM      2  O   UNL A   1      31.653  28.894  27.071  1.00  0.00    -0.374 OA
BRANCH   2   3
ATOM      3  C   UNL A   1      31.457  27.576  26.554  1.00  0.00     0.202 C 
BRANCH   3   4
ATOM      4  C   UNL A   1      32.831  26.991  26.556  1.00  0.00     0.261 C 
BRANCH   4   5
ATOM      5  O   UNL A   1      32.809  25.681  25.973  1.00  0.00    -0.460 OA
BRANCH   5   6
ATOM      6  C   UNL A   1      33.913  25.262  25.322  1.00  0.00     0.339 C 
ATOM      7  O   UNL A   1      35.054  25.667  25.481  1.00  0.00    -0.246 OA
BRANCH   6   8
ATOM      8  C   UNL A   1      33.538  24.093  24.497  1.00  0.00     0.074 A 
ATOM      9  C   UNL A   1      32.851  24.248  23.265  1.00  0.00     0.037 A 
ATOM     10  C   UNL A   1      32.330  23.111  22.638  1.00  0.00     0.013 A 
ATOM     11  C   UNL A   1      32.509  21.848  23.209  1.00  0.00     0.001 A 
ATOM     12  C   UNL A   1      33.800  22.805  25.028  1.00  0.00    -0.036 A 
ATOM     13  C   UNL A   1      33.263  21.693  24.371  1.00  0.00     0.004 A 
ATOM     14  C   UNL A   1      34.664  22.587  26.247  1.00  0.00     0.045 C 
BRANCH   9  15
ATOM     15  C   UNL A   1      32.898  25.536  22.504  1.00  0.00     0.194 C 
ATOM     16  O   UNL A   1      33.615  25.527  21.510  1.00  0.00    -0.289 OA
BRANCH  15  17
ATOM     17  C   UNL A   1      32.035  26.731  22.776  1.00  0.00     0.025 A 
ATOM     18  C   UNL A   1      29.444  30.141  23.440  1.00  0.00     0.044 C 
ATOM     19  C   UNL A   1      30.320  28.947  23.210  1.00  0.00    -0.051 A 
ATOM     20  C   UNL A   1      29.796  27.663  23.061  1.00  0.00     0.004 A 
ATOM     21  C   UNL A   1      31.708  29.111  23.194  1.00  0.00     0.007 A 
ATOM     22  C   UNL A   1      30.643  26.566  22.854  1.00  0.00     0.013 A 
ATOM     23  C   UNL A   1      32.580  28.022  22.996  1.00  0.00    -0.040 A 
ATOM     24  C   UNL A   1      34.053  28.338  23.019  1.00  0.00     0.045 C 
ENDBRANCH  15  17
ENDBRANCH   9  15
ENDBRANCH   6   8
ENDBRANCH   5   6
ENDBRANCH   4   5
ENDBRANCH   3   4
ENDBRANCH   2   3
ENDBRANCH   1   2
BRANCH   1  25
ATOM     25  C   UNL A   1      33.009  30.919  27.299  1.00  0.00     0.261 C 
BRANCH  25  26
ATOM     26  O   UNL A   1      34.392  31.332  27.274  1.00  0.00    -0.460 OA
BRANCH  26  27
ATOM     27  C   UNL A   1      34.999  31.391  28.494  1.00  0.00     0.338 C 
ATOM     28  O   UNL A   1      34.784  32.246  29.337  1.00  0.00    -0.246 OA
BRANCH  27  29
ATOM     29  C   UNL A   1      36.055  30.343  28.589  1.00  0.00     0.060 A 
ATOM     30  C   UNL A   1      36.308  29.711  29.820  1.00  0.00     0.016 A 
ATOM     31  C   UNL A   1      36.947  30.189  27.529  1.00  0.00     0.016 A 
ATOM     32  C   UNL A   1      37.519  29.036  30.023  1.00  0.00     0.010 A 
ATOM     33  C   UNL A   1      38.176  29.610  27.765  1.00  0.00     0.010 A 
ATOM     34  C   UNL A   1      38.479  29.051  29.015  1.00  0.00    -0.014 A 
BRANCH  34  35
ATOM     35  C   UNL A   1      39.861  28.604  29.164  1.00  0.00     0.031 A 
ATOM     36  C   UNL A   1      40.210  27.206  28.874  1.00  0.00     0.074 A 
ATOM     37  C   UNL A   1      40.859  29.495  29.342  1.00  0.00     0.049 A 
ATOM     38  N   UNL A   1      41.324  26.656  29.213  1.00  0.00    -0.248 NA
ATOM     39  C   UNL A   1      39.282  26.266  28.253  1.00  0.00     0.031 C 
ATOM     40  C   UNL A   1      42.282  29.349  29.045  1.00  0.00     0.029 A 
ATOM     41  N   UNL A   1      40.779  30.763  29.916  1.00  0.00    -0.354 N 
ATOM     42  C   UNL A   1      41.418  25.478  28.516  1.00  0.00     0.074 A 
ATOM     43  C   UNL A   1      40.060  25.187  28.140  1.00  0.00     0.031 C 
ATOM     44  C   UNL A   1      42.958  30.306  29.701  1.00  0.00     0.029 A 
ATOM     45  C   UNL A   1      41.997  31.001  30.549  1.00  0.00     0.049 A 
ATOM     46  H   UNL A   1      40.008  31.372  29.882  1.00  0.00     0.167 HD
ATOM     47  C   UNL A   1      42.658  25.016  28.186  1.00  0.00     0.034 A 
ATOM     48  C   UNL A   1      42.061  31.275  31.873  1.00  0.00     0.034 A 
ATOM     49  C   UNL A   1      43.720  25.829  28.831  1.00  0.00     0.049 A 
ATOM     50  C   UNL A   1      42.934  30.213  32.494  1.00  0.00     0.074 A 
ATOM     51  C   UNL A   1      44.713  26.676  28.362  1.00  0.00     0.029 A 
ATOM     52  N   UNL A   1      43.675  26.050  30.212  1.00  0.00    -0.354 N 
ATOM     53  N   UNL A   1      43.221  29.087  31.891  1.00  0.00    -0.248 NA
ATOM     54  C   UNL A   1      43.595  30.324  33.782  1.00  0.00     0.031 C 
ATOM     55  C   UNL A   1      45.243  27.407  29.474  1.00  0.00     0.029 A 
ATOM     56  C   UNL A   1      44.601  26.988  30.629  1.00  0.00     0.049 A 
ATOM     57  H   UNL A   1      43.053  25.588  30.818  1.00  0.00     0.167 HD
ATOM     58  C   UNL A   1      44.164  28.398  32.582  1.00  0.00     0.074 A 
ATOM     59  C   UNL A   1      44.278  29.162  33.823  1.00  0.00     0.031 C 
ATOM     60  C   UNL A   1      44.769  27.283  32.058  1.00  0.00     0.034 A 
BRANCH  47  61
ATOM     61  C   UNL A   1      42.941  23.985  27.089  1.00  0.00     0.023 A 
ATOM     62  C   UNL A   1      42.304  22.726  27.159  1.00  0.00     0.031 A 
ATOM     63  C   UNL A   1      43.842  24.115  26.005  1.00  0.00     0.131 A 
ATOM     64  C   UNL A   1      42.591  21.692  26.240  1.00  0.00     0.055 A 
ATOM     65  C   UNL A   1      44.115  23.095  25.082  1.00  0.00     0.041 A 
ATOM     66  F   UNL A   1      44.533  25.225  25.749  1.00  0.00    -0.206 F 
ATOM     67  C   UNL A   1      43.494  21.871  25.198  1.00  0.00     0.022 A 
BRANCH  64  68
ATOM     68  S   UNL A   1      41.777  20.083  26.421  1.00  0.00     0.124 S 
ATOM     69  O   UNL A   1      40.365  20.451  26.399  1.00  0.00    -0.237 OA
ATOM     70  O   UNL A   1      42.277  19.348  25.265  1.00  0.00    -0.237 OA
ATOM     71  O   UNL A   1      42.267  19.600  27.713  1.00  0.00    -0.744 OA
ENDBRANCH  64  68
ENDBRANCH  47  61
BRANCH  48  72
ATOM     72  C   UNL A   1      40.823  31.965  32.385  1.00  0.00     0.023 A 
ATOM     73  C   UNL A   1      40.079  31.378  33.456  1.00  0.00     0.031 A 
ATOM     74  C   UNL A   1      40.624  33.333  32.166  1.00  0.00     0.131 A 
ATOM     75  C   UNL A   1      39.251  32.151  34.300  1.00  0.00     0.055 A 
ATOM     76  C   UNL A   1      39.813  34.106  33.017  1.00  0.00     0.041 A 
ATOM     77  F   UNL A   1      41.310  33.977  31.211  1.00  0.00    -0.206 F 
ATOM     78  C   UNL A   1      39.152  33.527  34.102  1.00  0.00     0.022 A 
BRANCH  75  79
ATOM     79  S   UNL A   1      38.491  31.416  35.806  1.00  0.00     0.124 S 
ATOM     80  O   UNL A   1      38.283  30.029  35.407  1.00  0.00    -0.237 OA
ATOM     81  O   UNL A   1      39.487  31.630  36.852  1.00  0.00    -0.237 OA
ATOM     82  O   UNL A   1      37.273  32.205  35.987  1.00  0.00    -0.744 OA
ENDBRANCH  75  79
ENDBRANCH  48  72
BRANCH  60  83
ATOM     83  C   UNL A   1      45.558  26.327  32.908  1.00  0.00     0.023 A 
ATOM     84  C   UNL A   1      44.957  25.506  33.862  1.00  0.00     0.031 A 
ATOM     85  C   UNL A   1      46.944  26.135  32.703  1.00  0.00     0.131 A 
ATOM     86  C   UNL A   1      45.641  24.397  34.374  1.00  0.00     0.055 A 
ATOM     87  C   UNL A   1      47.659  25.107  33.316  1.00  0.00     0.041 A 
ATOM     88  F   UNL A   1      47.655  26.889  31.854  1.00  0.00    -0.206 F 
ATOM     89  C   UNL A   1      46.994  24.194  34.118  1.00  0.00     0.022 A 
BRANCH  86  90
ATOM     90  S   UNL A   1      44.669  23.143  35.239  1.00  0.00     0.124 S 
ATOM     91  O   UNL A   1      45.641  22.566  36.162  1.00  0.00    -0.237 OA
ATOM     92  O   UNL A   1      43.622  23.953  35.855  1.00  0.00    -0.237 OA
ATOM     93  O   UNL A   1      44.223  22.256  34.167  1.00  0.00    -0.744 OA
ENDBRANCH  86  90
ENDBRANCH  60  83
ENDBRANCH  34  35
ENDBRANCH  27  29
ENDBRANCH  26  27
ENDBRANCH  25  26
ENDBRANCH   1  25
TORSDOF 19
ENDMDL
MODEL 2
REMARK VINA RESULT:     -11.8      4.062      9.582
REMARK SMILES Cc1ccc(C(=O)c2cccc(C)c2C(=O)OCCOCCOC(=O)c2ccc(-c3c4nc(c(-c5cc(S(=O)(=O)[O-])ccc5F)c5ccc([nH]5)c(-c5cc(S(=O)(=O)[O-])ccc5F)c5nc(c(-c6cc(S(=O)(=O)[O-])ccc6F)c6ccc3[nH]6)C=C5)C=C4)cc2)c(C)c1
REMARK SMILES IDX 21 1 20 2 19 3 18 4 17 5 15 6 16 7 14 8 8 9 9 10 10 11 12 12
REMARK SMILES IDX 11 13 13 14 6 15 7 16 5 17 1 18 2 19 3 20 91 21 4 22 89 23
REMARK SMILES IDX 90 24 22 25 23 26 24 27 25 28 26 29 27 30 88 31 28 32 87 33
REMARK SMILES IDX 29 34 30 35 31 36 81 37 32 38 86 39 80 40 82 41 33 42 85 43
REMARK SMILES IDX 79 44 78 45 34 47 66 48 46 49 65 50 47 51 50 52 64 53 83 54
REMARK SMILES IDX 48 55 49 56 63 58 84 59 51 60 35 61 36 62 44 63 37 64 43 65
REMARK SMILES IDX 45 66 42 67 38 68 39 69 40 70 41 71 67 72 68 73 76 74 69 75
REMARK SMILES IDX 75 76 77 77 74 78 70 79 71 80 72 81 73 82 52 83 53 84 61 85
REMARK SMILES IDX 54 86 60 87 62 88 59 89 55 90 56 91 57 92 58 93
REMARK H PARENT 82 46 50 57
REMARK Flexibility Score: inf
ROOT
ATOM      1  C   UNL A   1      38.064  21.412  25.251  1.00  0.00     0.202 C 
ENDROOT
BRANCH   1   2
ATOM      2  O   UNL A   1      36.905  21.071  25.973  1.00  0.00    -0.374 OA
BRANCH   2   3
ATOM      3  C   UNL A   1      35.819  21.994  25.868  1.00  0.00     0.202 C 
BRANCH   3   4
ATOM      4  C   UNL A   1      36.086  22.704  24.582  1.00  0.00     0.261 C 
BRANCH   4   5
ATOM      5  O   UNL A   1      35.195  23.819  24.441  1.00  0.00    -0.460 OA
BRANCH   5   6
ATOM      6  C   UNL A   1      34.191  23.714  23.547  1.00  0.00     0.339 C 
ATOM      7  O   UNL A   1      34.298  23.520  22.347  1.00  0.00    -0.246 OA
BRANCH   6   8
ATOM      8  C   UNL A   1      32.915  23.700  24.295  1.00  0.00     0.074 A 
ATOM      9  C   UNL A   1      32.353  24.893  24.820  1.00  0.00     0.037 A 
ATOM     10  C   UNL A   1      31.270  24.796  25.701  1.00  0.00     0.013 A 
ATOM     11  C   UNL A   1      30.743  23.545  26.033  1.00  0.00     0.001 A 
ATOM     12  C   UNL A   1      32.324  22.439  24.559  1.00  0.00    -0.036 A 
ATOM     13  C   UNL A   1      31.242  22.384  25.443  1.00  0.00     0.004 A 
ATOM     14  C   UNL A   1      32.790  21.166  23.895  1.00  0.00     0.045 C 
BRANCH   9  15
ATOM     15  C   UNL A   1      32.711  26.235  24.260  1.00  0.00     0.194 C 
ATOM     16  O   UNL A   1      32.687  26.313  23.038  1.00  0.00    -0.289 OA
BRANCH  15  17
ATOM     17  C   UNL A   1      32.928  27.478  25.071  1.00  0.00     0.025 A 
ATOM     18  C   UNL A   1      33.582  30.974  27.546  1.00  0.00     0.044 C 
ATOM     19  C   UNL A   1      33.377  29.756  26.698  1.00  0.00    -0.051 A 
ATOM     20  C   UNL A   1      34.282  28.694  26.698  1.00  0.00     0.004 A 
ATOM     21  C   UNL A   1      32.274  29.696  25.843  1.00  0.00     0.007 A 
ATOM     22  C   UNL A   1      34.064  27.571  25.889  1.00  0.00     0.013 A 
ATOM     23  C   UNL A   1      32.039  28.582  25.013  1.00  0.00    -0.040 A 
ATOM     24  C   UNL A   1      30.823  28.657  24.128  1.00  0.00     0.045 C 
ENDBRANCH  15  17
ENDBRANCH   9  15
ENDBRANCH   6   8
ENDBRANCH   5   6
ENDBRANCH   4   5
ENDBRANCH   3   4
ENDBRANCH   2   3
ENDBRANCH   1   2
BRANCH   1  25
ATOM     25  C   UNL A   1      39.214  21.864  26.153  1.00  0.00     0.261 C 
BRANCH  25  26
ATOM     26  O   UNL A   1      39.254  23.305  26.217  1.00  0.00    -0.460 OA
BRANCH  26  27
ATOM     27  C   UNL A   1      40.044  23.817  27.204  1.00  0.00     0.338 C 
ATOM     28  O   UNL A   1      40.800  23.161  27.900  1.00  0.00    -0.246 OA
BRANCH  27  29
ATOM     29  C   UNL A   1      39.746  25.265  27.396  1.00  0.00     0.060 A 
ATOM     30  C   UNL A   1      40.329  26.221  26.545  1.00  0.00     0.016 A 
ATOM     31  C   UNL A   1      39.105  25.671  28.566  1.00  0.00     0.016 A 
ATOM     32  C   UNL A   1      40.384  27.565  26.936  1.00  0.00     0.010 A 
ATOM     33  C   UNL A   1      39.249  26.975  28.991  1.00  0.00     0.010 A 
ATOM     34  C   UNL A   1      39.905  27.923  28.193  1.00  0.00    -0.014 A 
BRANCH  34  35
ATOM     35  C   UNL A   1      40.106  29.222  28.831  1.00  0.00     0.031 A 
ATOM     36  C   UNL A   1      39.031  30.223  28.801  1.00  0.00     0.074 A 
ATOM     37  C   UNL A   1      41.166  29.437  29.639  1.00  0.00     0.049 A 
ATOM     38  N   UNL A   1      39.192  31.464  29.101  1.00  0.00    -0.248 NA
ATOM     39  C   UNL A   1      37.681  29.927  28.331  1.00  0.00     0.031 C 
ATOM     40  C   UNL A   1      41.318  30.419  30.710  1.00  0.00     0.029 A 
ATOM     41  N   UNL A   1      42.409  28.807  29.602  1.00  0.00    -0.354 N 
ATOM     42  C   UNL A   1      37.943  32.005  29.261  1.00  0.00     0.074 A 
ATOM     43  C   UNL A   1      37.078  31.097  28.556  1.00  0.00     0.031 C 
ATOM     44  C   UNL A   1      42.624  30.540  31.000  1.00  0.00     0.029 A 
ATOM     45  C   UNL A   1      43.353  29.742  30.022  1.00  0.00     0.049 A 
ATOM     46  H   UNL A   1      42.586  27.878  29.329  1.00  0.00     0.167 HD
ATOM     47  C   UNL A   1      37.790  33.041  30.135  1.00  0.00     0.034 A 
ATOM     48  C   UNL A   1      44.394  30.094  29.232  1.00  0.00     0.034 A 
ATOM     49  C   UNL A   1      39.105  33.517  30.634  1.00  0.00     0.049 A 
ATOM     50  C   UNL A   1      44.291  31.583  29.015  1.00  0.00     0.074 A 
ATOM     51  C   UNL A   1      39.729  33.524  31.872  1.00  0.00     0.029 A 
ATOM     52  N   UNL A   1      40.111  33.845  29.719  1.00  0.00    -0.354 N 
ATOM     53  N   UNL A   1      43.195  32.261  29.251  1.00  0.00    -0.248 NA
ATOM     54  C   UNL A   1      45.379  32.442  28.581  1.00  0.00     0.031 C 
ATOM     55  C   UNL A   1      41.111  33.845  31.679  1.00  0.00     0.029 A 
ATOM     56  C   UNL A   1      41.331  34.068  30.328  1.00  0.00     0.049 A 
ATOM     57  H   UNL A   1      39.964  33.911  28.747  1.00  0.00     0.167 HD
ATOM     58  C   UNL A   1      43.425  33.595  29.152  1.00  0.00     0.074 A 
ATOM     59  C   UNL A   1      44.783  33.650  28.611  1.00  0.00     0.031 C 
ATOM     60  C   UNL A   1      42.486  34.517  29.540  1.00  0.00     0.034 A 
BRANCH  47  61
ATOM     61  C   UNL A   1      36.454  33.480  30.742  1.00  0.00     0.023 A 
ATOM     62  C   UNL A   1      35.529  34.166  29.925  1.00  0.00     0.031 A 
ATOM     63  C   UNL A   1      36.037  33.334  32.088  1.00  0.00     0.131 A 
ATOM     64  C   UNL A   1      34.320  34.686  30.440  1.00  0.00     0.055 A 
ATOM     65  C   UNL A   1      34.830  33.837  32.596  1.00  0.00     0.041 A 
ATOM     66  F   UNL A   1      36.754  32.707  33.018  1.00  0.00    -0.206 F 
ATOM     67  C   UNL A   1      33.965  34.524  31.774  1.00  0.00     0.022 A 
BRANCH  64  68
ATOM     68  S   UNL A   1      33.203  35.604  29.346  1.00  0.00     0.124 S 
ATOM     69  O   UNL A   1      32.399  36.362  30.299  1.00  0.00    -0.237 OA
ATOM     70  O   UNL A   1      34.132  36.370  28.523  1.00  0.00    -0.237 OA
ATOM     71  O   UNL A   1      32.482  34.548  28.635  1.00  0.00    -0.744 OA
ENDBRANCH  64  68
ENDBRANCH  47  61
BRANCH  48  72
ATOM     72  C   UNL A   1      44.825  28.985  28.307  1.00  0.00     0.023 A 
ATOM     73  C   UNL A   1      45.586  27.889  28.826  1.00  0.00     0.031 A 
ATOM     74  C   UNL A   1      44.159  28.762  27.097  1.00  0.00     0.131 A 
ATOM     75  C   UNL A   1      45.598  26.626  28.194  1.00  0.00     0.055 A 
ATOM     76  C   UNL A   1      44.157  27.499  26.477  1.00  0.00     0.041 A 
ATOM     77  F   UNL A   1      43.389  29.718  26.557  1.00  0.00    -0.206 F 
ATOM     78  C   UNL A   1      44.846  26.422  27.038  1.00  0.00     0.022 A 
BRANCH  75  79
ATOM     79  S   UNL A   1      46.390  25.176  29.002  1.00  0.00     0.124 S 
ATOM     80  O   UNL A   1      47.465  24.847  28.073  1.00  0.00    -0.237 OA
ATOM     81  O   UNL A   1      46.814  25.677  30.306  1.00  0.00    -0.237 OA
ATOM     82  O   UNL A   1      45.305  24.197  29.076  1.00  0.00    -0.744 OA
ENDBRANCH  75  79
ENDBRANCH  48  72
BRANCH  60  83
ATOM     83  C   UNL A   1      42.575  35.964  29.144  1.00  0.00     0.023 A 
ATOM     84  C   UNL A   1      43.370  36.880  29.834  1.00  0.00     0.031 A 
ATOM     85  C   UNL A   1      41.935  36.447  27.979  1.00  0.00     0.131 A 
ATOM     86  C   UNL A   1      43.710  38.104  29.248  1.00  0.00     0.055 A 
ATOM     87  C   UNL A   1      42.172  37.721  27.464  1.00  0.00     0.041 A 
ATOM     88  F   UNL A   1      41.103  35.690  27.251  1.00  0.00    -0.206 F 
ATOM     89  C   UNL A   1      43.109  38.541  28.070  1.00  0.00     0.022 A 
BRANCH  86  90
ATOM     90  S   UNL A   1      45.081  39.028  29.978  1.00  0.00     0.124 S 
ATOM     91  O   UNL A   1      46.201  38.102  29.837  1.00  0.00    -0.237 OA
ATOM     92  O   UNL A   1      45.130  40.210  29.122  1.00  0.00    -0.237 OA
ATOM     93  O   UNL A   1      44.640  39.270  31.349  1.00  0.00    -0.744 OA
ENDBRANCH  86  90
ENDBRANCH  60  83
ENDBRANCH  34  35
ENDBRANCH  27  29
ENDBRANCH  26  27
ENDBRANCH  25  26
ENDBRANCH   1  25
TORSDOF 19
ENDMDL
MODEL 3
REMARK VINA RESULT:     -11.7      2.120      3.615
REMARK SMILES Cc1ccc(C(=O)c2cccc(C)c2C(=O)OCCOCCOC(=O)c2ccc(-c3c4nc(c(-c5cc(S(=O)(=O)[O-])ccc5F)c5ccc([nH]5)c(-c5cc(S(=O)(=O)[O-])ccc5F)c5nc(c(-c6cc(S(=O)(=O)[O-])ccc6F)c6ccc3[nH]6)C=C5)C=C4)cc2)c(C)c1
REMARK SMILES IDX 21 1 20 2 19 3 18 4 17 5 15 6 16 7 14 8 8 9 9 10 10 11 12 12
REMARK SMILES IDX 11 13 13 14 6 15 7 16 5 17 1 18 2 19 3 20 91 21 4 22 89 23
REMARK SMILES IDX 90 24 22 25 23 26 24 27 25 28 26 29 27 30 88 31 28 32 87 33
REMARK SMILES IDX 29 34 30 35 31 36 81 37 32 38 86 39 80 40 82 41 33 42 85 43
REMARK SMILES IDX 79 44 78 45 34 47 66 48 46 49 65 50 47 51 50 52 64 53 83 54
REMARK SMILES IDX 48 55 49 56 63 58 84 59 51 60 35 61 36 62 44 63 37 64 43 65
REMARK SMILES IDX 45 66 42 67 38 68 39 69 40 70 41 71 67 72 68 73 76 74 69 75
REMARK SMILES IDX 75 76 77 77 74 78 70 79 71 80 72 81 73 82 52 83 53 84 61 85
REMARK SMILES IDX 54 86 60 87 62 88 59 89 55 90 56 91 57 92 58 93
REMARK H PARENT 82 46 50 57
REMARK Flexibility Score: inf
ROOT
ATOM      1  C   UNL A   1      33.105  29.962  26.844  1.00  0.00     0.202 C 
ENDROOT
BRANCH   1   2
ATOM      2  O   UNL A   1      33.697  28.688  26.933  1.00  0.00    -0.374 OA
BRANCH   2   3
ATOM      3  C   UNL A   1      34.007  28.064  25.685  1.00  0.00     0.202 C 
BRANCH   3   4
ATOM      4  C   UNL A   1      33.595  26.644  25.893  1.00  0.00     0.261 C 
BRANCH   4   5
ATOM      5  O   UNL A   1      32.169  26.559  26.028  1.00  0.00    -0.460 OA
BRANCH   5   6
ATOM      6  C   UNL A   1      31.550  25.476  25.518  1.00  0.00     0.339 C 
ATOM      7  O   UNL A   1      30.848  24.682  26.124  1.00  0.00    -0.246 OA
BRANCH   6   8
ATOM      8  C   UNL A   1      31.721  25.504  24.049  1.00  0.00     0.074 A 
ATOM      9  C   UNL A   1      32.626  24.629  23.393  1.00  0.00     0.037 A 
ATOM     10  C   UNL A   1      32.909  24.846  22.040  1.00  0.00     0.013 A 
ATOM     11  C   UNL A   1      32.290  25.891  21.349  1.00  0.00     0.001 A 
ATOM     12  C   UNL A   1      31.023  26.505  23.327  1.00  0.00    -0.036 A 
ATOM     13  C   UNL A   1      31.333  26.689  21.976  1.00  0.00     0.004 A 
ATOM     14  C   UNL A   1      29.936  27.349  23.949  1.00  0.00     0.045 C 
BRANCH   9  15
ATOM     15  C   UNL A   1      33.071  23.349  24.029  1.00  0.00     0.194 C 
ATOM     16  O   UNL A   1      32.238  22.451  24.031  1.00  0.00    -0.289 OA
BRANCH  15  17
ATOM     17  C   UNL A   1      34.466  23.058  24.496  1.00  0.00     0.025 A 
ATOM     18  C   UNL A   1      38.509  22.103  25.728  1.00  0.00     0.044 C 
ATOM     19  C   UNL A   1      37.119  22.435  25.279  1.00  0.00    -0.051 A 
ATOM     20  C   UNL A   1      36.809  22.658  23.937  1.00  0.00     0.004 A 
ATOM     21  C   UNL A   1      36.108  22.577  26.233  1.00  0.00     0.007 A 
ATOM     22  C   UNL A   1      35.499  22.972  23.550  1.00  0.00     0.013 A 
ATOM     23  C   UNL A   1      34.786  22.902  25.869  1.00  0.00    -0.040 A 
ATOM     24  C   UNL A   1      33.801  23.042  27.000  1.00  0.00     0.045 C 
ENDBRANCH  15  17
ENDBRANCH   9  15
ENDBRANCH   6   8
ENDBRANCH   5   6
ENDBRANCH   4   5
ENDBRANCH   3   4
ENDBRANCH   2   3
ENDBRANCH   1   2
BRANCH   1  25
ATOM     25  C   UNL A   1      33.879  31.032  27.616  1.00  0.00     0.261 C 
BRANCH  25  26
ATOM     26  O   UNL A   1      35.282  30.963  27.282  1.00  0.00    -0.460 OA
BRANCH  26  27
ATOM     27  C   UNL A   1      36.135  31.140  28.331  1.00  0.00     0.338 C 
ATOM     28  O   UNL A   1      36.225  32.163  28.988  1.00  0.00    -0.246 OA
BRANCH  27  29
ATOM     29  C   UNL A   1      37.030  29.956  28.466  1.00  0.00     0.060 A 
ATOM     30  C   UNL A   1      37.038  29.214  29.661  1.00  0.00     0.016 A 
ATOM     31  C   UNL A   1      38.027  29.753  27.512  1.00  0.00     0.016 A 
ATOM     32  C   UNL A   1      38.118  28.370  29.953  1.00  0.00     0.010 A 
ATOM     33  C   UNL A   1      39.132  29.000  27.848  1.00  0.00     0.010 A 
ATOM     34  C   UNL A   1      39.196  28.323  29.074  1.00  0.00    -0.014 A 
BRANCH  34  35
ATOM     35  C   UNL A   1      40.480  27.685  29.352  1.00  0.00     0.031 A 
ATOM     36  C   UNL A   1      40.751  26.337  28.833  1.00  0.00     0.074 A 
ATOM     37  C   UNL A   1      41.502  28.392  29.878  1.00  0.00     0.049 A 
ATOM     38  N   UNL A   1      41.728  25.596  29.227  1.00  0.00    -0.248 NA
ATOM     39  C   UNL A   1      39.877  25.659  27.880  1.00  0.00     0.031 C 
ATOM     40  C   UNL A   1      42.937  28.127  29.798  1.00  0.00     0.029 A 
ATOM     41  N   UNL A   1      41.429  29.524  30.688  1.00  0.00    -0.354 N 
ATOM     42  C   UNL A   1      41.846  24.573  28.321  1.00  0.00     0.074 A 
ATOM     43  C   UNL A   1      40.562  24.533  27.671  1.00  0.00     0.031 C 
ATOM     44  C   UNL A   1      43.560  28.846  30.746  1.00  0.00     0.029 A 
ATOM     45  C   UNL A   1      42.522  29.480  31.550  1.00  0.00     0.049 A 
ATOM     46  H   UNL A   1      40.735  30.221  30.656  1.00  0.00     0.167 HD
ATOM     47  C   UNL A   1      43.080  24.031  28.111  1.00  0.00     0.034 A 
ATOM     48  C   UNL A   1      42.359  29.482  32.894  1.00  0.00     0.034 A 
ATOM     49  C   UNL A   1      44.069  24.563  29.082  1.00  0.00     0.049 A 
ATOM     50  C   UNL A   1      43.002  28.219  33.411  1.00  0.00     0.074 A 
ATOM     51  C   UNL A   1      45.204  25.353  28.975  1.00  0.00     0.029 A 
ATOM     52  N   UNL A   1      43.785  24.517  30.450  1.00  0.00    -0.354 N 
ATOM     53  N   UNL A   1      43.295  27.204  32.638  1.00  0.00    -0.248 NA
ATOM     54  C   UNL A   1      43.415  27.994  34.784  1.00  0.00     0.031 C 
ATOM     55  C   UNL A   1      45.578  25.782  30.289  1.00  0.00     0.029 A 
ATOM     56  C   UNL A   1      44.696  25.232  31.206  1.00  0.00     0.049 A 
ATOM     57  H   UNL A   1      43.020  24.028  30.832  1.00  0.00     0.167 HD
ATOM     58  C   UNL A   1      44.026  26.281  33.313  1.00  0.00     0.074 A 
ATOM     59  C   UNL A   1      43.971  26.770  34.691  1.00  0.00     0.031 C 
ATOM     60  C   UNL A   1      44.617  25.221  32.672  1.00  0.00     0.034 A 
BRANCH  47  61
ATOM     61  C   UNL A   1      43.471  23.204  26.882  1.00  0.00     0.023 A 
ATOM     62  C   UNL A   1      43.001  21.876  26.779  1.00  0.00     0.031 A 
ATOM     63  C   UNL A   1      44.328  23.596  25.825  1.00  0.00     0.131 A 
ATOM     64  C   UNL A   1      43.400  21.023  25.725  1.00  0.00     0.055 A 
ATOM     65  C   UNL A   1      44.711  22.755  24.770  1.00  0.00     0.041 A 
ATOM     66  F   UNL A   1      44.867  24.810  25.724  1.00  0.00    -0.206 F 
ATOM     67  C   UNL A   1      44.254  21.457  24.718  1.00  0.00     0.022 A 
BRANCH  64  68
ATOM     68  S   UNL A   1      42.802  19.312  25.684  1.00  0.00     0.124 S 
ATOM     69  O   UNL A   1      41.356  19.494  25.767  1.00  0.00    -0.237 OA
ATOM     70  O   UNL A   1      43.326  18.829  24.412  1.00  0.00    -0.237 OA
ATOM     71  O   UNL A   1      43.415  18.710  26.868  1.00  0.00    -0.744 OA
ENDBRANCH  64  68
ENDBRANCH  47  61
BRANCH  48  72
ATOM     72  C   UNL A   1      41.114  30.211  33.329  1.00  0.00     0.023 A 
ATOM     73  C   UNL A   1      41.114  31.641  33.378  1.00  0.00     0.031 A 
ATOM     74  C   UNL A   1      39.861  29.591  33.262  1.00  0.00     0.131 A 
ATOM     75  C   UNL A   1      39.920  32.389  33.282  1.00  0.00     0.055 A 
ATOM     76  C   UNL A   1      38.674  30.337  33.148  1.00  0.00     0.041 A 
ATOM     77  F   UNL A   1      39.765  28.257  33.170  1.00  0.00    -0.206 F 
ATOM     78  C   UNL A   1      38.701  31.733  33.125  1.00  0.00     0.022 A 
BRANCH  75  79
ATOM     79  S   UNL A   1      39.967  34.221  33.114  1.00  0.00     0.124 S 
ATOM     80  O   UNL A   1      40.865  34.409  31.980  1.00  0.00    -0.237 OA
ATOM     81  O   UNL A   1      38.575  34.597  32.887  1.00  0.00    -0.237 OA
ATOM     82  O   UNL A   1      40.490  34.664  34.406  1.00  0.00    -0.744 OA
ENDBRANCH  75  79
ENDBRANCH  48  72
BRANCH  60  83
ATOM     83  C   UNL A   1      45.142  24.027  33.418  1.00  0.00     0.023 A 
ATOM     84  C   UNL A   1      46.444  23.972  33.918  1.00  0.00     0.031 A 
ATOM     85  C   UNL A   1      44.302  22.937  33.745  1.00  0.00     0.131 A 
ATOM     86  C   UNL A   1      46.788  23.030  34.893  1.00  0.00     0.055 A 
ATOM     87  C   UNL A   1      44.693  21.922  34.617  1.00  0.00     0.041 A 
ATOM     88  F   UNL A   1      43.046  22.838  33.288  1.00  0.00    -0.206 F 
ATOM     89  C   UNL A   1      45.926  21.993  35.242  1.00  0.00     0.022 A 
BRANCH  86  90
ATOM     90  S   UNL A   1      48.322  23.299  35.811  1.00  0.00     0.124 S 
ATOM     91  O   UNL A   1      49.343  23.147  34.780  1.00  0.00    -0.237 OA
ATOM     92  O   UNL A   1      48.131  24.659  36.311  1.00  0.00    -0.237 OA
ATOM     93  O   UNL A   1      48.300  22.253  36.829  1.00  0.00    -0.744 OA
ENDBRANCH  86  90
ENDBRANCH  60  83
ENDBRANCH  34  35
ENDBRANCH  27  29
ENDBRANCH  26  27
ENDBRANCH  25  26
ENDBRANCH   1  25
TORSDOF 19
ENDMDL
