MODEL 1
REMARK VINA RESULT:     -11.5      0.000      0.000
REMARK SMILES COc1ccc(CCc2nnc(NC(=O)[C@@H]3[C@@H](C(=O)OCCOCCOC(=O)c4ccc(-c5c6nc(c(-c7cc(S(=O)(=O)[O-])ccc7F)c7ccc([nH]7)c(-c7cc(S(=O)(=O)[O-])ccc7F)c7nc(c(-c8cc(S(=O)(=O)[O-])ccc8F)c8ccc5[nH]8)C=C7)C=C6)cc4)C3(C)C)s2)cc1
REMARK SMILES IDX 21 1 20 2 18 3 19 4 17 5 16 6 92 7 93 8 94 9 14 10 13 11
REMARK SMILES IDX 15 13 12 14 9 15 10 16 95 17 11 18 8 19 7 20 6 21 3 22 4 23
REMARK SMILES IDX 97 24 5 25 96 26 2 27 1 28 22 29 23 30 24 31 25 32 26 33
REMARK SMILES IDX 27 34 28 35 29 36 30 37 91 38 31 39 90 40 32 41 33 42 34 43
REMARK SMILES IDX 84 44 35 45 89 46 83 47 85 48 36 49 88 50 82 51 81 52 37 54
REMARK SMILES IDX 69 55 49 56 68 57 50 58 53 59 67 60 86 61 51 62 52 63 66 65
REMARK SMILES IDX 87 66 54 67 38 68 39 69 47 70 40 71 46 72 48 73 45 74 41 75
REMARK SMILES IDX 42 76 43 77 44 78 70 79 71 80 79 81 72 82 78 83 80 84 77 85
REMARK SMILES IDX 73 86 74 87 75 88 76 89 55 90 56 91 64 92 57 93 63 94 65 95
REMARK SMILES IDX 62 96 58 97 59 98 60 99 61 100
REMARK H PARENT 13 12 85 53 53 64
REMARK Flexibility Score: inf
ROOT
ATOM      1  C   UNL A   1      33.588  26.690  24.513  1.00  0.00     0.261 C 
ENDROOT
BRANCH   1   2
ATOM      2  O   UNL A   1      34.193  25.453  24.917  1.00  0.00    -0.463 OA
BRANCH   2   3
ATOM      3  C   UNL A   1      34.355  24.532  23.935  1.00  0.00     0.310 C 
ATOM      4  O   UNL A   1      34.390  24.755  22.739  1.00  0.00    -0.252 OA
BRANCH   3   5
ATOM      5  C   UNL A   1      34.566  23.148  24.429  1.00  0.00     0.118 C 
ATOM      6  C   UNL A   1      34.313  22.877  25.889  1.00  0.00     0.100 C 
ATOM      7  C   UNL A   1      35.676  22.542  25.296  1.00  0.00    -0.009 C 
ATOM      8  C   UNL A   1      36.826  23.314  25.906  1.00  0.00     0.013 C 
ATOM      9  C   UNL A   1      36.050  21.104  25.001  1.00  0.00     0.013 C 
BRANCH   6  10
ATOM     10  C   UNL A   1      33.270  21.881  26.268  1.00  0.00     0.230 C 
ATOM     11  N   UNL A   1      32.018  22.320  26.620  1.00  0.00    -0.300 N 
ATOM     12  H   UNL A   1      31.437  21.699  27.116  1.00  0.00     0.172 HD
ATOM     13  O   UNL A   1      33.535  20.684  26.355  1.00  0.00    -0.274 OA
BRANCH  11  14
ATOM     14  C   UNL A   1      31.524  23.557  26.330  1.00  0.00     0.212 A 
ATOM     15  C   UNL A   1      30.282  25.272  25.304  1.00  0.00     0.119 A 
ATOM     16  N   UNL A   1      30.711  25.617  26.501  1.00  0.00    -0.142 NA
ATOM     17  S   UNL A   1      30.917  23.765  24.750  1.00  0.00    -0.080 S 
ATOM     18  N   UNL A   1      31.410  24.602  27.110  1.00  0.00    -0.120 NA
BRANCH  15  19
ATOM     19  C   UNL A   1      29.264  26.039  24.523  1.00  0.00     0.074 C 
BRANCH  19  20
ATOM     20  C   UNL A   1      29.898  26.818  23.363  1.00  0.00     0.043 C 
BRANCH  20  21
ATOM     21  C   UNL A   1      29.282  28.176  23.121  1.00  0.00    -0.047 A 
ATOM     22  C   UNL A   1      28.165  30.694  22.751  1.00  0.00     0.118 A 
ATOM     23  C   UNL A   1      29.517  30.512  22.497  1.00  0.00     0.046 A 
ATOM     24  C   UNL A   1      27.350  29.627  23.113  1.00  0.00     0.046 A 
ATOM     25  C   UNL A   1      30.079  29.257  22.705  1.00  0.00     0.007 A 
ATOM     26  C   UNL A   1      27.907  28.366  23.296  1.00  0.00     0.007 A 
BRANCH  22  27
ATOM     27  O   UNL A   1      27.653  31.958  22.712  1.00  0.00    -0.497 OA
ATOM     28  C   UNL A   1      28.741  32.889  22.749  1.00  0.00     0.278 C 
ENDBRANCH  22  27
ENDBRANCH  20  21
ENDBRANCH  19  20
ENDBRANCH  15  19
ENDBRANCH  11  14
ENDBRANCH   6  10
ENDBRANCH   3   5
ENDBRANCH   2   3
ENDBRANCH   1   2
BRANCH   1  29
ATOM     29  C   UNL A   1      33.879  27.795  25.531  1.00  0.00     0.202 C 
BRANCH  29  30
ATOM     30  O   UNL A   1      32.743  28.497  26.047  1.00  0.00    -0.374 OA
BRANCH  30  31
ATOM     31  C   UNL A   1      32.385  29.716  25.397  1.00  0.00     0.202 C 
BRANCH  31  32
ATOM     32  C   UNL A   1      32.153  30.949  26.282  1.00  0.00     0.261 C 
BRANCH  32  33
ATOM     33  O   UNL A   1      32.901  30.934  27.506  1.00  0.00    -0.460 OA
BRANCH  33  34
ATOM     34  C   UNL A   1      33.893  31.862  27.561  1.00  0.00     0.338 C 
ATOM     35  O   UNL A   1      33.790  33.055  27.336  1.00  0.00    -0.246 OA
BRANCH  34  36
ATOM     36  C   UNL A   1      35.132  31.252  28.084  1.00  0.00     0.060 A 
ATOM     37  C   UNL A   1      35.081  29.921  28.520  1.00  0.00     0.016 A 
ATOM     38  C   UNL A   1      36.314  31.980  28.197  1.00  0.00     0.016 A 
ATOM     39  C   UNL A   1      36.210  29.317  29.084  1.00  0.00     0.010 A 
ATOM     40  C   UNL A   1      37.436  31.372  28.769  1.00  0.00     0.010 A 
ATOM     41  C   UNL A   1      37.404  30.036  29.225  1.00  0.00    -0.014 A 
BRANCH  41  42
ATOM     42  C   UNL A   1      38.606  29.436  29.882  1.00  0.00     0.031 A 
ATOM     43  C   UNL A   1      39.131  30.028  31.167  1.00  0.00     0.074 A 
ATOM     44  C   UNL A   1      39.292  28.425  29.308  1.00  0.00     0.049 A 
ATOM     45  N   UNL A   1      40.211  29.722  31.844  1.00  0.00    -0.248 NA
ATOM     46  C   UNL A   1      38.349  31.127  31.748  1.00  0.00     0.031 C 
ATOM     47  C   UNL A   1      38.942  27.760  28.053  1.00  0.00     0.029 A 
ATOM     48  N   UNL A   1      40.472  27.820  29.682  1.00  0.00    -0.354 N 
ATOM     49  C   UNL A   1      40.221  30.575  32.944  1.00  0.00     0.074 A 
ATOM     50  C   UNL A   1      39.110  31.488  32.768  1.00  0.00     0.031 C 
ATOM     51  C   UNL A   1      39.910  26.882  27.735  1.00  0.00     0.029 A 
ATOM     52  C   UNL A   1      40.960  26.939  28.744  1.00  0.00     0.049 A 
ATOM     53  H   UNL A   1      40.923  28.002  30.537  1.00  0.00     0.167 HD
ATOM     54  C   UNL A   1      41.033  30.562  34.032  1.00  0.00     0.034 A 
ATOM     55  C   UNL A   1      42.132  26.275  28.681  1.00  0.00     0.034 A 
ATOM     56  C   UNL A   1      42.139  29.652  34.206  1.00  0.00     0.049 A 
ATOM     57  C   UNL A   1      43.103  26.361  29.830  1.00  0.00     0.074 A 
ATOM     58  C   UNL A   1      42.948  29.475  35.316  1.00  0.00     0.029 A 
ATOM     59  N   UNL A   1      42.612  28.780  33.235  1.00  0.00    -0.354 N 
ATOM     60  N   UNL A   1      43.027  27.079  30.925  1.00  0.00    -0.248 NA
ATOM     61  C   UNL A   1      44.294  25.506  29.750  1.00  0.00     0.031 C 
ATOM     62  C   UNL A   1      43.952  28.555  34.991  1.00  0.00     0.029 A 
ATOM     63  C   UNL A   1      43.727  28.098  33.703  1.00  0.00     0.049 A 
ATOM     64  H   UNL A   1      42.214  28.663  32.343  1.00  0.00     0.167 HD
ATOM     65  C   UNL A   1      44.123  26.701  31.699  1.00  0.00     0.074 A 
ATOM     66  C   UNL A   1      44.852  25.712  30.933  1.00  0.00     0.031 C 
ATOM     67  C   UNL A   1      44.467  27.114  32.946  1.00  0.00     0.034 A 
BRANCH  54  68
ATOM     68  C   UNL A   1      40.728  31.563  35.123  1.00  0.00     0.023 A 
ATOM     69  C   UNL A   1      39.650  31.368  36.007  1.00  0.00     0.031 A 
ATOM     70  C   UNL A   1      41.479  32.743  35.256  1.00  0.00     0.131 A 
ATOM     71  C   UNL A   1      39.283  32.382  36.901  1.00  0.00     0.055 A 
ATOM     72  C   UNL A   1      41.167  33.707  36.219  1.00  0.00     0.041 A 
ATOM     73  F   UNL A   1      42.513  32.994  34.437  1.00  0.00    -0.206 F 
ATOM     74  C   UNL A   1      40.050  33.540  37.033  1.00  0.00     0.022 A 
BRANCH  71  75
ATOM     75  S   UNL A   1      37.688  32.238  37.753  1.00  0.00     0.124 S 
ATOM     76  O   UNL A   1      36.832  33.073  36.914  1.00  0.00    -0.237 OA
ATOM     77  O   UNL A   1      37.432  30.804  37.703  1.00  0.00    -0.237 OA
ATOM     78  O   UNL A   1      37.962  32.779  39.084  1.00  0.00    -0.744 OA
ENDBRANCH  71  75
ENDBRANCH  54  68
BRANCH  55  79
ATOM     79  C   UNL A   1      42.476  25.464  27.480  1.00  0.00     0.023 A 
ATOM     80  C   UNL A   1      42.082  24.122  27.376  1.00  0.00     0.031 A 
ATOM     81  C   UNL A   1      43.273  26.005  26.456  1.00  0.00     0.131 A 
ATOM     82  C   UNL A   1      42.528  23.348  26.293  1.00  0.00     0.055 A 
ATOM     83  C   UNL A   1      43.681  25.240  25.361  1.00  0.00     0.041 A 
ATOM     84  F   UNL A   1      43.674  27.284  26.512  1.00  0.00    -0.206 F 
ATOM     85  C   UNL A   1      43.318  23.899  25.282  1.00  0.00     0.022 A 
BRANCH  82  86
ATOM     86  S   UNL A   1      42.118  21.581  26.265  1.00  0.00     0.124 S 
ATOM     87  O   UNL A   1      42.398  21.191  27.643  1.00  0.00    -0.237 OA
ATOM     88  O   UNL A   1      40.712  21.603  25.877  1.00  0.00    -0.237 OA
ATOM     89  O   UNL A   1      43.031  21.037  25.263  1.00  0.00    -0.744 OA
ENDBRANCH  82  86
ENDBRANCH  55  79
BRANCH  67  90
ATOM     90  C   UNL A   1      45.644  26.424  33.597  1.00  0.00     0.023 A 
ATOM     91  C   UNL A   1      45.497  25.253  34.361  1.00  0.00     0.031 A 
ATOM     92  C   UNL A   1      46.930  26.986  33.497  1.00  0.00     0.131 A 
ATOM     93  C   UNL A   1      46.599  24.725  35.052  1.00  0.00     0.055 A 
ATOM     94  C   UNL A   1      48.037  26.415  34.128  1.00  0.00     0.041 A 
ATOM     95  F   UNL A   1      47.134  28.109  32.788  1.00  0.00    -0.206 F 
ATOM     96  C   UNL A   1      47.872  25.288  34.927  1.00  0.00     0.022 A 
BRANCH  93  97
ATOM     97  S   UNL A   1      46.322  23.366  36.223  1.00  0.00     0.124 S 
ATOM     98  O   UNL A   1      45.033  22.844  35.780  1.00  0.00    -0.237 OA
ATOM     99  O   UNL A   1      47.474  22.506  35.982  1.00  0.00    -0.237 OA
ATOM    100  O   UNL A   1      46.308  24.032  37.525  1.00  0.00    -0.744 OA
ENDBRANCH  93  97
ENDBRANCH  67  90
ENDBRANCH  41  42
ENDBRANCH  34  36
ENDBRANCH  33  34
ENDBRANCH  32  33
ENDBRANCH  31  32
ENDBRANCH  30  31
ENDBRANCH  29  30
ENDBRANCH   1  29
TORSDOF 23
ENDMDL
MODEL 2
REMARK VINA RESULT:     -11.3      1.761      2.017
REMARK SMILES COc1ccc(CCc2nnc(NC(=O)[C@@H]3[C@@H](C(=O)OCCOCCOC(=O)c4ccc(-c5c6nc(c(-c7cc(S(=O)(=O)[O-])ccc7F)c7ccc([nH]7)c(-c7cc(S(=O)(=O)[O-])ccc7F)c7nc(c(-c8cc(S(=O)(=O)[O-])ccc8F)c8ccc5[nH]8)C=C7)C=C6)cc4)C3(C)C)s2)cc1
REMARK SMILES IDX 21 1 20 2 18 3 19 4 17 5 16 6 92 7 93 8 94 9 14 10 13 11
REMARK SMILES IDX 15 13 12 14 9 15 10 16 95 17 11 18 8 19 7 20 6 21 3 22 4 23
REMARK SMILES IDX 97 24 5 25 96 26 2 27 1 28 22 29 23 30 24 31 25 32 26 33
REMARK SMILES IDX 27 34 28 35 29 36 30 37 91 38 31 39 90 40 32 41 33 42 34 43
REMARK SMILES IDX 84 44 35 45 89 46 83 47 85 48 36 49 88 50 82 51 81 52 37 54
REMARK SMILES IDX 69 55 49 56 68 57 50 58 53 59 67 60 86 61 51 62 52 63 66 65
REMARK SMILES IDX 87 66 54 67 38 68 39 69 47 70 40 71 46 72 48 73 45 74 41 75
REMARK SMILES IDX 42 76 43 77 44 78 70 79 71 80 79 81 72 82 78 83 80 84 77 85
REMARK SMILES IDX 73 86 74 87 75 88 76 89 55 90 56 91 64 92 57 93 63 94 65 95
REMARK SMILES IDX 62 96 58 97 59 98 60 99 61 100
REMARK H PARENT 13 12 85 53 53 64
REMARK Flexibility Score: inf
ROOT
ATOM      1  C   UNL A   1      33.655  26.823  24.743  1.00  0.00     0.261 C 
ENDROOT
BRANCH   1   2
ATOM      2  O   UNL A   1      34.278  25.569  25.062  1.00  0.00    -0.463 OA
BRANCH   2   3
ATOM      3  C   UNL A   1      34.359  24.679  24.042  1.00  0.00     0.310 C 
ATOM      4  O   UNL A   1      34.328  24.943  22.853  1.00  0.00    -0.252 OA
BRANCH   3   5
ATOM      5  C   UNL A   1      34.566  23.275  24.475  1.00  0.00     0.118 C 
ATOM      6  C   UNL A   1      34.344  22.949  25.929  1.00  0.00     0.100 C 
ATOM      7  C   UNL A   1      35.689  22.624  25.290  1.00  0.00    -0.009 C 
ATOM      8  C   UNL A   1      36.862  23.360  25.903  1.00  0.00     0.013 C 
ATOM      9  C   UNL A   1      36.040  21.195  24.931  1.00  0.00     0.013 C 
BRANCH   6  10
ATOM     10  C   UNL A   1      33.299  21.950  26.293  1.00  0.00     0.230 C 
ATOM     11  N   UNL A   1      32.044  22.385  26.636  1.00  0.00    -0.300 N 
ATOM     12  H   UNL A   1      31.459  21.761  27.123  1.00  0.00     0.172 HD
ATOM     13  O   UNL A   1      33.566  20.753  26.377  1.00  0.00    -0.274 OA
BRANCH  11  14
ATOM     14  C   UNL A   1      31.551  23.623  26.348  1.00  0.00     0.212 A 
ATOM     15  C   UNL A   1      30.295  25.337  25.338  1.00  0.00     0.119 A 
ATOM     16  N   UNL A   1      30.754  25.689  26.522  1.00  0.00    -0.142 NA
ATOM     17  S   UNL A   1      30.907  23.822  24.782  1.00  0.00    -0.080 S 
ATOM     18  N   UNL A   1      31.462  24.674  27.122  1.00  0.00    -0.120 NA
BRANCH  15  19
ATOM     19  C   UNL A   1      29.263  26.104  24.576  1.00  0.00     0.074 C 
BRANCH  19  20
ATOM     20  C   UNL A   1      29.883  26.930  23.441  1.00  0.00     0.043 C 
BRANCH  20  21
ATOM     21  C   UNL A   1      29.272  28.300  23.269  1.00  0.00    -0.047 A 
ATOM     22  C   UNL A   1      28.142  30.829  23.031  1.00  0.00     0.118 A 
ATOM     23  C   UNL A   1      29.524  30.711  23.101  1.00  0.00     0.046 A 
ATOM     24  C   UNL A   1      27.324  29.706  23.002  1.00  0.00     0.046 A 
ATOM     25  C   UNL A   1      30.085  29.447  23.243  1.00  0.00     0.007 A 
ATOM     26  C   UNL A   1      27.887  28.439  23.119  1.00  0.00     0.007 A 
BRANCH  22  27
ATOM     27  O   UNL A   1      27.587  32.075  23.063  1.00  0.00    -0.497 OA
ATOM     28  C   UNL A   1      28.623  33.039  22.843  1.00  0.00     0.278 C 
ENDBRANCH  22  27
ENDBRANCH  20  21
ENDBRANCH  19  20
ENDBRANCH  15  19
ENDBRANCH  11  14
ENDBRANCH   6  10
ENDBRANCH   3   5
ENDBRANCH   2   3
ENDBRANCH   1   2
BRANCH   1  29
ATOM     29  C   UNL A   1      33.839  27.826  25.885  1.00  0.00     0.202 C 
BRANCH  29  30
ATOM     30  O   UNL A   1      32.673  28.557  26.280  1.00  0.00    -0.374 OA
BRANCH  30  31
ATOM     31  C   UNL A   1      32.531  29.878  25.762  1.00  0.00     0.202 C 
BRANCH  31  32
ATOM     32  C   UNL A   1      32.531  31.038  26.769  1.00  0.00     0.261 C 
BRANCH  32  33
ATOM     33  O   UNL A   1      33.455  30.864  27.853  1.00  0.00    -0.460 OA
BRANCH  33  34
ATOM     34  C   UNL A   1      34.496  31.739  27.840  1.00  0.00     0.338 C 
ATOM     35  O   UNL A   1      34.440  32.938  27.626  1.00  0.00    -0.246 OA
BRANCH  34  36
ATOM     36  C   UNL A   1      35.735  31.061  28.270  1.00  0.00     0.060 A 
ATOM     37  C   UNL A   1      35.631  29.772  28.810  1.00  0.00     0.016 A 
ATOM     38  C   UNL A   1      36.975  31.690  28.197  1.00  0.00     0.016 A 
ATOM     39  C   UNL A   1      36.766  29.112  29.293  1.00  0.00     0.010 A 
ATOM     40  C   UNL A   1      38.104  31.027  28.689  1.00  0.00     0.010 A 
ATOM     41  C   UNL A   1      38.020  29.734  29.247  1.00  0.00    -0.014 A 
BRANCH  41  42
ATOM     42  C   UNL A   1      39.240  29.077  29.814  1.00  0.00     0.031 A 
ATOM     43  C   UNL A   1      39.938  29.693  31.001  1.00  0.00     0.074 A 
ATOM     44  C   UNL A   1      39.788  27.988  29.236  1.00  0.00     0.049 A 
ATOM     45  N   UNL A   1      41.059  29.341  31.583  1.00  0.00    -0.248 NA
ATOM     46  C   UNL A   1      39.302  30.878  31.592  1.00  0.00     0.031 C 
ATOM     47  C   UNL A   1      39.261  27.288  28.064  1.00  0.00     0.029 A 
ATOM     48  N   UNL A   1      40.954  27.315  29.523  1.00  0.00    -0.354 N 
ATOM     49  C   UNL A   1      41.246  30.247  32.623  1.00  0.00     0.074 A 
ATOM     50  C   UNL A   1      40.190  31.232  32.506  1.00  0.00     0.031 C 
ATOM     51  C   UNL A   1      40.124  26.323  27.702  1.00  0.00     0.029 A 
ATOM     52  C   UNL A   1      41.277  26.351  28.595  1.00  0.00     0.049 A 
ATOM     53  H   UNL A   1      41.505  27.505  30.316  1.00  0.00     0.167 HD
ATOM     54  C   UNL A   1      42.165  30.228  33.622  1.00  0.00     0.034 A 
ATOM     55  C   UNL A   1      42.385  25.596  28.454  1.00  0.00     0.034 A 
ATOM     56  C   UNL A   1      43.216  29.246  33.737  1.00  0.00     0.049 A 
ATOM     57  C   UNL A   1      43.476  25.667  29.491  1.00  0.00     0.074 A 
ATOM     58  C   UNL A   1      44.122  29.066  34.769  1.00  0.00     0.029 A 
ATOM     59  N   UNL A   1      43.520  28.291  32.777  1.00  0.00    -0.354 N 
ATOM     60  N   UNL A   1      43.567  26.445  30.543  1.00  0.00    -0.248 NA
ATOM     61  C   UNL A   1      44.588  24.720  29.342  1.00  0.00     0.031 C 
ATOM     62  C   UNL A   1      45.018  28.056  34.399  1.00  0.00     0.029 A 
ATOM     63  C   UNL A   1      44.627  27.550  33.170  1.00  0.00     0.049 A 
ATOM     64  H   UNL A   1      43.023  28.158  31.938  1.00  0.00     0.167 HD
ATOM     65  C   UNL A   1      44.709  26.024  31.224  1.00  0.00     0.074 A 
ATOM     66  C   UNL A   1      45.281  24.944  30.448  1.00  0.00     0.031 C 
ATOM     67  C   UNL A   1      45.211  26.474  32.403  1.00  0.00     0.034 A 
BRANCH  54  68
ATOM     68  C   UNL A   1      42.049  31.306  34.676  1.00  0.00     0.023 A 
ATOM     69  C   UNL A   1      42.770  32.510  34.567  1.00  0.00     0.031 A 
ATOM     70  C   UNL A   1      41.258  31.118  35.822  1.00  0.00     0.131 A 
ATOM     71  C   UNL A   1      42.779  33.422  35.630  1.00  0.00     0.055 A 
ATOM     72  C   UNL A   1      41.193  32.079  36.835  1.00  0.00     0.041 A 
ATOM     73  F   UNL A   1      40.555  29.988  35.992  1.00  0.00    -0.206 F 
ATOM     74  C   UNL A   1      41.974  33.229  36.753  1.00  0.00     0.022 A 
BRANCH  71  75
ATOM     75  S   UNL A   1      43.996  34.767  35.595  1.00  0.00     0.124 S 
ATOM     76  O   UNL A   1      45.234  34.035  35.339  1.00  0.00    -0.237 OA
ATOM     77  O   UNL A   1      43.510  35.605  34.505  1.00  0.00    -0.237 OA
ATOM     78  O   UNL A   1      43.893  35.355  36.930  1.00  0.00    -0.744 OA
ENDBRANCH  71  75
ENDBRANCH  54  68
BRANCH  55  79
ATOM     79  C   UNL A   1      42.542  24.699  27.274  1.00  0.00     0.023 A 
ATOM     80  C   UNL A   1      42.053  23.385  27.295  1.00  0.00     0.031 A 
ATOM     81  C   UNL A   1      43.255  25.127  26.141  1.00  0.00     0.131 A 
ATOM     82  C   UNL A   1      42.327  22.525  26.220  1.00  0.00     0.055 A 
ATOM     83  C   UNL A   1      43.490  24.278  25.057  1.00  0.00     0.041 A 
ATOM     84  F   UNL A   1      43.741  26.376  26.076  1.00  0.00    -0.206 F 
ATOM     85  C   UNL A   1      43.035  22.963  25.099  1.00  0.00     0.022 A 
BRANCH  82  86
ATOM     86  S   UNL A   1      41.803  20.792  26.344  1.00  0.00     0.124 S 
ATOM     87  O   UNL A   1      40.383  20.888  26.025  1.00  0.00    -0.237 OA
ATOM     88  O   UNL A   1      42.645  20.150  25.340  1.00  0.00    -0.237 OA
ATOM     89  O   UNL A   1      42.111  20.443  27.729  1.00  0.00    -0.744 OA
ENDBRANCH  82  86
ENDBRANCH  55  79
BRANCH  67  90
ATOM     90  C   UNL A   1      46.398  25.731  32.971  1.00  0.00     0.023 A 
ATOM     91  C   UNL A   1      46.249  24.614  33.812  1.00  0.00     0.031 A 
ATOM     92  C   UNL A   1      47.703  26.187  32.709  1.00  0.00     0.131 A 
ATOM     93  C   UNL A   1      47.378  24.040  34.419  1.00  0.00     0.055 A 
ATOM     94  C   UNL A   1      48.827  25.567  33.259  1.00  0.00     0.041 A 
ATOM     95  F   UNL A   1      47.910  27.254  31.920  1.00  0.00    -0.206 F 
ATOM     96  C   UNL A   1      48.667  24.498  34.134  1.00  0.00     0.022 A 
BRANCH  93  97
ATOM     97  S   UNL A   1      47.129  22.767  35.689  1.00  0.00     0.124 S 
ATOM     98  O   UNL A   1      48.470  22.635  36.251  1.00  0.00    -0.237 OA
ATOM     99  O   UNL A   1      46.133  23.384  36.558  1.00  0.00    -0.237 OA
ATOM    100  O   UNL A   1      46.658  21.611  34.929  1.00  0.00    -0.744 OA
ENDBRANCH  93  97
ENDBRANCH  67  90
ENDBRANCH  41  42
ENDBRANCH  34  36
ENDBRANCH  33  34
ENDBRANCH  32  33
ENDBRANCH  31  32
ENDBRANCH  30  31
ENDBRANCH  29  30
ENDBRANCH   1  29
TORSDOF 23
ENDMDL
MODEL 3
REMARK VINA RESULT:     -11.1      1.830      7.472
REMARK SMILES COc1ccc(CCc2nnc(NC(=O)[C@@H]3[C@@H](C(=O)OCCOCCOC(=O)c4ccc(-c5c6nc(c(-c7cc(S(=O)(=O)[O-])ccc7F)c7ccc([nH]7)c(-c7cc(S(=O)(=O)[O-])ccc7F)c7nc(c(-c8cc(S(=O)(=O)[O-])ccc8F)c8ccc5[nH]8)C=C7)C=C6)cc4)C3(C)C)s2)cc1
REMARK SMILES IDX 21 1 20 2 18 3 19 4 17 5 16 6 92 7 93 8 94 9 14 10 13 11
REMARK SMILES IDX 15 13 12 14 9 15 10 16 95 17 11 18 8 19 7 20 6 21 3 22 4 23
REMARK SMILES IDX 97 24 5 25 96 26 2 27 1 28 22 29 23 30 24 31 25 32 26 33
REMARK SMILES IDX 27 34 28 35 29 36 30 37 91 38 31 39 90 40 32 41 33 42 34 43
REMARK SMILES IDX 84 44 35 45 89 46 83 47 85 48 36 49 88 50 82 51 81 52 37 54
REMARK SMILES IDX 69 55 49 56 68 57 50 58 53 59 67 60 86 61 51 62 52 63 66 65
REMARK SMILES IDX 87 66 54 67 38 68 39 69 47 70 40 71 46 72 48 73 45 74 41 75
REMARK SMILES IDX 42 76 43 77 44 78 70 79 71 80 79 81 72 82 78 83 80 84 77 85
REMARK SMILES IDX 73 86 74 87 75 88 76 89 55 90 56 91 64 92 57 93 63 94 65 95
REMARK SMILES IDX 62 96 58 97 59 98 60 99 61 100
REMARK H PARENT 13 12 85 53 53 64
REMARK Flexibility Score: inf
ROOT
ATOM      1  C   UNL A   1      32.741  28.087  26.465  1.00  0.00     0.261 C 
ENDROOT
BRANCH   1   2
ATOM      2  O   UNL A   1      33.708  27.099  26.078  1.00  0.00    -0.463 OA
BRANCH   2   3
ATOM      3  C   UNL A   1      33.282  25.813  26.123  1.00  0.00     0.310 C 
ATOM      4  O   UNL A   1      32.176  25.433  26.464  1.00  0.00    -0.252 OA
BRANCH   3   5
ATOM      5  C   UNL A   1      34.279  24.825  25.640  1.00  0.00     0.118 C 
ATOM      6  C   UNL A   1      33.764  23.579  24.968  1.00  0.00     0.100 C 
ATOM      7  C   UNL A   1      34.679  23.447  26.178  1.00  0.00    -0.009 C 
ATOM      8  C   UNL A   1      34.044  22.756  27.366  1.00  0.00     0.013 C 
ATOM      9  C   UNL A   1      36.131  23.051  26.000  1.00  0.00     0.013 C 
BRANCH   6  10
ATOM     10  C   UNL A   1      34.157  23.306  23.556  1.00  0.00     0.230 C 
ATOM     11  N   UNL A   1      33.456  23.900  22.536  1.00  0.00    -0.300 N 
ATOM     12  H   UNL A   1      33.542  23.513  21.635  1.00  0.00     0.172 HD
ATOM     13  O   UNL A   1      35.037  22.492  23.287  1.00  0.00    -0.274 OA
BRANCH  11  14
ATOM     14  C   UNL A   1      32.649  24.988  22.686  1.00  0.00     0.212 A 
ATOM     15  C   UNL A   1      30.869  26.358  23.387  1.00  0.00     0.119 A 
ATOM     16  N   UNL A   1      31.904  27.061  22.976  1.00  0.00    -0.142 NA
ATOM     17  S   UNL A   1      31.029  24.662  23.105  1.00  0.00    -0.080 S 
ATOM     18  N   UNL A   1      32.954  26.257  22.596  1.00  0.00    -0.120 NA
BRANCH  15  19
ATOM     19  C   UNL A   1      29.702  26.933  24.123  1.00  0.00     0.074 C 
BRANCH  19  20
ATOM     20  C   UNL A   1      28.591  27.392  23.170  1.00  0.00     0.043 C 
BRANCH  20  21
ATOM     21  C   UNL A   1      28.513  28.890  22.989  1.00  0.00    -0.047 A 
ATOM     22  C   UNL A   1      28.319  31.635  22.596  1.00  0.00     0.118 A 
ATOM     23  C   UNL A   1      27.437  31.014  23.471  1.00  0.00     0.046 A 
ATOM     24  C   UNL A   1      29.340  30.923  21.976  1.00  0.00     0.046 A 
ATOM     25  C   UNL A   1      27.521  29.637  23.648  1.00  0.00     0.007 A 
ATOM     26  C   UNL A   1      29.439  29.549  22.173  1.00  0.00     0.007 A 
BRANCH  22  27
ATOM     27  O   UNL A   1      28.127  32.951  22.294  1.00  0.00    -0.497 OA
ATOM     28  C   UNL A   1      28.997  33.737  23.119  1.00  0.00     0.278 C 
ENDBRANCH  22  27
ENDBRANCH  20  21
ENDBRANCH  19  20
ENDBRANCH  15  19
ENDBRANCH  11  14
ENDBRANCH   6  10
ENDBRANCH   3   5
ENDBRANCH   2   3
ENDBRANCH   1   2
BRANCH   1  29
ATOM     29  C   UNL A   1      33.245  29.496  26.142  1.00  0.00     0.202 C 
BRANCH  29  30
ATOM     30  O   UNL A   1      32.780  30.547  26.996  1.00  0.00    -0.374 OA
BRANCH  30  31
ATOM     31  C   UNL A   1      31.671  31.315  26.532  1.00  0.00     0.202 C 
BRANCH  31  32
ATOM     32  C   UNL A   1      31.629  32.802  26.915  1.00  0.00     0.261 C 
BRANCH  32  33
ATOM     33  O   UNL A   1      32.909  33.448  26.871  1.00  0.00    -0.460 OA
BRANCH  33  34
ATOM     34  C   UNL A   1      33.262  34.059  28.033  1.00  0.00     0.338 C 
ATOM     35  O   UNL A   1      32.642  34.931  28.617  1.00  0.00    -0.246 OA
BRANCH  34  36
ATOM     36  C   UNL A   1      34.466  33.418  28.600  1.00  0.00     0.060 A 
ATOM     37  C   UNL A   1      34.290  32.334  29.470  1.00  0.00     0.016 A 
ATOM     38  C   UNL A   1      35.745  33.899  28.331  1.00  0.00     0.016 A 
ATOM     39  C   UNL A   1      35.394  31.734  30.086  1.00  0.00     0.010 A 
ATOM     40  C   UNL A   1      36.842  33.298  28.956  1.00  0.00     0.010 A 
ATOM     41  C   UNL A   1      36.688  32.212  29.844  1.00  0.00    -0.014 A 
BRANCH  41  42
ATOM     42  C   UNL A   1      37.879  31.631  30.537  1.00  0.00     0.031 A 
ATOM     43  C   UNL A   1      38.656  30.515  29.883  1.00  0.00     0.074 A 
ATOM     44  C   UNL A   1      38.231  32.021  31.781  1.00  0.00     0.049 A 
ATOM     45  N   UNL A   1      39.655  29.808  30.354  1.00  0.00    -0.248 NA
ATOM     46  C   UNL A   1      38.230  30.127  28.532  1.00  0.00     0.031 C 
ATOM     47  C   UNL A   1      37.569  33.061  32.569  1.00  0.00     0.029 A 
ATOM     48  N   UNL A   1      39.203  31.536  32.628  1.00  0.00    -0.354 N 
ATOM     49  C   UNL A   1      39.992  28.912  29.344  1.00  0.00     0.074 A 
ATOM     50  C   UNL A   1      39.009  29.084  28.295  1.00  0.00     0.031 C 
ATOM     51  C   UNL A   1      38.116  33.098  33.796  1.00  0.00     0.029 A 
ATOM     52  C   UNL A   1      39.146  32.072  33.895  1.00  0.00     0.049 A 
ATOM     53  H   UNL A   1      39.874  30.870  32.354  1.00  0.00     0.167 HD
ATOM     54  C   UNL A   1      41.055  28.071  29.264  1.00  0.00     0.034 A 
ATOM     55  C   UNL A   1      39.820  31.755  35.019  1.00  0.00     0.034 A 
ATOM     56  C   UNL A   1      42.034  27.901  30.309  1.00  0.00     0.049 A 
ATOM     57  C   UNL A   1      40.916  30.722  34.968  1.00  0.00     0.074 A 
ATOM     58  C   UNL A   1      43.209  27.169  30.284  1.00  0.00     0.029 A 
ATOM     59  N   UNL A   1      41.942  28.450  31.581  1.00  0.00    -0.354 N 
ATOM     60  N   UNL A   1      41.304  29.977  33.961  1.00  0.00    -0.248 NA
ATOM     61  C   UNL A   1      41.694  30.528  36.198  1.00  0.00     0.031 C 
ATOM     62  C   UNL A   1      43.786  27.213  31.559  1.00  0.00     0.029 A 
ATOM     63  C   UNL A   1      43.014  28.036  32.362  1.00  0.00     0.049 A 
ATOM     64  H   UNL A   1      41.221  29.046  31.886  1.00  0.00     0.167 HD
ATOM     65  C   UNL A   1      42.424  29.283  34.417  1.00  0.00     0.074 A 
ATOM     66  C   UNL A   1      42.629  29.682  35.793  1.00  0.00     0.031 C 
ATOM     67  C   UNL A   1      43.226  28.422  33.738  1.00  0.00     0.034 A 
BRANCH  54  68
ATOM     68  C   UNL A   1      41.210  27.287  27.980  1.00  0.00     0.023 A 
ATOM     69  C   UNL A   1      40.885  25.919  27.921  1.00  0.00     0.031 A 
ATOM     70  C   UNL A   1      41.729  27.887  26.820  1.00  0.00     0.131 A 
ATOM     71  C   UNL A   1      41.190  25.173  26.774  1.00  0.00     0.055 A 
ATOM     72  C   UNL A   1      41.937  27.158  25.647  1.00  0.00     0.041 A 
ATOM     73  F   UNL A   1      42.068  29.186  26.814  1.00  0.00    -0.206 F 
ATOM     74  C   UNL A   1      41.688  25.788  25.626  1.00  0.00     0.022 A 
BRANCH  71  75
ATOM     75  S   UNL A   1      41.092  23.365  26.876  1.00  0.00     0.124 S 
ATOM     76  O   UNL A   1      42.039  22.962  25.839  1.00  0.00    -0.237 OA
ATOM     77  O   UNL A   1      41.499  23.104  28.252  1.00  0.00    -0.237 OA
ATOM     78  O   UNL A   1      39.690  23.081  26.574  1.00  0.00    -0.744 OA
ENDBRANCH  71  75
ENDBRANCH  54  68
BRANCH  55  79
ATOM     79  C   UNL A   1      39.481  32.412  36.312  1.00  0.00     0.023 A 
ATOM     80  C   UNL A   1      38.536  31.852  37.183  1.00  0.00     0.031 A 
ATOM     81  C   UNL A   1      40.047  33.654  36.653  1.00  0.00     0.131 A 
ATOM     82  C   UNL A   1      38.145  32.557  38.332  1.00  0.00     0.055 A 
ATOM     83  C   UNL A   1      39.683  34.332  37.818  1.00  0.00     0.041 A 
ATOM     84  F   UNL A   1      40.956  34.228  35.850  1.00  0.00    -0.206 F 
ATOM     85  C   UNL A   1      38.716  33.788  38.659  1.00  0.00     0.022 A 
BRANCH  82  86
ATOM     86  S   UNL A   1      36.817  31.870  39.359  1.00  0.00     0.124 S 
ATOM     87  O   UNL A   1      35.686  32.710  38.981  1.00  0.00    -0.237 OA
ATOM     88  O   UNL A   1      36.769  30.484  38.903  1.00  0.00    -0.237 OA
ATOM     89  O   UNL A   1      37.309  32.059  40.722  1.00  0.00    -0.744 OA
ENDBRANCH  82  86
ENDBRANCH  55  79
BRANCH  67  90
ATOM     90  C   UNL A   1      44.458  27.920  34.457  1.00  0.00     0.023 A 
ATOM     91  C   UNL A   1      44.492  26.672  35.102  1.00  0.00     0.031 A 
ATOM     92  C   UNL A   1      45.601  28.736  34.543  1.00  0.00     0.131 A 
ATOM     93  C   UNL A   1      45.613  26.309  35.866  1.00  0.00     0.055 A 
ATOM     94  C   UNL A   1      46.741  28.338  35.244  1.00  0.00     0.041 A 
ATOM     95  F   UNL A   1      45.627  29.943  33.953  1.00  0.00    -0.206 F 
ATOM     96  C   UNL A   1      46.745  27.126  35.926  1.00  0.00     0.022 A 
BRANCH  93  97
ATOM     97  S   UNL A   1      45.522  24.811  36.887  1.00  0.00     0.124 S 
ATOM     98  O   UNL A   1      44.223  24.964  37.533  1.00  0.00    -0.237 OA
ATOM     99  O   UNL A   1      45.617  23.749  35.891  1.00  0.00    -0.237 OA
ATOM    100  O   UNL A   1      46.677  24.931  37.777  1.00  0.00    -0.744 OA
ENDBRANCH  93  97
ENDBRANCH  67  90
ENDBRANCH  41  42
ENDBRANCH  34  36
ENDBRANCH  33  34
ENDBRANCH  32  33
ENDBRANCH  31  32
ENDBRANCH  30  31
ENDBRANCH  29  30
ENDBRANCH   1  29
TORSDOF 23
ENDMDL
