MODEL 1
REMARK VINA RESULT:     -11.2      0.000      0.000
REMARK SMILES O=C(N[C@@H]1C=C[C@@H](C(=O)OCCOCCOC(=O)c2ccc(-c3c4nc(c(-c5cc(S(=O)(=O)[O-])ccc5F)c5ccc([nH]5)c(-c5cc(S(=O)(=O)[O-])ccc5F)c5nc(c(-c6cc(S(=O)(=O)[O-])ccc6F)c6ccc3[nH]6)C=C5)C=C4)cc2)C1)Oc1ccccc1
REMARK SMILES IDX 13 1 12 2 11 3 10 4 8 5 9 6 7 7 4 8 5 9 82 10 6 11 3 12 1 13
REMARK SMILES IDX 2 14 83 16 84 17 85 18 89 19 86 20 88 21 87 22 14 23 15 24
REMARK SMILES IDX 16 25 17 26 18 27 19 28 20 29 81 30 21 31 80 32 22 33 23 34
REMARK SMILES IDX 24 35 74 36 25 37 79 38 73 39 75 40 26 41 78 42 72 43 71 44
REMARK SMILES IDX 27 46 59 47 39 48 58 49 40 50 43 51 57 52 76 53 41 54 42 55
REMARK SMILES IDX 56 57 77 58 44 59 28 60 29 61 37 62 30 63 36 64 38 65 35 66
REMARK SMILES IDX 31 67 32 68 33 69 34 70 60 71 61 72 69 73 62 74 68 75 70 76
REMARK SMILES IDX 67 77 63 78 64 79 65 80 66 81 45 82 46 83 54 84 47 85 53 86
REMARK SMILES IDX 55 87 52 88 48 89 49 90 50 91 51 92
REMARK H PARENT 3 15 75 45 43 56
REMARK Flexibility Score: inf
ROOT
ATOM      1  O   UNL A   1      32.986  29.631  24.672  1.00  0.00    -0.374 OA
ENDROOT
BRANCH   1   2
ATOM      2  C   UNL A   1      32.636  29.293  23.330  1.00  0.00     0.202 C 
BRANCH   2   3
ATOM      3  C   UNL A   1      33.644  28.403  22.601  1.00  0.00     0.261 C 
BRANCH   3   4
ATOM      4  O   UNL A   1      33.966  27.227  23.368  1.00  0.00    -0.463 OA
BRANCH   4   5
ATOM      5  C   UNL A   1      33.558  26.043  22.839  1.00  0.00     0.312 C 
ATOM      6  O   UNL A   1      33.755  25.691  21.680  1.00  0.00    -0.252 OA
BRANCH   5   7
ATOM      7  C   UNL A   1      32.746  25.188  23.809  1.00  0.00     0.124 C 
ATOM      8  C   UNL A   1      30.376  25.053  24.504  1.00  0.00     0.109 C 
ATOM      9  C   UNL A   1      30.716  24.074  23.423  1.00  0.00    -0.006 C 
ATOM     10  C   UNL A   1      31.665  25.876  24.658  1.00  0.00     0.049 C 
ATOM     11  C   UNL A   1      31.994  24.144  23.046  1.00  0.00    -0.014 C 
BRANCH   8  12
ATOM     12  N   UNL A   1      29.981  24.288  25.672  1.00  0.00    -0.315 N 
ATOM     13  O   UNL A   1      29.965  23.085  27.549  1.00  0.00    -0.224 OA
ATOM     14  C   UNL A   1      30.643  23.636  26.679  1.00  0.00     0.413 C 
ATOM     15  H   UNL A   1      29.003  24.223  25.763  1.00  0.00     0.167 HD
BRANCH  14  16
ATOM     16  O   UNL A   1      32.042  23.528  26.730  1.00  0.00    -0.410 OA
BRANCH  16  17
ATOM     17  C   UNL A   1      32.856  22.538  26.158  1.00  0.00     0.132 A 
ATOM     18  C   UNL A   1      32.225  21.437  25.587  1.00  0.00     0.047 A 
ATOM     19  C   UNL A   1      34.240  22.672  26.172  1.00  0.00     0.047 A 
ATOM     20  C   UNL A   1      32.997  20.535  24.871  1.00  0.00     0.004 A 
ATOM     21  C   UNL A   1      34.996  21.809  25.396  1.00  0.00     0.004 A 
ATOM     22  C   UNL A   1      34.366  20.770  24.720  1.00  0.00     0.000 A 
ENDBRANCH  16  17
ENDBRANCH  14  16
ENDBRANCH   8  12
ENDBRANCH   5   7
ENDBRANCH   4   5
ENDBRANCH   3   4
ENDBRANCH   2   3
ENDBRANCH   1   2
BRANCH   1  23
ATOM     23  C   UNL A   1      31.895  29.823  25.573  1.00  0.00     0.202 C 
BRANCH  23  24
ATOM     24  C   UNL A   1      31.971  31.088  26.440  1.00  0.00     0.261 C 
BRANCH  24  25
ATOM     25  O   UNL A   1      32.904  30.942  27.531  1.00  0.00    -0.460 OA
BRANCH  25  26
ATOM     26  C   UNL A   1      33.742  31.993  27.735  1.00  0.00     0.338 C 
ATOM     27  O   UNL A   1      33.434  33.167  27.799  1.00  0.00    -0.246 OA
BRANCH  26  28
ATOM     28  C   UNL A   1      35.098  31.492  28.062  1.00  0.00     0.060 A 
ATOM     29  C   UNL A   1      35.274  30.112  28.190  1.00  0.00     0.016 A 
ATOM     30  C   UNL A   1      36.175  32.350  28.285  1.00  0.00     0.016 A 
ATOM     31  C   UNL A   1      36.519  29.594  28.565  1.00  0.00     0.010 A 
ATOM     32  C   UNL A   1      37.442  31.825  28.589  1.00  0.00     0.010 A 
ATOM     33  C   UNL A   1      37.616  30.443  28.787  1.00  0.00    -0.014 A 
BRANCH  33  34
ATOM     34  C   UNL A   1      38.871  29.900  29.395  1.00  0.00     0.031 A 
ATOM     35  C   UNL A   1      39.301  30.393  30.759  1.00  0.00     0.074 A 
ATOM     36  C   UNL A   1      39.588  28.925  28.795  1.00  0.00     0.049 A 
ATOM     37  N   UNL A   1      40.335  30.043  31.484  1.00  0.00    -0.248 NA
ATOM     38  C   UNL A   1      38.456  31.421  31.388  1.00  0.00     0.031 C 
ATOM     39  C   UNL A   1      39.285  28.330  27.493  1.00  0.00     0.029 A 
ATOM     40  N   UNL A   1      40.716  28.252  29.210  1.00  0.00    -0.354 N 
ATOM     41  C   UNL A   1      40.253  30.794  32.653  1.00  0.00     0.074 A 
ATOM     42  C   UNL A   1      39.117  31.675  32.507  1.00  0.00     0.031 C 
ATOM     43  C   UNL A   1      40.188  27.369  27.228  1.00  0.00     0.029 A 
ATOM     44  C   UNL A   1      41.162  27.302  28.316  1.00  0.00     0.049 A 
ATOM     45  H   UNL A   1      41.163  28.434  30.068  1.00  0.00     0.167 HD
ATOM     46  C   UNL A   1      41.025  30.737  33.766  1.00  0.00     0.034 A 
ATOM     47  C   UNL A   1      42.236  26.483  28.361  1.00  0.00     0.034 A 
ATOM     48  C   UNL A   1      42.158  29.861  33.925  1.00  0.00     0.049 A 
ATOM     49  C   UNL A   1      43.147  26.517  29.573  1.00  0.00     0.074 A 
ATOM     50  C   UNL A   1      43.003  29.739  35.016  1.00  0.00     0.029 A 
ATOM     51  N   UNL A   1      42.608  28.958  32.973  1.00  0.00    -0.354 N 
ATOM     52  N   UNL A   1      43.038  27.227  30.672  1.00  0.00    -0.248 NA
ATOM     53  C   UNL A   1      44.319  25.627  29.553  1.00  0.00     0.031 C 
ATOM     54  C   UNL A   1      44.003  28.817  34.697  1.00  0.00     0.029 A 
ATOM     55  C   UNL A   1      43.733  28.297  33.443  1.00  0.00     0.049 A 
ATOM     56  H   UNL A   1      42.190  28.810  32.094  1.00  0.00     0.167 HD
ATOM     57  C   UNL A   1      44.098  26.829  31.487  1.00  0.00     0.074 A 
ATOM     58  C   UNL A   1      44.821  25.808  30.764  1.00  0.00     0.031 C 
ATOM     59  C   UNL A   1      44.444  27.268  32.725  1.00  0.00     0.034 A 
BRANCH  46  60
ATOM     60  C   UNL A   1      40.671  31.661  34.907  1.00  0.00     0.023 A 
ATOM     61  C   UNL A   1      39.644  31.346  35.812  1.00  0.00     0.031 A 
ATOM     62  C   UNL A   1      41.376  32.861  35.099  1.00  0.00     0.131 A 
ATOM     63  C   UNL A   1      39.314  32.245  36.835  1.00  0.00     0.055 A 
ATOM     64  C   UNL A   1      41.095  33.715  36.167  1.00  0.00     0.041 A 
ATOM     65  F   UNL A   1      42.352  33.224  34.251  1.00  0.00    -0.206 F 
ATOM     66  C   UNL A   1      40.051  33.414  37.037  1.00  0.00     0.022 A 
BRANCH  63  67
ATOM     67  S   UNL A   1      37.829  31.924  37.825  1.00  0.00     0.124 S 
ATOM     68  O   UNL A   1      36.903  32.925  37.299  1.00  0.00    -0.237 OA
ATOM     69  O   UNL A   1      37.523  30.537  37.496  1.00  0.00    -0.237 OA
ATOM     70  O   UNL A   1      38.274  32.158  39.197  1.00  0.00    -0.744 OA
ENDBRANCH  63  67
ENDBRANCH  46  60
BRANCH  47  71
ATOM     71  C   UNL A   1      42.566  25.575  27.216  1.00  0.00     0.023 A 
ATOM     72  C   UNL A   1      42.075  24.258  27.165  1.00  0.00     0.031 A 
ATOM     73  C   UNL A   1      43.485  25.967  26.226  1.00  0.00     0.131 A 
ATOM     74  C   UNL A   1      42.573  23.361  26.206  1.00  0.00     0.055 A 
ATOM     75  C   UNL A   1      43.916  25.093  25.226  1.00  0.00     0.041 A 
ATOM     76  F   UNL A   1      43.998  27.207  26.227  1.00  0.00    -0.206 F 
ATOM     77  C   UNL A   1      43.477  23.773  25.227  1.00  0.00     0.022 A 
BRANCH  74  78
ATOM     78  S   UNL A   1      42.145  21.602  26.360  1.00  0.00     0.124 S 
ATOM     79  O   UNL A   1      42.450  21.348  27.764  1.00  0.00    -0.237 OA
ATOM     80  O   UNL A   1      40.732  21.602  25.999  1.00  0.00    -0.237 OA
ATOM     81  O   UNL A   1      43.035  20.952  25.400  1.00  0.00    -0.744 OA
ENDBRANCH  74  78
ENDBRANCH  47  71
BRANCH  59  82
ATOM     82  C   UNL A   1      45.614  26.596  33.407  1.00  0.00     0.023 A 
ATOM     83  C   UNL A   1      45.478  25.380  34.098  1.00  0.00     0.031 A 
ATOM     84  C   UNL A   1      46.889  27.189  33.364  1.00  0.00     0.131 A 
ATOM     85  C   UNL A   1      46.580  24.827  34.768  1.00  0.00     0.055 A 
ATOM     86  C   UNL A   1      47.998  26.599  33.973  1.00  0.00     0.041 A 
ATOM     87  F   UNL A   1      47.083  28.351  32.719  1.00  0.00    -0.206 F 
ATOM     88  C   UNL A   1      47.844  25.418  34.693  1.00  0.00     0.022 A 
BRANCH  85  89
ATOM     89  S   UNL A   1      46.322  23.372  35.820  1.00  0.00     0.124 S 
ATOM     90  O   UNL A   1      46.684  23.883  37.139  1.00  0.00    -0.237 OA
ATOM     91  O   UNL A   1      44.907  23.085  35.614  1.00  0.00    -0.237 OA
ATOM     92  O   UNL A   1      47.242  22.380  35.266  1.00  0.00    -0.744 OA
ENDBRANCH  85  89
ENDBRANCH  59  82
ENDBRANCH  33  34
ENDBRANCH  26  28
ENDBRANCH  25  26
ENDBRANCH  24  25
ENDBRANCH  23  24
ENDBRANCH   1  23
TORSDOF 20
ENDMDL
MODEL 2
REMARK VINA RESULT:     -10.9      1.377      2.394
REMARK SMILES O=C(N[C@@H]1C=C[C@@H](C(=O)OCCOCCOC(=O)c2ccc(-c3c4nc(c(-c5cc(S(=O)(=O)[O-])ccc5F)c5ccc([nH]5)c(-c5cc(S(=O)(=O)[O-])ccc5F)c5nc(c(-c6cc(S(=O)(=O)[O-])ccc6F)c6ccc3[nH]6)C=C5)C=C4)cc2)C1)Oc1ccccc1
REMARK SMILES IDX 13 1 12 2 11 3 10 4 8 5 9 6 7 7 4 8 5 9 82 10 6 11 3 12 1 13
REMARK SMILES IDX 2 14 83 16 84 17 85 18 89 19 86 20 88 21 87 22 14 23 15 24
REMARK SMILES IDX 16 25 17 26 18 27 19 28 20 29 81 30 21 31 80 32 22 33 23 34
REMARK SMILES IDX 24 35 74 36 25 37 79 38 73 39 75 40 26 41 78 42 72 43 71 44
REMARK SMILES IDX 27 46 59 47 39 48 58 49 40 50 43 51 57 52 76 53 41 54 42 55
REMARK SMILES IDX 56 57 77 58 44 59 28 60 29 61 37 62 30 63 36 64 38 65 35 66
REMARK SMILES IDX 31 67 32 68 33 69 34 70 60 71 61 72 69 73 62 74 68 75 70 76
REMARK SMILES IDX 67 77 63 78 64 79 65 80 66 81 45 82 46 83 54 84 47 85 53 86
REMARK SMILES IDX 55 87 52 88 48 89 49 90 50 91 51 92
REMARK H PARENT 3 15 75 45 43 56
REMARK Flexibility Score: inf
ROOT
ATOM      1  O   UNL A   1      32.160  28.289  24.648  1.00  0.00    -0.374 OA
ENDROOT
BRANCH   1   2
ATOM      2  C   UNL A   1      31.037  27.675  25.280  1.00  0.00     0.202 C 
BRANCH   2   3
ATOM      3  C   UNL A   1      31.377  26.525  26.231  1.00  0.00     0.261 C 
BRANCH   3   4
ATOM      4  O   UNL A   1      31.360  25.254  25.554  1.00  0.00    -0.463 OA
BRANCH   4   5
ATOM      5  C   UNL A   1      31.325  24.156  26.355  1.00  0.00     0.312 C 
ATOM      6  O   UNL A   1      30.494  23.959  27.235  1.00  0.00    -0.252 OA
BRANCH   5   7
ATOM      7  C   UNL A   1      32.480  23.187  26.113  1.00  0.00     0.124 C 
ATOM      8  C   UNL A   1      34.929  23.221  26.456  1.00  0.00     0.109 C 
ATOM      9  C   UNL A   1      34.198  22.569  27.588  1.00  0.00    -0.006 C 
ATOM     10  C   UNL A   1      33.800  23.749  25.558  1.00  0.00     0.049 C 
ATOM     11  C   UNL A   1      32.876  22.549  27.407  1.00  0.00    -0.014 C 
BRANCH   8  12
ATOM     12  N   UNL A   1      35.784  22.212  25.856  1.00  0.00    -0.315 N 
ATOM     13  O   UNL A   1      36.590  20.345  24.943  1.00  0.00    -0.224 OA
ATOM     14  C   UNL A   1      35.618  20.917  25.441  1.00  0.00     0.413 C 
ATOM     15  H   UNL A   1      36.702  22.537  25.712  1.00  0.00     0.167 HD
BRANCH  14  16
ATOM     16  O   UNL A   1      34.416  20.210  25.604  1.00  0.00    -0.410 OA
BRANCH  16  17
ATOM     17  C   UNL A   1      33.629  19.599  24.615  1.00  0.00     0.132 A 
ATOM     18  C   UNL A   1      32.827  20.424  23.832  1.00  0.00     0.047 A 
ATOM     19  C   UNL A   1      33.662  18.220  24.443  1.00  0.00     0.047 A 
ATOM     20  C   UNL A   1      32.173  19.864  22.744  1.00  0.00     0.004 A 
ATOM     21  C   UNL A   1      33.066  17.679  23.315  1.00  0.00     0.004 A 
ATOM     22  C   UNL A   1      32.358  18.511  22.453  1.00  0.00     0.000 A 
ENDBRANCH  16  17
ENDBRANCH  14  16
ENDBRANCH   8  12
ENDBRANCH   5   7
ENDBRANCH   4   5
ENDBRANCH   3   4
ENDBRANCH   2   3
ENDBRANCH   1   2
BRANCH   1  23
ATOM     23  C   UNL A   1      33.061  28.982  25.513  1.00  0.00     0.202 C 
BRANCH  23  24
ATOM     24  C   UNL A   1      32.524  30.288  26.115  1.00  0.00     0.261 C 
BRANCH  24  25
ATOM     25  O   UNL A   1      32.985  30.491  27.468  1.00  0.00    -0.460 OA
BRANCH  25  26
ATOM     26  C   UNL A   1      33.841  31.531  27.648  1.00  0.00     0.338 C 
ATOM     27  O   UNL A   1      33.551  32.709  27.709  1.00  0.00    -0.246 OA
BRANCH  26  28
ATOM     28  C   UNL A   1      35.195  31.012  27.955  1.00  0.00     0.060 A 
ATOM     29  C   UNL A   1      35.361  29.629  28.056  1.00  0.00     0.016 A 
ATOM     30  C   UNL A   1      36.282  31.857  28.183  1.00  0.00     0.016 A 
ATOM     31  C   UNL A   1      36.605  29.094  28.410  1.00  0.00     0.010 A 
ATOM     32  C   UNL A   1      37.546  31.316  28.467  1.00  0.00     0.010 A 
ATOM     33  C   UNL A   1      37.710  29.929  28.638  1.00  0.00    -0.014 A 
BRANCH  33  34
ATOM     34  C   UNL A   1      38.966  29.364  29.225  1.00  0.00     0.031 A 
ATOM     35  C   UNL A   1      39.443  29.872  30.568  1.00  0.00     0.074 A 
ATOM     36  C   UNL A   1      39.642  28.360  28.626  1.00  0.00     0.049 A 
ATOM     37  N   UNL A   1      40.485  29.508  31.273  1.00  0.00    -0.248 NA
ATOM     38  C   UNL A   1      38.641  30.933  31.198  1.00  0.00     0.031 C 
ATOM     39  C   UNL A   1      39.291  27.750  27.343  1.00  0.00     0.029 A 
ATOM     40  N   UNL A   1      40.762  27.666  29.025  1.00  0.00    -0.354 N 
ATOM     41  C   UNL A   1      40.453  30.282  32.430  1.00  0.00     0.074 A 
ATOM     42  C   UNL A   1      39.336  31.190  32.295  1.00  0.00     0.031 C 
ATOM     43  C   UNL A   1      40.162  26.760  27.075  1.00  0.00     0.029 A 
ATOM     44  C   UNL A   1      41.161  26.688  28.140  1.00  0.00     0.049 A 
ATOM     45  H   UNL A   1      41.235  27.851  29.869  1.00  0.00     0.167 HD
ATOM     46  C   UNL A   1      41.251  30.225  33.524  1.00  0.00     0.034 A 
ATOM     47  C   UNL A   1      42.214  25.842  28.173  1.00  0.00     0.034 A 
ATOM     48  C   UNL A   1      42.365  29.323  33.672  1.00  0.00     0.049 A 
ATOM     49  C   UNL A   1      43.156  25.874  29.361  1.00  0.00     0.074 A 
ATOM     50  C   UNL A   1      43.233  29.199  34.743  1.00  0.00     0.029 A 
ATOM     51  N   UNL A   1      42.767  28.391  32.727  1.00  0.00    -0.354 N 
ATOM     52  N   UNL A   1      43.093  26.607  30.449  1.00  0.00    -0.248 NA
ATOM     53  C   UNL A   1      44.304  24.954  29.329  1.00  0.00     0.031 C 
ATOM     54  C   UNL A   1      44.201  28.245  34.418  1.00  0.00     0.029 A 
ATOM     55  C   UNL A   1      43.886  27.710  33.181  1.00  0.00     0.049 A 
ATOM     56  H   UNL A   1      42.323  28.238  31.861  1.00  0.00     0.167 HD
ATOM     57  C   UNL A   1      44.163  26.197  31.245  1.00  0.00     0.074 A 
ATOM     58  C   UNL A   1      44.841  25.144  30.524  1.00  0.00     0.031 C 
ATOM     59  C   UNL A   1      44.551  26.649  32.465  1.00  0.00     0.034 A 
BRANCH  46  60
ATOM     60  C   UNL A   1      40.950  31.179  34.656  1.00  0.00     0.023 A 
ATOM     61  C   UNL A   1      39.832  30.999  35.486  1.00  0.00     0.031 A 
ATOM     62  C   UNL A   1      41.796  32.271  34.913  1.00  0.00     0.131 A 
ATOM     63  C   UNL A   1      39.559  31.927  36.502  1.00  0.00     0.055 A 
ATOM     64  C   UNL A   1      41.563  33.147  35.976  1.00  0.00     0.041 A 
ATOM     65  F   UNL A   1      42.866  32.505  34.137  1.00  0.00    -0.206 F 
ATOM     66  C   UNL A   1      40.432  32.983  36.771  1.00  0.00     0.022 A 
BRANCH  63  67
ATOM     67  S   UNL A   1      37.982  31.802  37.387  1.00  0.00     0.124 S 
ATOM     68  O   UNL A   1      37.116  32.645  36.565  1.00  0.00    -0.237 OA
ATOM     69  O   UNL A   1      37.706  30.371  37.345  1.00  0.00    -0.237 OA
ATOM     70  O   UNL A   1      38.288  32.341  38.711  1.00  0.00    -0.744 OA
ENDBRANCH  63  67
ENDBRANCH  46  60
BRANCH  47  71
ATOM     71  C   UNL A   1      42.492  24.904  27.038  1.00  0.00     0.023 A 
ATOM     72  C   UNL A   1      41.988  23.591  27.038  1.00  0.00     0.031 A 
ATOM     73  C   UNL A   1      43.374  25.265  26.004  1.00  0.00     0.131 A 
ATOM     74  C   UNL A   1      42.440  22.667  26.082  1.00  0.00     0.055 A 
ATOM     75  C   UNL A   1      43.758  24.363  25.009  1.00  0.00     0.041 A 
ATOM     76  F   UNL A   1      43.896  26.500  25.956  1.00  0.00    -0.206 F 
ATOM     77  C   UNL A   1      43.309  23.048  25.058  1.00  0.00     0.022 A 
BRANCH  74  78
ATOM     78  S   UNL A   1      42.005  20.916  26.294  1.00  0.00     0.124 S 
ATOM     79  O   UNL A   1      42.841  20.282  25.281  1.00  0.00    -0.237 OA
ATOM     80  O   UNL A   1      42.383  20.677  27.682  1.00  0.00    -0.237 OA
ATOM     81  O   UNL A   1      40.568  20.890  26.026  1.00  0.00    -0.744 OA
ENDBRANCH  74  78
ENDBRANCH  47  71
BRANCH  59  82
ATOM     82  C   UNL A   1      45.720  25.959  33.131  1.00  0.00     0.023 A 
ATOM     83  C   UNL A   1      45.552  24.838  33.961  1.00  0.00     0.031 A 
ATOM     84  C   UNL A   1      47.028  26.437  32.929  1.00  0.00     0.131 A 
ATOM     85  C   UNL A   1      46.662  24.270  34.607  1.00  0.00     0.055 A 
ATOM     86  C   UNL A   1      48.136  25.826  33.517  1.00  0.00     0.041 A 
ATOM     87  F   UNL A   1      47.253  27.505  32.146  1.00  0.00    -0.206 F 
ATOM     88  C   UNL A   1      47.955  24.745  34.374  1.00  0.00     0.022 A 
BRANCH  85  89
ATOM     89  S   UNL A   1      46.384  22.960  35.831  1.00  0.00     0.124 S 
ATOM     90  O   UNL A   1      44.963  23.116  36.124  1.00  0.00    -0.237 OA
ATOM     91  O   UNL A   1      46.753  21.758  35.091  1.00  0.00    -0.237 OA
ATOM     92  O   UNL A   1      47.287  23.316  36.925  1.00  0.00    -0.744 OA
ENDBRANCH  85  89
ENDBRANCH  59  82
ENDBRANCH  33  34
ENDBRANCH  26  28
ENDBRANCH  25  26
ENDBRANCH  24  25
ENDBRANCH  23  24
ENDBRANCH   1  23
TORSDOF 20
ENDMDL
MODEL 3
REMARK VINA RESULT:     -10.8      2.213      3.225
REMARK SMILES O=C(N[C@@H]1C=C[C@@H](C(=O)OCCOCCOC(=O)c2ccc(-c3c4nc(c(-c5cc(S(=O)(=O)[O-])ccc5F)c5ccc([nH]5)c(-c5cc(S(=O)(=O)[O-])ccc5F)c5nc(c(-c6cc(S(=O)(=O)[O-])ccc6F)c6ccc3[nH]6)C=C5)C=C4)cc2)C1)Oc1ccccc1
REMARK SMILES IDX 13 1 12 2 11 3 10 4 8 5 9 6 7 7 4 8 5 9 82 10 6 11 3 12 1 13
REMARK SMILES IDX 2 14 83 16 84 17 85 18 89 19 86 20 88 21 87 22 14 23 15 24
REMARK SMILES IDX 16 25 17 26 18 27 19 28 20 29 81 30 21 31 80 32 22 33 23 34
REMARK SMILES IDX 24 35 74 36 25 37 79 38 73 39 75 40 26 41 78 42 72 43 71 44
REMARK SMILES IDX 27 46 59 47 39 48 58 49 40 50 43 51 57 52 76 53 41 54 42 55
REMARK SMILES IDX 56 57 77 58 44 59 28 60 29 61 37 62 30 63 36 64 38 65 35 66
REMARK SMILES IDX 31 67 32 68 33 69 34 70 60 71 61 72 69 73 62 74 68 75 70 76
REMARK SMILES IDX 67 77 63 78 64 79 65 80 66 81 45 82 46 83 54 84 47 85 53 86
REMARK SMILES IDX 55 87 52 88 48 89 49 90 50 91 51 92
REMARK H PARENT 3 15 75 45 43 56
REMARK Flexibility Score: inf
ROOT
ATOM      1  O   UNL A   1      32.228  30.752  26.230  1.00  0.00    -0.374 OA
ENDROOT
BRANCH   1   2
ATOM      2  C   UNL A   1      32.732  29.748  27.111  1.00  0.00     0.202 C 
BRANCH   2   3
ATOM      3  C   UNL A   1      31.743  28.633  27.457  1.00  0.00     0.261 C 
BRANCH   3   4
ATOM      4  O   UNL A   1      31.121  28.089  26.276  1.00  0.00    -0.463 OA
BRANCH   4   5
ATOM      5  C   UNL A   1      31.334  26.766  26.050  1.00  0.00     0.312 C 
ATOM      6  O   UNL A   1      31.187  25.881  26.887  1.00  0.00    -0.252 OA
BRANCH   5   7
ATOM      7  C   UNL A   1      31.857  26.462  24.648  1.00  0.00     0.124 C 
ATOM      8  C   UNL A   1      31.227  27.096  22.342  1.00  0.00     0.109 C 
ATOM      9  C   UNL A   1      32.308  27.966  22.903  1.00  0.00    -0.006 C 
ATOM     10  C   UNL A   1      30.834  26.203  23.529  1.00  0.00     0.049 C 
ATOM     11  C   UNL A   1      32.651  27.628  24.148  1.00  0.00    -0.014 C 
BRANCH   8  12
ATOM     12  N   UNL A   1      31.784  26.400  21.196  1.00  0.00    -0.315 N 
ATOM     13  O   UNL A   1      33.018  25.123  19.848  1.00  0.00    -0.224 OA
ATOM     14  C   UNL A   1      32.841  25.554  20.990  1.00  0.00     0.413 C 
ATOM     15  H   UNL A   1      31.281  26.580  20.369  1.00  0.00     0.167 HD
BRANCH  14  16
ATOM     16  O   UNL A   1      33.749  25.203  22.002  1.00  0.00    -0.410 OA
BRANCH  16  17
ATOM     17  C   UNL A   1      33.768  24.037  22.782  1.00  0.00     0.132 A 
ATOM     18  C   UNL A   1      32.618  23.254  22.798  1.00  0.00     0.047 A 
ATOM     19  C   UNL A   1      34.905  23.695  23.507  1.00  0.00     0.047 A 
ATOM     20  C   UNL A   1      32.672  22.018  23.423  1.00  0.00     0.004 A 
ATOM     21  C   UNL A   1      34.977  22.430  24.067  1.00  0.00     0.004 A 
ATOM     22  C   UNL A   1      33.874  21.586  23.989  1.00  0.00     0.000 A 
ENDBRANCH  16  17
ENDBRANCH  14  16
ENDBRANCH   8  12
ENDBRANCH   5   7
ENDBRANCH   4   5
ENDBRANCH   3   4
ENDBRANCH   2   3
ENDBRANCH   1   2
BRANCH   1  23
ATOM     23  C   UNL A   1      31.738  31.940  26.854  1.00  0.00     0.202 C 
BRANCH  23  24
ATOM     24  C   UNL A   1      32.812  32.953  27.275  1.00  0.00     0.261 C 
BRANCH  24  25
ATOM     25  O   UNL A   1      32.236  34.151  27.839  1.00  0.00    -0.460 OA
BRANCH  25  26
ATOM     26  C   UNL A   1      33.009  34.806  28.744  1.00  0.00     0.338 C 
ATOM     27  O   UNL A   1      32.718  35.817  29.353  1.00  0.00    -0.246 OA
BRANCH  26  28
ATOM     28  C   UNL A   1      34.219  34.001  29.040  1.00  0.00     0.060 A 
ATOM     29  C   UNL A   1      34.066  32.848  29.814  1.00  0.00     0.016 A 
ATOM     30  C   UNL A   1      35.490  34.382  28.611  1.00  0.00     0.016 A 
ATOM     31  C   UNL A   1      35.187  32.092  30.177  1.00  0.00     0.010 A 
ATOM     32  C   UNL A   1      36.604  33.583  28.914  1.00  0.00     0.010 A 
ATOM     33  C   UNL A   1      36.473  32.458  29.748  1.00  0.00    -0.014 A 
BRANCH  33  34
ATOM     34  C   UNL A   1      37.675  31.773  30.320  1.00  0.00     0.031 A 
ATOM     35  C   UNL A   1      38.100  32.094  31.736  1.00  0.00     0.074 A 
ATOM     36  C   UNL A   1      38.343  30.820  29.635  1.00  0.00     0.049 A 
ATOM     37  N   UNL A   1      39.090  31.603  32.439  1.00  0.00    -0.248 NA
ATOM     38  C   UNL A   1      37.306  33.106  32.452  1.00  0.00     0.031 C 
ATOM     39  C   UNL A   1      38.036  30.384  28.272  1.00  0.00     0.029 A 
ATOM     40  N   UNL A   1      39.415  30.035  29.998  1.00  0.00    -0.354 N 
ATOM     41  C   UNL A   1      39.027  32.234  33.679  1.00  0.00     0.074 A 
ATOM     42  C   UNL A   1      37.953  33.199  33.604  1.00  0.00     0.031 C 
ATOM     43  C   UNL A   1      38.883  29.397  27.926  1.00  0.00     0.029 A 
ATOM     44  C   UNL A   1      39.822  29.154  29.019  1.00  0.00     0.049 A 
ATOM     45  H   UNL A   1      39.850  30.097  30.879  1.00  0.00     0.167 HD
ATOM     46  C   UNL A   1      39.764  32.011  34.795  1.00  0.00     0.034 A 
ATOM     47  C   UNL A   1      40.840  28.265  28.998  1.00  0.00     0.034 A 
ATOM     48  C   UNL A   1      40.835  31.051  34.883  1.00  0.00     0.049 A 
ATOM     49  C   UNL A   1      41.720  28.115  30.224  1.00  0.00     0.074 A 
ATOM     50  C   UNL A   1      41.642  30.761  35.970  1.00  0.00     0.029 A 
ATOM     51  N   UNL A   1      41.251  30.223  33.851  1.00  0.00    -0.354 N 
ATOM     52  N   UNL A   1      41.628  28.713  31.390  1.00  0.00    -0.248 NA
ATOM     53  C   UNL A   1      42.833  27.156  30.134  1.00  0.00     0.031 C 
ATOM     54  C   UNL A   1      42.589  29.813  35.576  1.00  0.00     0.029 A 
ATOM     55  C   UNL A   1      42.319  29.444  34.270  1.00  0.00     0.049 A 
ATOM     56  H   UNL A   1      40.847  30.194  32.953  1.00  0.00     0.167 HD
ATOM     57  C   UNL A   1      42.640  28.164  32.179  1.00  0.00     0.074 A 
ATOM     58  C   UNL A   1      43.314  27.177  31.367  1.00  0.00     0.031 C 
ATOM     59  C   UNL A   1      42.980  28.449  33.462  1.00  0.00     0.034 A 
BRANCH  46  60
ATOM     60  C   UNL A   1      39.441  32.834  36.018  1.00  0.00     0.023 A 
ATOM     61  C   UNL A   1      40.022  34.096  36.226  1.00  0.00     0.031 A 
ATOM     62  C   UNL A   1      38.534  32.358  36.980  1.00  0.00     0.131 A 
ATOM     63  C   UNL A   1      39.732  34.816  37.393  1.00  0.00     0.055 A 
ATOM     64  C   UNL A   1      38.188  33.115  38.102  1.00  0.00     0.041 A 
ATOM     65  F   UNL A   1      37.966  31.149  36.846  1.00  0.00    -0.206 F 
ATOM     66  C   UNL A   1      38.796  34.347  38.319  1.00  0.00     0.022 A 
BRANCH  63  67
ATOM     67  S   UNL A   1      40.685  36.318  37.744  1.00  0.00     0.124 S 
ATOM     68  O   UNL A   1      41.123  36.707  36.405  1.00  0.00    -0.237 OA
ATOM     69  O   UNL A   1      39.693  37.185  38.368  1.00  0.00    -0.237 OA
ATOM     70  O   UNL A   1      41.750  35.849  38.628  1.00  0.00    -0.744 OA
ENDBRANCH  63  67
ENDBRANCH  46  60
BRANCH  47  71
ATOM     71  C   UNL A   1      41.141  27.460  27.772  1.00  0.00     0.023 A 
ATOM     72  C   UNL A   1      40.853  26.085  27.714  1.00  0.00     0.031 A 
ATOM     73  C   UNL A   1      41.843  28.026  26.692  1.00  0.00     0.131 A 
ATOM     74  C   UNL A   1      41.341  25.310  26.649  1.00  0.00     0.055 A 
ATOM     75  C   UNL A   1      42.257  27.264  25.597  1.00  0.00     0.041 A 
ATOM     76  F   UNL A   1      42.156  29.330  26.694  1.00  0.00    -0.206 F 
ATOM     77  C   UNL A   1      42.027  25.893  25.583  1.00  0.00     0.022 A 
BRANCH  74  78
ATOM     78  S   UNL A   1      41.211  23.502  26.761  1.00  0.00     0.124 S 
ATOM     79  O   UNL A   1      42.120  23.076  25.702  1.00  0.00    -0.237 OA
ATOM     80  O   UNL A   1      41.653  23.252  28.128  1.00  0.00    -0.237 OA
ATOM     81  O   UNL A   1      39.794  23.249  26.508  1.00  0.00    -0.744 OA
ENDBRANCH  74  78
ENDBRANCH  47  71
BRANCH  59  82
ATOM     82  C   UNL A   1      44.087  27.635  34.092  1.00  0.00     0.023 A 
ATOM     83  C   UNL A   1      43.834  26.434  34.777  1.00  0.00     0.031 A 
ATOM     84  C   UNL A   1      45.421  28.073  34.005  1.00  0.00     0.131 A 
ATOM     85  C   UNL A   1      44.887  25.746  35.399  1.00  0.00     0.055 A 
ATOM     86  C   UNL A   1      46.474  27.348  34.565  1.00  0.00     0.041 A 
ATOM     87  F   UNL A   1      45.727  29.213  33.363  1.00  0.00    -0.206 F 
ATOM     88  C   UNL A   1      46.208  26.184  35.280  1.00  0.00     0.022 A 
BRANCH  85  89
ATOM     89  S   UNL A   1      44.498  24.317  36.447  1.00  0.00     0.124 S 
ATOM     90  O   UNL A   1      45.827  23.820  36.787  1.00  0.00    -0.237 OA
ATOM     91  O   UNL A   1      43.748  24.927  37.540  1.00  0.00    -0.237 OA
ATOM     92  O   UNL A   1      43.716  23.449  35.568  1.00  0.00    -0.744 OA
ENDBRANCH  85  89
ENDBRANCH  59  82
ENDBRANCH  33  34
ENDBRANCH  26  28
ENDBRANCH  25  26
ENDBRANCH  24  25
ENDBRANCH  23  24
ENDBRANCH   1  23
TORSDOF 20
ENDMDL
