MODEL 1
REMARK VINA RESULT:     -11.5      0.000      0.000
REMARK SMILES C[C@](Nc1ccc(C(N)=O)nn1)(C(=O)OCCOCCOC(=O)c1ccc(-c2c3nc(c(-c4cc(S(=O)(=O)[O-])ccc4F)c4ccc([nH]4)c(-c4cc(S(=O)(=O)[O-])ccc4F)c4nc(c(-c5cc(S(=O)(=O)[O-])ccc5F)c5ccc2[nH]5)C=C4)C=C3)cc1)c1ccccc1
REMARK SMILES IDX 18 1 17 2 16 3 15 4 13 5 14 6 2 7 1 8 87 9 88 10 92 11 89 12
REMARK SMILES IDX 91 13 90 14 3 15 4 17 5 18 12 19 6 20 11 21 7 22 8 23 9 24
REMARK SMILES IDX 10 25 19 28 20 29 21 30 22 31 23 32 24 33 25 34 86 35 26 36
REMARK SMILES IDX 85 37 27 38 28 39 29 40 79 41 30 42 84 43 78 44 80 45 31 46
REMARK SMILES IDX 83 47 77 48 76 49 32 51 64 52 44 53 63 54 45 55 48 56 62 57
REMARK SMILES IDX 81 58 46 59 47 60 61 62 82 63 49 64 33 65 34 66 42 67 35 68
REMARK SMILES IDX 41 69 43 70 40 71 36 72 37 73 38 74 39 75 65 76 66 77 74 78
REMARK SMILES IDX 67 79 73 80 75 81 72 82 68 83 69 84 70 85 71 86 50 87 51 88
REMARK SMILES IDX 59 89 52 90 58 91 60 92 57 93 53 94 54 95 55 96 56 97
REMARK H PARENT 3 16 9 26 9 27 80 50 48 61
REMARK Flexibility Score: inf
ROOT
ATOM      1  O   UNL A   1      32.589  27.977  25.173  1.00  0.00    -0.374 OA
ENDROOT
BRANCH   1   2
ATOM      2  C   UNL A   1      31.671  27.599  24.152  1.00  0.00     0.202 C 
BRANCH   2   3
ATOM      3  C   UNL A   1      31.687  26.142  23.675  1.00  0.00     0.261 C 
BRANCH   3   4
ATOM      4  O   UNL A   1      32.814  25.389  24.155  1.00  0.00    -0.461 OA
BRANCH   4   5
ATOM      5  C   UNL A   1      32.486  24.359  24.994  1.00  0.00     0.336 C 
ATOM      6  O   UNL A   1      31.747  24.479  25.970  1.00  0.00    -0.249 OA
BRANCH   5   7
ATOM      7  C   UNL A   1      33.184  23.006  24.615  1.00  0.00     0.160 C 
ATOM      8  C   UNL A   1      32.638  22.701  23.197  1.00  0.00     0.053 C 
BRANCH   7   9
ATOM      9  C   UNL A   1      34.708  23.257  24.678  1.00  0.00    -0.012 A 
ATOM     10  C   UNL A   1      35.536  23.057  23.554  1.00  0.00     0.007 A 
ATOM     11  C   UNL A   1      35.332  23.606  25.889  1.00  0.00     0.007 A 
ATOM     12  C   UNL A   1      36.922  23.218  23.634  1.00  0.00     0.000 A 
ATOM     13  C   UNL A   1      36.719  23.759  25.970  1.00  0.00     0.000 A 
ATOM     14  C   UNL A   1      37.512  23.567  24.843  1.00  0.00     0.000 A 
ENDBRANCH   7   9
BRANCH   7  15
ATOM     15  N   UNL A   1      32.793  21.891  25.517  1.00  0.00    -0.350 N 
ATOM     16  H   UNL A   1      32.328  22.117  26.355  1.00  0.00     0.163 HD
BRANCH  15  17
ATOM     17  C   UNL A   1      33.043  20.558  25.256  1.00  0.00     0.149 A 
ATOM     18  C   UNL A   1      34.297  20.058  24.922  1.00  0.00     0.051 A 
ATOM     19  N   UNL A   1      31.993  19.709  25.292  1.00  0.00    -0.132 NA
ATOM     20  C   UNL A   1      34.452  18.726  24.540  1.00  0.00     0.040 A 
ATOM     21  N   UNL A   1      32.125  18.383  24.915  1.00  0.00    -0.143 NA
ATOM     22  C   UNL A   1      33.333  17.922  24.526  1.00  0.00     0.150 A 
BRANCH  22  23
ATOM     23  C   UNL A   1      33.417  16.522  24.026  1.00  0.00     0.269 C 
ATOM     24  N   UNL A   1      32.653  15.595  24.680  1.00  0.00    -0.364 N 
ATOM     25  O   UNL A   1      34.116  16.214  23.068  1.00  0.00    -0.268 OA
ATOM     26  H   UNL A   1      32.099  15.865  25.448  1.00  0.00     0.160 HD
ATOM     27  H   UNL A   1      32.658  14.655  24.383  1.00  0.00     0.160 HD
ENDBRANCH  22  23
ENDBRANCH  15  17
ENDBRANCH   7  15
ENDBRANCH   5   7
ENDBRANCH   4   5
ENDBRANCH   3   4
ENDBRANCH   2   3
ENDBRANCH   1   2
BRANCH   1  28
ATOM     28  C   UNL A   1      33.056  29.326  25.187  1.00  0.00     0.202 C 
BRANCH  28  29
ATOM     29  C   UNL A   1      32.371  30.327  26.123  1.00  0.00     0.261 C 
BRANCH  29  30
ATOM     30  O   UNL A   1      32.963  30.358  27.435  1.00  0.00    -0.460 OA
BRANCH  30  31
ATOM     31  C   UNL A   1      33.798  31.404  27.651  1.00  0.00     0.338 C 
ATOM     32  O   UNL A   1      33.480  32.581  27.784  1.00  0.00    -0.246 OA
BRANCH  31  33
ATOM     33  C   UNL A   1      35.165  30.924  27.914  1.00  0.00     0.060 A 
ATOM     34  C   UNL A   1      35.352  29.542  28.052  1.00  0.00     0.016 A 
ATOM     35  C   UNL A   1      36.227  31.808  28.112  1.00  0.00     0.016 A 
ATOM     36  C   UNL A   1      36.592  29.040  28.440  1.00  0.00     0.010 A 
ATOM     37  C   UNL A   1      37.469  31.303  28.515  1.00  0.00     0.010 A 
ATOM     38  C   UNL A   1      37.647  29.920  28.714  1.00  0.00    -0.014 A 
BRANCH  38  39
ATOM     39  C   UNL A   1      38.876  29.401  29.362  1.00  0.00     0.031 A 
ATOM     40  C   UNL A   1      39.290  29.967  30.694  1.00  0.00     0.074 A 
ATOM     41  C   UNL A   1      39.587  28.409  28.796  1.00  0.00     0.049 A 
ATOM     42  N   UNL A   1      40.337  29.689  31.426  1.00  0.00    -0.248 NA
ATOM     43  C   UNL A   1      38.400  30.983  31.274  1.00  0.00     0.031 C 
ATOM     44  C   UNL A   1      39.251  27.743  27.539  1.00  0.00     0.029 A 
ATOM     45  N   UNL A   1      40.740  27.790  29.207  1.00  0.00    -0.354 N 
ATOM     46  C   UNL A   1      40.233  30.494  32.557  1.00  0.00     0.074 A 
ATOM     47  C   UNL A   1      39.040  31.299  32.390  1.00  0.00     0.031 C 
ATOM     48  C   UNL A   1      40.182  26.809  27.278  1.00  0.00     0.029 A 
ATOM     49  C   UNL A   1      41.200  26.839  28.327  1.00  0.00     0.049 A 
ATOM     50  H   UNL A   1      41.195  28.005  30.053  1.00  0.00     0.167 HD
ATOM     51  C   UNL A   1      41.050  30.549  33.637  1.00  0.00     0.034 A 
ATOM     52  C   UNL A   1      42.325  26.096  28.354  1.00  0.00     0.034 A 
ATOM     53  C   UNL A   1      42.245  29.754  33.780  1.00  0.00     0.049 A 
ATOM     54  C   UNL A   1      43.276  26.251  29.518  1.00  0.00     0.074 A 
ATOM     55  C   UNL A   1      43.148  29.733  34.831  1.00  0.00     0.029 A 
ATOM     56  N   UNL A   1      42.713  28.846  32.839  1.00  0.00    -0.354 N 
ATOM     57  N   UNL A   1      43.172  27.021  30.576  1.00  0.00    -0.248 NA
ATOM     58  C   UNL A   1      44.493  25.428  29.491  1.00  0.00     0.031 C 
ATOM     59  C   UNL A   1      44.193  28.866  34.493  1.00  0.00     0.029 A 
ATOM     60  C   UNL A   1      43.906  28.285  33.269  1.00  0.00     0.049 A 
ATOM     61  H   UNL A   1      42.263  28.631  31.991  1.00  0.00     0.167 HD
ATOM     62  C   UNL A   1      44.295  26.752  31.355  1.00  0.00     0.074 A 
ATOM     63  C   UNL A   1      45.055  25.740  30.650  1.00  0.00     0.031 C 
ATOM     64  C   UNL A   1      44.661  27.286  32.549  1.00  0.00     0.034 A 
BRANCH  51  65
ATOM     65  C   UNL A   1      40.700  31.544  34.718  1.00  0.00     0.023 A 
ATOM     66  C   UNL A   1      39.722  31.268  35.689  1.00  0.00     0.031 A 
ATOM     67  C   UNL A   1      41.330  32.800  34.757  1.00  0.00     0.131 A 
ATOM     68  C   UNL A   1      39.353  32.259  36.613  1.00  0.00     0.055 A 
ATOM     69  C   UNL A   1      41.015  33.753  35.728  1.00  0.00     0.041 A 
ATOM     70  F   UNL A   1      42.256  33.130  33.842  1.00  0.00    -0.206 F 
ATOM     71  C   UNL A   1      40.011  33.490  36.655  1.00  0.00     0.022 A 
BRANCH  68  72
ATOM     72  S   UNL A   1      37.908  31.966  37.670  1.00  0.00     0.124 S 
ATOM     73  O   UNL A   1      38.452  32.244  38.998  1.00  0.00    -0.237 OA
ATOM     74  O   UNL A   1      36.943  32.933  37.160  1.00  0.00    -0.237 OA
ATOM     75  O   UNL A   1      37.579  30.564  37.421  1.00  0.00    -0.744 OA
ENDBRANCH  68  72
ENDBRANCH  51  65
BRANCH  52  76
ATOM     76  C   UNL A   1      42.646  25.169  27.232  1.00  0.00     0.023 A 
ATOM     77  C   UNL A   1      42.208  23.836  27.242  1.00  0.00     0.031 A 
ATOM     78  C   UNL A   1      43.446  25.592  26.155  1.00  0.00     0.131 A 
ATOM     79  C   UNL A   1      42.609  22.959  26.221  1.00  0.00     0.055 A 
ATOM     80  C   UNL A   1      43.799  24.732  25.114  1.00  0.00     0.041 A 
ATOM     81  F   UNL A   1      43.893  26.857  26.096  1.00  0.00    -0.206 F 
ATOM     82  C   UNL A   1      43.390  23.402  25.150  1.00  0.00     0.022 A 
BRANCH  79  83
ATOM     83  S   UNL A   1      42.160  21.207  26.353  1.00  0.00     0.124 S 
ATOM     84  O   UNL A   1      42.379  20.950  27.771  1.00  0.00    -0.237 OA
ATOM     85  O   UNL A   1      40.771  21.217  25.908  1.00  0.00    -0.237 OA
ATOM     86  O   UNL A   1      43.098  20.547  25.447  1.00  0.00    -0.744 OA
ENDBRANCH  79  83
ENDBRANCH  52  76
BRANCH  64  87
ATOM     87  C   UNL A   1      45.918  26.744  33.187  1.00  0.00     0.023 A 
ATOM     88  C   UNL A   1      45.895  25.627  34.040  1.00  0.00     0.031 A 
ATOM     89  C   UNL A   1      47.157  27.364  32.943  1.00  0.00     0.131 A 
ATOM     90  C   UNL A   1      47.077  25.197  34.661  1.00  0.00     0.055 A 
ATOM     91  C   UNL A   1      48.339  26.896  33.516  1.00  0.00     0.041 A 
ATOM     92  F   UNL A   1      47.237  28.436  32.138  1.00  0.00    -0.206 F 
ATOM     93  C   UNL A   1      48.302  25.814  34.391  1.00  0.00     0.022 A 
BRANCH  90  94
ATOM     94  S   UNL A   1      46.983  23.872  35.897  1.00  0.00     0.124 S 
ATOM     95  O   UNL A   1      46.821  24.625  37.137  1.00  0.00    -0.237 OA
ATOM     96  O   UNL A   1      45.817  23.115  35.454  1.00  0.00    -0.237 OA
ATOM     97  O   UNL A   1      48.262  23.179  35.755  1.00  0.00    -0.744 OA
ENDBRANCH  90  94
ENDBRANCH  64  87
ENDBRANCH  38  39
ENDBRANCH  31  33
ENDBRANCH  30  31
ENDBRANCH  29  30
ENDBRANCH  28  29
ENDBRANCH   1  28
TORSDOF 21
ENDMDL
MODEL 2
REMARK VINA RESULT:     -11.4      1.760      7.697
REMARK SMILES C[C@](Nc1ccc(C(N)=O)nn1)(C(=O)OCCOCCOC(=O)c1ccc(-c2c3nc(c(-c4cc(S(=O)(=O)[O-])ccc4F)c4ccc([nH]4)c(-c4cc(S(=O)(=O)[O-])ccc4F)c4nc(c(-c5cc(S(=O)(=O)[O-])ccc5F)c5ccc2[nH]5)C=C4)C=C3)cc1)c1ccccc1
REMARK SMILES IDX 18 1 17 2 16 3 15 4 13 5 14 6 2 7 1 8 87 9 88 10 92 11 89 12
REMARK SMILES IDX 91 13 90 14 3 15 4 17 5 18 12 19 6 20 11 21 7 22 8 23 9 24
REMARK SMILES IDX 10 25 19 28 20 29 21 30 22 31 23 32 24 33 25 34 86 35 26 36
REMARK SMILES IDX 85 37 27 38 28 39 29 40 79 41 30 42 84 43 78 44 80 45 31 46
REMARK SMILES IDX 83 47 77 48 76 49 32 51 64 52 44 53 63 54 45 55 48 56 62 57
REMARK SMILES IDX 81 58 46 59 47 60 61 62 82 63 49 64 33 65 34 66 42 67 35 68
REMARK SMILES IDX 41 69 43 70 40 71 36 72 37 73 38 74 39 75 65 76 66 77 74 78
REMARK SMILES IDX 67 79 73 80 75 81 72 82 68 83 69 84 70 85 71 86 50 87 51 88
REMARK SMILES IDX 59 89 52 90 58 91 60 92 57 93 53 94 54 95 55 96 56 97
REMARK H PARENT 3 16 9 26 9 27 80 50 48 61
REMARK Flexibility Score: inf
ROOT
ATOM      1  O   UNL A   1      31.106  28.004  25.173  1.00  0.00    -0.374 OA
ENDROOT
BRANCH   1   2
ATOM      2  C   UNL A   1      30.391  27.764  23.966  1.00  0.00     0.202 C 
BRANCH   2   3
ATOM      3  C   UNL A   1      30.874  26.629  23.056  1.00  0.00     0.261 C 
BRANCH   3   4
ATOM      4  O   UNL A   1      31.573  25.585  23.757  1.00  0.00    -0.461 OA
BRANCH   4   5
ATOM      5  C   UNL A   1      32.839  25.350  23.298  1.00  0.00     0.336 C 
ATOM      6  O   UNL A   1      33.633  26.238  22.987  1.00  0.00    -0.249 OA
BRANCH   5   7
ATOM      7  C   UNL A   1      33.175  23.823  23.161  1.00  0.00     0.160 C 
ATOM      8  C   UNL A   1      33.223  23.598  21.629  1.00  0.00     0.053 C 
BRANCH   7   9
ATOM      9  C   UNL A   1      34.519  23.595  23.888  1.00  0.00    -0.012 A 
ATOM     10  C   UNL A   1      34.758  24.113  25.178  1.00  0.00     0.007 A 
ATOM     11  C   UNL A   1      35.584  22.937  23.247  1.00  0.00     0.007 A 
ATOM     12  C   UNL A   1      35.998  23.964  25.804  1.00  0.00     0.000 A 
ATOM     13  C   UNL A   1      36.827  22.794  23.871  1.00  0.00     0.000 A 
ATOM     14  C   UNL A   1      37.033  23.306  25.148  1.00  0.00     0.000 A 
ENDBRANCH   7   9
BRANCH   7  15
ATOM     15  N   UNL A   1      32.111  22.953  23.730  1.00  0.00    -0.350 N 
ATOM     16  H   UNL A   1      31.218  23.345  23.865  1.00  0.00     0.163 HD
BRANCH  15  17
ATOM     17  C   UNL A   1      32.296  21.630  24.082  1.00  0.00     0.149 A 
ATOM     18  C   UNL A   1      32.663  21.215  25.359  1.00  0.00     0.051 A 
ATOM     19  N   UNL A   1      32.149  20.701  23.114  1.00  0.00    -0.132 NA
ATOM     20  C   UNL A   1      32.964  19.878  25.611  1.00  0.00     0.040 A 
ATOM     21  N   UNL A   1      32.445  19.368  23.343  1.00  0.00    -0.143 NA
ATOM     22  C   UNL A   1      32.866  18.983  24.567  1.00  0.00     0.150 A 
BRANCH  22  23
ATOM     23  C   UNL A   1      33.276  17.564  24.749  1.00  0.00     0.269 C 
ATOM     24  N   UNL A   1      33.303  17.098  26.034  1.00  0.00    -0.364 N 
ATOM     25  O   UNL A   1      33.557  16.841  23.800  1.00  0.00    -0.268 OA
ATOM     26  H   UNL A   1      33.074  17.698  26.781  1.00  0.00     0.160 HD
ATOM     27  H   UNL A   1      33.554  16.162  26.214  1.00  0.00     0.160 HD
ENDBRANCH  22  23
ENDBRANCH  15  17
ENDBRANCH   7  15
ENDBRANCH   5   7
ENDBRANCH   4   5
ENDBRANCH   3   4
ENDBRANCH   2   3
ENDBRANCH   1   2
BRANCH   1  28
ATOM     28  C   UNL A   1      32.135  28.994  25.157  1.00  0.00     0.202 C 
BRANCH  28  29
ATOM     29  C   UNL A   1      31.814  30.390  25.700  1.00  0.00     0.261 C 
BRANCH  29  30
ATOM     30  O   UNL A   1      32.270  30.581  27.052  1.00  0.00    -0.460 OA
BRANCH  30  31
ATOM     31  C   UNL A   1      32.990  31.713  27.248  1.00  0.00     0.338 C 
ATOM     32  O   UNL A   1      32.567  32.864  27.228  1.00  0.00    -0.246 OA
BRANCH  31  33
ATOM     33  C   UNL A   1      34.352  31.384  27.700  1.00  0.00     0.060 A 
ATOM     34  C   UNL A   1      34.645  30.036  27.951  1.00  0.00     0.016 A 
ATOM     35  C   UNL A   1      35.298  32.376  27.962  1.00  0.00     0.016 A 
ATOM     36  C   UNL A   1      35.868  29.679  28.513  1.00  0.00     0.010 A 
ATOM     37  C   UNL A   1      36.522  32.017  28.540  1.00  0.00     0.010 A 
ATOM     38  C   UNL A   1      36.798  30.671  28.850  1.00  0.00    -0.014 A 
BRANCH  38  39
ATOM     39  C   UNL A   1      37.980  30.311  29.670  1.00  0.00     0.031 A 
ATOM     40  C   UNL A   1      38.998  29.360  29.100  1.00  0.00     0.074 A 
ATOM     41  C   UNL A   1      38.167  30.858  30.885  1.00  0.00     0.049 A 
ATOM     42  N   UNL A   1      40.087  28.883  29.645  1.00  0.00    -0.248 NA
ATOM     43  C   UNL A   1      38.751  28.887  27.730  1.00  0.00     0.031 C 
ATOM     44  C   UNL A   1      37.281  31.835  31.515  1.00  0.00     0.029 A 
ATOM     45  N   UNL A   1      39.167  30.668  31.805  1.00  0.00    -0.354 N 
ATOM     46  C   UNL A   1      40.658  28.054  28.685  1.00  0.00     0.074 A 
ATOM     47  C   UNL A   1      39.771  28.064  27.540  1.00  0.00     0.031 C 
ATOM     48  C   UNL A   1      37.775  32.155  32.723  1.00  0.00     0.029 A 
ATOM     49  C   UNL A   1      38.988  31.378  32.968  1.00  0.00     0.049 A 
ATOM     50  H   UNL A   1      39.940  30.079  31.646  1.00  0.00     0.167 HD
ATOM     51  C   UNL A   1      41.819  27.357  28.749  1.00  0.00     0.034 A 
ATOM     52  C   UNL A   1      39.709  31.380  34.109  1.00  0.00     0.034 A 
ATOM     53  C   UNL A   1      42.683  27.342  29.904  1.00  0.00     0.049 A 
ATOM     54  C   UNL A   1      40.943  30.513  34.196  1.00  0.00     0.074 A 
ATOM     55  C   UNL A   1      43.881  26.668  30.079  1.00  0.00     0.029 A 
ATOM     56  N   UNL A   1      42.438  28.024  31.089  1.00  0.00    -0.354 N 
ATOM     57  N   UNL A   1      41.469  29.726  33.286  1.00  0.00    -0.248 NA
ATOM     58  C   UNL A   1      41.684  30.543  35.465  1.00  0.00     0.031 C 
ATOM     59  C   UNL A   1      44.321  26.887  31.389  1.00  0.00     0.029 A 
ATOM     60  C   UNL A   1      43.442  27.761  32.009  1.00  0.00     0.049 A 
ATOM     61  H   UNL A   1      41.664  28.610  31.252  1.00  0.00     0.167 HD
ATOM     62  C   UNL A   1      42.619  29.192  33.863  1.00  0.00     0.074 A 
ATOM     63  C   UNL A   1      42.714  29.756  35.193  1.00  0.00     0.031 C 
ATOM     64  C   UNL A   1      43.518  28.321  33.338  1.00  0.00     0.034 A 
BRANCH  51  65
ATOM     65  C   UNL A   1      42.185  26.512  27.552  1.00  0.00     0.023 A 
ATOM     66  C   UNL A   1      41.780  25.171  27.441  1.00  0.00     0.031 A 
ATOM     67  C   UNL A   1      42.980  27.047  26.522  1.00  0.00     0.131 A 
ATOM     68  C   UNL A   1      42.227  24.391  26.363  1.00  0.00     0.055 A 
ATOM     69  C   UNL A   1      43.357  26.288  25.412  1.00  0.00     0.041 A 
ATOM     70  F   UNL A   1      43.416  28.315  26.584  1.00  0.00    -0.206 F 
ATOM     71  C   UNL A   1      42.992  24.947  25.335  1.00  0.00     0.022 A 
BRANCH  68  72
ATOM     72  S   UNL A   1      41.912  22.605  26.393  1.00  0.00     0.124 S 
ATOM     73  O   UNL A   1      42.626  22.199  27.602  1.00  0.00    -0.237 OA
ATOM     74  O   UNL A   1      40.457  22.542  26.459  1.00  0.00    -0.237 OA
ATOM     75  O   UNL A   1      42.501  22.131  25.142  1.00  0.00    -0.744 OA
ENDBRANCH  68  72
ENDBRANCH  51  65
BRANCH  52  76
ATOM     76  C   UNL A   1      39.269  32.192  35.279  1.00  0.00     0.023 A 
ATOM     77  C   UNL A   1      39.745  33.498  35.477  1.00  0.00     0.031 A 
ATOM     78  C   UNL A   1      38.407  31.650  36.249  1.00  0.00     0.131 A 
ATOM     79  C   UNL A   1      39.391  34.202  36.639  1.00  0.00     0.055 A 
ATOM     80  C   UNL A   1      38.016  32.373  37.377  1.00  0.00     0.041 A 
ATOM     81  F   UNL A   1      37.925  30.405  36.109  1.00  0.00    -0.206 F 
ATOM     82  C   UNL A   1      38.520  33.654  37.583  1.00  0.00     0.022 A 
BRANCH  79  83
ATOM     83  S   UNL A   1      40.153  35.821  36.940  1.00  0.00     0.124 S 
ATOM     84  O   UNL A   1      41.573  35.492  36.902  1.00  0.00    -0.237 OA
ATOM     85  O   UNL A   1      39.644  36.607  35.822  1.00  0.00    -0.237 OA
ATOM     86  O   UNL A   1      39.634  36.201  38.253  1.00  0.00    -0.744 OA
ENDBRANCH  79  83
ENDBRANCH  52  76
BRANCH  64  87
ATOM     87  C   UNL A   1      44.711  27.966  34.194  1.00  0.00     0.023 A 
ATOM     88  C   UNL A   1      44.707  26.846  35.044  1.00  0.00     0.031 A 
ATOM     89  C   UNL A   1      45.866  28.769  34.163  1.00  0.00     0.131 A 
ATOM     90  C   UNL A   1      45.814  26.591  35.868  1.00  0.00     0.055 A 
ATOM     91  C   UNL A   1      46.987  28.475  34.940  1.00  0.00     0.041 A 
ATOM     92  F   UNL A   1      45.924  29.850  33.370  1.00  0.00    -0.206 F 
ATOM     93  C   UNL A   1      46.960  27.388  35.809  1.00  0.00     0.022 A 
BRANCH  90  94
ATOM     94  S   UNL A   1      45.706  25.250  37.085  1.00  0.00     0.124 S 
ATOM     95  O   UNL A   1      46.039  24.080  36.279  1.00  0.00    -0.237 OA
ATOM     96  O   UNL A   1      46.703  25.646  38.075  1.00  0.00    -0.237 OA
ATOM     97  O   UNL A   1      44.320  25.313  37.543  1.00  0.00    -0.744 OA
ENDBRANCH  90  94
ENDBRANCH  64  87
ENDBRANCH  38  39
ENDBRANCH  31  33
ENDBRANCH  30  31
ENDBRANCH  29  30
ENDBRANCH  28  29
ENDBRANCH   1  28
TORSDOF 21
ENDMDL
MODEL 3
REMARK VINA RESULT:     -11.4      5.081      7.993
REMARK SMILES C[C@](Nc1ccc(C(N)=O)nn1)(C(=O)OCCOCCOC(=O)c1ccc(-c2c3nc(c(-c4cc(S(=O)(=O)[O-])ccc4F)c4ccc([nH]4)c(-c4cc(S(=O)(=O)[O-])ccc4F)c4nc(c(-c5cc(S(=O)(=O)[O-])ccc5F)c5ccc2[nH]5)C=C4)C=C3)cc1)c1ccccc1
REMARK SMILES IDX 18 1 17 2 16 3 15 4 13 5 14 6 2 7 1 8 87 9 88 10 92 11 89 12
REMARK SMILES IDX 91 13 90 14 3 15 4 17 5 18 12 19 6 20 11 21 7 22 8 23 9 24
REMARK SMILES IDX 10 25 19 28 20 29 21 30 22 31 23 32 24 33 25 34 86 35 26 36
REMARK SMILES IDX 85 37 27 38 28 39 29 40 79 41 30 42 84 43 78 44 80 45 31 46
REMARK SMILES IDX 83 47 77 48 76 49 32 51 64 52 44 53 63 54 45 55 48 56 62 57
REMARK SMILES IDX 81 58 46 59 47 60 61 62 82 63 49 64 33 65 34 66 42 67 35 68
REMARK SMILES IDX 41 69 43 70 40 71 36 72 37 73 38 74 39 75 65 76 66 77 74 78
REMARK SMILES IDX 67 79 73 80 75 81 72 82 68 83 69 84 70 85 71 86 50 87 51 88
REMARK SMILES IDX 59 89 52 90 58 91 60 92 57 93 53 94 54 95 55 96 56 97
REMARK H PARENT 3 16 9 26 9 27 80 50 48 61
REMARK Flexibility Score: inf
ROOT
ATOM      1  O   UNL A   1      34.623  20.409  24.663  1.00  0.00    -0.374 OA
ENDROOT
BRANCH   1   2
ATOM      2  C   UNL A   1      33.511  20.812  25.456  1.00  0.00     0.202 C 
BRANCH   2   3
ATOM      3  C   UNL A   1      32.502  21.785  24.837  1.00  0.00     0.261 C 
BRANCH   3   4
ATOM      4  O   UNL A   1      32.854  23.169  25.008  1.00  0.00    -0.461 OA
BRANCH   4   5
ATOM      5  C   UNL A   1      32.297  23.759  26.109  1.00  0.00     0.336 C 
ATOM      6  O   UNL A   1      32.509  23.393  27.264  1.00  0.00    -0.249 OA
BRANCH   5   7
ATOM      7  C   UNL A   1      31.318  24.932  25.754  1.00  0.00     0.160 C 
ATOM      8  C   UNL A   1      30.004  24.538  26.474  1.00  0.00     0.053 C 
BRANCH   7   9
ATOM      9  C   UNL A   1      31.972  26.232  26.274  1.00  0.00    -0.012 A 
ATOM     10  C   UNL A   1      31.232  27.195  26.991  1.00  0.00     0.007 A 
ATOM     11  C   UNL A   1      33.310  26.540  25.968  1.00  0.00     0.007 A 
ATOM     12  C   UNL A   1      31.809  28.401  27.399  1.00  0.00     0.000 A 
ATOM     13  C   UNL A   1      33.885  27.749  26.370  1.00  0.00     0.000 A 
ATOM     14  C   UNL A   1      33.136  28.677  27.086  1.00  0.00     0.000 A 
ENDBRANCH   7   9
BRANCH   7  15
ATOM     15  N   UNL A   1      31.043  25.024  24.296  1.00  0.00    -0.350 N 
ATOM     16  H   UNL A   1      31.191  24.220  23.747  1.00  0.00     0.163 HD
BRANCH  15  17
ATOM     17  C   UNL A   1      30.595  26.167  23.661  1.00  0.00     0.149 A 
ATOM     18  C   UNL A   1      31.424  27.034  22.957  1.00  0.00     0.051 A 
ATOM     19  N   UNL A   1      29.284  26.467  23.772  1.00  0.00    -0.132 NA
ATOM     20  C   UNL A   1      30.930  28.238  22.456  1.00  0.00     0.040 A 
ATOM     21  N   UNL A   1      28.773  27.658  23.283  1.00  0.00    -0.143 NA
ATOM     22  C   UNL A   1      29.598  28.527  22.660  1.00  0.00     0.150 A 
BRANCH  22  23
ATOM     23  C   UNL A   1      29.039  29.842  22.242  1.00  0.00     0.269 C 
ATOM     24  N   UNL A   1      29.884  30.674  21.560  1.00  0.00    -0.364 N 
ATOM     25  O   UNL A   1      27.879  30.160  22.476  1.00  0.00    -0.268 OA
ATOM     26  H   UNL A   1      30.813  30.397  21.383  1.00  0.00     0.160 HD
ATOM     27  H   UNL A   1      29.564  31.551  21.246  1.00  0.00     0.160 HD
ENDBRANCH  22  23
ENDBRANCH  15  17
ENDBRANCH   7  15
ENDBRANCH   5   7
ENDBRANCH   4   5
ENDBRANCH   3   4
ENDBRANCH   2   3
ENDBRANCH   1   2
BRANCH   1  28
ATOM     28  C   UNL A   1      35.795  21.222  24.689  1.00  0.00     0.202 C 
BRANCH  28  29
ATOM     29  C   UNL A   1      37.118  20.585  25.127  1.00  0.00     0.261 C 
BRANCH  29  30
ATOM     30  O   UNL A   1      38.213  21.519  25.129  1.00  0.00    -0.460 OA
BRANCH  30  31
ATOM     31  C   UNL A   1      39.201  21.226  26.010  1.00  0.00     0.338 C 
ATOM     32  O   UNL A   1      39.755  20.142  26.157  1.00  0.00    -0.246 OA
BRANCH  31  33
ATOM     33  C   UNL A   1      39.689  22.454  26.661  1.00  0.00     0.060 A 
ATOM     34  C   UNL A   1      39.157  23.675  26.225  1.00  0.00     0.016 A 
ATOM     35  C   UNL A   1      40.710  22.423  27.613  1.00  0.00     0.016 A 
ATOM     36  C   UNL A   1      39.680  24.875  26.702  1.00  0.00     0.010 A 
ATOM     37  C   UNL A   1      41.243  23.630  28.081  1.00  0.00     0.010 A 
ATOM     38  C   UNL A   1      40.753  24.861  27.601  1.00  0.00    -0.014 A 
BRANCH  38  39
ATOM     39  C   UNL A   1      41.462  26.127  27.907  1.00  0.00     0.031 A 
ATOM     40  C   UNL A   1      40.740  27.194  28.686  1.00  0.00     0.074 A 
ATOM     41  C   UNL A   1      42.743  26.306  27.537  1.00  0.00     0.049 A 
ATOM     42  N   UNL A   1      41.148  28.385  29.040  1.00  0.00    -0.248 NA
ATOM     43  C   UNL A   1      39.375  26.869  29.123  1.00  0.00     0.031 C 
ATOM     44  C   UNL A   1      43.562  25.322  26.832  1.00  0.00     0.029 A 
ATOM     45  N   UNL A   1      43.579  27.381  27.705  1.00  0.00    -0.354 N 
ATOM     46  C   UNL A   1      40.091  28.954  29.744  1.00  0.00     0.074 A 
ATOM     47  C   UNL A   1      39.011  27.989  29.729  1.00  0.00     0.031 C 
ATOM     48  C   UNL A   1      44.784  25.841  26.623  1.00  0.00     0.029 A 
ATOM     49  C   UNL A   1      44.821  27.207  27.142  1.00  0.00     0.049 A 
ATOM     50  H   UNL A   1      43.315  28.199  28.185  1.00  0.00     0.167 HD
ATOM     51  C   UNL A   1      40.031  30.163  30.354  1.00  0.00     0.034 A 
ATOM     52  C   UNL A   1      45.859  28.062  27.038  1.00  0.00     0.034 A 
ATOM     53  C   UNL A   1      41.110  31.121  30.343  1.00  0.00     0.049 A 
ATOM     54  C   UNL A   1      45.731  29.445  27.633  1.00  0.00     0.074 A 
ATOM     55  C   UNL A   1      41.156  32.377  30.924  1.00  0.00     0.029 A 
ATOM     56  N   UNL A   1      42.332  30.935  29.709  1.00  0.00    -0.354 N 
ATOM     57  N   UNL A   1      44.724  29.975  28.288  1.00  0.00    -0.248 NA
ATOM     58  C   UNL A   1      46.886  30.340  27.480  1.00  0.00     0.031 C 
ATOM     59  C   UNL A   1      42.374  32.975  30.583  1.00  0.00     0.029 A 
ATOM     60  C   UNL A   1      43.123  32.064  29.856  1.00  0.00     0.049 A 
ATOM     61  H   UNL A   1      42.597  30.120  29.225  1.00  0.00     0.167 HD
ATOM     62  C   UNL A   1      45.137  31.254  28.652  1.00  0.00     0.074 A 
ATOM     63  C   UNL A   1      46.488  31.410  28.153  1.00  0.00     0.031 C 
ATOM     64  C   UNL A   1      44.465  32.211  29.341  1.00  0.00     0.034 A 
BRANCH  51  65
ATOM     65  C   UNL A   1      38.734  30.531  31.032  1.00  0.00     0.023 A 
ATOM     66  C   UNL A   1      37.683  31.151  30.334  1.00  0.00     0.031 A 
ATOM     67  C   UNL A   1      38.558  30.288  32.406  1.00  0.00     0.131 A 
ATOM     68  C   UNL A   1      36.535  31.570  31.024  1.00  0.00     0.055 A 
ATOM     69  C   UNL A   1      37.381  30.637  33.072  1.00  0.00     0.041 A 
ATOM     70  F   UNL A   1      39.534  29.720  33.131  1.00  0.00    -0.206 F 
ATOM     71  C   UNL A   1      36.366  31.295  32.383  1.00  0.00     0.022 A 
BRANCH  68  72
ATOM     72  S   UNL A   1      35.326  32.603  30.151  1.00  0.00     0.124 S 
ATOM     73  O   UNL A   1      35.065  31.807  28.955  1.00  0.00    -0.237 OA
ATOM     74  O   UNL A   1      34.232  32.690  31.112  1.00  0.00    -0.237 OA
ATOM     75  O   UNL A   1      36.048  33.852  29.914  1.00  0.00    -0.744 OA
ENDBRANCH  68  72
ENDBRANCH  51  65
BRANCH  52  76
ATOM     76  C   UNL A   1      47.096  27.663  26.308  1.00  0.00     0.023 A 
ATOM     77  C   UNL A   1      47.232  27.891  24.930  1.00  0.00     0.031 A 
ATOM     78  C   UNL A   1      48.139  26.994  26.972  1.00  0.00     0.131 A 
ATOM     79  C   UNL A   1      48.365  27.416  24.250  1.00  0.00     0.055 A 
ATOM     80  C   UNL A   1      49.289  26.569  26.302  1.00  0.00     0.041 A 
ATOM     81  F   UNL A   1      48.060  26.748  28.289  1.00  0.00    -0.206 F 
ATOM     82  C   UNL A   1      49.400  26.769  24.930  1.00  0.00     0.022 A 
BRANCH  79  83
ATOM     83  S   UNL A   1      48.432  27.585  22.446  1.00  0.00     0.124 S 
ATOM     84  O   UNL A   1      47.222  28.353  22.175  1.00  0.00    -0.237 OA
ATOM     85  O   UNL A   1      49.696  28.289  22.255  1.00  0.00    -0.237 OA
ATOM     86  O   UNL A   1      48.414  26.202  21.973  1.00  0.00    -0.744 OA
ENDBRANCH  79  83
ENDBRANCH  52  76
BRANCH  64  87
ATOM     87  C   UNL A   1      45.206  33.493  29.637  1.00  0.00     0.023 A 
ATOM     88  C   UNL A   1      45.159  34.595  28.765  1.00  0.00     0.031 A 
ATOM     89  C   UNL A   1      45.978  33.609  30.808  1.00  0.00     0.131 A 
ATOM     90  C   UNL A   1      45.913  35.744  29.050  1.00  0.00     0.055 A 
ATOM     91  C   UNL A   1      46.678  34.775  31.115  1.00  0.00     0.041 A 
ATOM     92  F   UNL A   1      46.059  32.587  31.675  1.00  0.00    -0.206 F 
ATOM     93  C   UNL A   1      46.659  35.847  30.227  1.00  0.00     0.022 A 
BRANCH  90  94
ATOM     94  S   UNL A   1      45.979  37.073  27.817  1.00  0.00     0.124 S 
ATOM     95  O   UNL A   1      44.563  37.332  27.574  1.00  0.00    -0.237 OA
ATOM     96  O   UNL A   1      46.705  38.121  28.526  1.00  0.00    -0.237 OA
ATOM     97  O   UNL A   1      46.699  36.469  26.698  1.00  0.00    -0.744 OA
ENDBRANCH  90  94
ENDBRANCH  64  87
ENDBRANCH  38  39
ENDBRANCH  31  33
ENDBRANCH  30  31
ENDBRANCH  29  30
ENDBRANCH  28  29
ENDBRANCH   1  28
TORSDOF 21
ENDMDL
