MODEL 1
REMARK VINA RESULT:      -9.7      0.000      0.000
REMARK SMILES C[C@@H](CC[NH+](C)C)NC(=O)Cn1cccc1C(=O)OCCOCCOC(=O)c1ccc(-c2c3nc(c(-c4cc(S(=O)(=O)[O-])ccc4F)c4ccc([nH]4)c(-c4cc(S(=O)(=O)[O-])ccc4F)c4nc(c(-c5cc(S(=O)(=O)[O-])ccc5F)c5ccc2[nH]5)C=C4)C=C3)cc1
REMARK SMILES IDX 20 1 19 2 17 3 18 4 16 5 12 6 13 7 14 8 15 9 11 10 9 11 8 12
REMARK SMILES IDX 10 14 2 15 1 16 3 17 4 18 5 19 6 20 7 21 21 23 22 24 23 25
REMARK SMILES IDX 24 26 25 27 26 28 27 29 28 30 29 31 90 32 30 33 89 34 31 35
REMARK SMILES IDX 32 36 33 37 83 38 34 39 88 40 82 41 84 42 35 43 87 44 81 45
REMARK SMILES IDX 80 46 36 48 68 49 48 50 67 51 49 52 52 53 66 54 85 55 50 56
REMARK SMILES IDX 51 57 65 59 86 60 53 61 37 62 38 63 46 64 39 65 45 66 47 67
REMARK SMILES IDX 44 68 40 69 41 70 42 71 43 72 69 73 70 74 78 75 71 76 77 77
REMARK SMILES IDX 79 78 76 79 72 80 73 81 74 82 75 83 54 84 55 85 63 86 56 87
REMARK SMILES IDX 62 88 64 89 61 90 57 91 58 92 59 93 60 94
REMARK H PARENT 8 13 5 22 84 47 52 58
REMARK Flexibility Score: inf
ROOT
ATOM      1  C   UNL A   1      35.956  21.146  24.559  1.00  0.00     0.261 C 
ENDROOT
BRANCH   1   2
ATOM      2  O   UNL A   1      34.776  21.902  24.247  1.00  0.00    -0.459 OA
BRANCH   2   3
ATOM      3  C   UNL A   1      34.995  22.933  23.393  1.00  0.00     0.355 C 
ATOM      4  O   UNL A   1      36.086  23.225  22.916  1.00  0.00    -0.244 OA
BRANCH   3   5
ATOM      5  C   UNL A   1      33.753  23.546  22.971  1.00  0.00     0.128 A 
ATOM      6  N   UNL A   1      32.562  23.751  23.644  1.00  0.00    -0.333 N 
ATOM      7  C   UNL A   1      31.850  24.692  22.933  1.00  0.00     0.087 A 
ATOM      8  C   UNL A   1      32.338  24.740  21.654  1.00  0.00     0.020 A 
ATOM      9  C   UNL A   1      33.552  24.040  21.683  1.00  0.00     0.035 A 
BRANCH   6  10
ATOM     10  C   UNL A   1      32.133  23.249  24.945  1.00  0.00     0.222 C 
BRANCH  10  11
ATOM     11  C   UNL A   1      32.712  24.027  26.123  1.00  0.00     0.240 C 
ATOM     12  N   UNL A   1      32.359  25.329  26.372  1.00  0.00    -0.352 N 
ATOM     13  H   UNL A   1      32.891  25.770  27.073  1.00  0.00     0.163 HD
ATOM     14  O   UNL A   1      33.565  23.518  26.856  1.00  0.00    -0.273 OA
BRANCH  12  15
ATOM     15  C   UNL A   1      31.327  26.169  25.771  1.00  0.00     0.084 C 
ATOM     16  C   UNL A   1      29.912  25.667  26.084  1.00  0.00     0.031 C 
BRANCH  15  17
ATOM     17  C   UNL A   1      31.525  27.663  26.069  1.00  0.00     0.086 C 
BRANCH  17  18
ATOM     18  C   UNL A   1      31.361  28.698  24.939  1.00  0.00     0.263 C 
BRANCH  18  19
ATOM     19  N   UNL A   1      31.484  28.154  23.581  1.00  0.00    -0.340 N 
ATOM     20  C   UNL A   1      30.196  28.282  22.877  1.00  0.00     0.332 C 
ATOM     21  C   UNL A   1      32.497  28.823  22.757  1.00  0.00     0.332 C 
ATOM     22  H   UNL A   1      31.769  27.182  23.702  1.00  0.00     0.347 HD
ENDBRANCH  18  19
ENDBRANCH  17  18
ENDBRANCH  15  17
ENDBRANCH  12  15
ENDBRANCH  10  11
ENDBRANCH   6  10
ENDBRANCH   3   5
ENDBRANCH   2   3
ENDBRANCH   1   2
BRANCH   1  23
ATOM     23  C   UNL A   1      36.712  21.759  25.737  1.00  0.00     0.202 C 
BRANCH  23  24
ATOM     24  O   UNL A   1      38.025  22.270  25.490  1.00  0.00    -0.374 OA
BRANCH  24  25
ATOM     25  C   UNL A   1      38.596  23.212  26.400  1.00  0.00     0.202 C 
BRANCH  25  26
ATOM     26  C   UNL A   1      40.069  23.096  26.766  1.00  0.00     0.261 C 
BRANCH  26  27
ATOM     27  O   UNL A   1      40.317  23.795  27.970  1.00  0.00    -0.460 OA
BRANCH  27  28
ATOM     28  C   UNL A   1      40.800  25.033  27.750  1.00  0.00     0.338 C 
ATOM     29  O   UNL A   1      41.938  25.338  27.431  1.00  0.00    -0.246 OA
BRANCH  28  30
ATOM     30  C   UNL A   1      39.730  26.012  27.996  1.00  0.00     0.060 A 
ATOM     31  C   UNL A   1      39.762  27.025  27.035  1.00  0.00     0.016 A 
ATOM     32  C   UNL A   1      39.516  26.260  29.356  1.00  0.00     0.016 A 
ATOM     33  C   UNL A   1      40.063  28.280  27.485  1.00  0.00     0.010 A 
ATOM     34  C   UNL A   1      39.868  27.499  29.815  1.00  0.00     0.010 A 
ATOM     35  C   UNL A   1      40.193  28.475  28.867  1.00  0.00    -0.014 A 
BRANCH  35  36
ATOM     36  C   UNL A   1      40.414  29.841  29.306  1.00  0.00     0.031 A 
ATOM     37  C   UNL A   1      39.012  30.456  29.585  1.00  0.00     0.074 A 
ATOM     38  C   UNL A   1      41.729  30.237  29.291  1.00  0.00     0.049 A 
ATOM     39  N   UNL A   1      38.605  31.682  29.532  1.00  0.00    -0.248 NA
ATOM     40  C   UNL A   1      37.844  29.550  29.872  1.00  0.00     0.031 C 
ATOM     41  C   UNL A   1      42.914  29.387  28.961  1.00  0.00     0.029 A 
ATOM     42  N   UNL A   1      42.354  31.433  29.536  1.00  0.00    -0.354 N 
ATOM     43  C   UNL A   1      37.289  31.719  30.058  1.00  0.00     0.074 A 
ATOM     44  C   UNL A   1      36.824  30.375  30.098  1.00  0.00     0.031 C 
ATOM     45  C   UNL A   1      44.058  30.118  28.927  1.00  0.00     0.029 A 
ATOM     46  C   UNL A   1      43.756  31.498  29.254  1.00  0.00     0.049 A 
ATOM     47  H   UNL A   1      41.862  32.209  29.888  1.00  0.00     0.167 HD
ATOM     48  C   UNL A   1      36.731  32.852  30.573  1.00  0.00     0.034 A 
ATOM     49  C   UNL A   1      44.561  32.615  29.247  1.00  0.00     0.034 A 
ATOM     50  C   UNL A   1      37.638  33.936  30.401  1.00  0.00     0.049 A 
ATOM     51  C   UNL A   1      43.654  33.653  29.767  1.00  0.00     0.074 A 
ATOM     52  C   UNL A   1      38.036  34.606  29.275  1.00  0.00     0.029 A 
ATOM     53  N   UNL A   1      38.553  34.150  31.407  1.00  0.00    -0.354 N 
ATOM     54  N   UNL A   1      43.254  33.737  30.999  1.00  0.00    -0.248 NA
ATOM     55  C   UNL A   1      43.042  34.586  28.814  1.00  0.00     0.031 C 
ATOM     56  C   UNL A   1      39.425  34.726  29.471  1.00  0.00     0.029 A 
ATOM     57  C   UNL A   1      39.756  34.406  30.797  1.00  0.00     0.049 A 
ATOM     58  H   UNL A   1      38.378  34.123  32.376  1.00  0.00     0.167 HD
ATOM     59  C   UNL A   1      42.126  34.509  30.898  1.00  0.00     0.074 A 
ATOM     60  C   UNL A   1      42.244  35.242  29.651  1.00  0.00     0.031 C 
ATOM     61  C   UNL A   1      40.978  34.131  31.522  1.00  0.00     0.034 A 
BRANCH  48  62
ATOM     62  C   UNL A   1      35.519  33.109  31.420  1.00  0.00     0.023 A 
ATOM     63  C   UNL A   1      34.715  34.203  31.018  1.00  0.00     0.031 A 
ATOM     64  C   UNL A   1      35.285  32.600  32.703  1.00  0.00     0.131 A 
ATOM     65  C   UNL A   1      33.852  34.846  31.909  1.00  0.00     0.055 A 
ATOM     66  C   UNL A   1      34.361  33.201  33.574  1.00  0.00     0.041 A 
ATOM     67  F   UNL A   1      35.990  31.571  33.192  1.00  0.00    -0.206 F 
ATOM     68  C   UNL A   1      33.671  34.354  33.195  1.00  0.00     0.022 A 
BRANCH  65  69
ATOM     69  S   UNL A   1      33.135  36.433  31.396  1.00  0.00     0.124 S 
ATOM     70  O   UNL A   1      34.095  37.393  31.930  1.00  0.00    -0.237 OA
ATOM     71  O   UNL A   1      33.111  36.297  29.942  1.00  0.00    -0.237 OA
ATOM     72  O   UNL A   1      31.825  36.437  32.042  1.00  0.00    -0.744 OA
ENDBRANCH  65  69
ENDBRANCH  48  62
BRANCH  49  73
ATOM     73  C   UNL A   1      45.945  33.124  28.825  1.00  0.00     0.023 A 
ATOM     74  C   UNL A   1      46.280  33.912  27.707  1.00  0.00     0.031 A 
ATOM     75  C   UNL A   1      47.052  32.859  29.700  1.00  0.00     0.131 A 
ATOM     76  C   UNL A   1      47.605  34.447  27.575  1.00  0.00     0.055 A 
ATOM     77  C   UNL A   1      48.305  33.465  29.622  1.00  0.00     0.041 A 
ATOM     78  F   UNL A   1      46.976  31.979  30.708  1.00  0.00    -0.206 F 
ATOM     79  C   UNL A   1      48.585  34.283  28.558  1.00  0.00     0.022 A 
BRANCH  76  80
ATOM     80  S   UNL A   1      48.122  35.396  26.105  1.00  0.00     0.124 S 
ATOM     81  O   UNL A   1      47.807  34.472  25.021  1.00  0.00    -0.237 OA
ATOM     82  O   UNL A   1      47.299  36.597  26.188  1.00  0.00    -0.237 OA
ATOM     83  O   UNL A   1      49.552  35.618  26.328  1.00  0.00    -0.744 OA
ENDBRANCH  76  80
ENDBRANCH  49  73
BRANCH  61  84
ATOM     84  C   UNL A   1      41.156  33.146  32.686  1.00  0.00     0.023 A 
ATOM     85  C   UNL A   1      40.864  31.780  32.515  1.00  0.00     0.031 A 
ATOM     86  C   UNL A   1      41.513  33.521  33.995  1.00  0.00     0.131 A 
ATOM     87  C   UNL A   1      40.905  30.880  33.602  1.00  0.00     0.055 A 
ATOM     88  C   UNL A   1      41.539  32.638  35.084  1.00  0.00     0.041 A 
ATOM     89  F   UNL A   1      41.868  34.770  34.278  1.00  0.00    -0.206 F 
ATOM     90  C   UNL A   1      41.231  31.303  34.890  1.00  0.00     0.022 A 
BRANCH  87  91
ATOM     91  S   UNL A   1      40.579  29.121  33.311  1.00  0.00     0.124 S 
ATOM     92  O   UNL A   1      39.207  29.125  32.821  1.00  0.00    -0.237 OA
ATOM     93  O   UNL A   1      41.609  28.770  32.337  1.00  0.00    -0.237 OA
ATOM     94  O   UNL A   1      40.761  28.517  34.632  1.00  0.00    -0.744 OA
ENDBRANCH  87  91
ENDBRANCH  61  84
ENDBRANCH  35  36
ENDBRANCH  28  30
ENDBRANCH  27  28
ENDBRANCH  26  27
ENDBRANCH  25  26
ENDBRANCH  24  25
ENDBRANCH  23  24
ENDBRANCH   1  23
TORSDOF 23
ENDMDL
MODEL 2
REMARK VINA RESULT:      -9.6      3.552      7.672
REMARK SMILES C[C@@H](CC[NH+](C)C)NC(=O)Cn1cccc1C(=O)OCCOCCOC(=O)c1ccc(-c2c3nc(c(-c4cc(S(=O)(=O)[O-])ccc4F)c4ccc([nH]4)c(-c4cc(S(=O)(=O)[O-])ccc4F)c4nc(c(-c5cc(S(=O)(=O)[O-])ccc5F)c5ccc2[nH]5)C=C4)C=C3)cc1
REMARK SMILES IDX 20 1 19 2 17 3 18 4 16 5 12 6 13 7 14 8 15 9 11 10 9 11 8 12
REMARK SMILES IDX 10 14 2 15 1 16 3 17 4 18 5 19 6 20 7 21 21 23 22 24 23 25
REMARK SMILES IDX 24 26 25 27 26 28 27 29 28 30 29 31 90 32 30 33 89 34 31 35
REMARK SMILES IDX 32 36 33 37 83 38 34 39 88 40 82 41 84 42 35 43 87 44 81 45
REMARK SMILES IDX 80 46 36 48 68 49 48 50 67 51 49 52 52 53 66 54 85 55 50 56
REMARK SMILES IDX 51 57 65 59 86 60 53 61 37 62 38 63 46 64 39 65 45 66 47 67
REMARK SMILES IDX 44 68 40 69 41 70 42 71 43 72 69 73 70 74 78 75 71 76 77 77
REMARK SMILES IDX 79 78 76 79 72 80 73 81 74 82 75 83 54 84 55 85 63 86 56 87
REMARK SMILES IDX 62 88 64 89 61 90 57 91 58 92 59 93 60 94
REMARK H PARENT 8 13 5 22 84 47 52 58
REMARK Flexibility Score: inf
ROOT
ATOM      1  C   UNL A   1      33.848  30.684  27.612  1.00  0.00     0.261 C 
ENDROOT
BRANCH   1   2
ATOM      2  O   UNL A   1      33.948  29.387  27.004  1.00  0.00    -0.459 OA
BRANCH   2   3
ATOM      3  C   UNL A   1      32.772  28.917  26.516  1.00  0.00     0.355 C 
ATOM      4  O   UNL A   1      31.733  29.565  26.456  1.00  0.00    -0.244 OA
BRANCH   3   5
ATOM      5  C   UNL A   1      32.931  27.613  25.910  1.00  0.00     0.128 A 
ATOM      6  N   UNL A   1      31.999  26.699  25.451  1.00  0.00    -0.333 N 
ATOM      7  C   UNL A   1      32.666  25.809  24.640  1.00  0.00     0.087 A 
ATOM      8  C   UNL A   1      34.004  25.866  24.930  1.00  0.00     0.020 A 
ATOM      9  C   UNL A   1      34.176  27.018  25.709  1.00  0.00     0.035 A 
BRANCH   6  10
ATOM     10  C   UNL A   1      30.547  26.701  25.601  1.00  0.00     0.222 C 
BRANCH  10  11
ATOM     11  C   UNL A   1      29.794  26.622  24.276  1.00  0.00     0.240 C 
ATOM     12  N   UNL A   1      29.680  27.707  23.445  1.00  0.00    -0.352 N 
ATOM     13  H   UNL A   1      29.065  27.579  22.688  1.00  0.00     0.163 HD
ATOM     14  O   UNL A   1      29.214  25.585  23.942  1.00  0.00    -0.273 OA
BRANCH  12  15
ATOM     15  C   UNL A   1      30.319  29.019  23.496  1.00  0.00     0.084 C 
ATOM     16  C   UNL A   1      31.492  29.134  22.515  1.00  0.00     0.031 C 
BRANCH  15  17
ATOM     17  C   UNL A   1      29.316  30.177  23.388  1.00  0.00     0.086 C 
BRANCH  17  18
ATOM     18  C   UNL A   1      28.679  30.514  22.026  1.00  0.00     0.263 C 
BRANCH  18  19
ATOM     19  N   UNL A   1      28.953  31.869  21.534  1.00  0.00    -0.340 N 
ATOM     20  C   UNL A   1      28.039  32.189  20.425  1.00  0.00     0.332 C 
ATOM     21  C   UNL A   1      28.791  32.918  22.547  1.00  0.00     0.332 C 
ATOM     22  H   UNL A   1      29.932  31.860  21.245  1.00  0.00     0.347 HD
ENDBRANCH  18  19
ENDBRANCH  17  18
ENDBRANCH  15  17
ENDBRANCH  12  15
ENDBRANCH  10  11
ENDBRANCH   6  10
ENDBRANCH   3   5
ENDBRANCH   2   3
ENDBRANCH   1   2
BRANCH   1  23
ATOM     23  C   UNL A   1      35.224  31.328  27.773  1.00  0.00     0.202 C 
BRANCH  23  24
ATOM     24  O   UNL A   1      35.296  32.756  27.734  1.00  0.00    -0.374 OA
BRANCH  24  25
ATOM     25  C   UNL A   1      34.120  33.527  27.989  1.00  0.00     0.202 C 
BRANCH  25  26
ATOM     26  C   UNL A   1      34.048  34.383  29.246  1.00  0.00     0.261 C 
BRANCH  26  27
ATOM     27  O   UNL A   1      33.880  33.552  30.378  1.00  0.00    -0.460 OA
BRANCH  27  28
ATOM     28  C   UNL A   1      34.252  34.165  31.518  1.00  0.00     0.338 C 
ATOM     29  O   UNL A   1      34.000  35.310  31.860  1.00  0.00    -0.246 OA
BRANCH  28  30
ATOM     30  C   UNL A   1      35.076  33.239  32.311  1.00  0.00     0.060 A 
ATOM     31  C   UNL A   1      35.914  33.946  33.176  1.00  0.00     0.016 A 
ATOM     32  C   UNL A   1      35.501  32.123  31.582  1.00  0.00     0.016 A 
ATOM     33  C   UNL A   1      37.257  33.840  32.941  1.00  0.00     0.010 A 
ATOM     34  C   UNL A   1      36.838  32.047  31.303  1.00  0.00     0.010 A 
ATOM     35  C   UNL A   1      37.689  32.951  31.948  1.00  0.00    -0.014 A 
BRANCH  35  36
ATOM     36  C   UNL A   1      39.125  32.798  31.802  1.00  0.00     0.031 A 
ATOM     37  C   UNL A   1      39.586  31.810  32.913  1.00  0.00     0.074 A 
ATOM     38  C   UNL A   1      39.682  33.580  30.820  1.00  0.00     0.049 A 
ATOM     39  N   UNL A   1      40.723  31.696  33.518  1.00  0.00    -0.248 NA
ATOM     40  C   UNL A   1      38.592  30.858  33.524  1.00  0.00     0.031 C 
ATOM     41  C   UNL A   1      38.955  34.472  29.868  1.00  0.00     0.029 A 
ATOM     42  N   UNL A   1      40.975  33.804  30.419  1.00  0.00    -0.354 N 
ATOM     43  C   UNL A   1      40.671  30.520  34.308  1.00  0.00     0.074 A 
ATOM     44  C   UNL A   1      39.302  30.143  34.395  1.00  0.00     0.031 C 
ATOM     45  C   UNL A   1      39.815  35.193  29.102  1.00  0.00     0.029 A 
ATOM     46  C   UNL A   1      41.177  34.834  29.446  1.00  0.00     0.049 A 
ATOM     47  H   UNL A   1      41.726  33.283  30.781  1.00  0.00     0.167 HD
ATOM     48  C   UNL A   1      41.788  29.848  34.706  1.00  0.00     0.034 A 
ATOM     49  C   UNL A   1      42.374  35.364  29.018  1.00  0.00     0.034 A 
ATOM     50  C   UNL A   1      42.941  30.569  34.281  1.00  0.00     0.049 A 
ATOM     51  C   UNL A   1      43.354  34.484  29.680  1.00  0.00     0.074 A 
ATOM     52  C   UNL A   1      43.466  31.759  34.707  1.00  0.00     0.029 A 
ATOM     53  N   UNL A   1      43.433  30.274  33.029  1.00  0.00    -0.354 N 
ATOM     54  N   UNL A   1      43.584  33.250  29.348  1.00  0.00    -0.248 NA
ATOM     55  C   UNL A   1      44.031  34.976  30.886  1.00  0.00     0.031 C 
ATOM     56  C   UNL A   1      43.798  32.393  33.494  1.00  0.00     0.029 A 
ATOM     57  C   UNL A   1      43.744  31.472  32.437  1.00  0.00     0.049 A 
ATOM     58  H   UNL A   1      43.542  29.377  32.637  1.00  0.00     0.167 HD
ATOM     59  C   UNL A   1      44.173  32.740  30.475  1.00  0.00     0.074 A 
ATOM     60  C   UNL A   1      44.704  33.874  31.208  1.00  0.00     0.031 C 
ATOM     61  C   UNL A   1      43.754  31.553  30.991  1.00  0.00     0.034 A 
BRANCH  48  62
ATOM     62  C   UNL A   1      42.017  28.480  35.281  1.00  0.00     0.023 A 
ATOM     63  C   UNL A   1      42.999  28.402  36.299  1.00  0.00     0.031 A 
ATOM     64  C   UNL A   1      41.609  27.268  34.713  1.00  0.00     0.131 A 
ATOM     65  C   UNL A   1      43.643  27.202  36.606  1.00  0.00     0.055 A 
ATOM     66  C   UNL A   1      42.206  26.049  35.076  1.00  0.00     0.041 A 
ATOM     67  F   UNL A   1      40.692  27.219  33.737  1.00  0.00    -0.206 F 
ATOM     68  C   UNL A   1      43.256  26.016  35.995  1.00  0.00     0.022 A 
BRANCH  65  69
ATOM     69  S   UNL A   1      45.110  27.279  37.672  1.00  0.00     0.124 S 
ATOM     70  O   UNL A   1      46.042  28.057  36.863  1.00  0.00    -0.237 OA
ATOM     71  O   UNL A   1      44.586  27.948  38.860  1.00  0.00    -0.237 OA
ATOM     72  O   UNL A   1      45.469  25.875  37.856  1.00  0.00    -0.744 OA
ENDBRANCH  65  69
ENDBRANCH  48  62
BRANCH  49  73
ATOM     73  C   UNL A   1      42.986  36.526  28.227  1.00  0.00     0.023 A 
ATOM     74  C   UNL A   1      42.650  37.892  28.282  1.00  0.00     0.031 A 
ATOM     75  C   UNL A   1      44.107  36.239  27.374  1.00  0.00     0.131 A 
ATOM     76  C   UNL A   1      43.459  38.861  27.600  1.00  0.00     0.055 A 
ATOM     77  C   UNL A   1      44.948  37.192  26.802  1.00  0.00     0.041 A 
ATOM     78  F   UNL A   1      44.457  34.988  27.046  1.00  0.00    -0.206 F 
ATOM     79  C   UNL A   1      44.635  38.520  26.927  1.00  0.00     0.022 A 
BRANCH  76  80
ATOM     80  S   UNL A   1      43.020  40.631  27.561  1.00  0.00     0.124 S 
ATOM     81  O   UNL A   1      41.774  40.618  26.801  1.00  0.00    -0.237 OA
ATOM     82  O   UNL A   1      42.909  40.970  28.975  1.00  0.00    -0.237 OA
ATOM     83  O   UNL A   1      44.154  41.249  26.871  1.00  0.00    -0.744 OA
ENDBRANCH  76  80
ENDBRANCH  49  73
BRANCH  61  84
ATOM     84  C   UNL A   1      43.003  30.639  30.014  1.00  0.00     0.023 A 
ATOM     85  C   UNL A   1      41.602  30.519  30.082  1.00  0.00     0.031 A 
ATOM     86  C   UNL A   1      43.629  29.802  29.070  1.00  0.00     0.131 A 
ATOM     87  C   UNL A   1      40.906  29.594  29.274  1.00  0.00     0.055 A 
ATOM     88  C   UNL A   1      42.947  28.869  28.276  1.00  0.00     0.041 A 
ATOM     89  F   UNL A   1      44.940  29.860  28.865  1.00  0.00    -0.206 F 
ATOM     90  C   UNL A   1      41.571  28.759  28.377  1.00  0.00     0.022 A 
BRANCH  87  91
ATOM     91  S   UNL A   1      39.097  29.525  29.361  1.00  0.00     0.124 S 
ATOM     92  O   UNL A   1      38.771  28.456  28.425  1.00  0.00    -0.237 OA
ATOM     93  O   UNL A   1      38.862  29.237  30.773  1.00  0.00    -0.237 OA
ATOM     94  O   UNL A   1      38.683  30.863  28.936  1.00  0.00    -0.744 OA
ENDBRANCH  87  91
ENDBRANCH  61  84
ENDBRANCH  35  36
ENDBRANCH  28  30
ENDBRANCH  27  28
ENDBRANCH  26  27
ENDBRANCH  25  26
ENDBRANCH  24  25
ENDBRANCH  23  24
ENDBRANCH   1  23
TORSDOF 23
ENDMDL
MODEL 3
REMARK VINA RESULT:      -9.3      3.535      7.913
REMARK SMILES C[C@@H](CC[NH+](C)C)NC(=O)Cn1cccc1C(=O)OCCOCCOC(=O)c1ccc(-c2c3nc(c(-c4cc(S(=O)(=O)[O-])ccc4F)c4ccc([nH]4)c(-c4cc(S(=O)(=O)[O-])ccc4F)c4nc(c(-c5cc(S(=O)(=O)[O-])ccc5F)c5ccc2[nH]5)C=C4)C=C3)cc1
REMARK SMILES IDX 20 1 19 2 17 3 18 4 16 5 12 6 13 7 14 8 15 9 11 10 9 11 8 12
REMARK SMILES IDX 10 14 2 15 1 16 3 17 4 18 5 19 6 20 7 21 21 23 22 24 23 25
REMARK SMILES IDX 24 26 25 27 26 28 27 29 28 30 29 31 90 32 30 33 89 34 31 35
REMARK SMILES IDX 32 36 33 37 83 38 34 39 88 40 82 41 84 42 35 43 87 44 81 45
REMARK SMILES IDX 80 46 36 48 68 49 48 50 67 51 49 52 52 53 66 54 85 55 50 56
REMARK SMILES IDX 51 57 65 59 86 60 53 61 37 62 38 63 46 64 39 65 45 66 47 67
REMARK SMILES IDX 44 68 40 69 41 70 42 71 43 72 69 73 70 74 78 75 71 76 77 77
REMARK SMILES IDX 79 78 76 79 72 80 73 81 74 82 75 83 54 84 55 85 63 86 56 87
REMARK SMILES IDX 62 88 64 89 61 90 57 91 58 92 59 93 60 94
REMARK H PARENT 8 13 5 22 84 47 52 58
REMARK Flexibility Score: inf
ROOT
ATOM      1  C   UNL A   1      33.733  30.220  27.524  1.00  0.00     0.261 C 
ENDROOT
BRANCH   1   2
ATOM      2  O   UNL A   1      33.698  29.254  26.462  1.00  0.00    -0.459 OA
BRANCH   2   3
ATOM      3  C   UNL A   1      32.607  29.358  25.662  1.00  0.00     0.355 C 
ATOM      4  O   UNL A   1      31.643  30.083  25.886  1.00  0.00    -0.244 OA
BRANCH   3   5
ATOM      5  C   UNL A   1      32.790  28.642  24.418  1.00  0.00     0.128 A 
ATOM      6  N   UNL A   1      32.065  27.613  23.842  1.00  0.00    -0.333 N 
ATOM      7  C   UNL A   1      32.426  27.554  22.514  1.00  0.00     0.087 A 
ATOM      8  C   UNL A   1      33.633  28.185  22.358  1.00  0.00     0.020 A 
ATOM      9  C   UNL A   1      33.850  28.892  23.548  1.00  0.00     0.035 A 
BRANCH   6  10
ATOM     10  C   UNL A   1      30.983  26.812  24.405  1.00  0.00     0.222 C 
BRANCH  10  11
ATOM     11  C   UNL A   1      31.445  25.815  25.464  1.00  0.00     0.240 C 
ATOM     12  N   UNL A   1      31.949  24.585  25.126  1.00  0.00    -0.352 N 
ATOM     13  H   UNL A   1      32.090  23.978  25.887  1.00  0.00     0.163 HD
ATOM     14  O   UNL A   1      31.321  26.070  26.665  1.00  0.00    -0.273 OA
BRANCH  12  15
ATOM     15  C   UNL A   1      32.313  24.027  23.826  1.00  0.00     0.084 C 
ATOM     16  C   UNL A   1      33.765  24.337  23.445  1.00  0.00     0.031 C 
BRANCH  15  17
ATOM     17  C   UNL A   1      31.949  22.541  23.692  1.00  0.00     0.086 C 
BRANCH  17  18
ATOM     18  C   UNL A   1      32.075  21.608  24.912  1.00  0.00     0.263 C 
BRANCH  18  19
ATOM     19  N   UNL A   1      33.450  21.251  25.277  1.00  0.00    -0.340 N 
ATOM     20  C   UNL A   1      33.644  21.438  26.726  1.00  0.00     0.332 C 
ATOM     21  C   UNL A   1      33.811  19.863  24.968  1.00  0.00     0.332 C 
ATOM     22  H   UNL A   1      34.047  21.862  24.721  1.00  0.00     0.347 HD
ENDBRANCH  18  19
ENDBRANCH  17  18
ENDBRANCH  15  17
ENDBRANCH  12  15
ENDBRANCH  10  11
ENDBRANCH   6  10
ENDBRANCH   3   5
ENDBRANCH   2   3
ENDBRANCH   1   2
BRANCH   1  23
ATOM     23  C   UNL A   1      35.171  30.565  27.911  1.00  0.00     0.202 C 
BRANCH  23  24
ATOM     24  O   UNL A   1      35.475  31.938  28.175  1.00  0.00    -0.374 OA
BRANCH  24  25
ATOM     25  C   UNL A   1      34.411  32.858  28.428  1.00  0.00     0.202 C 
BRANCH  25  26
ATOM     26  C   UNL A   1      34.375  33.610  29.751  1.00  0.00     0.261 C 
BRANCH  26  27
ATOM     27  O   UNL A   1      34.259  32.690  30.819  1.00  0.00    -0.460 OA
BRANCH  27  28
ATOM     28  C   UNL A   1      34.619  33.232  31.998  1.00  0.00     0.338 C 
ATOM     29  O   UNL A   1      34.238  34.291  32.474  1.00  0.00    -0.246 OA
BRANCH  28  30
ATOM     30  C   UNL A   1      35.608  32.356  32.644  1.00  0.00     0.060 A 
ATOM     31  C   UNL A   1      36.504  33.106  33.409  1.00  0.00     0.016 A 
ATOM     32  C   UNL A   1      36.009  31.289  31.831  1.00  0.00     0.016 A 
ATOM     33  C   UNL A   1      37.806  33.108  32.991  1.00  0.00     0.010 A 
ATOM     34  C   UNL A   1      37.297  31.321  31.371  1.00  0.00     0.010 A 
ATOM     35  C   UNL A   1      38.160  32.274  31.922  1.00  0.00    -0.014 A 
BRANCH  35  36
ATOM     36  C   UNL A   1      39.570  32.232  31.579  1.00  0.00     0.031 A 
ATOM     37  C   UNL A   1      40.229  31.175  32.511  1.00  0.00     0.074 A 
ATOM     38  C   UNL A   1      39.948  33.142  30.621  1.00  0.00     0.049 A 
ATOM     39  N   UNL A   1      41.441  31.079  32.951  1.00  0.00    -0.248 NA
ATOM     40  C   UNL A   1      39.379  30.103  33.140  1.00  0.00     0.031 C 
ATOM     41  C   UNL A   1      39.052  34.072  29.869  1.00  0.00     0.029 A 
ATOM     42  N   UNL A   1      41.161  33.492  30.084  1.00  0.00    -0.354 N 
ATOM     43  C   UNL A   1      41.559  29.832  33.612  1.00  0.00     0.074 A 
ATOM     44  C   UNL A   1      40.237  29.356  33.833  1.00  0.00     0.031 C 
ATOM     45  C   UNL A   1      39.762  34.920  29.080  1.00  0.00     0.029 A 
ATOM     46  C   UNL A   1      41.175  34.623  29.207  1.00  0.00     0.049 A 
ATOM     47  H   UNL A   1      41.981  32.989  30.291  1.00  0.00     0.167 HD
ATOM     48  C   UNL A   1      42.755  29.201  33.792  1.00  0.00     0.034 A 
ATOM     49  C   UNL A   1      42.274  35.271  28.689  1.00  0.00     0.034 A 
ATOM     50  C   UNL A   1      43.799  30.036  33.301  1.00  0.00     0.049 A 
ATOM     51  C   UNL A   1      43.380  34.399  29.123  1.00  0.00     0.074 A 
ATOM     52  C   UNL A   1      44.311  31.212  33.780  1.00  0.00     0.029 A 
ATOM     53  N   UNL A   1      44.135  29.898  31.973  1.00  0.00    -0.354 N 
ATOM     54  N   UNL A   1      43.630  33.222  28.637  1.00  0.00    -0.248 NA
ATOM     55  C   UNL A   1      44.185  34.816  30.278  1.00  0.00     0.031 C 
ATOM     56  C   UNL A   1      44.443  31.982  32.608  1.00  0.00     0.029 A 
ATOM     57  C   UNL A   1      44.298  31.166  31.475  1.00  0.00     0.049 A 
ATOM     58  H   UNL A   1      44.238  29.053  31.477  1.00  0.00     0.167 HD
ATOM     59  C   UNL A   1      44.391  32.645  29.619  1.00  0.00     0.074 A 
ATOM     60  C   UNL A   1      44.953  33.736  30.394  1.00  0.00     0.031 C 
ATOM     61  C   UNL A   1      44.109  31.389  30.057  1.00  0.00     0.034 A 
BRANCH  48  62
ATOM     62  C   UNL A   1      43.132  27.802  34.185  1.00  0.00     0.023 A 
ATOM     63  C   UNL A   1      43.457  27.619  35.551  1.00  0.00     0.031 A 
ATOM     64  C   UNL A   1      43.495  26.769  33.313  1.00  0.00     0.131 A 
ATOM     65  C   UNL A   1      44.241  26.546  35.982  1.00  0.00     0.055 A 
ATOM     66  C   UNL A   1      44.220  25.652  33.760  1.00  0.00     0.041 A 
ATOM     67  F   UNL A   1      43.246  26.836  31.998  1.00  0.00    -0.206 F 
ATOM     68  C   UNL A   1      44.633  25.556  35.090  1.00  0.00     0.022 A 
BRANCH  65  69
ATOM     69  S   UNL A   1      44.880  26.594  37.680  1.00  0.00     0.124 S 
ATOM     70  O   UNL A   1      44.437  25.310  38.215  1.00  0.00    -0.237 OA
ATOM     71  O   UNL A   1      46.317  26.729  37.459  1.00  0.00    -0.237 OA
ATOM     72  O   UNL A   1      44.226  27.767  38.255  1.00  0.00    -0.744 OA
ENDBRANCH  65  69
ENDBRANCH  48  62
BRANCH  49  73
ATOM     73  C   UNL A   1      42.710  36.543  27.952  1.00  0.00     0.023 A 
ATOM     74  C   UNL A   1      42.027  37.770  27.851  1.00  0.00     0.031 A 
ATOM     75  C   UNL A   1      44.015  36.554  27.350  1.00  0.00     0.131 A 
ATOM     76  C   UNL A   1      42.678  38.911  27.273  1.00  0.00     0.055 A 
ATOM     77  C   UNL A   1      44.678  37.689  26.886  1.00  0.00     0.041 A 
ATOM     78  F   UNL A   1      44.736  35.438  27.179  1.00  0.00    -0.206 F 
ATOM     79  C   UNL A   1      44.013  38.887  26.860  1.00  0.00     0.022 A 
BRANCH  76  80
ATOM     80  S   UNL A   1      41.813  40.499  27.032  1.00  0.00     0.124 S 
ATOM     81  O   UNL A   1      41.263  40.748  28.361  1.00  0.00    -0.237 OA
ATOM     82  O   UNL A   1      42.883  41.390  26.599  1.00  0.00    -0.237 OA
ATOM     83  O   UNL A   1      40.818  40.193  26.003  1.00  0.00    -0.744 OA
ENDBRANCH  76  80
ENDBRANCH  49  73
BRANCH  61  84
ATOM     84  C   UNL A   1      43.285  30.525  29.092  1.00  0.00     0.023 A 
ATOM     85  C   UNL A   1      41.954  30.186  29.399  1.00  0.00     0.031 A 
ATOM     86  C   UNL A   1      43.795  29.940  27.917  1.00  0.00     0.131 A 
ATOM     87  C   UNL A   1      41.219  29.295  28.586  1.00  0.00     0.055 A 
ATOM     88  C   UNL A   1      43.078  29.042  27.114  1.00  0.00     0.041 A 
ATOM     89  F   UNL A   1      45.019  30.225  27.485  1.00  0.00    -0.206 F 
ATOM     90  C   UNL A   1      41.777  28.712  27.449  1.00  0.00     0.022 A 
BRANCH  87  91
ATOM     91  S   UNL A   1      39.489  28.941  28.996  1.00  0.00     0.124 S 
ATOM     92  O   UNL A   1      39.142  27.893  28.045  1.00  0.00    -0.237 OA
ATOM     93  O   UNL A   1      39.576  28.536  30.396  1.00  0.00    -0.237 OA
ATOM     94  O   UNL A   1      38.817  30.222  28.774  1.00  0.00    -0.744 OA
ENDBRANCH  87  91
ENDBRANCH  61  84
ENDBRANCH  35  36
ENDBRANCH  28  30
ENDBRANCH  27  28
ENDBRANCH  26  27
ENDBRANCH  25  26
ENDBRANCH  24  25
ENDBRANCH  23  24
ENDBRANCH   1  23
TORSDOF 23
ENDMDL
