MODEL 1
REMARK VINA RESULT:     -10.7      0.000      0.000
REMARK SMILES C[C@H](NC(=O)c1cc(S(=O)(=O)N(C)C)cs1)C(=O)OCCOCCOC(=O)c1ccc(-c2c3nc(c(-c4cc(S(=O)(=O)[O-])ccc4F)c4ccc([nH]4)c(-c4cc(S(=O)(=O)[O-])ccc4F)c4nc(c(-c5cc(S(=O)(=O)[O-])ccc5F)c5ccc2[nH]5)C=C4)C=C3)cc1
REMARK SMILES IDX 21 1 20 2 19 3 17 4 18 5 2 6 1 7 3 8 4 9 5 11 6 12 7 13
REMARK SMILES IDX 16 14 8 15 15 16 9 17 10 18 11 19 12 20 13 21 14 22 22 23
REMARK SMILES IDX 23 24 24 25 25 26 26 27 27 28 28 29 29 30 90 31 30 32 89 33
REMARK SMILES IDX 31 34 32 35 33 36 83 37 34 38 88 39 82 40 84 41 35 42 87 43
REMARK SMILES IDX 81 44 80 45 36 47 68 48 48 49 67 50 49 51 52 52 66 53 85 54
REMARK SMILES IDX 50 55 51 56 65 58 86 59 53 60 37 61 38 62 46 63 39 64 45 65
REMARK SMILES IDX 47 66 44 67 40 68 41 69 42 70 43 71 69 72 70 73 78 74 71 75
REMARK SMILES IDX 77 76 79 77 76 78 72 79 73 80 74 81 75 82 54 83 55 84 63 85
REMARK SMILES IDX 56 86 62 87 64 88 61 89 57 90 58 91 59 92 60 93
REMARK H PARENT 3 10 84 46 52 57
REMARK Flexibility Score: inf
ROOT
ATOM      1  C   UNL A   1      36.355  21.887  24.390  1.00  0.00     0.202 C 
ENDROOT
BRANCH   1   2
ATOM      2  C   UNL A   1      34.827  21.890  24.346  1.00  0.00     0.261 C 
BRANCH   2   3
ATOM      3  O   UNL A   1      34.268  20.658  24.828  1.00  0.00    -0.462 OA
BRANCH   3   4
ATOM      4  C   UNL A   1      33.054  20.776  25.430  1.00  0.00     0.328 C 
ATOM      5  O   UNL A   1      32.050  20.135  25.136  1.00  0.00    -0.250 OA
BRANCH   4   6
ATOM      6  C   UNL A   1      33.032  21.874  26.498  1.00  0.00     0.189 C 
ATOM      7  C   UNL A   1      34.015  21.483  27.600  1.00  0.00     0.043 C 
BRANCH   6   8
ATOM      8  N   UNL A   1      31.705  22.198  27.040  1.00  0.00    -0.338 N 
ATOM      9  C   UNL A   1      30.907  23.292  26.782  1.00  0.00     0.262 C 
ATOM     10  H   UNL A   1      31.335  21.543  27.675  1.00  0.00     0.164 HD
ATOM     11  O   UNL A   1      29.835  23.385  27.375  1.00  0.00    -0.268 OA
BRANCH   9  12
ATOM     12  C   UNL A   1      31.394  24.283  25.841  1.00  0.00     0.093 A 
ATOM     13  C   UNL A   1      32.039  25.481  26.082  1.00  0.00     0.047 A 
ATOM     14  S   UNL A   1      31.137  24.040  24.164  1.00  0.00    -0.137 S 
ATOM     15  C   UNL A   1      32.122  26.286  24.909  1.00  0.00     0.094 A 
ATOM     16  C   UNL A   1      31.675  25.623  23.788  1.00  0.00     0.087 A 
BRANCH  15  17
ATOM     17  S   UNL A   1      32.619  27.945  24.909  1.00  0.00     0.243 S 
ATOM     18  O   UNL A   1      33.810  27.978  24.106  1.00  0.00    -0.207 OA
ATOM     19  O   UNL A   1      31.402  28.641  24.519  1.00  0.00    -0.207 OA
BRANCH  17  20
ATOM     20  N   UNL A   1      33.011  28.407  26.506  1.00  0.00    -0.204 NA
ATOM     21  C   UNL A   1      34.169  29.322  26.616  1.00  0.00     0.124 C 
ATOM     22  C   UNL A   1      31.852  28.890  27.287  1.00  0.00     0.124 C 
ENDBRANCH  17  20
ENDBRANCH  15  17
ENDBRANCH   9  12
ENDBRANCH   6   8
ENDBRANCH   4   6
ENDBRANCH   3   4
ENDBRANCH   2   3
ENDBRANCH   1   2
BRANCH   1  23
ATOM     23  O   UNL A   1      36.944  20.966  25.305  1.00  0.00    -0.374 OA
BRANCH  23  24
ATOM     24  C   UNL A   1      37.647  19.847  24.755  1.00  0.00     0.202 C 
BRANCH  24  25
ATOM     25  C   UNL A   1      38.711  19.201  25.650  1.00  0.00     0.261 C 
BRANCH  25  26
ATOM     26  O   UNL A   1      40.028  19.721  25.369  1.00  0.00    -0.460 OA
BRANCH  26  27
ATOM     27  C   UNL A   1      40.857  19.772  26.442  1.00  0.00     0.338 C 
ATOM     28  O   UNL A   1      41.550  18.865  26.873  1.00  0.00    -0.246 OA
BRANCH  27  29
ATOM     29  C   UNL A   1      40.974  21.160  26.932  1.00  0.00     0.060 A 
ATOM     30  C   UNL A   1      40.502  22.183  26.099  1.00  0.00     0.016 A 
ATOM     31  C   UNL A   1      41.619  21.464  28.132  1.00  0.00     0.016 A 
ATOM     32  C   UNL A   1      40.717  23.518  26.441  1.00  0.00     0.010 A 
ATOM     33  C   UNL A   1      41.846  22.806  28.467  1.00  0.00     0.010 A 
ATOM     34  C   UNL A   1      41.426  23.836  27.606  1.00  0.00    -0.014 A 
BRANCH  34  35
ATOM     35  C   UNL A   1      41.861  25.238  27.833  1.00  0.00     0.031 A 
ATOM     36  C   UNL A   1      43.228  25.661  27.365  1.00  0.00     0.074 A 
ATOM     37  C   UNL A   1      41.039  26.131  28.412  1.00  0.00     0.049 A 
ATOM     38  N   UNL A   1      43.819  26.824  27.465  1.00  0.00    -0.248 NA
ATOM     39  C   UNL A   1      44.033  24.630  26.693  1.00  0.00     0.031 C 
ATOM     40  C   UNL A   1      39.677  25.852  28.866  1.00  0.00     0.029 A 
ATOM     41  N   UNL A   1      41.232  27.454  28.717  1.00  0.00    -0.354 N 
ATOM     42  C   UNL A   1      45.063  26.669  26.863  1.00  0.00     0.074 A 
ATOM     43  C   UNL A   1      45.154  25.289  26.435  1.00  0.00     0.031 C 
ATOM     44  C   UNL A   1      39.161  26.971  29.405  1.00  0.00     0.029 A 
ATOM     45  C   UNL A   1      40.164  28.034  29.360  1.00  0.00     0.049 A 
ATOM     46  H   UNL A   1      42.059  27.942  28.498  1.00  0.00     0.167 HD
ATOM     47  C   UNL A   1      46.037  27.595  26.677  1.00  0.00     0.034 A 
ATOM     48  C   UNL A   1      40.022  29.273  29.872  1.00  0.00     0.034 A 
ATOM     49  C   UNL A   1      45.947  28.962  27.128  1.00  0.00     0.049 A 
ATOM     50  C   UNL A   1      41.155  30.261  29.736  1.00  0.00     0.074 A 
ATOM     51  C   UNL A   1      46.873  29.980  26.989  1.00  0.00     0.029 A 
ATOM     52  N   UNL A   1      44.871  29.498  27.823  1.00  0.00    -0.354 N 
ATOM     53  N   UNL A   1      42.325  30.103  29.161  1.00  0.00    -0.248 NA
ATOM     54  C   UNL A   1      40.945  31.595  30.316  1.00  0.00     0.031 C 
ATOM     55  C   UNL A   1      46.385  31.113  27.651  1.00  0.00     0.029 A 
ATOM     56  C   UNL A   1      45.124  30.822  28.146  1.00  0.00     0.049 A 
ATOM     57  H   UNL A   1      44.048  29.008  28.052  1.00  0.00     0.167 HD
ATOM     58  C   UNL A   1      42.978  31.327  29.286  1.00  0.00     0.074 A 
ATOM     59  C   UNL A   1      42.069  32.213  29.983  1.00  0.00     0.031 C 
ATOM     60  C   UNL A   1      44.213  31.689  28.856  1.00  0.00     0.034 A 
BRANCH  47  61
ATOM     61  C   UNL A   1      47.302  27.131  25.999  1.00  0.00     0.023 A 
ATOM     62  C   UNL A   1      48.292  26.415  26.696  1.00  0.00     0.031 A 
ATOM     63  C   UNL A   1      47.539  27.441  24.649  1.00  0.00     0.131 A 
ATOM     64  C   UNL A   1      49.500  26.092  26.058  1.00  0.00     0.055 A 
ATOM     65  C   UNL A   1      48.714  27.056  24.000  1.00  0.00     0.041 A 
ATOM     66  F   UNL A   1      46.638  28.141  23.941  1.00  0.00    -0.206 F 
ATOM     67  C   UNL A   1      49.709  26.389  24.710  1.00  0.00     0.022 A 
BRANCH  64  68
ATOM     68  S   UNL A   1      50.848  25.396  27.054  1.00  0.00     0.124 S 
ATOM     69  O   UNL A   1      50.153  24.354  27.806  1.00  0.00    -0.237 OA
ATOM     70  O   UNL A   1      51.786  24.935  26.038  1.00  0.00    -0.237 OA
ATOM     71  O   UNL A   1      51.303  26.532  27.855  1.00  0.00    -0.744 OA
ENDBRANCH  64  68
ENDBRANCH  47  61
BRANCH  48  72
ATOM     72  C   UNL A   1      38.779  29.648  30.602  1.00  0.00     0.023 A 
ATOM     73  C   UNL A   1      37.853  30.548  30.052  1.00  0.00     0.031 A 
ATOM     74  C   UNL A   1      38.527  29.147  31.892  1.00  0.00     0.131 A 
ATOM     75  C   UNL A   1      36.740  30.951  30.805  1.00  0.00     0.055 A 
ATOM     76  C   UNL A   1      37.396  29.517  32.620  1.00  0.00     0.041 A 
ATOM     77  F   UNL A   1      39.382  28.283  32.462  1.00  0.00    -0.206 F 
ATOM     78  C   UNL A   1      36.499  30.435  32.081  1.00  0.00     0.022 A 
BRANCH  75  79
ATOM     79  S   UNL A   1      35.639  32.221  30.119  1.00  0.00     0.124 S 
ATOM     80  O   UNL A   1      34.782  32.519  31.261  1.00  0.00    -0.237 OA
ATOM     81  O   UNL A   1      36.584  33.263  29.735  1.00  0.00    -0.237 OA
ATOM     82  O   UNL A   1      34.982  31.537  29.008  1.00  0.00    -0.744 OA
ENDBRANCH  75  79
ENDBRANCH  48  72
BRANCH  60  83
ATOM     83  C   UNL A   1      44.628  33.119  29.094  1.00  0.00     0.023 A 
ATOM     84  C   UNL A   1      44.122  34.175  28.317  1.00  0.00     0.031 A 
ATOM     85  C   UNL A   1      45.554  33.425  30.108  1.00  0.00     0.131 A 
ATOM     86  C   UNL A   1      44.582  35.484  28.533  1.00  0.00     0.055 A 
ATOM     87  C   UNL A   1      45.969  34.735  30.352  1.00  0.00     0.041 A 
ATOM     88  F   UNL A   1      46.068  32.454  30.878  1.00  0.00    -0.206 F 
ATOM     89  C   UNL A   1      45.492  35.772  29.555  1.00  0.00     0.022 A 
BRANCH  86  90
ATOM     90  S   UNL A   1      44.033  36.800  27.411  1.00  0.00     0.124 S 
ATOM     91  O   UNL A   1      45.302  37.357  26.953  1.00  0.00    -0.237 OA
ATOM     92  O   UNL A   1      43.265  36.060  26.415  1.00  0.00    -0.237 OA
ATOM     93  O   UNL A   1      43.245  37.679  28.272  1.00  0.00    -0.744 OA
ENDBRANCH  86  90
ENDBRANCH  60  83
ENDBRANCH  34  35
ENDBRANCH  27  29
ENDBRANCH  26  27
ENDBRANCH  25  26
ENDBRANCH  24  25
ENDBRANCH  23  24
ENDBRANCH   1  23
TORSDOF 21
ENDMDL
MODEL 2
REMARK VINA RESULT:     -10.4      1.882      2.459
REMARK SMILES C[C@H](NC(=O)c1cc(S(=O)(=O)N(C)C)cs1)C(=O)OCCOCCOC(=O)c1ccc(-c2c3nc(c(-c4cc(S(=O)(=O)[O-])ccc4F)c4ccc([nH]4)c(-c4cc(S(=O)(=O)[O-])ccc4F)c4nc(c(-c5cc(S(=O)(=O)[O-])ccc5F)c5ccc2[nH]5)C=C4)C=C3)cc1
REMARK SMILES IDX 21 1 20 2 19 3 17 4 18 5 2 6 1 7 3 8 4 9 5 11 6 12 7 13
REMARK SMILES IDX 16 14 8 15 15 16 9 17 10 18 11 19 12 20 13 21 14 22 22 23
REMARK SMILES IDX 23 24 24 25 25 26 26 27 27 28 28 29 29 30 90 31 30 32 89 33
REMARK SMILES IDX 31 34 32 35 33 36 83 37 34 38 88 39 82 40 84 41 35 42 87 43
REMARK SMILES IDX 81 44 80 45 36 47 68 48 48 49 67 50 49 51 52 52 66 53 85 54
REMARK SMILES IDX 50 55 51 56 65 58 86 59 53 60 37 61 38 62 46 63 39 64 45 65
REMARK SMILES IDX 47 66 44 67 40 68 41 69 42 70 43 71 69 72 70 73 78 74 71 75
REMARK SMILES IDX 77 76 79 77 76 78 72 79 73 80 74 81 75 82 54 83 55 84 63 85
REMARK SMILES IDX 56 86 62 87 64 88 61 89 57 90 58 91 59 92 60 93
REMARK H PARENT 3 10 84 46 52 57
REMARK Flexibility Score: inf
ROOT
ATOM      1  C   UNL A   1      35.596  21.545  26.107  1.00  0.00     0.202 C 
ENDROOT
BRANCH   1   2
ATOM      2  C   UNL A   1      34.519  21.213  25.073  1.00  0.00     0.261 C 
BRANCH   2   3
ATOM      3  O   UNL A   1      33.716  22.357  24.740  1.00  0.00    -0.462 OA
BRANCH   3   4
ATOM      4  C   UNL A   1      34.001  22.926  23.538  1.00  0.00     0.328 C 
ATOM      5  O   UNL A   1      35.116  23.281  23.167  1.00  0.00    -0.250 OA
BRANCH   4   6
ATOM      6  C   UNL A   1      32.750  23.161  22.687  1.00  0.00     0.189 C 
ATOM      7  C   UNL A   1      32.095  21.806  22.422  1.00  0.00     0.043 C 
BRANCH   6   8
ATOM      8  N   UNL A   1      32.966  23.914  21.444  1.00  0.00    -0.338 N 
ATOM      9  C   UNL A   1      32.820  25.266  21.213  1.00  0.00     0.262 C 
ATOM     10  H   UNL A   1      33.255  23.380  20.669  1.00  0.00     0.164 HD
ATOM     11  O   UNL A   1      33.022  25.689  20.077  1.00  0.00    -0.268 OA
BRANCH   9  12
ATOM     12  C   UNL A   1      32.411  26.106  22.324  1.00  0.00     0.093 A 
ATOM     13  C   UNL A   1      33.159  26.595  23.377  1.00  0.00     0.047 A 
ATOM     14  S   UNL A   1      30.767  26.572  22.457  1.00  0.00    -0.137 S 
ATOM     15  C   UNL A   1      32.339  27.164  24.394  1.00  0.00     0.094 A 
ATOM     16  C   UNL A   1      31.014  27.225  24.022  1.00  0.00     0.087 A 
BRANCH  15  17
ATOM     17  S   UNL A   1      32.919  27.622  25.960  1.00  0.00     0.243 S 
ATOM     18  O   UNL A   1      31.826  27.358  26.854  1.00  0.00    -0.207 OA
ATOM     19  O   UNL A   1      34.184  26.909  26.051  1.00  0.00    -0.207 OA
BRANCH  17  20
ATOM     20  N   UNL A   1      33.248  29.297  25.962  1.00  0.00    -0.204 NA
ATOM     21  C   UNL A   1      32.048  30.161  25.900  1.00  0.00     0.124 C 
ATOM     22  C   UNL A   1      34.176  29.720  27.033  1.00  0.00     0.124 C 
ENDBRANCH  17  20
ENDBRANCH  15  17
ENDBRANCH   9  12
ENDBRANCH   6   8
ENDBRANCH   4   6
ENDBRANCH   3   4
ENDBRANCH   2   3
ENDBRANCH   1   2
BRANCH   1  23
ATOM     23  O   UNL A   1      36.942  21.457  25.647  1.00  0.00    -0.374 OA
BRANCH  23  24
ATOM     24  C   UNL A   1      37.252  20.422  24.708  1.00  0.00     0.202 C 
BRANCH  24  25
ATOM     25  C   UNL A   1      38.491  19.573  25.012  1.00  0.00     0.261 C 
BRANCH  25  26
ATOM     26  O   UNL A   1      39.010  19.844  26.332  1.00  0.00    -0.460 OA
BRANCH  26  27
ATOM     27  C   UNL A   1      40.340  20.111  26.374  1.00  0.00     0.338 C 
ATOM     28  O   UNL A   1      41.236  19.437  25.894  1.00  0.00    -0.246 OA
BRANCH  27  29
ATOM     29  C   UNL A   1      40.571  21.463  26.921  1.00  0.00     0.060 A 
ATOM     30  C   UNL A   1      39.984  22.543  26.250  1.00  0.00     0.016 A 
ATOM     31  C   UNL A   1      41.423  21.681  28.006  1.00  0.00     0.016 A 
ATOM     32  C   UNL A   1      40.285  23.850  26.633  1.00  0.00     0.010 A 
ATOM     33  C   UNL A   1      41.735  22.994  28.379  1.00  0.00     0.010 A 
ATOM     34  C   UNL A   1      41.194  24.084  27.672  1.00  0.00    -0.014 A 
BRANCH  34  35
ATOM     35  C   UNL A   1      41.693  25.462  27.907  1.00  0.00     0.031 A 
ATOM     36  C   UNL A   1      43.075  25.827  27.432  1.00  0.00     0.074 A 
ATOM     37  C   UNL A   1      40.916  26.387  28.497  1.00  0.00     0.049 A 
ATOM     38  N   UNL A   1      43.718  26.961  27.536  1.00  0.00    -0.248 NA
ATOM     39  C   UNL A   1      43.829  24.766  26.747  1.00  0.00     0.031 C 
ATOM     40  C   UNL A   1      39.546  26.167  28.958  1.00  0.00     0.029 A 
ATOM     41  N   UNL A   1      41.170  27.698  28.811  1.00  0.00    -0.354 N 
ATOM     42  C   UNL A   1      44.950  26.755  26.925  1.00  0.00     0.074 A 
ATOM     43  C   UNL A   1      44.976  25.376  26.487  1.00  0.00     0.031 C 
ATOM     44  C   UNL A   1      39.084  27.303  29.509  1.00  0.00     0.029 A 
ATOM     45  C   UNL A   1      40.134  28.321  29.465  1.00  0.00     0.049 A 
ATOM     46  H   UNL A   1      42.017  28.150  28.589  1.00  0.00     0.167 HD
ATOM     47  C   UNL A   1      45.964  27.638  26.739  1.00  0.00     0.034 A 
ATOM     48  C   UNL A   1      40.051  29.561  29.987  1.00  0.00     0.034 A 
ATOM     49  C   UNL A   1      45.939  29.004  27.201  1.00  0.00     0.049 A 
ATOM     50  C   UNL A   1      41.227  30.497  29.851  1.00  0.00     0.074 A 
ATOM     51  C   UNL A   1      46.909  29.980  27.064  1.00  0.00     0.029 A 
ATOM     52  N   UNL A   1      44.892  29.583  27.907  1.00  0.00    -0.354 N 
ATOM     53  N   UNL A   1      42.384  30.292  29.267  1.00  0.00    -0.248 NA
ATOM     54  C   UNL A   1      41.080  31.835  30.442  1.00  0.00     0.031 C 
ATOM     55  C   UNL A   1      46.476  31.129  27.737  1.00  0.00     0.029 A 
ATOM     56  C   UNL A   1      45.206  30.891  28.238  1.00  0.00     0.049 A 
ATOM     57  H   UNL A   1      44.049  29.129  28.139  1.00  0.00     0.167 HD
ATOM     58  C   UNL A   1      43.093  31.484  29.396  1.00  0.00     0.074 A 
ATOM     59  C   UNL A   1      42.229  32.405  30.106  1.00  0.00     0.031 C 
ATOM     60  C   UNL A   1      44.340  31.793  28.961  1.00  0.00     0.034 A 
BRANCH  47  61
ATOM     61  C   UNL A   1      47.203  27.123  26.050  1.00  0.00     0.023 A 
ATOM     62  C   UNL A   1      48.203  26.428  26.753  1.00  0.00     0.031 A 
ATOM     63  C   UNL A   1      47.403  27.362  24.679  1.00  0.00     0.131 A 
ATOM     64  C   UNL A   1      49.388  26.056  26.098  1.00  0.00     0.055 A 
ATOM     65  C   UNL A   1      48.554  26.928  24.018  1.00  0.00     0.041 A 
ATOM     66  F   UNL A   1      46.491  28.039  23.964  1.00  0.00    -0.206 F 
ATOM     67  C   UNL A   1      49.560  26.283  24.731  1.00  0.00     0.022 A 
BRANCH  64  68
ATOM     68  S   UNL A   1      50.754  25.391  27.088  1.00  0.00     0.124 S 
ATOM     69  O   UNL A   1      51.692  24.967  26.052  1.00  0.00    -0.237 OA
ATOM     70  O   UNL A   1      51.158  26.544  27.884  1.00  0.00    -0.237 OA
ATOM     71  O   UNL A   1      50.133  24.300  27.840  1.00  0.00    -0.744 OA
ENDBRANCH  64  68
ENDBRANCH  47  61
BRANCH  48  72
ATOM     72  C   UNL A   1      38.831  29.986  30.729  1.00  0.00     0.023 A 
ATOM     73  C   UNL A   1      37.911  30.883  30.165  1.00  0.00     0.031 A 
ATOM     74  C   UNL A   1      38.598  29.537  32.040  1.00  0.00     0.131 A 
ATOM     75  C   UNL A   1      36.821  31.335  30.926  1.00  0.00     0.055 A 
ATOM     76  C   UNL A   1      37.489  29.955  32.778  1.00  0.00     0.041 A 
ATOM     77  F   UNL A   1      39.448  28.678  32.624  1.00  0.00    -0.206 F 
ATOM     78  C   UNL A   1      36.598  30.869  32.224  1.00  0.00     0.022 A 
BRANCH  75  79
ATOM     79  S   UNL A   1      35.730  32.600  30.216  1.00  0.00     0.124 S 
ATOM     80  O   UNL A   1      34.471  32.324  30.900  1.00  0.00    -0.237 OA
ATOM     81  O   UNL A   1      36.411  33.833  30.596  1.00  0.00    -0.237 OA
ATOM     82  O   UNL A   1      35.743  32.297  28.787  1.00  0.00    -0.744 OA
ENDBRANCH  75  79
ENDBRANCH  48  72
BRANCH  60  83
ATOM     83  C   UNL A   1      44.821  33.201  29.207  1.00  0.00     0.023 A 
ATOM     84  C   UNL A   1      45.544  33.545  30.363  1.00  0.00     0.031 A 
ATOM     85  C   UNL A   1      44.539  34.216  28.275  1.00  0.00     0.131 A 
ATOM     86  C   UNL A   1      45.919  34.880  30.580  1.00  0.00     0.055 A 
ATOM     87  C   UNL A   1      44.960  35.532  28.472  1.00  0.00     0.041 A 
ATOM     88  F   UNL A   1      43.852  33.942  27.155  1.00  0.00    -0.206 F 
ATOM     89  C   UNL A   1      45.643  35.873  29.635  1.00  0.00     0.022 A 
BRANCH  86  90
ATOM     90  S   UNL A   1      46.709  35.320  32.153  1.00  0.00     0.124 S 
ATOM     91  O   UNL A   1      46.841  36.768  32.032  1.00  0.00    -0.237 OA
ATOM     92  O   UNL A   1      45.737  34.849  33.134  1.00  0.00    -0.237 OA
ATOM     93  O   UNL A   1      47.968  34.578  32.125  1.00  0.00    -0.744 OA
ENDBRANCH  86  90
ENDBRANCH  60  83
ENDBRANCH  34  35
ENDBRANCH  27  29
ENDBRANCH  26  27
ENDBRANCH  25  26
ENDBRANCH  24  25
ENDBRANCH  23  24
ENDBRANCH   1  23
TORSDOF 21
ENDMDL
MODEL 3
REMARK VINA RESULT:     -10.3      5.659      9.308
REMARK SMILES C[C@H](NC(=O)c1cc(S(=O)(=O)N(C)C)cs1)C(=O)OCCOCCOC(=O)c1ccc(-c2c3nc(c(-c4cc(S(=O)(=O)[O-])ccc4F)c4ccc([nH]4)c(-c4cc(S(=O)(=O)[O-])ccc4F)c4nc(c(-c5cc(S(=O)(=O)[O-])ccc5F)c5ccc2[nH]5)C=C4)C=C3)cc1
REMARK SMILES IDX 21 1 20 2 19 3 17 4 18 5 2 6 1 7 3 8 4 9 5 11 6 12 7 13
REMARK SMILES IDX 16 14 8 15 15 16 9 17 10 18 11 19 12 20 13 21 14 22 22 23
REMARK SMILES IDX 23 24 24 25 25 26 26 27 27 28 28 29 29 30 90 31 30 32 89 33
REMARK SMILES IDX 31 34 32 35 33 36 83 37 34 38 88 39 82 40 84 41 35 42 87 43
REMARK SMILES IDX 81 44 80 45 36 47 68 48 48 49 67 50 49 51 52 52 66 53 85 54
REMARK SMILES IDX 50 55 51 56 65 58 86 59 53 60 37 61 38 62 46 63 39 64 45 65
REMARK SMILES IDX 47 66 44 67 40 68 41 69 42 70 43 71 69 72 70 73 78 74 71 75
REMARK SMILES IDX 77 76 79 77 76 78 72 79 73 80 74 81 75 82 54 83 55 84 63 85
REMARK SMILES IDX 56 86 62 87 64 88 61 89 57 90 58 91 59 92 60 93
REMARK H PARENT 3 10 84 46 52 57
REMARK Flexibility Score: inf
ROOT
ATOM      1  C   UNL A   1      33.389  29.361  25.521  1.00  0.00     0.202 C 
ENDROOT
BRANCH   1   2
ATOM      2  C   UNL A   1      31.864  29.285  25.591  1.00  0.00     0.261 C 
BRANCH   2   3
ATOM      3  O   UNL A   1      31.360  28.039  25.084  1.00  0.00    -0.462 OA
BRANCH   3   4
ATOM      4  C   UNL A   1      31.072  27.109  26.034  1.00  0.00     0.328 C 
ATOM      5  O   UNL A   1      31.268  27.240  27.239  1.00  0.00    -0.250 OA
BRANCH   4   6
ATOM      6  C   UNL A   1      30.531  25.806  25.438  1.00  0.00     0.189 C 
ATOM      7  C   UNL A   1      29.529  26.167  24.342  1.00  0.00     0.043 C 
BRANCH   6   8
ATOM      8  N   UNL A   1      29.962  24.859  26.407  1.00  0.00    -0.338 N 
ATOM      9  C   UNL A   1      30.420  23.610  26.769  1.00  0.00     0.262 C 
ATOM     10  H   UNL A   1      29.140  25.157  26.859  1.00  0.00     0.164 HD
ATOM     11  O   UNL A   1      29.767  22.962  27.583  1.00  0.00    -0.268 OA
BRANCH   9  12
ATOM     12  C   UNL A   1      31.638  23.124  26.145  1.00  0.00     0.093 A 
ATOM     13  C   UNL A   1      32.922  23.626  26.217  1.00  0.00     0.047 A 
ATOM     14  S   UNL A   1      31.560  21.758  25.112  1.00  0.00    -0.137 S 
ATOM     15  C   UNL A   1      33.786  23.020  25.259  1.00  0.00     0.094 A 
ATOM     16  C   UNL A   1      33.177  21.980  24.592  1.00  0.00     0.087 A 
BRANCH  15  17
ATOM     17  S   UNL A   1      35.377  23.595  24.892  1.00  0.00     0.243 S 
ATOM     18  O   UNL A   1      35.557  23.327  23.492  1.00  0.00    -0.207 OA
ATOM     19  O   UNL A   1      35.357  24.949  25.425  1.00  0.00    -0.207 OA
BRANCH  17  20
ATOM     20  N   UNL A   1      36.515  22.687  25.784  1.00  0.00    -0.204 NA
ATOM     21  C   UNL A   1      36.700  21.297  25.312  1.00  0.00     0.124 C 
ATOM     22  C   UNL A   1      37.808  23.378  25.978  1.00  0.00     0.124 C 
ENDBRANCH  17  20
ENDBRANCH  15  17
ENDBRANCH   9  12
ENDBRANCH   6   8
ENDBRANCH   4   6
ENDBRANCH   3   4
ENDBRANCH   2   3
ENDBRANCH   1   2
BRANCH   1  23
ATOM     23  O   UNL A   1      34.050  29.643  26.752  1.00  0.00    -0.374 OA
BRANCH  23  24
ATOM     24  C   UNL A   1      33.446  30.607  27.620  1.00  0.00     0.202 C 
BRANCH  24  25
ATOM     25  C   UNL A   1      33.987  32.039  27.535  1.00  0.00     0.261 C 
BRANCH  25  26
ATOM     26  O   UNL A   1      32.942  33.014  27.731  1.00  0.00    -0.460 OA
BRANCH  26  27
ATOM     27  C   UNL A   1      33.331  34.138  28.385  1.00  0.00     0.338 C 
ATOM     28  O   UNL A   1      32.801  35.235  28.330  1.00  0.00    -0.246 OA
BRANCH  27  29
ATOM     29  C   UNL A   1      34.395  33.819  29.358  1.00  0.00     0.060 A 
ATOM     30  C   UNL A   1      35.703  34.202  29.036  1.00  0.00     0.016 A 
ATOM     31  C   UNL A   1      34.138  33.075  30.511  1.00  0.00     0.016 A 
ATOM     32  C   UNL A   1      36.768  33.801  29.843  1.00  0.00     0.010 A 
ATOM     33  C   UNL A   1      35.210  32.661  31.313  1.00  0.00     0.010 A 
ATOM     34  C   UNL A   1      36.531  32.994  30.963  1.00  0.00    -0.014 A 
BRANCH  34  35
ATOM     35  C   UNL A   1      37.681  32.373  31.668  1.00  0.00     0.031 A 
ATOM     36  C   UNL A   1      38.408  31.229  31.010  1.00  0.00     0.074 A 
ATOM     37  C   UNL A   1      38.098  32.842  32.857  1.00  0.00     0.049 A 
ATOM     38  N   UNL A   1      39.427  30.532  31.441  1.00  0.00    -0.248 NA
ATOM     39  C   UNL A   1      37.915  30.822  29.685  1.00  0.00     0.031 C 
ATOM     40  C   UNL A   1      37.505  33.971  33.572  1.00  0.00     0.029 A 
ATOM     41  N   UNL A   1      39.119  32.425  33.673  1.00  0.00    -0.354 N 
ATOM     42  C   UNL A   1      39.703  29.607  30.441  1.00  0.00     0.074 A 
ATOM     43  C   UNL A   1      38.720  29.810  29.398  1.00  0.00     0.031 C 
ATOM     44  C   UNL A   1      38.166  34.149  34.729  1.00  0.00     0.029 A 
ATOM     45  C   UNL A   1      39.208  33.130  34.849  1.00  0.00     0.049 A 
ATOM     46  H   UNL A   1      39.729  31.688  33.438  1.00  0.00     0.167 HD
ATOM     47  C   UNL A   1      40.692  28.679  30.392  1.00  0.00     0.034 A 
ATOM     48  C   UNL A   1      40.024  32.959  35.910  1.00  0.00     0.034 A 
ATOM     49  C   UNL A   1      41.653  28.468  31.447  1.00  0.00     0.049 A 
ATOM     50  C   UNL A   1      41.056  31.859  35.874  1.00  0.00     0.074 A 
ATOM     51  C   UNL A   1      42.694  27.559  31.498  1.00  0.00     0.029 A 
ATOM     52  N   UNL A   1      41.679  29.167  32.647  1.00  0.00    -0.354 N 
ATOM     53  N   UNL A   1      41.311  30.994  34.920  1.00  0.00    -0.248 NA
ATOM     54  C   UNL A   1      41.915  31.718  37.059  1.00  0.00     0.031 C 
ATOM     55  C   UNL A   1      43.312  27.666  32.750  1.00  0.00     0.029 A 
ATOM     56  C   UNL A   1      42.697  28.688  33.456  1.00  0.00     0.049 A 
ATOM     57  H   UNL A   1      41.063  29.897  32.887  1.00  0.00     0.167 HD
ATOM     58  C   UNL A   1      42.377  30.224  35.379  1.00  0.00     0.074 A 
ATOM     59  C   UNL A   1      42.722  30.733  36.691  1.00  0.00     0.031 C 
ATOM     60  C   UNL A   1      43.018  29.196  34.769  1.00  0.00     0.034 A 
BRANCH  47  61
ATOM     61  C   UNL A   1      40.739  27.792  29.173  1.00  0.00     0.023 A 
ATOM     62  C   UNL A   1      41.661  28.014  28.134  1.00  0.00     0.031 A 
ATOM     63  C   UNL A   1      39.826  26.732  29.031  1.00  0.00     0.131 A 
ATOM     64  C   UNL A   1      41.605  27.231  26.971  1.00  0.00     0.055 A 
ATOM     65  C   UNL A   1      39.821  25.913  27.901  1.00  0.00     0.041 A 
ATOM     66  F   UNL A   1      38.910  26.489  29.982  1.00  0.00    -0.206 F 
ATOM     67  C   UNL A   1      40.705  26.169  26.856  1.00  0.00     0.022 A 
BRANCH  64  68
ATOM     68  S   UNL A   1      42.635  27.706  25.555  1.00  0.00     0.124 S 
ATOM     69  O   UNL A   1      43.923  27.956  26.197  1.00  0.00    -0.237 OA
ATOM     70  O   UNL A   1      42.563  26.525  24.702  1.00  0.00    -0.237 OA
ATOM     71  O   UNL A   1      41.967  28.896  25.030  1.00  0.00    -0.744 OA
ENDBRANCH  64  68
ENDBRANCH  47  61
BRANCH  48  72
ATOM     72  C   UNL A   1      39.876  33.815  37.119  1.00  0.00     0.023 A 
ATOM     73  C   UNL A   1      40.747  34.887  37.365  1.00  0.00     0.031 A 
ATOM     74  C   UNL A   1      38.886  33.536  38.078  1.00  0.00     0.131 A 
ATOM     75  C   UNL A   1      40.639  35.616  38.559  1.00  0.00     0.055 A 
ATOM     76  C   UNL A   1      38.753  34.291  39.245  1.00  0.00     0.041 A 
ATOM     77  F   UNL A   1      38.027  32.521  37.890  1.00  0.00    -0.206 F 
ATOM     78  C   UNL A   1      39.641  35.332  39.496  1.00  0.00     0.022 A 
BRANCH  75  79
ATOM     79  S   UNL A   1      41.868  36.905  38.907  1.00  0.00     0.124 S 
ATOM     80  O   UNL A   1      42.684  36.267  39.934  1.00  0.00    -0.237 OA
ATOM     81  O   UNL A   1      42.498  37.080  37.603  1.00  0.00    -0.237 OA
ATOM     82  O   UNL A   1      41.059  38.032  39.364  1.00  0.00    -0.744 OA
ENDBRANCH  75  79
ENDBRANCH  48  72
BRANCH  60  83
ATOM     83  C   UNL A   1      44.186  28.586  35.504  1.00  0.00     0.023 A 
ATOM     84  C   UNL A   1      44.016  27.530  36.416  1.00  0.00     0.031 A 
ATOM     85  C   UNL A   1      45.486  29.080  35.295  1.00  0.00     0.131 A 
ATOM     86  C   UNL A   1      45.122  27.033  37.123  1.00  0.00     0.055 A 
ATOM     87  C   UNL A   1      46.590  28.548  35.963  1.00  0.00     0.041 A 
ATOM     88  F   UNL A   1      45.704  30.088  34.436  1.00  0.00    -0.206 F 
ATOM     89  C   UNL A   1      46.410  27.526  36.892  1.00  0.00     0.022 A 
BRANCH  86  90
ATOM     90  S   UNL A   1      44.848  25.782  38.408  1.00  0.00     0.124 S 
ATOM     91  O   UNL A   1      44.124  26.542  39.422  1.00  0.00    -0.237 OA
ATOM     92  O   UNL A   1      44.074  24.769  37.697  1.00  0.00    -0.237 OA
ATOM     93  O   UNL A   1      46.200  25.375  38.785  1.00  0.00    -0.744 OA
ENDBRANCH  86  90
ENDBRANCH  60  83
ENDBRANCH  34  35
ENDBRANCH  27  29
ENDBRANCH  26  27
ENDBRANCH  25  26
ENDBRANCH  24  25
ENDBRANCH  23  24
ENDBRANCH   1  23
TORSDOF 21
ENDMDL
