MODEL 1
REMARK VINA RESULT:     -10.6      0.000      0.000
REMARK SMILES O=C(CSc1ccc2ccccc2n1)NCc1ccc(C(=O)OCCOCCOC(=O)c2ccc(-c3c4nc(c(-c5cc(S(=O)(=O)[O-])ccc5F)c5ccc([nH]5)c(-c5cc(S(=O)(=O)[O-])ccc5F)c5nc(c(-c6cc(S(=O)(=O)[O-])ccc6F)c6ccc3[nH]6)C=C5)C=C4)cc2)cc1
REMARK SMILES IDX 25 1 24 2 23 3 21 4 22 5 20 6 17 7 18 8 96 9 19 10 95 11
REMARK SMILES IDX 16 12 15 13 1 14 2 15 3 17 4 18 5 19 6 20 14 21 7 22 13 23
REMARK SMILES IDX 8 24 12 25 9 26 11 27 10 28 26 29 27 30 28 31 29 32 30 33
REMARK SMILES IDX 31 34 32 35 33 36 94 37 34 38 93 39 35 40 36 41 37 42 87 43
REMARK SMILES IDX 38 44 92 45 86 46 88 47 39 48 91 49 85 50 84 51 40 53 72 54
REMARK SMILES IDX 52 55 71 56 53 57 56 58 70 59 89 60 54 61 55 62 69 64 90 65
REMARK SMILES IDX 57 66 41 67 42 68 50 69 43 70 49 71 51 72 48 73 44 74 45 75
REMARK SMILES IDX 46 76 47 77 73 78 74 79 82 80 75 81 81 82 83 83 80 84 76 85
REMARK SMILES IDX 77 86 78 87 79 88 58 89 59 90 67 91 60 92 66 93 68 94 65 95
REMARK SMILES IDX 61 96 62 97 63 98 64 99
REMARK H PARENT 15 16 88 52 56 63
REMARK Flexibility Score: inf
ROOT
ATOM      1  C   UNL A   1      37.006  20.426  24.997  1.00  0.00     0.202 C 
ENDROOT
BRANCH   1   2
ATOM      2  C   UNL A   1      35.474  20.446  25.028  1.00  0.00     0.261 C 
BRANCH   2   3
ATOM      3  O   UNL A   1      34.981  21.222  26.133  1.00  0.00    -0.460 OA
BRANCH   3   4
ATOM      4  C   UNL A   1      33.689  21.610  26.024  1.00  0.00     0.338 C 
ATOM      5  O   UNL A   1      32.700  20.894  26.109  1.00  0.00    -0.246 OA
BRANCH   4   6
ATOM      6  C   UNL A   1      33.586  23.085  25.922  1.00  0.00     0.060 A 
ATOM      7  C   UNL A   1      33.625  25.896  25.790  1.00  0.00    -0.029 A 
ATOM      8  C   UNL A   1      34.630  25.139  25.172  1.00  0.00     0.006 A 
ATOM      9  C   UNL A   1      32.574  25.222  26.437  1.00  0.00     0.006 A 
ATOM     10  C   UNL A   1      34.612  23.747  25.240  1.00  0.00     0.016 A 
ATOM     11  C   UNL A   1      32.544  23.822  26.495  1.00  0.00     0.016 A 
BRANCH   7  12
ATOM     12  C   UNL A   1      33.783  27.394  25.872  1.00  0.00     0.151 C 
BRANCH  12  13
ATOM     13  N   UNL A   1      33.187  28.094  24.761  1.00  0.00    -0.351 N 
ATOM     14  O   UNL A   1      31.437  28.972  25.964  1.00  0.00    -0.274 OA
ATOM     15  C   UNL A   1      32.069  28.881  24.915  1.00  0.00     0.230 C 
ATOM     16  H   UNL A   1      33.592  28.006  23.868  1.00  0.00     0.163 HD
BRANCH  15  17
ATOM     17  C   UNL A   1      31.633  29.613  23.661  1.00  0.00     0.176 C 
BRANCH  17  18
ATOM     18  S   UNL A   1      30.025  29.004  23.064  1.00  0.00    -0.096 SA
BRANCH  18  19
ATOM     19  C   UNL A   1      30.301  27.243  23.102  1.00  0.00     0.097 A 
ATOM     20  C   UNL A   1      29.500  26.396  23.854  1.00  0.00     0.036 A 
ATOM     21  N   UNL A   1      31.378  26.811  22.409  1.00  0.00    -0.241 NA
ATOM     22  C   UNL A   1      29.823  25.044  23.900  1.00  0.00     0.013 A 
ATOM     23  C   UNL A   1      31.693  25.504  22.460  1.00  0.00     0.072 A 
ATOM     24  C   UNL A   1      30.941  24.573  23.205  1.00  0.00     0.000 A 
ATOM     25  C   UNL A   1      32.805  25.040  21.769  1.00  0.00     0.029 A 
ATOM     26  C   UNL A   1      31.323  23.219  23.245  1.00  0.00     0.010 A 
ATOM     27  C   UNL A   1      33.191  23.696  21.808  1.00  0.00     0.002 A 
ATOM     28  C   UNL A   1      32.450  22.785  22.550  1.00  0.00     0.001 A 
ENDBRANCH  18  19
ENDBRANCH  17  18
ENDBRANCH  15  17
ENDBRANCH  12  13
ENDBRANCH   7  12
ENDBRANCH   4   6
ENDBRANCH   3   4
ENDBRANCH   2   3
ENDBRANCH   1   2
BRANCH   1  29
ATOM     29  O   UNL A   1      37.657  21.544  25.603  1.00  0.00    -0.374 OA
BRANCH  29  30
ATOM     30  C   UNL A   1      39.064  21.427  25.819  1.00  0.00     0.202 C 
BRANCH  30  31
ATOM     31  C   UNL A   1      39.634  20.002  25.820  1.00  0.00     0.261 C 
BRANCH  31  32
ATOM     32  O   UNL A   1      40.732  19.862  26.740  1.00  0.00    -0.460 OA
BRANCH  32  33
ATOM     33  C   UNL A   1      41.961  19.938  26.178  1.00  0.00     0.338 C 
ATOM     34  O   UNL A   1      42.501  19.091  25.476  1.00  0.00    -0.246 OA
BRANCH  33  35
ATOM     35  C   UNL A   1      42.518  21.290  26.366  1.00  0.00     0.060 A 
ATOM     36  C   UNL A   1      42.787  21.703  27.678  1.00  0.00     0.016 A 
ATOM     37  C   UNL A   1      42.733  22.159  25.294  1.00  0.00     0.016 A 
ATOM     38  C   UNL A   1      43.238  22.999  27.925  1.00  0.00     0.010 A 
ATOM     39  C   UNL A   1      43.177  23.462  25.544  1.00  0.00     0.010 A 
ATOM     40  C   UNL A   1      43.406  23.898  26.862  1.00  0.00    -0.014 A 
BRANCH  40  41
ATOM     41  C   UNL A   1      43.708  25.323  27.144  1.00  0.00     0.031 A 
ATOM     42  C   UNL A   1      45.099  25.840  26.900  1.00  0.00     0.074 A 
ATOM     43  C   UNL A   1      42.746  26.151  27.593  1.00  0.00     0.049 A 
ATOM     44  N   UNL A   1      45.595  27.029  27.122  1.00  0.00    -0.248 NA
ATOM     45  C   UNL A   1      46.059  24.882  26.333  1.00  0.00     0.031 C 
ATOM     46  C   UNL A   1      41.351  25.776  27.822  1.00  0.00     0.029 A 
ATOM     47  N   UNL A   1      42.799  27.478  27.940  1.00  0.00    -0.354 N 
ATOM     48  C   UNL A   1      46.926  26.966  26.724  1.00  0.00     0.074 A 
ATOM     49  C   UNL A   1      47.166  25.608  26.282  1.00  0.00     0.031 C 
ATOM     50  C   UNL A   1      40.683  26.845  28.284  1.00  0.00     0.029 A 
ATOM     51  C   UNL A   1      41.608  27.969  28.422  1.00  0.00     0.049 A 
ATOM     52  H   UNL A   1      43.612  28.026  27.853  1.00  0.00     0.167 HD
ATOM     53  C   UNL A   1      47.857  27.953  26.718  1.00  0.00     0.034 A 
ATOM     54  C   UNL A   1      41.308  29.177  28.940  1.00  0.00     0.034 A 
ATOM     55  C   UNL A   1      47.605  29.298  27.176  1.00  0.00     0.049 A 
ATOM     56  C   UNL A   1      42.385  30.231  29.015  1.00  0.00     0.074 A 
ATOM     57  C   UNL A   1      48.471  30.379  27.199  1.00  0.00     0.029 A 
ATOM     58  N   UNL A   1      46.401  29.746  27.708  1.00  0.00    -0.354 N 
ATOM     59  N   UNL A   1      43.639  30.162  28.626  1.00  0.00    -0.248 NA
ATOM     60  C   UNL A   1      42.007  31.527  29.593  1.00  0.00     0.031 C 
ATOM     61  C   UNL A   1      47.816  31.454  27.810  1.00  0.00     0.029 A 
ATOM     62  C   UNL A   1      46.515  31.073  28.096  1.00  0.00     0.049 A 
ATOM     63  H   UNL A   1      45.586  29.201  27.795  1.00  0.00     0.167 HD
ATOM     64  C   UNL A   1      44.187  31.415  28.888  1.00  0.00     0.074 A 
ATOM     65  C   UNL A   1      43.125  32.223  29.453  1.00  0.00     0.031 C 
ATOM     66  C   UNL A   1      45.453  31.862  28.676  1.00  0.00     0.034 A 
BRANCH  53  67
ATOM     67  C   UNL A   1      49.247  27.591  26.254  1.00  0.00     0.023 A 
ATOM     68  C   UNL A   1      49.696  27.888  24.955  1.00  0.00     0.031 A 
ATOM     69  C   UNL A   1      50.128  26.913  27.115  1.00  0.00     0.131 A 
ATOM     70  C   UNL A   1      50.961  27.451  24.533  1.00  0.00     0.055 A 
ATOM     71  C   UNL A   1      51.416  26.548  26.714  1.00  0.00     0.041 A 
ATOM     72  F   UNL A   1      49.748  26.582  28.358  1.00  0.00    -0.206 F 
ATOM     73  C   UNL A   1      51.834  26.805  25.412  1.00  0.00     0.022 A 
BRANCH  70  74
ATOM     74  S   UNL A   1      51.398  27.614  22.779  1.00  0.00     0.124 S 
ATOM     75  O   UNL A   1      51.388  29.064  22.607  1.00  0.00    -0.237 OA
ATOM     76  O   UNL A   1      52.704  26.971  22.720  1.00  0.00    -0.237 OA
ATOM     77  O   UNL A   1      50.321  26.905  22.090  1.00  0.00    -0.744 OA
ENDBRANCH  70  74
ENDBRANCH  53  67
BRANCH  54  78
ATOM     78  C   UNL A   1      39.943  29.449  29.477  1.00  0.00     0.023 A 
ATOM     79  C   UNL A   1      39.699  29.488  30.859  1.00  0.00     0.031 A 
ATOM     80  C   UNL A   1      38.849  29.618  28.610  1.00  0.00     0.131 A 
ATOM     81  C   UNL A   1      38.386  29.648  31.332  1.00  0.00     0.055 A 
ATOM     82  C   UNL A   1      37.554  29.829  29.086  1.00  0.00     0.041 A 
ATOM     83  F   UNL A   1      39.026  29.586  27.279  1.00  0.00    -0.206 F 
ATOM     84  C   UNL A   1      37.316  29.832  30.456  1.00  0.00     0.022 A 
BRANCH  81  85
ATOM     85  S   UNL A   1      38.086  29.525  33.117  1.00  0.00     0.124 S 
ATOM     86  O   UNL A   1      37.230  28.346  33.194  1.00  0.00    -0.237 OA
ATOM     87  O   UNL A   1      39.440  29.370  33.641  1.00  0.00    -0.237 OA
ATOM     88  O   UNL A   1      37.436  30.792  33.441  1.00  0.00    -0.744 OA
ENDBRANCH  81  85
ENDBRANCH  54  78
BRANCH  66  89
ATOM     89  C   UNL A   1      45.739  33.303  29.023  1.00  0.00     0.023 A 
ATOM     90  C   UNL A   1      45.593  34.336  28.079  1.00  0.00     0.031 A 
ATOM     91  C   UNL A   1      46.179  33.646  30.314  1.00  0.00     0.131 A 
ATOM     92  C   UNL A   1      45.937  35.652  28.424  1.00  0.00     0.055 A 
ATOM     93  C   UNL A   1      46.462  34.966  30.669  1.00  0.00     0.041 A 
ATOM     94  F   UNL A   1      46.339  32.702  31.255  1.00  0.00    -0.206 F 
ATOM     95  C   UNL A   1      46.354  35.976  29.717  1.00  0.00     0.022 A 
BRANCH  92  96
ATOM     96  S   UNL A   1      45.922  36.925  27.131  1.00  0.00     0.124 S 
ATOM     97  O   UNL A   1      46.430  36.190  25.977  1.00  0.00    -0.237 OA
ATOM     98  O   UNL A   1      44.513  37.300  27.078  1.00  0.00    -0.237 OA
ATOM     99  O   UNL A   1      46.818  37.956  27.653  1.00  0.00    -0.744 OA
ENDBRANCH  92  96
ENDBRANCH  66  89
ENDBRANCH  40  41
ENDBRANCH  33  35
ENDBRANCH  32  33
ENDBRANCH  31  32
ENDBRANCH  30  31
ENDBRANCH  29  30
ENDBRANCH   1  29
TORSDOF 22
ENDMDL
MODEL 2
REMARK VINA RESULT:     -10.4      1.513      2.109
REMARK SMILES O=C(CSc1ccc2ccccc2n1)NCc1ccc(C(=O)OCCOCCOC(=O)c2ccc(-c3c4nc(c(-c5cc(S(=O)(=O)[O-])ccc5F)c5ccc([nH]5)c(-c5cc(S(=O)(=O)[O-])ccc5F)c5nc(c(-c6cc(S(=O)(=O)[O-])ccc6F)c6ccc3[nH]6)C=C5)C=C4)cc2)cc1
REMARK SMILES IDX 25 1 24 2 23 3 21 4 22 5 20 6 17 7 18 8 96 9 19 10 95 11
REMARK SMILES IDX 16 12 15 13 1 14 2 15 3 17 4 18 5 19 6 20 14 21 7 22 13 23
REMARK SMILES IDX 8 24 12 25 9 26 11 27 10 28 26 29 27 30 28 31 29 32 30 33
REMARK SMILES IDX 31 34 32 35 33 36 94 37 34 38 93 39 35 40 36 41 37 42 87 43
REMARK SMILES IDX 38 44 92 45 86 46 88 47 39 48 91 49 85 50 84 51 40 53 72 54
REMARK SMILES IDX 52 55 71 56 53 57 56 58 70 59 89 60 54 61 55 62 69 64 90 65
REMARK SMILES IDX 57 66 41 67 42 68 50 69 43 70 49 71 51 72 48 73 44 74 45 75
REMARK SMILES IDX 46 76 47 77 73 78 74 79 82 80 75 81 81 82 83 83 80 84 76 85
REMARK SMILES IDX 77 86 78 87 79 88 58 89 59 90 67 91 60 92 66 93 68 94 65 95
REMARK SMILES IDX 61 96 62 97 63 98 64 99
REMARK H PARENT 15 16 88 52 56 63
REMARK Flexibility Score: inf
ROOT
ATOM      1  C   UNL A   1      36.968  20.369  24.759  1.00  0.00     0.202 C 
ENDROOT
BRANCH   1   2
ATOM      2  C   UNL A   1      35.550  19.824  24.964  1.00  0.00     0.261 C 
BRANCH   2   3
ATOM      3  O   UNL A   1      34.728  20.759  25.683  1.00  0.00    -0.460 OA
BRANCH   3   4
ATOM      4  C   UNL A   1      33.406  20.468  25.684  1.00  0.00     0.338 C 
ATOM      5  O   UNL A   1      32.900  19.358  25.791  1.00  0.00    -0.246 OA
BRANCH   4   6
ATOM      6  C   UNL A   1      32.591  21.706  25.682  1.00  0.00     0.060 A 
ATOM      7  C   UNL A   1      30.969  23.996  25.901  1.00  0.00    -0.029 A 
ATOM      8  C   UNL A   1      31.830  23.629  26.946  1.00  0.00     0.006 A 
ATOM      9  C   UNL A   1      30.966  23.224  24.726  1.00  0.00     0.006 A 
ATOM     10  C   UNL A   1      32.631  22.494  26.837  1.00  0.00     0.016 A 
ATOM     11  C   UNL A   1      31.782  22.090  24.608  1.00  0.00     0.016 A 
BRANCH   7  12
ATOM     12  C   UNL A   1      29.973  25.106  26.130  1.00  0.00     0.151 C 
BRANCH  12  13
ATOM     13  N   UNL A   1      30.359  26.355  25.522  1.00  0.00    -0.351 N 
ATOM     14  O   UNL A   1      28.745  26.315  23.886  1.00  0.00    -0.274 OA
ATOM     15  C   UNL A   1      29.666  26.890  24.461  1.00  0.00     0.230 C 
ATOM     16  H   UNL A   1      31.139  26.838  25.877  1.00  0.00     0.163 HD
BRANCH  15  17
ATOM     17  C   UNL A   1      30.155  28.251  24.007  1.00  0.00     0.176 C 
BRANCH  17  18
ATOM     18  S   UNL A   1      30.819  28.186  22.313  1.00  0.00    -0.096 SA
BRANCH  18  19
ATOM     19  C   UNL A   1      32.000  26.860  22.469  1.00  0.00     0.097 A 
ATOM     20  C   UNL A   1      32.127  25.880  21.496  1.00  0.00     0.036 A 
ATOM     21  N   UNL A   1      32.701  26.842  23.625  1.00  0.00    -0.241 NA
ATOM     22  C   UNL A   1      33.013  24.830  21.721  1.00  0.00     0.013 A 
ATOM     23  C   UNL A   1      33.551  25.823  23.845  1.00  0.00     0.072 A 
ATOM     24  C   UNL A   1      33.739  24.780  22.915  1.00  0.00     0.000 A 
ATOM     25  C   UNL A   1      34.270  25.775  25.032  1.00  0.00     0.029 A 
ATOM     26  C   UNL A   1      34.625  23.724  23.200  1.00  0.00     0.010 A 
ATOM     27  C   UNL A   1      35.149  24.726  25.322  1.00  0.00     0.002 A 
ATOM     28  C   UNL A   1      35.324  23.697  24.404  1.00  0.00     0.001 A 
ENDBRANCH  18  19
ENDBRANCH  17  18
ENDBRANCH  15  17
ENDBRANCH  12  13
ENDBRANCH   7  12
ENDBRANCH   4   6
ENDBRANCH   3   4
ENDBRANCH   2   3
ENDBRANCH   1   2
BRANCH   1  29
ATOM     29  O   UNL A   1      37.382  21.390  25.668  1.00  0.00    -0.374 OA
BRANCH  29  30
ATOM     30  C   UNL A   1      38.774  21.441  25.985  1.00  0.00     0.202 C 
BRANCH  30  31
ATOM     31  C   UNL A   1      39.587  20.179  25.672  1.00  0.00     0.261 C 
BRANCH  31  32
ATOM     32  O   UNL A   1      40.612  19.939  26.654  1.00  0.00    -0.460 OA
BRANCH  32  33
ATOM     33  C   UNL A   1      41.879  19.969  26.177  1.00  0.00     0.338 C 
ATOM     34  O   UNL A   1      42.445  19.087  25.543  1.00  0.00    -0.246 OA
BRANCH  33  35
ATOM     35  C   UNL A   1      42.453  21.315  26.359  1.00  0.00     0.060 A 
ATOM     36  C   UNL A   1      42.797  21.702  27.661  1.00  0.00     0.016 A 
ATOM     37  C   UNL A   1      42.614  22.202  25.292  1.00  0.00     0.016 A 
ATOM     38  C   UNL A   1      43.269  22.991  27.906  1.00  0.00     0.010 A 
ATOM     39  C   UNL A   1      43.079  23.499  25.541  1.00  0.00     0.010 A 
ATOM     40  C   UNL A   1      43.383  23.908  26.852  1.00  0.00    -0.014 A 
BRANCH  40  41
ATOM     41  C   UNL A   1      43.709  25.326  27.143  1.00  0.00     0.031 A 
ATOM     42  C   UNL A   1      45.107  25.823  26.898  1.00  0.00     0.074 A 
ATOM     43  C   UNL A   1      42.762  26.167  27.600  1.00  0.00     0.049 A 
ATOM     44  N   UNL A   1      45.623  27.002  27.127  1.00  0.00    -0.248 NA
ATOM     45  C   UNL A   1      46.050  24.853  26.321  1.00  0.00     0.031 C 
ATOM     46  C   UNL A   1      41.362  25.812  27.832  1.00  0.00     0.029 A 
ATOM     47  N   UNL A   1      42.838  27.490  27.957  1.00  0.00    -0.354 N 
ATOM     48  C   UNL A   1      46.952  26.920  26.724  1.00  0.00     0.074 A 
ATOM     49  C   UNL A   1      47.169  25.561  26.272  1.00  0.00     0.031 C 
ATOM     50  C   UNL A   1      40.713  26.890  28.304  1.00  0.00     0.029 A 
ATOM     51  C   UNL A   1      41.657  27.997  28.446  1.00  0.00     0.049 A 
ATOM     52  H   UNL A   1      43.660  28.025  27.871  1.00  0.00     0.167 HD
ATOM     53  C   UNL A   1      47.899  27.892  26.722  1.00  0.00     0.034 A 
ATOM     54  C   UNL A   1      41.378  29.206  28.974  1.00  0.00     0.034 A 
ATOM     55  C   UNL A   1      47.670  29.238  27.190  1.00  0.00     0.049 A 
ATOM     56  C   UNL A   1      42.472  30.242  29.053  1.00  0.00     0.074 A 
ATOM     57  C   UNL A   1      48.554  30.304  27.217  1.00  0.00     0.029 A 
ATOM     58  N   UNL A   1      46.475  29.701  27.729  1.00  0.00    -0.354 N 
ATOM     59  N   UNL A   1      43.724  30.156  28.659  1.00  0.00    -0.248 NA
ATOM     60  C   UNL A   1      42.117  31.540  29.641  1.00  0.00     0.031 C 
ATOM     61  C   UNL A   1      47.918  31.385  27.838  1.00  0.00     0.029 A 
ATOM     62  C   UNL A   1      46.612  31.023  28.126  1.00  0.00     0.049 A 
ATOM     63  H   UNL A   1      45.652  29.169  27.815  1.00  0.00     0.167 HD
ATOM     64  C   UNL A   1      44.293  31.398  28.928  1.00  0.00     0.074 A 
ATOM     65  C   UNL A   1      43.246  32.219  29.502  1.00  0.00     0.031 C 
ATOM     66  C   UNL A   1      45.565  31.826  28.715  1.00  0.00     0.034 A 
BRANCH  53  67
ATOM     67  C   UNL A   1      49.282  27.510  26.250  1.00  0.00     0.023 A 
ATOM     68  C   UNL A   1      50.352  27.343  27.147  1.00  0.00     0.031 A 
ATOM     69  C   UNL A   1      49.540  27.337  24.879  1.00  0.00     0.131 A 
ATOM     70  C   UNL A   1      51.641  27.082  26.659  1.00  0.00     0.055 A 
ATOM     71  C   UNL A   1      50.810  27.000  24.405  1.00  0.00     0.041 A 
ATOM     72  F   UNL A   1      48.565  27.506  23.974  1.00  0.00    -0.206 F 
ATOM     73  C   UNL A   1      51.873  26.884  25.296  1.00  0.00     0.022 A 
BRANCH  70  74
ATOM     74  S   UNL A   1      53.038  27.140  27.816  1.00  0.00     0.124 S 
ATOM     75  O   UNL A   1      53.043  28.549  28.200  1.00  0.00    -0.237 OA
ATOM     76  O   UNL A   1      52.628  26.197  28.850  1.00  0.00    -0.237 OA
ATOM     77  O   UNL A   1      54.176  26.719  27.002  1.00  0.00    -0.744 OA
ENDBRANCH  70  74
ENDBRANCH  53  67
BRANCH  54  78
ATOM     78  C   UNL A   1      40.019  29.497  29.517  1.00  0.00     0.023 A 
ATOM     79  C   UNL A   1      39.775  29.506  30.899  1.00  0.00     0.031 A 
ATOM     80  C   UNL A   1      38.930  29.714  28.654  1.00  0.00     0.131 A 
ATOM     81  C   UNL A   1      38.466  29.684  31.376  1.00  0.00     0.055 A 
ATOM     82  C   UNL A   1      37.640  29.943  29.135  1.00  0.00     0.041 A 
ATOM     83  F   UNL A   1      39.108  29.712  27.323  1.00  0.00    -0.206 F 
ATOM     84  C   UNL A   1      37.401  29.916  30.505  1.00  0.00     0.022 A 
BRANCH  81  85
ATOM     85  S   UNL A   1      38.161  29.522  33.158  1.00  0.00     0.124 S 
ATOM     86  O   UNL A   1      39.480  29.143  33.651  1.00  0.00    -0.237 OA
ATOM     87  O   UNL A   1      37.706  30.864  33.509  1.00  0.00    -0.237 OA
ATOM     88  O   UNL A   1      37.140  28.480  33.234  1.00  0.00    -0.744 OA
ENDBRANCH  81  85
ENDBRANCH  54  78
BRANCH  66  89
ATOM     89  C   UNL A   1      45.876  33.259  29.071  1.00  0.00     0.023 A 
ATOM     90  C   UNL A   1      45.797  34.293  28.120  1.00  0.00     0.031 A 
ATOM     91  C   UNL A   1      46.271  33.594  30.378  1.00  0.00     0.131 A 
ATOM     92  C   UNL A   1      46.162  35.600  28.477  1.00  0.00     0.055 A 
ATOM     93  C   UNL A   1      46.575  34.906  30.742  1.00  0.00     0.041 A 
ATOM     94  F   UNL A   1      46.366  32.648  31.327  1.00  0.00    -0.206 F 
ATOM     95  C   UNL A   1      46.534  35.916  29.786  1.00  0.00     0.022 A 
BRANCH  92  96
ATOM     96  S   UNL A   1      46.236  36.869  27.182  1.00  0.00     0.124 S 
ATOM     97  O   UNL A   1      46.111  36.070  25.967  1.00  0.00    -0.237 OA
ATOM     98  O   UNL A   1      45.092  37.715  27.509  1.00  0.00    -0.237 OA
ATOM     99  O   UNL A   1      47.543  37.492  27.384  1.00  0.00    -0.744 OA
ENDBRANCH  92  96
ENDBRANCH  66  89
ENDBRANCH  40  41
ENDBRANCH  33  35
ENDBRANCH  32  33
ENDBRANCH  31  32
ENDBRANCH  30  31
ENDBRANCH  29  30
ENDBRANCH   1  29
TORSDOF 22
ENDMDL
MODEL 3
REMARK VINA RESULT:     -10.2      1.523      7.488
REMARK SMILES O=C(CSc1ccc2ccccc2n1)NCc1ccc(C(=O)OCCOCCOC(=O)c2ccc(-c3c4nc(c(-c5cc(S(=O)(=O)[O-])ccc5F)c5ccc([nH]5)c(-c5cc(S(=O)(=O)[O-])ccc5F)c5nc(c(-c6cc(S(=O)(=O)[O-])ccc6F)c6ccc3[nH]6)C=C5)C=C4)cc2)cc1
REMARK SMILES IDX 25 1 24 2 23 3 21 4 22 5 20 6 17 7 18 8 96 9 19 10 95 11
REMARK SMILES IDX 16 12 15 13 1 14 2 15 3 17 4 18 5 19 6 20 14 21 7 22 13 23
REMARK SMILES IDX 8 24 12 25 9 26 11 27 10 28 26 29 27 30 28 31 29 32 30 33
REMARK SMILES IDX 31 34 32 35 33 36 94 37 34 38 93 39 35 40 36 41 37 42 87 43
REMARK SMILES IDX 38 44 92 45 86 46 88 47 39 48 91 49 85 50 84 51 40 53 72 54
REMARK SMILES IDX 52 55 71 56 53 57 56 58 70 59 89 60 54 61 55 62 69 64 90 65
REMARK SMILES IDX 57 66 41 67 42 68 50 69 43 70 49 71 51 72 48 73 44 74 45 75
REMARK SMILES IDX 46 76 47 77 73 78 74 79 82 80 75 81 81 82 83 83 80 84 76 85
REMARK SMILES IDX 77 86 78 87 79 88 58 89 59 90 67 91 60 92 66 93 68 94 65 95
REMARK SMILES IDX 61 96 62 97 63 98 64 99
REMARK H PARENT 15 16 88 52 56 63
REMARK Flexibility Score: inf
ROOT
ATOM      1  C   UNL A   1      36.828  20.493  24.649  1.00  0.00     0.202 C 
ENDROOT
BRANCH   1   2
ATOM      2  C   UNL A   1      35.503  19.842  25.059  1.00  0.00     0.261 C 
BRANCH   2   3
ATOM      3  O   UNL A   1      34.647  20.776  25.740  1.00  0.00    -0.460 OA
BRANCH   3   4
ATOM      4  C   UNL A   1      33.326  20.495  25.663  1.00  0.00     0.338 C 
ATOM      5  O   UNL A   1      32.808  19.387  25.716  1.00  0.00    -0.246 OA
BRANCH   4   6
ATOM      6  C   UNL A   1      32.521  21.739  25.646  1.00  0.00     0.060 A 
ATOM      7  C   UNL A   1      30.925  24.049  25.843  1.00  0.00    -0.029 A 
ATOM      8  C   UNL A   1      31.821  23.712  26.868  1.00  0.00     0.006 A 
ATOM      9  C   UNL A   1      30.873  23.236  24.697  1.00  0.00     0.006 A 
ATOM     10  C   UNL A   1      32.609  22.567  26.771  1.00  0.00     0.016 A 
ATOM     11  C   UNL A   1      31.675  22.092  24.590  1.00  0.00     0.016 A 
BRANCH   7  12
ATOM     12  C   UNL A   1      29.946  25.175  26.067  1.00  0.00     0.151 C 
BRANCH  12  13
ATOM     13  N   UNL A   1      30.379  26.431  25.507  1.00  0.00    -0.351 N 
ATOM     14  O   UNL A   1      28.803  26.485  23.835  1.00  0.00    -0.274 OA
ATOM     15  C   UNL A   1      29.726  27.017  24.447  1.00  0.00     0.230 C 
ATOM     16  H   UNL A   1      31.165  26.881  25.894  1.00  0.00     0.163 HD
BRANCH  15  17
ATOM     17  C   UNL A   1      30.262  28.377  24.046  1.00  0.00     0.176 C 
BRANCH  17  18
ATOM     18  S   UNL A   1      30.945  28.348  22.359  1.00  0.00    -0.096 SA
BRANCH  18  19
ATOM     19  C   UNL A   1      32.040  26.946  22.466  1.00  0.00     0.097 A 
ATOM     20  C   UNL A   1      32.065  25.964  21.486  1.00  0.00     0.036 A 
ATOM     21  N   UNL A   1      32.782  26.876  23.594  1.00  0.00    -0.241 NA
ATOM     22  C   UNL A   1      32.887  24.858  21.675  1.00  0.00     0.013 A 
ATOM     23  C   UNL A   1      33.572  25.803  23.778  1.00  0.00     0.072 A 
ATOM     24  C   UNL A   1      33.654  24.753  22.840  1.00  0.00     0.000 A 
ATOM     25  C   UNL A   1      34.331  25.702  24.937  1.00  0.00     0.029 A 
ATOM     26  C   UNL A   1      34.478  23.640  23.088  1.00  0.00     0.010 A 
ATOM     27  C   UNL A   1      35.149  24.595  25.190  1.00  0.00     0.002 A 
ATOM     28  C   UNL A   1      35.220  23.561  24.264  1.00  0.00     0.001 A 
ENDBRANCH  18  19
ENDBRANCH  17  18
ENDBRANCH  15  17
ENDBRANCH  12  13
ENDBRANCH   7  12
ENDBRANCH   4   6
ENDBRANCH   3   4
ENDBRANCH   2   3
ENDBRANCH   1   2
BRANCH   1  29
ATOM     29  O   UNL A   1      37.307  21.529  25.509  1.00  0.00    -0.374 OA
BRANCH  29  30
ATOM     30  C   UNL A   1      38.699  21.505  25.828  1.00  0.00     0.202 C 
BRANCH  30  31
ATOM     31  C   UNL A   1      39.425  20.173  25.599  1.00  0.00     0.261 C 
BRANCH  31  32
ATOM     32  O   UNL A   1      40.419  19.920  26.608  1.00  0.00    -0.460 OA
BRANCH  32  33
ATOM     33  C   UNL A   1      41.692  19.849  26.149  1.00  0.00     0.338 C 
ATOM     34  O   UNL A   1      42.186  18.940  25.493  1.00  0.00    -0.246 OA
BRANCH  33  35
ATOM     35  C   UNL A   1      42.384  21.129  26.386  1.00  0.00     0.060 A 
ATOM     36  C   UNL A   1      42.667  21.478  27.713  1.00  0.00     0.016 A 
ATOM     37  C   UNL A   1      42.712  21.998  25.342  1.00  0.00     0.016 A 
ATOM     38  C   UNL A   1      43.247  22.712  28.004  1.00  0.00     0.010 A 
ATOM     39  C   UNL A   1      43.286  23.240  25.637  1.00  0.00     0.010 A 
ATOM     40  C   UNL A   1      43.531  23.615  26.971  1.00  0.00    -0.014 A 
BRANCH  40  41
ATOM     41  C   UNL A   1      43.976  24.992  27.298  1.00  0.00     0.031 A 
ATOM     42  C   UNL A   1      42.995  25.953  27.913  1.00  0.00     0.074 A 
ATOM     43  C   UNL A   1      45.246  25.375  27.068  1.00  0.00     0.049 A 
ATOM     44  N   UNL A   1      43.152  27.211  28.232  1.00  0.00    -0.248 NA
ATOM     45  C   UNL A   1      41.656  25.419  28.202  1.00  0.00     0.031 C 
ATOM     46  C   UNL A   1      46.297  24.519  26.520  1.00  0.00     0.029 A 
ATOM     47  N   UNL A   1      45.864  26.585  27.263  1.00  0.00    -0.354 N 
ATOM     48  C   UNL A   1      41.933  27.624  28.759  1.00  0.00     0.074 A 
ATOM     49  C   UNL A   1      41.037  26.488  28.680  1.00  0.00     0.031 C 
ATOM     50  C   UNL A   1      47.428  25.235  26.410  1.00  0.00     0.029 A 
ATOM     51  C   UNL A   1      47.173  26.608  26.842  1.00  0.00     0.049 A 
ATOM     52  H   UNL A   1      45.413  27.362  27.664  1.00  0.00     0.167 HD
ATOM     53  C   UNL A   1      41.596  28.834  29.270  1.00  0.00     0.034 A 
ATOM     54  C   UNL A   1      48.054  27.628  26.785  1.00  0.00     0.034 A 
ATOM     55  C   UNL A   1      42.498  29.960  29.328  1.00  0.00     0.049 A 
ATOM     56  C   UNL A   1      47.627  28.992  27.269  1.00  0.00     0.074 A 
ATOM     57  C   UNL A   1      42.265  31.226  29.840  1.00  0.00     0.029 A 
ATOM     58  N   UNL A   1      43.800  29.963  28.843  1.00  0.00    -0.354 N 
ATOM     59  N   UNL A   1      46.474  29.368  27.775  1.00  0.00    -0.248 NA
ATOM     60  C   UNL A   1      48.623  30.068  27.181  1.00  0.00     0.031 C 
ATOM     61  C   UNL A   1      43.397  32.012  29.599  1.00  0.00     0.029 A 
ATOM     62  C   UNL A   1      44.369  31.218  29.009  1.00  0.00     0.049 A 
ATOM     63  H   UNL A   1      44.254  29.188  28.442  1.00  0.00     0.167 HD
ATOM     64  C   UNL A   1      46.618  30.717  28.089  1.00  0.00     0.074 A 
ATOM     65  C   UNL A   1      47.974  31.084  27.731  1.00  0.00     0.031 C 
ATOM     66  C   UNL A   1      45.715  31.576  28.630  1.00  0.00     0.034 A 
BRANCH  53  67
ATOM     67  C   UNL A   1      40.177  29.013  29.752  1.00  0.00     0.023 A 
ATOM     68  C   UNL A   1      39.197  29.636  28.960  1.00  0.00     0.031 A 
ATOM     69  C   UNL A   1      39.804  28.576  31.036  1.00  0.00     0.131 A 
ATOM     70  C   UNL A   1      37.915  29.866  29.482  1.00  0.00     0.055 A 
ATOM     71  C   UNL A   1      38.504  28.738  31.522  1.00  0.00     0.041 A 
ATOM     72  F   UNL A   1      40.701  27.995  31.847  1.00  0.00    -0.206 F 
ATOM     73  C   UNL A   1      37.555  29.400  30.749  1.00  0.00     0.022 A 
BRANCH  70  74
ATOM     74  S   UNL A   1      36.766  30.907  28.540  1.00  0.00     0.124 S 
ATOM     75  O   UNL A   1      37.476  32.183  28.516  1.00  0.00    -0.237 OA
ATOM     76  O   UNL A   1      36.674  30.202  27.267  1.00  0.00    -0.237 OA
ATOM     77  O   UNL A   1      35.549  30.895  29.350  1.00  0.00    -0.744 OA
ENDBRANCH  70  74
ENDBRANCH  53  67
BRANCH  54  78
ATOM     78  C   UNL A   1      49.412  27.420  26.206  1.00  0.00     0.023 A 
ATOM     79  C   UNL A   1      49.711  27.808  24.891  1.00  0.00     0.031 A 
ATOM     80  C   UNL A   1      50.419  26.774  26.946  1.00  0.00     0.131 A 
ATOM     81  C   UNL A   1      50.968  27.509  24.342  1.00  0.00     0.055 A 
ATOM     82  C   UNL A   1      51.684  26.526  26.414  1.00  0.00     0.041 A 
ATOM     83  F   UNL A   1      50.185  26.378  28.209  1.00  0.00    -0.206 F 
ATOM     84  C   UNL A   1      51.960  26.883  25.098  1.00  0.00     0.022 A 
BRANCH  81  85
ATOM     85  S   UNL A   1      51.260  27.874  22.589  1.00  0.00     0.124 S 
ATOM     86  O   UNL A   1      50.737  29.231  22.478  1.00  0.00    -0.237 OA
ATOM     87  O   UNL A   1      52.709  27.735  22.488  1.00  0.00    -0.237 OA
ATOM     88  O   UNL A   1      50.488  26.847  21.895  1.00  0.00    -0.744 OA
ENDBRANCH  81  85
ENDBRANCH  54  78
BRANCH  66  89
ATOM     89  C   UNL A   1      46.185  32.985  28.902  1.00  0.00     0.023 A 
ATOM     90  C   UNL A   1      46.093  33.997  27.929  1.00  0.00     0.031 A 
ATOM     91  C   UNL A   1      46.748  33.316  30.147  1.00  0.00     0.131 A 
ATOM     92  C   UNL A   1      46.605  35.275  28.199  1.00  0.00     0.055 A 
ATOM     93  C   UNL A   1      47.202  34.605  30.431  1.00  0.00     0.041 A 
ATOM     94  F   UNL A   1      46.865  32.389  31.112  1.00  0.00    -0.206 F 
ATOM     95  C   UNL A   1      47.144  35.590  29.450  1.00  0.00     0.022 A 
BRANCH  92  96
ATOM     96  S   UNL A   1      46.646  36.500  26.861  1.00  0.00     0.124 S 
ATOM     97  O   UNL A   1      48.030  36.960  26.912  1.00  0.00    -0.237 OA
ATOM     98  O   UNL A   1      46.282  35.701  25.696  1.00  0.00    -0.237 OA
ATOM     99  O   UNL A   1      45.648  37.488  27.269  1.00  0.00    -0.744 OA
ENDBRANCH  92  96
ENDBRANCH  66  89
ENDBRANCH  40  41
ENDBRANCH  33  35
ENDBRANCH  32  33
ENDBRANCH  31  32
ENDBRANCH  30  31
ENDBRANCH  29  30
ENDBRANCH   1  29
TORSDOF 22
ENDMDL
