MODEL 1
REMARK VINA RESULT:      -9.5      0.000      0.000
REMARK SMILES CCc1cccc(CC)c1N1/C(=[NH+]/C(=O)CCCC(=O)OCCOCCOC(=O)c2ccc(-c3c4nc(c(-c5cc(S(=O)(=O)[O-])ccc5F)c5ccc([nH]5)c(-c5cc(S(=O)(=O)[O-])ccc5F)c5nc(c(-c6cc(S(=O)(=O)[O-])ccc6F)c6ccc3[nH]6)C=C5)C=C4)cc2)S[C@@H]2CS(=O)(=O)C[C@@H]21
REMARK SMILES IDX 23 1 22 2 21 3 19 4 20 5 18 6 17 7 16 8 14 9 11 10 12 11
REMARK SMILES IDX 100 12 13 13 93 14 94 15 99 16 95 18 96 19 15 20 97 21 98 22
REMARK SMILES IDX 10 23 3 24 4 25 5 26 7 27 6 28 2 29 1 30 8 31 9 32 24 33
REMARK SMILES IDX 25 34 26 35 27 36 28 37 29 38 30 39 31 40 92 41 32 42 91 43
REMARK SMILES IDX 33 44 34 45 35 46 85 47 36 48 90 49 84 50 86 51 37 52 89 53
REMARK SMILES IDX 83 54 82 55 38 57 70 58 50 59 69 60 51 61 54 62 68 63 87 64
REMARK SMILES IDX 52 65 53 66 67 68 88 69 55 70 39 71 40 72 48 73 41 74 47 75
REMARK SMILES IDX 49 76 46 77 42 78 43 79 44 80 45 81 71 82 72 83 80 84 73 85
REMARK SMILES IDX 79 86 81 87 78 88 74 89 75 90 76 91 77 92 56 93 57 94 65 95
REMARK SMILES IDX 58 96 64 97 66 98 63 99 59 100 60 101 61 102 62 103
REMARK H PARENT 13 17 86 56 54 67
REMARK Flexibility Score: inf
ROOT
ATOM      1  C   UNL A   1      41.950  18.976  26.008  1.00  0.00     0.202 C 
ENDROOT
BRANCH   1   2
ATOM      2  C   UNL A   1      41.793  20.147  26.982  1.00  0.00     0.261 C 
BRANCH   2   3
ATOM      3  O   UNL A   1      42.245  21.368  26.387  1.00  0.00    -0.463 OA
BRANCH   3   4
ATOM      4  C   UNL A   1      41.413  22.427  26.511  1.00  0.00     0.305 C 
ATOM      5  O   UNL A   1      41.711  23.583  26.230  1.00  0.00    -0.252 OA
BRANCH   4   6
ATOM      6  C   UNL A   1      39.995  22.018  26.883  1.00  0.00     0.123 C 
BRANCH   6   7
ATOM      7  C   UNL A   1      38.980  21.823  25.759  1.00  0.00     0.024 C 
BRANCH   7   8
ATOM      8  C   UNL A   1      38.138  23.053  25.410  1.00  0.00     0.128 C 
BRANCH   8   9
ATOM      9  C   UNL A   1      36.683  22.829  25.764  1.00  0.00     0.307 C 
ATOM     10  N   UNL A   1      33.607  24.791  25.669  1.00  0.00    -0.216 N 
ATOM     11  C   UNL A   1      34.719  24.031  26.047  1.00  0.00     0.319 C 
ATOM     12  C   UNL A   1      32.388  24.596  26.486  1.00  0.00     0.212 C 
ATOM     13  N   UNL A   1      35.827  23.853  25.403  1.00  0.00    -0.204 N 
ATOM     14  S   UNL A   1      34.338  23.231  27.598  1.00  0.00    -0.029 SA
ATOM     15  C   UNL A   1      32.580  23.256  27.214  1.00  0.00     0.120 C 
ATOM     16  C   UNL A   1      31.075  24.500  25.713  1.00  0.00     0.188 C 
ATOM     17  H   UNL A   1      36.061  24.449  24.655  1.00  0.00     0.316 HD
ATOM     18  C   UNL A   1      32.221  22.146  26.235  1.00  0.00     0.156 C 
ATOM     19  S   UNL A   1      30.744  22.765  25.476  1.00  0.00     0.155 S 
ATOM     20  O   UNL A   1      36.326  21.705  26.115  1.00  0.00    -0.247 OA
ATOM     21  O   UNL A   1      30.763  22.452  24.060  1.00  0.00    -0.229 OA
ATOM     22  O   UNL A   1      29.626  22.401  26.319  1.00  0.00    -0.229 OA
BRANCH  10  23
ATOM     23  C   UNL A   1      33.634  25.870  24.755  1.00  0.00     0.134 A 
ATOM     24  C   UNL A   1      33.670  27.212  25.231  1.00  0.00    -0.001 A 
ATOM     25  C   UNL A   1      33.726  28.284  24.317  1.00  0.00     0.008 A 
ATOM     26  C   UNL A   1      33.788  28.058  22.951  1.00  0.00     0.001 A 
ATOM     27  C   UNL A   1      33.726  25.649  23.351  1.00  0.00    -0.001 A 
ATOM     28  C   UNL A   1      33.816  26.755  22.478  1.00  0.00     0.008 A 
BRANCH  24  29
ATOM     29  C   UNL A   1      33.747  27.571  26.703  1.00  0.00     0.036 C 
ATOM     30  C   UNL A   1      32.468  28.177  27.236  1.00  0.00     0.009 C 
ENDBRANCH  24  29
BRANCH  27  31
ATOM     31  C   UNL A   1      33.837  24.265  22.733  1.00  0.00     0.036 C 
ATOM     32  C   UNL A   1      32.676  23.848  21.839  1.00  0.00     0.009 C 
ENDBRANCH  27  31
ENDBRANCH  10  23
ENDBRANCH   8   9
ENDBRANCH   7   8
ENDBRANCH   6   7
ENDBRANCH   4   6
ENDBRANCH   3   4
ENDBRANCH   2   3
ENDBRANCH   1   2
BRANCH   1  33
ATOM     33  O   UNL A   1      43.073  18.110  26.158  1.00  0.00    -0.374 OA
BRANCH  33  34
ATOM     34  C   UNL A   1      44.351  18.522  25.683  1.00  0.00     0.202 C 
BRANCH  34  35
ATOM     35  C   UNL A   1      44.481  19.145  24.286  1.00  0.00     0.261 C 
BRANCH  35  36
ATOM     36  O   UNL A   1      44.485  20.581  24.283  1.00  0.00    -0.460 OA
BRANCH  36  37
ATOM     37  C   UNL A   1      45.623  21.124  24.784  1.00  0.00     0.338 C 
ATOM     38  O   UNL A   1      46.764  20.742  24.582  1.00  0.00    -0.246 OA
BRANCH  37  39
ATOM     39  C   UNL A   1      45.333  22.395  25.470  1.00  0.00     0.060 A 
ATOM     40  C   UNL A   1      45.011  23.493  24.661  1.00  0.00     0.016 A 
ATOM     41  C   UNL A   1      45.493  22.548  26.848  1.00  0.00     0.016 A 
ATOM     42  C   UNL A   1      44.911  24.763  25.217  1.00  0.00     0.010 A 
ATOM     43  C   UNL A   1      45.399  23.829  27.404  1.00  0.00     0.010 A 
ATOM     44  C   UNL A   1      45.152  24.947  26.584  1.00  0.00    -0.014 A 
BRANCH  44  45
ATOM     45  C   UNL A   1      45.311  26.328  27.104  1.00  0.00     0.031 A 
ATOM     46  C   UNL A   1      44.110  27.034  27.675  1.00  0.00     0.074 A 
ATOM     47  C   UNL A   1      46.518  26.919  27.126  1.00  0.00     0.049 A 
ATOM     48  N   UNL A   1      44.010  28.244  28.161  1.00  0.00    -0.248 NA
ATOM     49  C   UNL A   1      42.855  26.269  27.697  1.00  0.00     0.031 C 
ATOM     50  C   UNL A   1      47.761  26.308  26.658  1.00  0.00     0.029 A 
ATOM     51  N   UNL A   1      46.896  28.164  27.561  1.00  0.00    -0.354 N 
ATOM     52  C   UNL A   1      42.678  28.392  28.537  1.00  0.00     0.074 A 
ATOM     53  C   UNL A   1      42.005  27.161  28.182  1.00  0.00     0.031 C 
ATOM     54  C   UNL A   1      48.765  27.184  26.826  1.00  0.00     0.029 A 
ATOM     55  C   UNL A   1      48.229  28.432  27.368  1.00  0.00     0.049 A 
ATOM     56  H   UNL A   1      46.271  28.804  27.971  1.00  0.00     0.167 HD
ATOM     57  C   UNL A   1      42.078  29.454  29.131  1.00  0.00     0.034 A 
ATOM     58  C   UNL A   1      48.931  29.564  27.574  1.00  0.00     0.034 A 
ATOM     59  C   UNL A   1      42.768  30.678  29.466  1.00  0.00     0.049 A 
ATOM     60  C   UNL A   1      48.224  30.771  28.142  1.00  0.00     0.074 A 
ATOM     61  C   UNL A   1      42.264  31.810  30.083  1.00  0.00     0.029 A 
ATOM     62  N   UNL A   1      44.106  30.939  29.197  1.00  0.00    -0.354 N 
ATOM     63  N   UNL A   1      46.965  30.901  28.496  1.00  0.00    -0.248 NA
ATOM     64  C   UNL A   1      49.034  31.977  28.347  1.00  0.00     0.031 C 
ATOM     65  C   UNL A   1      43.270  32.782  30.105  1.00  0.00     0.029 A 
ATOM     66  C   UNL A   1      44.432  32.227  29.594  1.00  0.00     0.049 A 
ATOM     67  H   UNL A   1      44.733  30.301  28.785  1.00  0.00     0.167 HD
ATOM     68  C   UNL A   1      46.841  32.197  28.993  1.00  0.00     0.074 A 
ATOM     69  C   UNL A   1      48.156  32.799  28.905  1.00  0.00     0.031 C 
ATOM     70  C   UNL A   1      45.744  32.827  29.485  1.00  0.00     0.034 A 
BRANCH  57  71
ATOM     71  C   UNL A   1      40.591  29.357  29.390  1.00  0.00     0.023 A 
ATOM     72  C   UNL A   1      40.064  29.276  30.691  1.00  0.00     0.031 A 
ATOM     73  C   UNL A   1      39.688  29.298  28.313  1.00  0.00     0.131 A 
ATOM     74  C   UNL A   1      38.690  29.056  30.878  1.00  0.00     0.055 A 
ATOM     75  C   UNL A   1      38.311  29.172  28.510  1.00  0.00     0.041 A 
ATOM     76  F   UNL A   1      40.129  29.344  27.046  1.00  0.00    -0.206 F 
ATOM     77  C   UNL A   1      37.806  29.031  29.798  1.00  0.00     0.022 A 
BRANCH  74  78
ATOM     78  S   UNL A   1      38.101  28.630  32.542  1.00  0.00     0.124 S 
ATOM     79  O   UNL A   1      38.198  27.172  32.523  1.00  0.00    -0.237 OA
ATOM     80  O   UNL A   1      39.054  29.323  33.400  1.00  0.00    -0.237 OA
ATOM     81  O   UNL A   1      36.738  29.156  32.566  1.00  0.00    -0.744 OA
ENDBRANCH  74  78
ENDBRANCH  57  71
BRANCH  58  82
ATOM     82  C   UNL A   1      50.372  29.629  27.197  1.00  0.00     0.023 A 
ATOM     83  C   UNL A   1      50.777  30.067  25.926  1.00  0.00     0.031 A 
ATOM     84  C   UNL A   1      51.370  29.220  28.101  1.00  0.00     0.131 A 
ATOM     85  C   UNL A   1      52.138  30.053  25.583  1.00  0.00     0.055 A 
ATOM     86  C   UNL A   1      52.725  29.259  27.775  1.00  0.00     0.041 A 
ATOM     87  F   UNL A   1      51.038  28.790  29.330  1.00  0.00    -0.206 F 
ATOM     88  C   UNL A   1      53.115  29.668  26.504  1.00  0.00     0.022 A 
BRANCH  85  89
ATOM     89  S   UNL A   1      52.613  30.478  23.886  1.00  0.00     0.124 S 
ATOM     90  O   UNL A   1      51.725  31.598  23.601  1.00  0.00    -0.237 OA
ATOM     91  O   UNL A   1      54.028  30.801  24.040  1.00  0.00    -0.237 OA
ATOM     92  O   UNL A   1      52.335  29.253  23.139  1.00  0.00    -0.744 OA
ENDBRANCH  85  89
ENDBRANCH  58  82
BRANCH  70  93
ATOM     93  C   UNL A   1      45.930  34.233  30.012  1.00  0.00     0.023 A 
ATOM     94  C   UNL A   1      45.710  35.365  29.207  1.00  0.00     0.031 A 
ATOM     95  C   UNL A   1      46.342  34.440  31.341  1.00  0.00     0.131 A 
ATOM     96  C   UNL A   1      45.961  36.647  29.720  1.00  0.00     0.055 A 
ATOM     97  C   UNL A   1      46.521  35.720  31.867  1.00  0.00     0.041 A 
ATOM     98  F   UNL A   1      46.574  33.398  32.155  1.00  0.00    -0.206 F 
ATOM     99  C   UNL A   1      46.343  36.833  31.051  1.00  0.00     0.022 A 
BRANCH  96 100
ATOM    100  S   UNL A   1      45.884  38.067  28.594  1.00  0.00     0.124 S 
ATOM    101  O   UNL A   1      46.360  37.487  27.343  1.00  0.00    -0.237 OA
ATOM    102  O   UNL A   1      44.469  38.423  28.635  1.00  0.00    -0.237 OA
ATOM    103  O   UNL A   1      46.785  39.042  29.208  1.00  0.00    -0.744 OA
ENDBRANCH  96 100
ENDBRANCH  70  93
ENDBRANCH  44  45
ENDBRANCH  37  39
ENDBRANCH  36  37
ENDBRANCH  35  36
ENDBRANCH  34  35
ENDBRANCH  33  34
ENDBRANCH   1  33
TORSDOF 23
ENDMDL
MODEL 2
REMARK VINA RESULT:      -8.8      2.648      3.494
REMARK SMILES CCc1cccc(CC)c1N1/C(=[NH+]/C(=O)CCCC(=O)OCCOCCOC(=O)c2ccc(-c3c4nc(c(-c5cc(S(=O)(=O)[O-])ccc5F)c5ccc([nH]5)c(-c5cc(S(=O)(=O)[O-])ccc5F)c5nc(c(-c6cc(S(=O)(=O)[O-])ccc6F)c6ccc3[nH]6)C=C5)C=C4)cc2)S[C@@H]2CS(=O)(=O)C[C@@H]21
REMARK SMILES IDX 23 1 22 2 21 3 19 4 20 5 18 6 17 7 16 8 14 9 11 10 12 11
REMARK SMILES IDX 100 12 13 13 93 14 94 15 99 16 95 18 96 19 15 20 97 21 98 22
REMARK SMILES IDX 10 23 3 24 4 25 5 26 7 27 6 28 2 29 1 30 8 31 9 32 24 33
REMARK SMILES IDX 25 34 26 35 27 36 28 37 29 38 30 39 31 40 92 41 32 42 91 43
REMARK SMILES IDX 33 44 34 45 35 46 85 47 36 48 90 49 84 50 86 51 37 52 89 53
REMARK SMILES IDX 83 54 82 55 38 57 70 58 50 59 69 60 51 61 54 62 68 63 87 64
REMARK SMILES IDX 52 65 53 66 67 68 88 69 55 70 39 71 40 72 48 73 41 74 47 75
REMARK SMILES IDX 49 76 46 77 42 78 43 79 44 80 45 81 71 82 72 83 80 84 73 85
REMARK SMILES IDX 79 86 81 87 78 88 74 89 75 90 76 91 77 92 56 93 57 94 65 95
REMARK SMILES IDX 58 96 64 97 66 98 63 99 59 100 60 101 61 102 62 103
REMARK H PARENT 13 17 86 56 54 67
REMARK Flexibility Score: inf
ROOT
ATOM      1  C   UNL A   1      41.243  20.170  26.106  1.00  0.00     0.202 C 
ENDROOT
BRANCH   1   2
ATOM      2  C   UNL A   1      40.937  20.896  27.418  1.00  0.00     0.261 C 
BRANCH   2   3
ATOM      3  O   UNL A   1      41.307  22.277  27.335  1.00  0.00    -0.463 OA
BRANCH   3   4
ATOM      4  C   UNL A   1      40.286  23.163  27.367  1.00  0.00     0.305 C 
ATOM      5  O   UNL A   1      40.285  24.200  28.022  1.00  0.00    -0.252 OA
BRANCH   4   6
ATOM      6  C   UNL A   1      39.187  22.828  26.368  1.00  0.00     0.123 C 
BRANCH   6   7
ATOM      7  C   UNL A   1      37.987  23.765  26.271  1.00  0.00     0.024 C 
BRANCH   7   8
ATOM      8  C   UNL A   1      36.617  23.101  26.427  1.00  0.00     0.128 C 
BRANCH   8   9
ATOM      9  C   UNL A   1      35.766  23.321  25.195  1.00  0.00     0.307 C 
ATOM     10  N   UNL A   1      32.698  25.126  24.386  1.00  0.00    -0.216 N 
ATOM     11  C   UNL A   1      33.686  24.157  24.598  1.00  0.00     0.319 C 
ATOM     12  C   UNL A   1      31.755  24.848  23.280  1.00  0.00     0.212 C 
ATOM     13  N   UNL A   1      34.739  24.235  25.344  1.00  0.00    -0.204 N 
ATOM     14  S   UNL A   1      33.305  22.748  23.571  1.00  0.00    -0.029 SA
ATOM     15  C   UNL A   1      32.444  23.800  22.391  1.00  0.00     0.120 C 
ATOM     16  C   UNL A   1      31.410  26.035  22.384  1.00  0.00     0.188 C 
ATOM     17  H   UNL A   1      34.810  24.947  26.021  1.00  0.00     0.316 HD
ATOM     18  C   UNL A   1      33.433  24.536  21.496  1.00  0.00     0.156 C 
ATOM     19  S   UNL A   1      32.502  25.952  20.977  1.00  0.00     0.155 S 
ATOM     20  O   UNL A   1      36.162  22.879  24.116  1.00  0.00    -0.247 OA
ATOM     21  O   UNL A   1      33.366  27.116  20.960  1.00  0.00    -0.229 OA
ATOM     22  O   UNL A   1      31.719  25.570  19.822  1.00  0.00    -0.229 OA
BRANCH  10  23
ATOM     23  C   UNL A   1      32.397  26.185  25.273  1.00  0.00     0.134 A 
ATOM     24  C   UNL A   1      33.086  27.427  25.168  1.00  0.00    -0.001 A 
ATOM     25  C   UNL A   1      32.762  28.490  26.035  1.00  0.00     0.008 A 
ATOM     26  C   UNL A   1      31.750  28.366  26.973  1.00  0.00     0.001 A 
ATOM     27  C   UNL A   1      31.340  26.077  26.222  1.00  0.00    -0.001 A 
ATOM     28  C   UNL A   1      31.030  27.182  27.045  1.00  0.00     0.008 A 
BRANCH  24  29
ATOM     29  C   UNL A   1      34.111  27.720  24.089  1.00  0.00     0.036 C 
ATOM     30  C   UNL A   1      33.911  29.064  23.425  1.00  0.00     0.009 C 
ENDBRANCH  24  29
BRANCH  27  31
ATOM     31  C   UNL A   1      30.443  24.855  26.332  1.00  0.00     0.036 C 
ATOM     32  C   UNL A   1      31.135  23.569  26.768  1.00  0.00     0.009 C 
ENDBRANCH  27  31
ENDBRANCH  10  23
ENDBRANCH   8   9
ENDBRANCH   7   8
ENDBRANCH   6   7
ENDBRANCH   4   6
ENDBRANCH   3   4
ENDBRANCH   2   3
ENDBRANCH   1   2
BRANCH   1  33
ATOM     33  O   UNL A   1      42.200  19.113  26.119  1.00  0.00    -0.374 OA
BRANCH  33  34
ATOM     34  C   UNL A   1      43.591  19.420  26.150  1.00  0.00     0.202 C 
BRANCH  34  35
ATOM     35  C   UNL A   1      44.142  20.550  25.270  1.00  0.00     0.261 C 
BRANCH  35  36
ATOM     36  O   UNL A   1      44.213  21.824  25.930  1.00  0.00    -0.460 OA
BRANCH  36  37
ATOM     37  C   UNL A   1      43.731  22.851  25.185  1.00  0.00     0.338 C 
ATOM     38  O   UNL A   1      42.924  22.775  24.273  1.00  0.00    -0.246 OA
BRANCH  37  39
ATOM     39  C   UNL A   1      44.160  24.144  25.746  1.00  0.00     0.060 A 
ATOM     40  C   UNL A   1      44.227  24.238  27.142  1.00  0.00     0.016 A 
ATOM     41  C   UNL A   1      44.365  25.269  24.946  1.00  0.00     0.016 A 
ATOM     42  C   UNL A   1      44.438  25.470  27.749  1.00  0.00     0.010 A 
ATOM     43  C   UNL A   1      44.570  26.510  25.560  1.00  0.00     0.010 A 
ATOM     44  C   UNL A   1      44.561  26.623  26.963  1.00  0.00    -0.014 A 
BRANCH  44  45
ATOM     45  C   UNL A   1      44.510  27.950  27.625  1.00  0.00     0.031 A 
ATOM     46  C   UNL A   1      43.201  28.434  28.188  1.00  0.00     0.074 A 
ATOM     47  C   UNL A   1      45.626  28.684  27.778  1.00  0.00     0.049 A 
ATOM     48  N   UNL A   1      42.919  29.564  28.783  1.00  0.00    -0.248 NA
ATOM     49  C   UNL A   1      42.059  27.518  28.058  1.00  0.00     0.031 C 
ATOM     50  C   UNL A   1      46.961  28.288  27.329  1.00  0.00     0.029 A 
ATOM     51  N   UNL A   1      45.815  29.914  28.355  1.00  0.00    -0.354 N 
ATOM     52  C   UNL A   1      41.562  29.501  29.090  1.00  0.00     0.074 A 
ATOM     53  C   UNL A   1      41.076  28.239  28.576  1.00  0.00     0.031 C 
ATOM     54  C   UNL A   1      47.830  29.262  27.643  1.00  0.00     0.029 A 
ATOM     55  C   UNL A   1      47.109  30.368  28.271  1.00  0.00     0.049 A 
ATOM     56  H   UNL A   1      45.092  30.423  28.787  1.00  0.00     0.167 HD
ATOM     57  C   UNL A   1      40.799  30.411  29.747  1.00  0.00     0.034 A 
ATOM     58  C   UNL A   1      47.644  31.552  28.629  1.00  0.00     0.034 A 
ATOM     59  C   UNL A   1      41.304  31.669  30.242  1.00  0.00     0.049 A 
ATOM     60  C   UNL A   1      46.757  32.593  29.269  1.00  0.00     0.074 A 
ATOM     61  C   UNL A   1      40.626  32.658  30.935  1.00  0.00     0.029 A 
ATOM     62  N   UNL A   1      42.608  32.125  30.082  1.00  0.00    -0.354 N 
ATOM     63  N   UNL A   1      45.476  32.525  29.556  1.00  0.00    -0.248 NA
ATOM     64  C   UNL A   1      47.389  33.864  29.640  1.00  0.00     0.031 C 
ATOM     65  C   UNL A   1      41.492  33.742  31.113  1.00  0.00     0.029 A 
ATOM     66  C   UNL A   1      42.741  33.396  30.623  1.00  0.00     0.049 A 
ATOM     67  H   UNL A   1      43.332  31.618  29.649  1.00  0.00     0.167 HD
ATOM     68  C   UNL A   1      45.158  33.734  30.169  1.00  0.00     0.074 A 
ATOM     69  C   UNL A   1      46.385  34.505  30.221  1.00  0.00     0.031 C 
ATOM     70  C   UNL A   1      43.965  34.165  30.653  1.00  0.00     0.034 A 
BRANCH  57  71
ATOM     71  C   UNL A   1      39.327  30.098  29.904  1.00  0.00     0.023 A 
ATOM     72  C   UNL A   1      38.343  30.731  29.125  1.00  0.00     0.031 A 
ATOM     73  C   UNL A   1      38.899  29.183  30.883  1.00  0.00     0.131 A 
ATOM     74  C   UNL A   1      36.984  30.506  29.394  1.00  0.00     0.055 A 
ATOM     75  C   UNL A   1      37.548  28.894  31.083  1.00  0.00     0.041 A 
ATOM     76  F   UNL A   1      39.788  28.565  31.676  1.00  0.00    -0.206 F 
ATOM     77  C   UNL A   1      36.580  29.571  30.349  1.00  0.00     0.022 A 
BRANCH  74  78
ATOM     78  S   UNL A   1      35.755  31.580  28.600  1.00  0.00     0.124 S 
ATOM     79  O   UNL A   1      36.604  32.607  28.001  1.00  0.00    -0.237 OA
ATOM     80  O   UNL A   1      35.097  30.671  27.669  1.00  0.00    -0.237 OA
ATOM     81  O   UNL A   1      34.930  32.038  29.716  1.00  0.00    -0.744 OA
ENDBRANCH  74  78
ENDBRANCH  57  71
BRANCH  58  82
ATOM     82  C   UNL A   1      49.080  31.838  28.349  1.00  0.00     0.023 A 
ATOM     83  C   UNL A   1      50.089  31.471  29.253  1.00  0.00     0.031 A 
ATOM     84  C   UNL A   1      49.461  32.516  27.176  1.00  0.00     0.131 A 
ATOM     85  C   UNL A   1      51.424  31.814  28.986  1.00  0.00     0.055 A 
ATOM     86  C   UNL A   1      50.794  32.807  26.889  1.00  0.00     0.041 A 
ATOM     87  F   UNL A   1      48.535  32.892  26.278  1.00  0.00    -0.206 F 
ATOM     88  C   UNL A   1      51.785  32.465  27.804  1.00  0.00     0.022 A 
BRANCH  85  89
ATOM     89  S   UNL A   1      52.682  31.463  30.244  1.00  0.00     0.124 S 
ATOM     90  O   UNL A   1      53.810  32.251  29.764  1.00  0.00    -0.237 OA
ATOM     91  O   UNL A   1      52.034  31.941  31.461  1.00  0.00    -0.237 OA
ATOM     92  O   UNL A   1      52.850  30.014  30.160  1.00  0.00    -0.744 OA
ENDBRANCH  85  89
ENDBRANCH  58  82
BRANCH  70  93
ATOM     93  C   UNL A   1      43.938  35.520  31.325  1.00  0.00     0.023 A 
ATOM     94  C   UNL A   1      43.845  36.715  30.590  1.00  0.00     0.031 A 
ATOM     95  C   UNL A   1      44.015  35.614  32.727  1.00  0.00     0.131 A 
ATOM     96  C   UNL A   1      43.891  37.951  31.254  1.00  0.00     0.055 A 
ATOM     97  C   UNL A   1      43.989  36.843  33.386  1.00  0.00     0.041 A 
ATOM     98  F   UNL A   1      44.113  34.508  33.483  1.00  0.00    -0.206 F 
ATOM     99  C   UNL A   1      43.940  38.022  32.649  1.00  0.00     0.022 A 
BRANCH  96 100
ATOM    100  S   UNL A   1      43.994  39.468  30.266  1.00  0.00     0.124 S 
ATOM    101  O   UNL A   1      45.399  39.478  29.874  1.00  0.00    -0.237 OA
ATOM    102  O   UNL A   1      43.035  39.210  29.196  1.00  0.00    -0.237 OA
ATOM    103  O   UNL A   1      43.604  40.517  31.206  1.00  0.00    -0.744 OA
ENDBRANCH  96 100
ENDBRANCH  70  93
ENDBRANCH  44  45
ENDBRANCH  37  39
ENDBRANCH  36  37
ENDBRANCH  35  36
ENDBRANCH  34  35
ENDBRANCH  33  34
ENDBRANCH   1  33
TORSDOF 23
ENDMDL
MODEL 3
REMARK VINA RESULT:      -8.5      8.479     13.708
REMARK SMILES CCc1cccc(CC)c1N1/C(=[NH+]/C(=O)CCCC(=O)OCCOCCOC(=O)c2ccc(-c3c4nc(c(-c5cc(S(=O)(=O)[O-])ccc5F)c5ccc([nH]5)c(-c5cc(S(=O)(=O)[O-])ccc5F)c5nc(c(-c6cc(S(=O)(=O)[O-])ccc6F)c6ccc3[nH]6)C=C5)C=C4)cc2)S[C@@H]2CS(=O)(=O)C[C@@H]21
REMARK SMILES IDX 23 1 22 2 21 3 19 4 20 5 18 6 17 7 16 8 14 9 11 10 12 11
REMARK SMILES IDX 100 12 13 13 93 14 94 15 99 16 95 18 96 19 15 20 97 21 98 22
REMARK SMILES IDX 10 23 3 24 4 25 5 26 7 27 6 28 2 29 1 30 8 31 9 32 24 33
REMARK SMILES IDX 25 34 26 35 27 36 28 37 29 38 30 39 31 40 92 41 32 42 91 43
REMARK SMILES IDX 33 44 34 45 35 46 85 47 36 48 90 49 84 50 86 51 37 52 89 53
REMARK SMILES IDX 83 54 82 55 38 57 70 58 50 59 69 60 51 61 54 62 68 63 87 64
REMARK SMILES IDX 52 65 53 66 67 68 88 69 55 70 39 71 40 72 48 73 41 74 47 75
REMARK SMILES IDX 49 76 46 77 42 78 43 79 44 80 45 81 71 82 72 83 80 84 73 85
REMARK SMILES IDX 79 86 81 87 78 88 74 89 75 90 76 91 77 92 56 93 57 94 65 95
REMARK SMILES IDX 58 96 64 97 66 98 63 99 59 100 60 101 61 102 62 103
REMARK H PARENT 13 17 86 56 54 67
REMARK Flexibility Score: inf
ROOT
ATOM      1  C   UNL A   1      44.746  28.031  26.989  1.00  0.00     0.202 C 
ENDROOT
BRANCH   1   2
ATOM      2  C   UNL A   1      46.087  27.412  27.390  1.00  0.00     0.261 C 
BRANCH   2   3
ATOM      3  O   UNL A   1      47.129  27.835  26.504  1.00  0.00    -0.463 OA
BRANCH   3   4
ATOM      4  C   UNL A   1      48.366  27.362  26.781  1.00  0.00     0.305 C 
ATOM      5  O   UNL A   1      49.284  28.038  27.232  1.00  0.00    -0.252 OA
BRANCH   4   6
ATOM      6  C   UNL A   1      48.463  25.850  26.632  1.00  0.00     0.123 C 
BRANCH   6   7
ATOM      7  C   UNL A   1      48.575  25.005  27.897  1.00  0.00     0.024 C 
BRANCH   7   8
ATOM      8  C   UNL A   1      49.982  24.887  28.489  1.00  0.00     0.128 C 
BRANCH   8   9
ATOM      9  C   UNL A   1      50.007  25.373  29.923  1.00  0.00     0.307 C 
ATOM     10  N   UNL A   1      50.754  23.931  33.192  1.00  0.00    -0.216 N 
ATOM     11  C   UNL A   1      50.152  24.534  32.080  1.00  0.00     0.319 C 
ATOM     12  C   UNL A   1      50.270  24.394  34.512  1.00  0.00     0.212 C 
ATOM     13  N   UNL A   1      50.514  24.472  30.840  1.00  0.00    -0.204 N 
ATOM     14  S   UNL A   1      48.785  25.523  32.663  1.00  0.00    -0.029 SA
ATOM     15  C   UNL A   1      49.586  25.747  34.259  1.00  0.00     0.120 C 
ATOM     16  C   UNL A   1      51.345  24.629  35.571  1.00  0.00     0.188 C 
ATOM     17  H   UNL A   1      51.152  23.780  30.549  1.00  0.00     0.316 HD
ATOM     18  C   UNL A   1      50.677  26.806  34.177  1.00  0.00     0.156 C 
ATOM     19  S   UNL A   1      51.743  26.366  35.523  1.00  0.00     0.155 S 
ATOM     20  O   UNL A   1      49.811  26.568  30.146  1.00  0.00    -0.247 OA
ATOM     21  O   UNL A   1      53.124  26.540  35.121  1.00  0.00    -0.229 OA
ATOM     22  O   UNL A   1      51.218  26.980  36.724  1.00  0.00    -0.229 OA
BRANCH  10  23
ATOM     23  C   UNL A   1      51.577  22.783  33.146  1.00  0.00     0.134 A 
ATOM     24  C   UNL A   1      52.960  22.904  32.827  1.00  0.00    -0.001 A 
ATOM     25  C   UNL A   1      53.784  21.761  32.809  1.00  0.00     0.008 A 
ATOM     26  C   UNL A   1      53.282  20.512  33.138  1.00  0.00     0.001 A 
ATOM     27  C   UNL A   1      51.078  21.499  33.508  1.00  0.00    -0.001 A 
ATOM     28  C   UNL A   1      51.952  20.389  33.510  1.00  0.00     0.008 A 
BRANCH  24  29
ATOM     29  C   UNL A   1      53.644  24.237  32.588  1.00  0.00     0.036 C 
ATOM     30  C   UNL A   1      55.029  24.313  33.191  1.00  0.00     0.009 C 
ENDBRANCH  24  29
BRANCH  27  31
ATOM     31  C   UNL A   1      49.659  21.268  34.001  1.00  0.00     0.036 C 
ATOM     32  C   UNL A   1      49.028  19.943  33.589  1.00  0.00     0.009 C 
ENDBRANCH  27  31
ENDBRANCH  10  23
ENDBRANCH   8   9
ENDBRANCH   7   8
ENDBRANCH   6   7
ENDBRANCH   4   6
ENDBRANCH   3   4
ENDBRANCH   2   3
ENDBRANCH   1   2
BRANCH   1  33
ATOM     33  O   UNL A   1      43.806  27.224  26.282  1.00  0.00    -0.374 OA
BRANCH  33  34
ATOM     34  C   UNL A   1      44.272  26.204  25.404  1.00  0.00     0.202 C 
BRANCH  34  35
ATOM     35  C   UNL A   1      43.820  24.752  25.615  1.00  0.00     0.261 C 
BRANCH  35  36
ATOM     36  O   UNL A   1      43.148  24.523  26.863  1.00  0.00    -0.460 OA
BRANCH  36  37
ATOM     37  C   UNL A   1      43.430  23.318  27.421  1.00  0.00     0.338 C 
ATOM     38  O   UNL A   1      43.401  22.233  26.865  1.00  0.00    -0.246 OA
BRANCH  37  39
ATOM     39  C   UNL A   1      43.987  23.491  28.774  1.00  0.00     0.060 A 
ATOM     40  C   UNL A   1      43.239  22.970  29.839  1.00  0.00     0.016 A 
ATOM     41  C   UNL A   1      45.135  24.247  29.014  1.00  0.00     0.016 A 
ATOM     42  C   UNL A   1      43.599  23.257  31.150  1.00  0.00     0.010 A 
ATOM     43  C   UNL A   1      45.492  24.540  30.335  1.00  0.00     0.010 A 
ATOM     44  C   UNL A   1      44.699  24.084  31.406  1.00  0.00    -0.014 A 
BRANCH  44  45
ATOM     45  C   UNL A   1      44.904  24.598  32.783  1.00  0.00     0.031 A 
ATOM     46  C   UNL A   1      44.532  26.023  33.092  1.00  0.00     0.074 A 
ATOM     47  C   UNL A   1      45.355  23.789  33.757  1.00  0.00     0.049 A 
ATOM     48  N   UNL A   1      44.645  26.688  34.212  1.00  0.00    -0.248 NA
ATOM     49  C   UNL A   1      43.955  26.800  31.985  1.00  0.00     0.031 C 
ATOM     50  C   UNL A   1      45.688  22.375  33.589  1.00  0.00     0.029 A 
ATOM     51  N   UNL A   1      45.608  24.041  35.082  1.00  0.00    -0.354 N 
ATOM     52  C   UNL A   1      44.165  27.967  33.943  1.00  0.00     0.074 A 
ATOM     53  C   UNL A   1      43.800  27.991  32.543  1.00  0.00     0.031 C 
ATOM     54  C   UNL A   1      46.108  21.886  34.767  1.00  0.00     0.029 A 
ATOM     55  C   UNL A   1      46.119  22.960  35.759  1.00  0.00     0.049 A 
ATOM     56  H   UNL A   1      45.440  24.913  35.507  1.00  0.00     0.167 HD
ATOM     57  C   UNL A   1      44.035  29.019  34.791  1.00  0.00     0.034 A 
ATOM     58  C   UNL A   1      46.573  22.857  37.024  1.00  0.00     0.034 A 
ATOM     59  C   UNL A   1      44.416  28.976  36.183  1.00  0.00     0.049 A 
ATOM     60  C   UNL A   1      46.514  24.067  37.924  1.00  0.00     0.074 A 
ATOM     61  C   UNL A   1      44.313  29.975  37.136  1.00  0.00     0.029 A 
ATOM     62  N   UNL A   1      44.991  27.883  36.820  1.00  0.00    -0.354 N 
ATOM     63  N   UNL A   1      46.058  25.271  37.662  1.00  0.00    -0.248 NA
ATOM     64  C   UNL A   1      47.021  23.901  39.291  1.00  0.00     0.031 C 
ATOM     65  C   UNL A   1      44.906  29.517  38.317  1.00  0.00     0.029 A 
ATOM     66  C   UNL A   1      45.289  28.197  38.137  1.00  0.00     0.049 A 
ATOM     67  H   UNL A   1      45.162  27.010  36.397  1.00  0.00     0.167 HD
ATOM     68  C   UNL A   1      46.196  25.997  38.843  1.00  0.00     0.074 A 
ATOM     69  C   UNL A   1      46.766  25.090  39.819  1.00  0.00     0.031 C 
ATOM     70  C   UNL A   1      45.875  27.291  39.100  1.00  0.00     0.034 A 
BRANCH  57  71
ATOM     71  C   UNL A   1      43.519  30.318  34.212  1.00  0.00     0.023 A 
ATOM     72  C   UNL A   1      42.157  30.664  34.252  1.00  0.00     0.031 A 
ATOM     73  C   UNL A   1      44.401  31.205  33.567  1.00  0.00     0.131 A 
ATOM     74  C   UNL A   1      41.706  31.815  33.589  1.00  0.00     0.055 A 
ATOM     75  C   UNL A   1      43.958  32.396  32.990  1.00  0.00     0.041 A 
ATOM     76  F   UNL A   1      45.709  30.920  33.473  1.00  0.00    -0.206 F 
ATOM     77  C   UNL A   1      42.600  32.698  32.981  1.00  0.00     0.022 A 
BRANCH  74  78
ATOM     78  S   UNL A   1      39.918  32.051  33.381  1.00  0.00     0.124 S 
ATOM     79  O   UNL A   1      39.605  32.930  34.506  1.00  0.00    -0.237 OA
ATOM     80  O   UNL A   1      39.831  32.652  32.056  1.00  0.00    -0.237 OA
ATOM     81  O   UNL A   1      39.380  30.697  33.492  1.00  0.00    -0.744 OA
ENDBRANCH  74  78
ENDBRANCH  57  71
BRANCH  58  82
ATOM     82  C   UNL A   1      47.170  21.577  37.501  1.00  0.00     0.023 A 
ATOM     83  C   UNL A   1      46.382  20.579  38.095  1.00  0.00     0.031 A 
ATOM     84  C   UNL A   1      48.554  21.346  37.395  1.00  0.00     0.131 A 
ATOM     85  C   UNL A   1      46.987  19.413  38.592  1.00  0.00     0.055 A 
ATOM     86  C   UNL A   1      49.144  20.163  37.840  1.00  0.00     0.041 A 
ATOM     87  F   UNL A   1      49.355  22.268  36.836  1.00  0.00    -0.206 F 
ATOM     88  C   UNL A   1      48.359  19.192  38.454  1.00  0.00     0.022 A 
BRANCH  85  89
ATOM     89  S   UNL A   1      45.964  18.215  39.489  1.00  0.00     0.124 S 
ATOM     90  O   UNL A   1      45.100  17.710  38.429  1.00  0.00    -0.237 OA
ATOM     91  O   UNL A   1      46.966  17.285  40.000  1.00  0.00    -0.237 OA
ATOM     92  O   UNL A   1      45.299  19.029  40.504  1.00  0.00    -0.744 OA
ENDBRANCH  85  89
ENDBRANCH  58  82
BRANCH  70  93
ATOM     93  C   UNL A   1      46.090  27.792  40.510  1.00  0.00     0.023 A 
ATOM     94  C   UNL A   1      47.220  28.548  40.869  1.00  0.00     0.031 A 
ATOM     95  C   UNL A   1      45.149  27.498  41.515  1.00  0.00     0.131 A 
ATOM     96  C   UNL A   1      47.409  28.933  42.205  1.00  0.00     0.055 A 
ATOM     97  C   UNL A   1      45.307  27.945  42.827  1.00  0.00     0.041 A 
ATOM     98  F   UNL A   1      44.053  26.774  41.235  1.00  0.00    -0.206 F 
ATOM     99  C   UNL A   1      46.450  28.656  43.182  1.00  0.00     0.022 A 
BRANCH  96 100
ATOM    100  S   UNL A   1      48.979  29.710  42.674  1.00  0.00     0.124 S 
ATOM    101  O   UNL A   1      49.822  28.551  42.946  1.00  0.00    -0.237 OA
ATOM    102  O   UNL A   1      49.318  30.479  41.480  1.00  0.00    -0.237 OA
ATOM    103  O   UNL A   1      48.630  30.512  43.846  1.00  0.00    -0.744 OA
ENDBRANCH  96 100
ENDBRANCH  70  93
ENDBRANCH  44  45
ENDBRANCH  37  39
ENDBRANCH  36  37
ENDBRANCH  35  36
ENDBRANCH  34  35
ENDBRANCH  33  34
ENDBRANCH   1  33
TORSDOF 23
ENDMDL
