MODEL 1
REMARK VINA RESULT:     -12.2      0.000      0.000
REMARK SMILES O=C1NC(=S)S/C1=C\c1ccc(OCc2cn(-c3ccc(C(=O)OCCOCCOC(=O)c4ccc(-c5c6nc(c(-c7cc(S(=O)(=O)[O-])ccc7F)c7ccc([nH]7)c(-c7cc(S(=O)(=O)[O-])ccc7F)c7nc(c(-c8cc(S(=O)(=O)[O-])ccc8F)c8ccc5[nH]8)C=C7)C=C6)cc4)cc3)nn2)cc1
REMARK SMILES IDX 26 1 25 2 24 3 22 4 23 5 21 6 18 7 19 8 97 9 20 10 96 11
REMARK SMILES IDX 17 12 15 13 16 14 99 15 98 16 14 17 13 18 12 19 9 20 10 21
REMARK SMILES IDX 101 22 11 23 100 24 8 25 1 26 2 27 3 28 7 29 4 30 6 32 5 33
REMARK SMILES IDX 27 34 28 35 29 36 30 37 31 38 32 39 33 40 34 41 95 42 35 43
REMARK SMILES IDX 94 44 36 45 37 46 38 47 88 48 39 49 93 50 87 51 89 52 40 53
REMARK SMILES IDX 92 54 86 55 85 56 41 58 73 59 53 60 72 61 54 62 57 63 71 64
REMARK SMILES IDX 90 65 55 66 56 67 70 69 91 70 58 71 42 72 43 73 51 74 44 75
REMARK SMILES IDX 50 76 52 77 49 78 45 79 46 80 47 81 48 82 74 83 75 84 83 85
REMARK SMILES IDX 76 86 82 87 84 88 81 89 77 90 78 91 79 92 80 93 59 94 60 95
REMARK SMILES IDX 68 96 61 97 67 98 69 99 66 100 62 101 63 102 64 103 65 104
REMARK H PARENT 3 31 89 57 57 68
REMARK Flexibility Score: inf
ROOT
ATOM      1  C   UNL A   1      33.287  28.971  24.375  1.00  0.00     0.202 C 
ENDROOT
BRANCH   1   2
ATOM      2  C   UNL A   1      31.800  29.275  24.191  1.00  0.00     0.261 C 
BRANCH   2   3
ATOM      3  O   UNL A   1      31.431  29.437  22.815  1.00  0.00    -0.460 OA
BRANCH   3   4
ATOM      4  C   UNL A   1      30.323  28.746  22.460  1.00  0.00     0.338 C 
ATOM      5  O   UNL A   1      29.365  29.157  21.826  1.00  0.00    -0.246 OA
BRANCH   4   6
ATOM      6  C   UNL A   1      30.474  27.323  22.812  1.00  0.00     0.060 A 
ATOM      7  C   UNL A   1      30.937  24.773  23.806  1.00  0.00     0.066 A 
ATOM      8  C   UNL A   1      29.920  25.559  24.366  1.00  0.00     0.029 A 
ATOM      9  C   UNL A   1      31.645  25.219  22.681  1.00  0.00     0.029 A 
ATOM     10  C   UNL A   1      29.716  26.848  23.889  1.00  0.00     0.018 A 
ATOM     11  C   UNL A   1      31.392  26.494  22.164  1.00  0.00     0.018 A 
BRANCH   7  12
ATOM     12  N   UNL A   1      31.306  23.584  24.473  1.00  0.00    -0.220 N 
ATOM     13  C   UNL A   1      32.437  21.918  25.313  1.00  0.00     0.120 A 
ATOM     14  C   UNL A   1      32.418  22.799  24.254  1.00  0.00     0.144 A 
ATOM     15  N   UNL A   1      31.353  22.170  26.111  1.00  0.00    -0.131 NA
ATOM     16  N   UNL A   1      30.679  23.182  25.598  1.00  0.00    -0.062 NA
BRANCH  13  17
ATOM     17  C   UNL A   1      33.464  20.916  25.731  1.00  0.00     0.289 C 
BRANCH  17  18
ATOM     18  O   UNL A   1      34.512  20.670  24.781  1.00  0.00    -0.487 OA
BRANCH  18  19
ATOM     19  C   UNL A   1      35.758  21.167  25.051  1.00  0.00     0.119 A 
ATOM     20  C   UNL A   1      38.384  21.827  25.797  1.00  0.00    -0.024 A 
ATOM     21  C   UNL A   1      38.130  20.646  25.096  1.00  0.00     0.012 A 
ATOM     22  C   UNL A   1      37.334  22.718  26.033  1.00  0.00     0.012 A 
ATOM     23  C   UNL A   1      36.820  20.319  24.729  1.00  0.00     0.047 A 
ATOM     24  C   UNL A   1      36.034  22.401  25.637  1.00  0.00     0.047 A 
BRANCH  20  25
ATOM     25  C   UNL A   1      39.726  22.132  26.296  1.00  0.00     0.029 C 
ATOM     26  O   UNL A   1      42.326  22.702  27.468  1.00  0.00    -0.268 OA
ATOM     27  C   UNL A   1      42.010  21.590  27.073  1.00  0.00     0.263 C 
ATOM     28  N   UNL A   1      42.799  20.477  27.160  1.00  0.00    -0.307 N 
ATOM     29  C   UNL A   1      40.697  21.227  26.479  1.00  0.00     0.080 C 
ATOM     30  C   UNL A   1      42.283  19.289  26.739  1.00  0.00     0.145 C 
ATOM     31  H   UNL A   1      43.714  20.532  27.519  1.00  0.00     0.171 HD
ATOM     32  S   UNL A   1      40.663  19.534  26.130  1.00  0.00    -0.055 SA
ATOM     33  S   UNL A   1      43.095  17.851  26.843  1.00  0.00    -0.052 S 
ENDBRANCH  20  25
ENDBRANCH  18  19
ENDBRANCH  17  18
ENDBRANCH  13  17
ENDBRANCH   7  12
ENDBRANCH   4   6
ENDBRANCH   3   4
ENDBRANCH   2   3
ENDBRANCH   1   2
BRANCH   1  34
ATOM     34  O   UNL A   1      33.856  29.081  25.679  1.00  0.00    -0.374 OA
BRANCH  34  35
ATOM     35  C   UNL A   1      33.167  29.779  26.712  1.00  0.00     0.202 C 
BRANCH  35  36
ATOM     36  C   UNL A   1      33.725  31.097  27.226  1.00  0.00     0.261 C 
BRANCH  36  37
ATOM     37  O   UNL A   1      32.795  31.779  28.049  1.00  0.00    -0.460 OA
BRANCH  37  38
ATOM     38  C   UNL A   1      32.967  33.125  28.049  1.00  0.00     0.338 C 
ATOM     39  O   UNL A   1      32.265  33.955  27.511  1.00  0.00    -0.246 OA
BRANCH  38  40
ATOM     40  C   UNL A   1      34.248  33.417  28.696  1.00  0.00     0.060 A 
ATOM     41  C   UNL A   1      35.264  33.831  27.836  1.00  0.00     0.016 A 
ATOM     42  C   UNL A   1      34.502  32.897  29.973  1.00  0.00     0.016 A 
ATOM     43  C   UNL A   1      36.545  33.434  28.131  1.00  0.00     0.010 A 
ATOM     44  C   UNL A   1      35.775  32.479  30.252  1.00  0.00     0.010 A 
ATOM     45  C   UNL A   1      36.754  32.662  29.278  1.00  0.00    -0.014 A 
BRANCH  45  46
ATOM     46  C   UNL A   1      38.090  32.183  29.544  1.00  0.00     0.031 A 
ATOM     47  C   UNL A   1      38.190  30.746  29.218  1.00  0.00     0.074 A 
ATOM     48  C   UNL A   1      39.096  32.996  29.917  1.00  0.00     0.049 A 
ATOM     49  N   UNL A   1      38.222  29.760  30.052  1.00  0.00    -0.248 NA
ATOM     50  C   UNL A   1      37.916  30.337  27.826  1.00  0.00     0.031 C 
ATOM     51  C   UNL A   1      39.097  34.456  30.035  1.00  0.00     0.029 A 
ATOM     52  N   UNL A   1      40.387  32.678  30.193  1.00  0.00    -0.354 N 
ATOM     53  C   UNL A   1      38.286  28.627  29.255  1.00  0.00     0.074 A 
ATOM     54  C   UNL A   1      37.789  29.019  27.969  1.00  0.00     0.031 C 
ATOM     55  C   UNL A   1      40.376  34.898  30.123  1.00  0.00     0.029 A 
ATOM     56  C   UNL A   1      41.273  33.754  30.189  1.00  0.00     0.049 A 
ATOM     57  H   UNL A   1      40.676  31.756  30.382  1.00  0.00     0.167 HD
ATOM     58  C   UNL A   1      39.080  27.583  29.615  1.00  0.00     0.034 A 
ATOM     59  C   UNL A   1      42.637  33.679  30.157  1.00  0.00     0.034 A 
ATOM     60  C   UNL A   1      39.388  27.644  31.029  1.00  0.00     0.049 A 
ATOM     61  C   UNL A   1      42.988  32.316  30.643  1.00  0.00     0.074 A 
ATOM     62  C   UNL A   1      38.621  27.679  32.180  1.00  0.00     0.029 A 
ATOM     63  N   UNL A   1      40.632  28.111  31.400  1.00  0.00    -0.354 N 
ATOM     64  N   UNL A   1      42.758  31.920  31.868  1.00  0.00    -0.248 NA
ATOM     65  C   UNL A   1      43.069  31.246  29.657  1.00  0.00     0.031 C 
ATOM     66  C   UNL A   1      39.277  28.615  33.032  1.00  0.00     0.029 A 
ATOM     67  C   UNL A   1      40.460  29.024  32.413  1.00  0.00     0.049 A 
ATOM     68  H   UNL A   1      41.492  27.838  31.007  1.00  0.00     0.167 HD
ATOM     69  C   UNL A   1      42.236  30.639  31.744  1.00  0.00     0.074 A 
ATOM     70  C   UNL A   1      42.516  30.251  30.360  1.00  0.00     0.031 C 
ATOM     71  C   UNL A   1      41.359  30.138  32.665  1.00  0.00     0.034 A 
BRANCH  58  72
ATOM     72  C   UNL A   1      39.918  26.797  28.628  1.00  0.00     0.023 A 
ATOM     73  C   UNL A   1      41.011  27.473  28.062  1.00  0.00     0.031 A 
ATOM     74  C   UNL A   1      39.561  25.579  27.999  1.00  0.00     0.131 A 
ATOM     75  C   UNL A   1      41.605  27.016  26.874  1.00  0.00     0.055 A 
ATOM     76  C   UNL A   1      40.197  25.095  26.855  1.00  0.00     0.041 A 
ATOM     77  F   UNL A   1      38.531  24.820  28.386  1.00  0.00    -0.206 F 
ATOM     78  C   UNL A   1      41.202  25.833  26.262  1.00  0.00     0.022 A 
BRANCH  75  79
ATOM     79  S   UNL A   1      42.788  28.100  26.045  1.00  0.00     0.124 S 
ATOM     80  O   UNL A   1      42.514  29.377  26.694  1.00  0.00    -0.237 OA
ATOM     81  O   UNL A   1      44.058  27.465  26.381  1.00  0.00    -0.237 OA
ATOM     82  O   UNL A   1      42.398  28.012  24.641  1.00  0.00    -0.744 OA
ENDBRANCH  75  79
ENDBRANCH  58  72
BRANCH  59  83
ATOM     83  C   UNL A   1      43.573  34.535  29.357  1.00  0.00     0.023 A 
ATOM     84  C   UNL A   1      44.146  34.135  28.124  1.00  0.00     0.031 A 
ATOM     85  C   UNL A   1      43.725  35.898  29.700  1.00  0.00     0.131 A 
ATOM     86  C   UNL A   1      44.832  35.077  27.310  1.00  0.00     0.055 A 
ATOM     87  C   UNL A   1      44.398  36.820  28.893  1.00  0.00     0.041 A 
ATOM     88  F   UNL A   1      43.147  36.409  30.798  1.00  0.00    -0.206 F 
ATOM     89  C   UNL A   1      44.947  36.415  27.690  1.00  0.00     0.022 A 
BRANCH  86  90
ATOM     90  S   UNL A   1      45.536  34.601  25.691  1.00  0.00     0.124 S 
ATOM     91  O   UNL A   1      44.358  34.578  24.832  1.00  0.00    -0.237 OA
ATOM     92  O   UNL A   1      46.503  35.663  25.442  1.00  0.00    -0.237 OA
ATOM     93  O   UNL A   1      46.129  33.287  25.948  1.00  0.00    -0.744 OA
ENDBRANCH  86  90
ENDBRANCH  59  83
BRANCH  71  94
ATOM     94  C   UNL A   1      41.175  30.885  33.975  1.00  0.00     0.023 A 
ATOM     95  C   UNL A   1      40.180  31.857  34.239  1.00  0.00     0.031 A 
ATOM     96  C   UNL A   1      41.996  30.488  35.047  1.00  0.00     0.131 A 
ATOM     97  C   UNL A   1      40.050  32.395  35.538  1.00  0.00     0.055 A 
ATOM     98  C   UNL A   1      41.845  31.003  36.332  1.00  0.00     0.041 A 
ATOM     99  F   UNL A   1      42.944  29.554  34.866  1.00  0.00    -0.206 F 
ATOM    100  C   UNL A   1      40.874  31.963  36.582  1.00  0.00     0.022 A 
BRANCH  97 101
ATOM    101  S   UNL A   1      38.816  33.691  35.900  1.00  0.00     0.124 S 
ATOM    102  O   UNL A   1      37.542  33.030  35.637  1.00  0.00    -0.237 OA
ATOM    103  O   UNL A   1      39.095  34.013  37.296  1.00  0.00    -0.237 OA
ATOM    104  O   UNL A   1      39.154  34.756  34.952  1.00  0.00    -0.744 OA
ENDBRANCH  97 101
ENDBRANCH  71  94
ENDBRANCH  45  46
ENDBRANCH  38  40
ENDBRANCH  37  38
ENDBRANCH  36  37
ENDBRANCH  35  36
ENDBRANCH  34  35
ENDBRANCH   1  34
TORSDOF 22
ENDMDL
MODEL 2
REMARK VINA RESULT:     -11.5      1.897      2.269
REMARK SMILES O=C1NC(=S)S/C1=C\c1ccc(OCc2cn(-c3ccc(C(=O)OCCOCCOC(=O)c4ccc(-c5c6nc(c(-c7cc(S(=O)(=O)[O-])ccc7F)c7ccc([nH]7)c(-c7cc(S(=O)(=O)[O-])ccc7F)c7nc(c(-c8cc(S(=O)(=O)[O-])ccc8F)c8ccc5[nH]8)C=C7)C=C6)cc4)cc3)nn2)cc1
REMARK SMILES IDX 26 1 25 2 24 3 22 4 23 5 21 6 18 7 19 8 97 9 20 10 96 11
REMARK SMILES IDX 17 12 15 13 16 14 99 15 98 16 14 17 13 18 12 19 9 20 10 21
REMARK SMILES IDX 101 22 11 23 100 24 8 25 1 26 2 27 3 28 7 29 4 30 6 32 5 33
REMARK SMILES IDX 27 34 28 35 29 36 30 37 31 38 32 39 33 40 34 41 95 42 35 43
REMARK SMILES IDX 94 44 36 45 37 46 38 47 88 48 39 49 93 50 87 51 89 52 40 53
REMARK SMILES IDX 92 54 86 55 85 56 41 58 73 59 53 60 72 61 54 62 57 63 71 64
REMARK SMILES IDX 90 65 55 66 56 67 70 69 91 70 58 71 42 72 43 73 51 74 44 75
REMARK SMILES IDX 50 76 52 77 49 78 45 79 46 80 47 81 48 82 74 83 75 84 83 85
REMARK SMILES IDX 76 86 82 87 84 88 81 89 77 90 78 91 79 92 80 93 59 94 60 95
REMARK SMILES IDX 68 96 61 97 67 98 69 99 66 100 62 101 63 102 64 103 65 104
REMARK H PARENT 3 31 89 57 57 68
REMARK Flexibility Score: inf
ROOT
ATOM      1  C   UNL A   1      33.541  28.677  24.272  1.00  0.00     0.202 C 
ENDROOT
BRANCH   1   2
ATOM      2  C   UNL A   1      32.077  28.896  23.890  1.00  0.00     0.261 C 
BRANCH   2   3
ATOM      3  O   UNL A   1      31.794  28.527  22.534  1.00  0.00    -0.460 OA
BRANCH   3   4
ATOM      4  C   UNL A   1      30.769  27.653  22.406  1.00  0.00     0.338 C 
ATOM      5  O   UNL A   1      29.604  27.909  22.152  1.00  0.00    -0.246 OA
BRANCH   4   6
ATOM      6  C   UNL A   1      31.270  26.268  22.460  1.00  0.00     0.060 A 
ATOM      7  C   UNL A   1      32.345  23.752  22.926  1.00  0.00     0.066 A 
ATOM      8  C   UNL A   1      31.148  24.120  23.556  1.00  0.00     0.029 A 
ATOM      9  C   UNL A   1      32.942  24.598  21.981  1.00  0.00     0.029 A 
ATOM     10  C   UNL A   1      30.633  25.393  23.347  1.00  0.00     0.018 A 
ATOM     11  C   UNL A   1      32.385  25.855  21.728  1.00  0.00     0.018 A 
BRANCH   7  12
ATOM     12  N   UNL A   1      32.989  22.570  23.354  1.00  0.00    -0.220 N 
ATOM     13  C   UNL A   1      34.299  21.144  24.361  1.00  0.00     0.120 A 
ATOM     14  C   UNL A   1      34.252  22.439  23.891  1.00  0.00     0.144 A 
ATOM     15  N   UNL A   1      33.104  20.536  24.084  1.00  0.00    -0.131 NA
ATOM     16  N   UNL A   1      32.318  21.406  23.480  1.00  0.00    -0.062 NA
BRANCH  13  17
ATOM     17  C   UNL A   1      35.334  20.440  25.177  1.00  0.00     0.289 C 
BRANCH  17  18
ATOM     18  O   UNL A   1      36.610  20.265  24.543  1.00  0.00    -0.487 OA
BRANCH  18  19
ATOM     19  C   UNL A   1      37.713  20.793  25.156  1.00  0.00     0.119 A 
ATOM     20  C   UNL A   1      39.952  21.552  26.672  1.00  0.00    -0.024 A 
ATOM     21  C   UNL A   1      39.884  20.274  26.113  1.00  0.00     0.012 A 
ATOM     22  C   UNL A   1      38.943  22.474  26.386  1.00  0.00     0.012 A 
ATOM     23  C   UNL A   1      38.765  19.898  25.361  1.00  0.00     0.047 A 
ATOM     24  C   UNL A   1      37.844  22.104  25.610  1.00  0.00     0.047 A 
BRANCH  20  25
ATOM     25  C   UNL A   1      41.054  21.927  27.560  1.00  0.00     0.029 C 
ATOM     26  O   UNL A   1      43.290  22.485  29.334  1.00  0.00    -0.268 OA
ATOM     27  C   UNL A   1      43.391  22.513  28.117  1.00  0.00     0.263 C 
ATOM     28  N   UNL A   1      44.548  22.764  27.434  1.00  0.00    -0.307 N 
ATOM     29  C   UNL A   1      42.296  22.225  27.154  1.00  0.00     0.080 C 
ATOM     30  C   UNL A   1      44.521  22.694  26.075  1.00  0.00     0.145 C 
ATOM     31  H   UNL A   1      45.379  22.989  27.912  1.00  0.00     0.171 HD
ATOM     32  S   UNL A   1      42.903  22.311  25.538  1.00  0.00    -0.055 SA
ATOM     33  S   UNL A   1      45.856  22.910  25.121  1.00  0.00    -0.052 S 
ENDBRANCH  20  25
ENDBRANCH  18  19
ENDBRANCH  17  18
ENDBRANCH  13  17
ENDBRANCH   7  12
ENDBRANCH   4   6
ENDBRANCH   3   4
ENDBRANCH   2   3
ENDBRANCH   1   2
BRANCH   1  34
ATOM     34  O   UNL A   1      34.008  29.174  25.525  1.00  0.00    -0.374 OA
BRANCH  34  35
ATOM     35  C   UNL A   1      33.162  29.976  26.345  1.00  0.00     0.202 C 
BRANCH  35  36
ATOM     36  C   UNL A   1      33.780  31.017  27.265  1.00  0.00     0.261 C 
BRANCH  36  37
ATOM     37  O   UNL A   1      32.799  31.685  28.040  1.00  0.00    -0.460 OA
BRANCH  37  38
ATOM     38  C   UNL A   1      32.948  33.034  28.044  1.00  0.00     0.338 C 
ATOM     39  O   UNL A   1      32.264  33.850  27.464  1.00  0.00    -0.246 OA
BRANCH  38  40
ATOM     40  C   UNL A   1      34.186  33.350  28.760  1.00  0.00     0.060 A 
ATOM     41  C   UNL A   1      35.199  33.901  27.977  1.00  0.00     0.016 A 
ATOM     42  C   UNL A   1      34.434  32.739  29.998  1.00  0.00     0.016 A 
ATOM     43  C   UNL A   1      36.493  33.562  28.285  1.00  0.00     0.010 A 
ATOM     44  C   UNL A   1      35.723  32.380  30.287  1.00  0.00     0.010 A 
ATOM     45  C   UNL A   1      36.717  32.708  29.369  1.00  0.00    -0.014 A 
BRANCH  45  46
ATOM     46  C   UNL A   1      38.072  32.295  29.644  1.00  0.00     0.031 A 
ATOM     47  C   UNL A   1      38.249  30.868  29.303  1.00  0.00     0.074 A 
ATOM     48  C   UNL A   1      39.033  33.153  30.037  1.00  0.00     0.049 A 
ATOM     49  N   UNL A   1      38.323  29.876  30.125  1.00  0.00    -0.248 NA
ATOM     50  C   UNL A   1      38.010  30.464  27.903  1.00  0.00     0.031 C 
ATOM     51  C   UNL A   1      38.959  34.610  30.172  1.00  0.00     0.029 A 
ATOM     52  N   UNL A   1      40.336  32.897  30.322  1.00  0.00    -0.354 N 
ATOM     53  C   UNL A   1      38.452  28.757  29.316  1.00  0.00     0.074 A 
ATOM     54  C   UNL A   1      37.948  29.139  28.029  1.00  0.00     0.031 C 
ATOM     55  C   UNL A   1      40.213  35.115  30.278  1.00  0.00     0.029 A 
ATOM     56  C   UNL A   1      41.166  34.017  30.340  1.00  0.00     0.049 A 
ATOM     57  H   UNL A   1      40.669  31.989  30.504  1.00  0.00     0.167 HD
ATOM     58  C   UNL A   1      39.294  27.750  29.672  1.00  0.00     0.034 A 
ATOM     59  C   UNL A   1      42.532  34.011  30.321  1.00  0.00     0.034 A 
ATOM     60  C   UNL A   1      39.585  27.810  31.090  1.00  0.00     0.049 A 
ATOM     61  C   UNL A   1      42.946  32.661  30.795  1.00  0.00     0.074 A 
ATOM     62  C   UNL A   1      38.806  27.792  32.233  1.00  0.00     0.029 A 
ATOM     63  N   UNL A   1      40.800  28.334  31.479  1.00  0.00    -0.354 N 
ATOM     64  N   UNL A   1      42.725  32.240  32.013  1.00  0.00    -0.248 NA
ATOM     65  C   UNL A   1      43.092  31.609  29.798  1.00  0.00     0.031 C 
ATOM     66  C   UNL A   1      39.405  28.750  33.102  1.00  0.00     0.029 A 
ATOM     67  C   UNL A   1      40.572  29.225  32.501  1.00  0.00     0.049 A 
ATOM     68  H   UNL A   1      41.676  28.110  31.092  1.00  0.00     0.167 HD
ATOM     69  C   UNL A   1      42.270  30.936  31.869  1.00  0.00     0.074 A 
ATOM     70  C   UNL A   1      42.583  30.579  30.483  1.00  0.00     0.031 C 
ATOM     71  C   UNL A   1      41.410  30.379  32.774  1.00  0.00     0.034 A 
BRANCH  58  72
ATOM     72  C   UNL A   1      40.180  27.019  28.685  1.00  0.00     0.023 A 
ATOM     73  C   UNL A   1      41.189  27.781  28.071  1.00  0.00     0.031 A 
ATOM     74  C   UNL A   1      39.928  25.754  28.100  1.00  0.00     0.131 A 
ATOM     75  C   UNL A   1      41.795  27.347  26.881  1.00  0.00     0.055 A 
ATOM     76  C   UNL A   1      40.581  25.300  26.952  1.00  0.00     0.041 A 
ATOM     77  F   UNL A   1      38.986  24.911  28.534  1.00  0.00    -0.206 F 
ATOM     78  C   UNL A   1      41.495  26.113  26.313  1.00  0.00     0.022 A 
BRANCH  75  79
ATOM     79  S   UNL A   1      42.848  28.515  25.991  1.00  0.00     0.124 S 
ATOM     80  O   UNL A   1      42.080  28.723  24.769  1.00  0.00    -0.237 OA
ATOM     81  O   UNL A   1      42.897  29.638  26.922  1.00  0.00    -0.237 OA
ATOM     82  O   UNL A   1      44.100  27.783  25.830  1.00  0.00    -0.744 OA
ENDBRANCH  75  79
ENDBRANCH  58  72
BRANCH  59  83
ATOM     83  C   UNL A   1      43.432  34.922  29.541  1.00  0.00     0.023 A 
ATOM     84  C   UNL A   1      42.978  36.064  28.836  1.00  0.00     0.031 A 
ATOM     85  C   UNL A   1      44.832  34.801  29.690  1.00  0.00     0.131 A 
ATOM     86  C   UNL A   1      43.906  37.007  28.318  1.00  0.00     0.055 A 
ATOM     87  C   UNL A   1      45.741  35.734  29.181  1.00  0.00     0.041 A 
ATOM     88  F   UNL A   1      45.373  33.810  30.416  1.00  0.00    -0.206 F 
ATOM     89  C   UNL A   1      45.280  36.846  28.501  1.00  0.00     0.022 A 
BRANCH  86  90
ATOM     90  S   UNL A   1      43.346  38.516  27.450  1.00  0.00     0.124 S 
ATOM     91  O   UNL A   1      44.605  39.143  27.067  1.00  0.00    -0.237 OA
ATOM     92  O   UNL A   1      42.532  37.975  26.368  1.00  0.00    -0.237 OA
ATOM     93  O   UNL A   1      42.591  39.241  28.474  1.00  0.00    -0.744 OA
ENDBRANCH  86  90
ENDBRANCH  59  83
BRANCH  71  94
ATOM     94  C   UNL A   1      41.176  31.101  34.091  1.00  0.00     0.023 A 
ATOM     95  C   UNL A   1      42.072  31.131  35.187  1.00  0.00     0.031 A 
ATOM     96  C   UNL A   1      40.020  31.897  34.176  1.00  0.00     0.131 A 
ATOM     97  C   UNL A   1      41.781  31.933  36.312  1.00  0.00     0.055 A 
ATOM     98  C   UNL A   1      39.751  32.707  35.277  1.00  0.00     0.041 A 
ATOM     99  F   UNL A   1      39.141  31.929  33.161  1.00  0.00    -0.206 F 
ATOM    100  C   UNL A   1      40.628  32.725  36.353  1.00  0.00     0.022 A 
BRANCH  97 101
ATOM    101  S   UNL A   1      42.885  31.952  37.766  1.00  0.00     0.124 S 
ATOM    102  O   UNL A   1      43.355  33.332  37.817  1.00  0.00    -0.237 OA
ATOM    103  O   UNL A   1      41.993  31.539  38.846  1.00  0.00    -0.237 OA
ATOM    104  O   UNL A   1      43.916  30.971  37.422  1.00  0.00    -0.744 OA
ENDBRANCH  97 101
ENDBRANCH  71  94
ENDBRANCH  45  46
ENDBRANCH  38  40
ENDBRANCH  37  38
ENDBRANCH  36  37
ENDBRANCH  35  36
ENDBRANCH  34  35
ENDBRANCH   1  34
TORSDOF 22
ENDMDL
MODEL 3
REMARK VINA RESULT:     -11.4      3.323      8.799
REMARK SMILES O=C1NC(=S)S/C1=C\c1ccc(OCc2cn(-c3ccc(C(=O)OCCOCCOC(=O)c4ccc(-c5c6nc(c(-c7cc(S(=O)(=O)[O-])ccc7F)c7ccc([nH]7)c(-c7cc(S(=O)(=O)[O-])ccc7F)c7nc(c(-c8cc(S(=O)(=O)[O-])ccc8F)c8ccc5[nH]8)C=C7)C=C6)cc4)cc3)nn2)cc1
REMARK SMILES IDX 26 1 25 2 24 3 22 4 23 5 21 6 18 7 19 8 97 9 20 10 96 11
REMARK SMILES IDX 17 12 15 13 16 14 99 15 98 16 14 17 13 18 12 19 9 20 10 21
REMARK SMILES IDX 101 22 11 23 100 24 8 25 1 26 2 27 3 28 7 29 4 30 6 32 5 33
REMARK SMILES IDX 27 34 28 35 29 36 30 37 31 38 32 39 33 40 34 41 95 42 35 43
REMARK SMILES IDX 94 44 36 45 37 46 38 47 88 48 39 49 93 50 87 51 89 52 40 53
REMARK SMILES IDX 92 54 86 55 85 56 41 58 73 59 53 60 72 61 54 62 57 63 71 64
REMARK SMILES IDX 90 65 55 66 56 67 70 69 91 70 58 71 42 72 43 73 51 74 44 75
REMARK SMILES IDX 50 76 52 77 49 78 45 79 46 80 47 81 48 82 74 83 75 84 83 85
REMARK SMILES IDX 76 86 82 87 84 88 81 89 77 90 78 91 79 92 80 93 59 94 60 95
REMARK SMILES IDX 68 96 61 97 67 98 69 99 66 100 62 101 63 102 64 103 65 104
REMARK H PARENT 3 31 89 57 57 68
REMARK Flexibility Score: inf
ROOT
ATOM      1  C   UNL A   1      36.995  20.689  24.930  1.00  0.00     0.202 C 
ENDROOT
BRANCH   1   2
ATOM      2  C   UNL A   1      35.532  20.728  25.372  1.00  0.00     0.261 C 
BRANCH   2   3
ATOM      3  O   UNL A   1      34.727  19.733  24.726  1.00  0.00    -0.460 OA
BRANCH   3   4
ATOM      4  C   UNL A   1      33.452  19.684  25.174  1.00  0.00     0.338 C 
ATOM      5  O   UNL A   1      32.984  18.915  25.996  1.00  0.00    -0.246 OA
BRANCH   4   6
ATOM      6  C   UNL A   1      32.681  20.823  24.643  1.00  0.00     0.060 A 
ATOM      7  C   UNL A   1      31.582  23.131  23.562  1.00  0.00     0.066 A 
ATOM      8  C   UNL A   1      32.133  22.163  22.711  1.00  0.00     0.029 A 
ATOM      9  C   UNL A   1      31.481  22.894  24.940  1.00  0.00     0.029 A 
ATOM     10  C   UNL A   1      32.714  21.027  23.259  1.00  0.00     0.018 A 
ATOM     11  C   UNL A   1      32.011  21.719  25.481  1.00  0.00     0.018 A 
BRANCH   7  12
ATOM     12  N   UNL A   1      31.243  24.388  23.014  1.00  0.00    -0.220 N 
ATOM     13  C   UNL A   1      30.518  26.428  22.740  1.00  0.00     0.120 A 
ATOM     14  C   UNL A   1      30.276  25.269  23.447  1.00  0.00     0.144 A 
ATOM     15  N   UNL A   1      31.580  26.215  21.904  1.00  0.00    -0.131 NA
ATOM     16  N   UNL A   1      32.015  24.982  22.080  1.00  0.00    -0.062 NA
BRANCH  13  17
ATOM     17  C   UNL A   1      29.914  27.789  22.863  1.00  0.00     0.289 C 
BRANCH  17  18
ATOM     18  O   UNL A   1      30.020  28.400  24.158  1.00  0.00    -0.487 OA
BRANCH  18  19
ATOM     19  C   UNL A   1      31.260  28.496  24.727  1.00  0.00     0.119 A 
ATOM     20  C   UNL A   1      33.614  28.884  26.209  1.00  0.00    -0.024 A 
ATOM     21  C   UNL A   1      32.513  28.253  26.793  1.00  0.00     0.012 A 
ATOM     22  C   UNL A   1      33.562  29.228  24.856  1.00  0.00     0.012 A 
ATOM     23  C   UNL A   1      31.341  28.064  26.053  1.00  0.00     0.047 A 
ATOM     24  C   UNL A   1      32.401  29.010  24.114  1.00  0.00     0.047 A 
BRANCH  20  25
ATOM     25  C   UNL A   1      34.806  29.200  26.998  1.00  0.00     0.029 C 
ATOM     26  O   UNL A   1      37.254  29.903  28.403  1.00  0.00    -0.268 OA
ATOM     27  C   UNL A   1      36.294  30.655  28.335  1.00  0.00     0.263 C 
ATOM     28  N   UNL A   1      36.250  31.915  28.862  1.00  0.00    -0.307 N 
ATOM     29  C   UNL A   1      35.021  30.366  27.624  1.00  0.00     0.080 C 
ATOM     30  C   UNL A   1      35.132  32.663  28.647  1.00  0.00     0.145 C 
ATOM     31  H   UNL A   1      37.005  32.273  29.383  1.00  0.00     0.171 HD
ATOM     32  S   UNL A   1      33.972  31.736  27.727  1.00  0.00    -0.055 SA
ATOM     33  S   UNL A   1      34.963  34.224  29.168  1.00  0.00    -0.052 S 
ENDBRANCH  20  25
ENDBRANCH  18  19
ENDBRANCH  17  18
ENDBRANCH  13  17
ENDBRANCH   7  12
ENDBRANCH   4   6
ENDBRANCH   3   4
ENDBRANCH   2   3
ENDBRANCH   1   2
BRANCH   1  34
ATOM     34  O   UNL A   1      37.683  21.920  24.714  1.00  0.00    -0.374 OA
BRANCH  34  35
ATOM     35  C   UNL A   1      37.539  23.000  25.631  1.00  0.00     0.202 C 
BRANCH  35  36
ATOM     36  C   UNL A   1      38.723  23.417  26.489  1.00  0.00     0.261 C 
BRANCH  36  37
ATOM     37  O   UNL A   1      38.577  24.735  26.986  1.00  0.00    -0.460 OA
BRANCH  37  38
ATOM     38  C   UNL A   1      39.740  25.269  27.437  1.00  0.00     0.338 C 
ATOM     39  O   UNL A   1      40.840  24.760  27.412  1.00  0.00    -0.246 OA
BRANCH  38  40
ATOM     40  C   UNL A   1      39.427  26.532  28.110  1.00  0.00     0.060 A 
ATOM     41  C   UNL A   1      39.846  27.679  27.438  1.00  0.00     0.016 A 
ATOM     42  C   UNL A   1      39.137  26.522  29.482  1.00  0.00     0.016 A 
ATOM     43  C   UNL A   1      40.275  28.738  28.199  1.00  0.00     0.010 A 
ATOM     44  C   UNL A   1      39.590  27.568  30.239  1.00  0.00     0.010 A 
ATOM     45  C   UNL A   1      40.247  28.611  29.591  1.00  0.00    -0.014 A 
BRANCH  45  46
ATOM     46  C   UNL A   1      40.768  29.698  30.386  1.00  0.00     0.031 A 
ATOM     47  C   UNL A   1      39.659  30.517  30.917  1.00  0.00     0.074 A 
ATOM     48  C   UNL A   1      42.077  29.831  30.673  1.00  0.00     0.049 A 
ATOM     49  N   UNL A   1      39.283  31.679  30.501  1.00  0.00    -0.248 NA
ATOM     50  C   UNL A   1      38.674  29.852  31.792  1.00  0.00     0.031 C 
ATOM     51  C   UNL A   1      43.180  28.922  30.356  1.00  0.00     0.029 A 
ATOM     52  N   UNL A   1      42.691  30.795  31.406  1.00  0.00    -0.354 N 
ATOM     53  C   UNL A   1      38.193  32.003  31.296  1.00  0.00     0.074 A 
ATOM     54  C   UNL A   1      37.700  30.761  31.815  1.00  0.00     0.031 C 
ATOM     55  C   UNL A   1      44.267  29.261  31.092  1.00  0.00     0.029 A 
ATOM     56  C   UNL A   1      43.977  30.475  31.839  1.00  0.00     0.049 A 
ATOM     57  H   UNL A   1      42.262  31.655  31.615  1.00  0.00     0.167 HD
ATOM     58  C   UNL A   1      38.030  33.275  31.746  1.00  0.00     0.034 A 
ATOM     59  C   UNL A   1      44.692  31.130  32.801  1.00  0.00     0.034 A 
ATOM     60  C   UNL A   1      38.792  34.203  30.934  1.00  0.00     0.049 A 
ATOM     61  C   UNL A   1      44.092  32.489  32.911  1.00  0.00     0.074 A 
ATOM     62  C   UNL A   1      38.818  34.502  29.584  1.00  0.00     0.029 A 
ATOM     63  N   UNL A   1      39.985  34.675  31.441  1.00  0.00    -0.354 N 
ATOM     64  N   UNL A   1      44.142  33.365  31.942  1.00  0.00    -0.248 NA
ATOM     65  C   UNL A   1      42.986  32.667  33.843  1.00  0.00     0.031 C 
ATOM     66  C   UNL A   1      40.199  34.672  29.271  1.00  0.00     0.029 A 
ATOM     67  C   UNL A   1      40.936  34.577  30.453  1.00  0.00     0.049 A 
ATOM     68  H   UNL A   1      40.130  35.021  32.351  1.00  0.00     0.167 HD
ATOM     69  C   UNL A   1      42.868  33.913  31.881  1.00  0.00     0.074 A 
ATOM     70  C   UNL A   1      42.217  33.492  33.124  1.00  0.00     0.031 C 
ATOM     71  C   UNL A   1      42.354  34.387  30.706  1.00  0.00     0.034 A 
BRANCH  58  72
ATOM     72  C   UNL A   1      37.563  33.608  33.148  1.00  0.00     0.023 A 
ATOM     73  C   UNL A   1      38.319  33.068  34.201  1.00  0.00     0.031 A 
ATOM     74  C   UNL A   1      36.304  34.147  33.513  1.00  0.00     0.131 A 
ATOM     75  C   UNL A   1      37.782  32.964  35.494  1.00  0.00     0.055 A 
ATOM     76  C   UNL A   1      35.801  34.098  34.814  1.00  0.00     0.041 A 
ATOM     77  F   UNL A   1      35.442  34.674  32.638  1.00  0.00    -0.206 F 
ATOM     78  C   UNL A   1      36.525  33.471  35.809  1.00  0.00     0.022 A 
BRANCH  75  79
ATOM     79  S   UNL A   1      38.687  31.983  36.712  1.00  0.00     0.124 S 
ATOM     80  O   UNL A   1      37.925  30.740  36.705  1.00  0.00    -0.237 OA
ATOM     81  O   UNL A   1      40.018  31.927  36.117  1.00  0.00    -0.237 OA
ATOM     82  O   UNL A   1      38.580  32.779  37.931  1.00  0.00    -0.744 OA
ENDBRANCH  75  79
ENDBRANCH  58  72
BRANCH  59  83
ATOM     83  C   UNL A   1      45.542  30.517  33.874  1.00  0.00     0.023 A 
ATOM     84  C   UNL A   1      46.838  30.978  34.212  1.00  0.00     0.031 A 
ATOM     85  C   UNL A   1      44.961  29.587  34.767  1.00  0.00     0.131 A 
ATOM     86  C   UNL A   1      47.487  30.507  35.385  1.00  0.00     0.055 A 
ATOM     87  C   UNL A   1      45.603  29.130  35.922  1.00  0.00     0.041 A 
ATOM     88  F   UNL A   1      43.703  29.151  34.598  1.00  0.00    -0.206 F 
ATOM     89  C   UNL A   1      46.866  29.595  36.240  1.00  0.00     0.022 A 
BRANCH  86  90
ATOM     90  S   UNL A   1      49.137  31.124  35.873  1.00  0.00     0.124 S 
ATOM     91  O   UNL A   1      48.864  31.777  37.148  1.00  0.00    -0.237 OA
ATOM     92  O   UNL A   1      49.930  29.902  35.925  1.00  0.00    -0.237 OA
ATOM     93  O   UNL A   1      49.498  32.037  34.786  1.00  0.00    -0.744 OA
ENDBRANCH  86  90
ENDBRANCH  59  83
BRANCH  71  94
ATOM     94  C   UNL A   1      43.292  34.568  29.524  1.00  0.00     0.023 A 
ATOM     95  C   UNL A   1      43.639  33.569  28.584  1.00  0.00     0.031 A 
ATOM     96  C   UNL A   1      43.761  35.873  29.286  1.00  0.00     0.131 A 
ATOM     97  C   UNL A   1      44.435  33.899  27.466  1.00  0.00     0.055 A 
ATOM     98  C   UNL A   1      44.523  36.200  28.168  1.00  0.00     0.041 A 
ATOM     99  F   UNL A   1      43.449  36.871  30.130  1.00  0.00    -0.206 F 
ATOM    100  C   UNL A   1      44.868  35.212  27.254  1.00  0.00     0.022 A 
BRANCH  97 101
ATOM    101  S   UNL A   1      44.948  32.624  26.265  1.00  0.00     0.124 S 
ATOM    102  O   UNL A   1      44.902  31.389  27.040  1.00  0.00    -0.237 OA
ATOM    103  O   UNL A   1      43.944  32.758  25.213  1.00  0.00    -0.237 OA
ATOM    104  O   UNL A   1      46.295  33.047  25.875  1.00  0.00    -0.744 OA
ENDBRANCH  97 101
ENDBRANCH  71  94
ENDBRANCH  45  46
ENDBRANCH  38  40
ENDBRANCH  37  38
ENDBRANCH  36  37
ENDBRANCH  35  36
ENDBRANCH  34  35
ENDBRANCH   1  34
TORSDOF 22
ENDMDL
