MODEL 1
REMARK VINA RESULT:      -9.9      0.000      0.000
REMARK SMILES Cc1c(CC(=O)OCCOCCOC(=O)c2ccc(-c3c4nc(c(-c5cc(S(=O)(=O)[O-])ccc5F)c5ccc([nH]5)c(-c5cc(S(=O)(=O)[O-])ccc5F)c5nc(c(-c6cc(S(=O)(=O)[O-])ccc6F)c6ccc3[nH]6)C=C5)C=C4)cc2)cc(-c2ccc(S(C)(=O)=O)cc2)n1-c1ccccc1
REMARK SMILES IDX 10 1 9 2 8 3 7 4 5 5 6 6 4 7 3 8 1 9 2 10 91 11 79 12 80 13
REMARK SMILES IDX 92 14 93 15 97 16 94 17 96 18 95 19 81 20 82 21 90 22 83 23
REMARK SMILES IDX 89 24 84 25 85 26 86 27 87 28 88 29 11 30 12 31 13 32 14 33
REMARK SMILES IDX 15 34 16 35 17 36 78 37 18 38 77 39 19 40 20 41 21 42 71 43
REMARK SMILES IDX 22 44 76 45 70 46 72 47 23 48 75 49 69 50 68 51 24 53 56 54
REMARK SMILES IDX 36 55 55 56 37 57 40 58 54 59 73 60 38 61 39 62 53 64 74 65
REMARK SMILES IDX 41 66 25 67 26 68 34 69 27 70 33 71 35 72 32 73 28 74 29 75
REMARK SMILES IDX 30 76 31 77 57 78 58 79 66 80 59 81 65 82 67 83 64 84 60 85
REMARK SMILES IDX 61 86 62 87 63 88 42 89 43 90 51 91 44 92 50 93 52 94 49 95
REMARK SMILES IDX 45 96 46 97 47 98 48 99
REMARK H PARENT 72 52 40 63
REMARK Flexibility Score: inf
ROOT
ATOM      1  O   UNL A   1      35.091  25.376  25.301  1.00  0.00    -0.374 OA
ENDROOT
BRANCH   1   2
ATOM      2  C   UNL A   1      33.927  25.904  24.671  1.00  0.00     0.202 C 
BRANCH   2   3
ATOM      3  C   UNL A   1      33.114  26.848  25.567  1.00  0.00     0.261 C 
BRANCH   3   4
ATOM      4  O   UNL A   1      32.992  28.167  24.994  1.00  0.00    -0.463 OA
BRANCH   4   5
ATOM      5  C   UNL A   1      33.246  29.208  25.830  1.00  0.00     0.310 C 
ATOM      6  O   UNL A   1      32.595  30.251  25.851  1.00  0.00    -0.252 OA
BRANCH   5   7
ATOM      7  C   UNL A   1      34.483  29.049  26.691  1.00  0.00     0.160 C 
BRANCH   7   8
ATOM      8  C   UNL A   1      34.986  30.215  27.502  1.00  0.00    -0.015 A 
ATOM      9  C   UNL A   1      37.453  29.534  28.011  1.00  0.00     0.065 C 
ATOM     10  C   UNL A   1      36.252  30.422  28.057  1.00  0.00     0.024 A 
ATOM     11  N   UNL A   1      36.220  31.591  28.823  1.00  0.00    -0.314 N 
ATOM     12  C   UNL A   1      34.159  31.244  28.022  1.00  0.00     0.033 A 
ATOM     13  C   UNL A   1      34.897  32.011  28.905  1.00  0.00     0.053 A 
BRANCH  11  14
ATOM     14  C   UNL A   1      37.340  32.256  29.409  1.00  0.00     0.046 A 
ATOM     15  C   UNL A   1      37.836  33.453  28.898  1.00  0.00     0.026 A 
ATOM     16  C   UNL A   1      38.037  31.615  30.434  1.00  0.00     0.026 A 
ATOM     17  C   UNL A   1      39.010  34.001  29.434  1.00  0.00     0.002 A 
ATOM     18  C   UNL A   1      39.223  32.138  30.947  1.00  0.00     0.002 A 
ATOM     19  C   UNL A   1      39.709  33.339  30.449  1.00  0.00     0.000 A 
ENDBRANCH  11  14
BRANCH  13  20
ATOM     20  C   UNL A   1      34.429  33.124  29.724  1.00  0.00    -0.001 A 
ATOM     21  C   UNL A   1      33.772  34.206  29.135  1.00  0.00     0.011 A 
ATOM     22  C   UNL A   1      34.659  33.123  31.103  1.00  0.00     0.011 A 
ATOM     23  C   UNL A   1      33.393  35.309  29.898  1.00  0.00     0.021 A 
ATOM     24  C   UNL A   1      34.286  34.224  31.876  1.00  0.00     0.021 A 
ATOM     25  C   UNL A   1      33.674  35.320  31.263  1.00  0.00     0.067 A 
BRANCH  25  26
ATOM     26  S   UNL A   1      33.211  36.746  32.215  1.00  0.00     0.175 S 
ATOM     27  C   UNL A   1      31.637  36.306  32.914  1.00  0.00     0.163 C 
ATOM     28  O   UNL A   1      34.181  36.890  33.257  1.00  0.00    -0.224 OA
ATOM     29  O   UNL A   1      32.968  37.831  31.255  1.00  0.00    -0.224 OA
ENDBRANCH  25  26
ENDBRANCH  13  20
ENDBRANCH   7   8
ENDBRANCH   5   7
ENDBRANCH   4   5
ENDBRANCH   3   4
ENDBRANCH   2   3
ENDBRANCH   1   2
BRANCH   1  30
ATOM     30  C   UNL A   1      35.041  23.967  25.571  1.00  0.00     0.202 C 
BRANCH  30  31
ATOM     31  C   UNL A   1      36.379  23.318  26.022  1.00  0.00     0.261 C 
BRANCH  31  32
ATOM     32  O   UNL A   1      37.571  24.209  26.132  1.00  0.00    -0.460 OA
BRANCH  32  33
ATOM     33  C   UNL A   1      38.728  23.574  26.567  1.00  0.00     0.338 C 
ATOM     34  O   UNL A   1      39.040  22.467  26.143  1.00  0.00    -0.246 OA
BRANCH  33  35
ATOM     35  C   UNL A   1      39.667  24.267  27.583  1.00  0.00     0.060 A 
ATOM     36  C   UNL A   1      39.356  25.545  28.027  1.00  0.00     0.016 A 
ATOM     37  C   UNL A   1      41.009  23.892  27.846  1.00  0.00     0.016 A 
ATOM     38  C   UNL A   1      40.320  26.365  28.732  1.00  0.00     0.010 A 
ATOM     39  C   UNL A   1      42.013  24.763  28.519  1.00  0.00     0.010 A 
ATOM     40  C   UNL A   1      41.717  26.058  28.978  1.00  0.00    -0.014 A 
BRANCH  40  41
ATOM     41  C   UNL A   1      42.745  27.329  29.295  1.00  0.00     0.031 A 
ATOM     42  C   UNL A   1      43.979  26.618  29.746  1.00  0.00     0.074 A 
ATOM     43  C   UNL A   1      42.876  28.731  29.405  1.00  0.00     0.049 A 
ATOM     44  N   UNL A   1      43.906  25.750  30.718  1.00  0.00    -0.248 NA
ATOM     45  C   UNL A   1      45.183  26.509  28.922  1.00  0.00     0.031 C 
ATOM     46  C   UNL A   1      41.835  29.764  29.240  1.00  0.00     0.029 A 
ATOM     47  N   UNL A   1      44.000  29.602  29.706  1.00  0.00    -0.354 N 
ATOM     48  C   UNL A   1      45.159  25.216  30.847  1.00  0.00     0.074 A 
ATOM     49  C   UNL A   1      45.817  25.534  29.585  1.00  0.00     0.031 C 
ATOM     50  C   UNL A   1      42.347  31.035  29.290  1.00  0.00     0.029 A 
ATOM     51  C   UNL A   1      43.786  31.036  29.563  1.00  0.00     0.049 A 
ATOM     52  H   UNL A   1      44.868  29.239  29.995  1.00  0.00     0.167 HD
ATOM     53  C   UNL A   1      45.686  25.209  32.106  1.00  0.00     0.034 A 
ATOM     54  C   UNL A   1      44.635  32.148  29.719  1.00  0.00     0.034 A 
ATOM     55  C   UNL A   1      46.684  26.234  32.263  1.00  0.00     0.049 A 
ATOM     56  C   UNL A   1      45.711  31.759  30.632  1.00  0.00     0.074 A 
ATOM     57  C   UNL A   1      47.738  26.664  31.482  1.00  0.00     0.029 A 
ATOM     58  N   UNL A   1      46.358  27.286  33.095  1.00  0.00    -0.354 N 
ATOM     59  N   UNL A   1      45.521  31.656  31.908  1.00  0.00    -0.248 NA
ATOM     60  C   UNL A   1      47.077  31.525  30.177  1.00  0.00     0.031 C 
ATOM     61  C   UNL A   1      47.634  28.077  31.495  1.00  0.00     0.029 A 
ATOM     62  C   UNL A   1      46.795  28.468  32.534  1.00  0.00     0.049 A 
ATOM     63  H   UNL A   1      45.885  27.204  33.954  1.00  0.00     0.167 HD
ATOM     64  C   UNL A   1      46.532  30.833  32.293  1.00  0.00     0.074 A 
ATOM     65  C   UNL A   1      47.579  31.021  31.306  1.00  0.00     0.031 C 
ATOM     66  C   UNL A   1      46.187  29.712  32.973  1.00  0.00     0.034 A 
BRANCH  53  67
ATOM     67  C   UNL A   1      44.718  24.813  33.193  1.00  0.00     0.023 A 
ATOM     68  C   UNL A   1      44.613  25.602  34.344  1.00  0.00     0.031 A 
ATOM     69  C   UNL A   1      43.958  23.622  33.143  1.00  0.00     0.131 A 
ATOM     70  C   UNL A   1      43.824  25.160  35.423  1.00  0.00     0.055 A 
ATOM     71  C   UNL A   1      43.235  23.154  34.237  1.00  0.00     0.041 A 
ATOM     72  F   UNL A   1      43.891  22.898  32.013  1.00  0.00    -0.206 F 
ATOM     73  C   UNL A   1      43.173  23.922  35.393  1.00  0.00     0.022 A 
BRANCH  70  74
ATOM     74  S   UNL A   1      43.614  26.255  36.852  1.00  0.00     0.124 S 
ATOM     75  O   UNL A   1      42.231  26.701  36.708  1.00  0.00    -0.237 OA
ATOM     76  O   UNL A   1      43.870  25.353  37.972  1.00  0.00    -0.237 OA
ATOM     77  O   UNL A   1      44.626  27.290  36.651  1.00  0.00    -0.744 OA
ENDBRANCH  70  74
ENDBRANCH  53  67
BRANCH  54  78
ATOM     78  C   UNL A   1      44.783  33.679  29.404  1.00  0.00     0.023 A 
ATOM     79  C   UNL A   1      45.923  34.245  28.688  1.00  0.00     0.031 A 
ATOM     80  C   UNL A   1      43.659  34.515  29.428  1.00  0.00     0.131 A 
ATOM     81  C   UNL A   1      45.878  35.518  28.034  1.00  0.00     0.055 A 
ATOM     82  C   UNL A   1      43.623  35.779  28.785  1.00  0.00     0.041 A 
ATOM     83  F   UNL A   1      42.516  34.086  29.979  1.00  0.00    -0.206 F 
ATOM     84  C   UNL A   1      44.717  36.277  28.078  1.00  0.00     0.022 A 
BRANCH  81  85
ATOM     85  S   UNL A   1      47.255  36.156  26.969  1.00  0.00     0.124 S 
ATOM     86  O   UNL A   1      47.902  34.939  26.498  1.00  0.00    -0.237 OA
ATOM     87  O   UNL A   1      46.549  36.950  25.969  1.00  0.00    -0.237 OA
ATOM     88  O   UNL A   1      48.069  36.951  27.893  1.00  0.00    -0.744 OA
ENDBRANCH  81  85
ENDBRANCH  54  78
BRANCH  66  89
ATOM     89  C   UNL A   1      45.049  29.830  33.995  1.00  0.00     0.023 A 
ATOM     90  C   UNL A   1      43.703  29.403  33.819  1.00  0.00     0.031 A 
ATOM     91  C   UNL A   1      45.334  30.486  35.203  1.00  0.00     0.131 A 
ATOM     92  C   UNL A   1      42.719  29.667  34.796  1.00  0.00     0.055 A 
ATOM     93  C   UNL A   1      44.373  30.703  36.192  1.00  0.00     0.041 A 
ATOM     94  F   UNL A   1      46.575  30.936  35.449  1.00  0.00    -0.206 F 
ATOM     95  C   UNL A   1      43.057  30.310  35.985  1.00  0.00     0.022 A 
BRANCH  92  96
ATOM     96  S   UNL A   1      40.966  29.252  34.490  1.00  0.00     0.124 S 
ATOM     97  O   UNL A   1      41.033  27.938  33.862  1.00  0.00    -0.237 OA
ATOM     98  O   UNL A   1      40.386  29.289  35.830  1.00  0.00    -0.237 OA
ATOM     99  O   UNL A   1      40.511  30.325  33.603  1.00  0.00    -0.744 OA
ENDBRANCH  92  96
ENDBRANCH  66  89
ENDBRANCH  40  41
ENDBRANCH  33  35
ENDBRANCH  32  33
ENDBRANCH  31  32
ENDBRANCH  30  31
ENDBRANCH   1  30
TORSDOF 21
ENDMDL
MODEL 2
REMARK VINA RESULT:      -9.9      3.108      4.788
REMARK SMILES Cc1c(CC(=O)OCCOCCOC(=O)c2ccc(-c3c4nc(c(-c5cc(S(=O)(=O)[O-])ccc5F)c5ccc([nH]5)c(-c5cc(S(=O)(=O)[O-])ccc5F)c5nc(c(-c6cc(S(=O)(=O)[O-])ccc6F)c6ccc3[nH]6)C=C5)C=C4)cc2)cc(-c2ccc(S(C)(=O)=O)cc2)n1-c1ccccc1
REMARK SMILES IDX 10 1 9 2 8 3 7 4 5 5 6 6 4 7 3 8 1 9 2 10 91 11 79 12 80 13
REMARK SMILES IDX 92 14 93 15 97 16 94 17 96 18 95 19 81 20 82 21 90 22 83 23
REMARK SMILES IDX 89 24 84 25 85 26 86 27 87 28 88 29 11 30 12 31 13 32 14 33
REMARK SMILES IDX 15 34 16 35 17 36 78 37 18 38 77 39 19 40 20 41 21 42 71 43
REMARK SMILES IDX 22 44 76 45 70 46 72 47 23 48 75 49 69 50 68 51 24 53 56 54
REMARK SMILES IDX 36 55 55 56 37 57 40 58 54 59 73 60 38 61 39 62 53 64 74 65
REMARK SMILES IDX 41 66 25 67 26 68 34 69 27 70 33 71 35 72 32 73 28 74 29 75
REMARK SMILES IDX 30 76 31 77 57 78 58 79 66 80 59 81 65 82 67 83 64 84 60 85
REMARK SMILES IDX 61 86 62 87 63 88 42 89 43 90 51 91 44 92 50 93 52 94 49 95
REMARK SMILES IDX 45 96 46 97 47 98 48 99
REMARK H PARENT 72 52 40 63
REMARK Flexibility Score: inf
ROOT
ATOM      1  O   UNL A   1      34.518  25.242  25.037  1.00  0.00    -0.374 OA
ENDROOT
BRANCH   1   2
ATOM      2  C   UNL A   1      33.214  25.787  24.848  1.00  0.00     0.202 C 
BRANCH   2   3
ATOM      3  C   UNL A   1      32.697  26.581  26.055  1.00  0.00     0.261 C 
BRANCH   3   4
ATOM      4  O   UNL A   1      32.224  27.892  25.677  1.00  0.00    -0.463 OA
BRANCH   4   5
ATOM      5  C   UNL A   1      32.621  28.921  26.470  1.00  0.00     0.310 C 
ATOM      6  O   UNL A   1      31.853  29.734  26.982  1.00  0.00    -0.252 OA
BRANCH   5   7
ATOM      7  C   UNL A   1      34.121  29.081  26.608  1.00  0.00     0.160 C 
BRANCH   7   8
ATOM      8  C   UNL A   1      34.684  30.259  27.359  1.00  0.00    -0.015 A 
ATOM      9  C   UNL A   1      37.197  29.615  27.633  1.00  0.00     0.065 C 
ATOM     10  C   UNL A   1      35.994  30.487  27.788  1.00  0.00     0.024 A 
ATOM     11  N   UNL A   1      36.019  31.661  28.547  1.00  0.00    -0.314 N 
ATOM     12  C   UNL A   1      33.896  31.281  27.951  1.00  0.00     0.033 A 
ATOM     13  C   UNL A   1      34.705  32.064  28.753  1.00  0.00     0.053 A 
BRANCH  11  14
ATOM     14  C   UNL A   1      37.181  32.345  29.019  1.00  0.00     0.046 A 
ATOM     15  C   UNL A   1      37.969  31.835  30.048  1.00  0.00     0.026 A 
ATOM     16  C   UNL A   1      37.451  33.623  28.527  1.00  0.00     0.026 A 
ATOM     17  C   UNL A   1      39.027  32.603  30.556  1.00  0.00     0.002 A 
ATOM     18  C   UNL A   1      38.480  34.404  29.052  1.00  0.00     0.002 A 
ATOM     19  C   UNL A   1      39.275  33.889  30.067  1.00  0.00     0.000 A 
ENDBRANCH  11  14
BRANCH  13  20
ATOM     20  C   UNL A   1      34.302  33.177  29.607  1.00  0.00    -0.001 A 
ATOM     21  C   UNL A   1      33.610  34.263  29.070  1.00  0.00     0.011 A 
ATOM     22  C   UNL A   1      34.631  33.170  30.966  1.00  0.00     0.011 A 
ATOM     23  C   UNL A   1      33.292  35.366  29.861  1.00  0.00     0.021 A 
ATOM     24  C   UNL A   1      34.319  34.270  31.767  1.00  0.00     0.021 A 
ATOM     25  C   UNL A   1      33.670  35.371  31.202  1.00  0.00     0.067 A 
BRANCH  25  26
ATOM     26  S   UNL A   1      33.284  36.796  32.189  1.00  0.00     0.175 S 
ATOM     27  C   UNL A   1      31.763  36.361  33.000  1.00  0.00     0.163 C 
ATOM     28  O   UNL A   1      34.327  36.933  33.158  1.00  0.00    -0.224 OA
ATOM     29  O   UNL A   1      32.976  37.885  31.253  1.00  0.00    -0.224 OA
ENDBRANCH  25  26
ENDBRANCH  13  20
ENDBRANCH   7   8
ENDBRANCH   5   7
ENDBRANCH   4   5
ENDBRANCH   3   4
ENDBRANCH   2   3
ENDBRANCH   1   2
BRANCH   1  30
ATOM     30  C   UNL A   1      34.552  23.994  25.744  1.00  0.00     0.202 C 
BRANCH  30  31
ATOM     31  C   UNL A   1      35.945  23.555  26.274  1.00  0.00     0.261 C 
BRANCH  31  32
ATOM     32  O   UNL A   1      37.138  23.935  25.462  1.00  0.00    -0.460 OA
BRANCH  32  33
ATOM     33  C   UNL A   1      38.333  23.369  25.894  1.00  0.00     0.338 C 
ATOM     34  O   UNL A   1      38.598  22.196  25.660  1.00  0.00    -0.246 OA
BRANCH  33  35
ATOM     35  C   UNL A   1      39.370  24.223  26.660  1.00  0.00     0.060 A 
ATOM     36  C   UNL A   1      39.240  24.372  28.034  1.00  0.00     0.016 A 
ATOM     37  C   UNL A   1      40.243  25.175  26.073  1.00  0.00     0.016 A 
ATOM     38  C   UNL A   1      39.979  25.379  28.767  1.00  0.00     0.010 A 
ATOM     39  C   UNL A   1      40.954  26.246  26.824  1.00  0.00     0.010 A 
ATOM     40  C   UNL A   1      40.838  26.411  28.215  1.00  0.00    -0.014 A 
BRANCH  40  41
ATOM     41  C   UNL A   1      41.128  27.759  29.149  1.00  0.00     0.031 A 
ATOM     42  C   UNL A   1      42.215  28.435  28.379  1.00  0.00     0.074 A 
ATOM     43  C   UNL A   1      40.850  28.426  30.362  1.00  0.00     0.049 A 
ATOM     44  N   UNL A   1      43.295  27.772  28.068  1.00  0.00    -0.248 NA
ATOM     45  C   UNL A   1      41.998  29.649  27.591  1.00  0.00     0.031 C 
ATOM     46  C   UNL A   1      39.990  27.982  31.476  1.00  0.00     0.029 A 
ATOM     47  N   UNL A   1      41.285  29.697  30.918  1.00  0.00    -0.354 N 
ATOM     48  C   UNL A   1      44.056  28.618  27.307  1.00  0.00     0.074 A 
ATOM     49  C   UNL A   1      43.117  29.637  26.855  1.00  0.00     0.031 C 
ATOM     50  C   UNL A   1      39.847  28.943  32.442  1.00  0.00     0.029 A 
ATOM     51  C   UNL A   1      40.643  30.138  32.150  1.00  0.00     0.049 A 
ATOM     52  H   UNL A   1      41.983  30.236  30.482  1.00  0.00     0.167 HD
ATOM     53  C   UNL A   1      45.358  28.766  27.687  1.00  0.00     0.034 A 
ATOM     54  C   UNL A   1      40.771  31.303  32.929  1.00  0.00     0.034 A 
ATOM     55  C   UNL A   1      45.572  30.025  28.350  1.00  0.00     0.049 A 
ATOM     56  C   UNL A   1      42.102  31.859  32.677  1.00  0.00     0.074 A 
ATOM     57  C   UNL A   1      45.171  31.320  28.086  1.00  0.00     0.029 A 
ATOM     58  N   UNL A   1      45.850  29.969  29.700  1.00  0.00    -0.354 N 
ATOM     59  N   UNL A   1      43.170  31.335  33.186  1.00  0.00    -0.248 NA
ATOM     60  C   UNL A   1      42.306  33.072  31.893  1.00  0.00     0.031 C 
ATOM     61  C   UNL A   1      44.714  31.810  29.334  1.00  0.00     0.029 A 
ATOM     62  C   UNL A   1      45.174  30.979  30.351  1.00  0.00     0.049 A 
ATOM     63  H   UNL A   1      46.440  29.309  30.131  1.00  0.00     0.167 HD
ATOM     64  C   UNL A   1      44.147  31.786  32.355  1.00  0.00     0.074 A 
ATOM     65  C   UNL A   1      43.637  33.025  31.798  1.00  0.00     0.031 C 
ATOM     66  C   UNL A   1      44.944  30.851  31.780  1.00  0.00     0.034 A 
BRANCH  53  67
ATOM     67  C   UNL A   1      46.048  27.485  28.085  1.00  0.00     0.023 A 
ATOM     68  C   UNL A   1      46.749  27.427  29.296  1.00  0.00     0.031 A 
ATOM     69  C   UNL A   1      46.091  26.347  27.247  1.00  0.00     0.131 A 
ATOM     70  C   UNL A   1      47.517  26.288  29.602  1.00  0.00     0.055 A 
ATOM     71  C   UNL A   1      46.906  25.252  27.522  1.00  0.00     0.041 A 
ATOM     72  F   UNL A   1      45.321  26.275  26.149  1.00  0.00    -0.206 F 
ATOM     73  C   UNL A   1      47.635  25.222  28.704  1.00  0.00     0.022 A 
BRANCH  70  74
ATOM     74  S   UNL A   1      48.320  26.192  31.225  1.00  0.00     0.124 S 
ATOM     75  O   UNL A   1      48.421  27.596  31.613  1.00  0.00    -0.237 OA
ATOM     76  O   UNL A   1      47.368  25.394  31.993  1.00  0.00    -0.237 OA
ATOM     77  O   UNL A   1      49.594  25.531  30.945  1.00  0.00    -0.744 OA
ENDBRANCH  70  74
ENDBRANCH  53  67
BRANCH  54  78
ATOM     78  C   UNL A   1      40.091  32.144  34.067  1.00  0.00     0.023 A 
ATOM     79  C   UNL A   1      40.750  33.254  34.748  1.00  0.00     0.031 A 
ATOM     80  C   UNL A   1      38.697  32.142  34.206  1.00  0.00     0.131 A 
ATOM     81  C   UNL A   1      40.032  34.271  35.455  1.00  0.00     0.055 A 
ATOM     82  C   UNL A   1      37.991  33.148  34.915  1.00  0.00     0.041 A 
ATOM     83  F   UNL A   1      37.959  31.227  33.563  1.00  0.00    -0.206 F 
ATOM     84  C   UNL A   1      38.646  34.216  35.525  1.00  0.00     0.022 A 
BRANCH  81  85
ATOM     85  S   UNL A   1      40.846  35.780  36.160  1.00  0.00     0.124 S 
ATOM     86  O   UNL A   1      41.272  35.339  37.482  1.00  0.00    -0.237 OA
ATOM     87  O   UNL A   1      41.902  36.059  35.192  1.00  0.00    -0.237 OA
ATOM     88  O   UNL A   1      39.774  36.779  36.175  1.00  0.00    -0.744 OA
ENDBRANCH  81  85
ENDBRANCH  54  78
BRANCH  66  89
ATOM     89  C   UNL A   1      45.356  29.651  32.641  1.00  0.00     0.023 A 
ATOM     90  C   UNL A   1      44.718  28.380  32.685  1.00  0.00     0.031 A 
ATOM     91  C   UNL A   1      46.427  29.834  33.530  1.00  0.00     0.131 A 
ATOM     92  C   UNL A   1      45.127  27.389  33.603  1.00  0.00     0.055 A 
ATOM     93  C   UNL A   1      46.865  28.836  34.403  1.00  0.00     0.041 A 
ATOM     94  F   UNL A   1      47.079  31.007  33.568  1.00  0.00    -0.206 F 
ATOM     95  C   UNL A   1      46.206  27.615  34.455  1.00  0.00     0.022 A 
BRANCH  92  96
ATOM     96  S   UNL A   1      44.201  25.821  33.756  1.00  0.00     0.124 S 
ATOM     97  O   UNL A   1      44.102  25.349  32.380  1.00  0.00    -0.237 OA
ATOM     98  O   UNL A   1      45.050  25.028  34.641  1.00  0.00    -0.237 OA
ATOM     99  O   UNL A   1      42.926  26.233  34.348  1.00  0.00    -0.744 OA
ENDBRANCH  92  96
ENDBRANCH  66  89
ENDBRANCH  40  41
ENDBRANCH  33  35
ENDBRANCH  32  33
ENDBRANCH  31  32
ENDBRANCH  30  31
ENDBRANCH   1  30
TORSDOF 21
ENDMDL
MODEL 3
REMARK VINA RESULT:      -9.7      4.260      6.260
REMARK SMILES Cc1c(CC(=O)OCCOCCOC(=O)c2ccc(-c3c4nc(c(-c5cc(S(=O)(=O)[O-])ccc5F)c5ccc([nH]5)c(-c5cc(S(=O)(=O)[O-])ccc5F)c5nc(c(-c6cc(S(=O)(=O)[O-])ccc6F)c6ccc3[nH]6)C=C5)C=C4)cc2)cc(-c2ccc(S(C)(=O)=O)cc2)n1-c1ccccc1
REMARK SMILES IDX 10 1 9 2 8 3 7 4 5 5 6 6 4 7 3 8 1 9 2 10 91 11 79 12 80 13
REMARK SMILES IDX 92 14 93 15 97 16 94 17 96 18 95 19 81 20 82 21 90 22 83 23
REMARK SMILES IDX 89 24 84 25 85 26 86 27 87 28 88 29 11 30 12 31 13 32 14 33
REMARK SMILES IDX 15 34 16 35 17 36 78 37 18 38 77 39 19 40 20 41 21 42 71 43
REMARK SMILES IDX 22 44 76 45 70 46 72 47 23 48 75 49 69 50 68 51 24 53 56 54
REMARK SMILES IDX 36 55 55 56 37 57 40 58 54 59 73 60 38 61 39 62 53 64 74 65
REMARK SMILES IDX 41 66 25 67 26 68 34 69 27 70 33 71 35 72 32 73 28 74 29 75
REMARK SMILES IDX 30 76 31 77 57 78 58 79 66 80 59 81 65 82 67 83 64 84 60 85
REMARK SMILES IDX 61 86 62 87 63 88 42 89 43 90 51 91 44 92 50 93 52 94 49 95
REMARK SMILES IDX 45 96 46 97 47 98 48 99
REMARK H PARENT 72 52 40 63
REMARK Flexibility Score: inf
ROOT
ATOM      1  O   UNL A   1      34.479  24.017  25.499  1.00  0.00    -0.374 OA
ENDROOT
BRANCH   1   2
ATOM      2  C   UNL A   1      34.282  25.321  24.957  1.00  0.00     0.202 C 
BRANCH   2   3
ATOM      3  C   UNL A   1      33.291  26.178  25.757  1.00  0.00     0.261 C 
BRANCH   3   4
ATOM      4  O   UNL A   1      33.951  27.252  26.461  1.00  0.00    -0.463 OA
BRANCH   4   5
ATOM      5  C   UNL A   1      33.154  28.271  26.876  1.00  0.00     0.310 C 
ATOM      6  O   UNL A   1      32.157  28.125  27.581  1.00  0.00    -0.252 OA
BRANCH   5   7
ATOM      7  C   UNL A   1      33.512  29.633  26.316  1.00  0.00     0.160 C 
BRANCH   7   8
ATOM      8  C   UNL A   1      34.195  30.649  27.193  1.00  0.00    -0.015 A 
ATOM      9  C   UNL A   1      36.484  29.510  27.713  1.00  0.00     0.065 C 
ATOM     10  C   UNL A   1      35.462  30.598  27.781  1.00  0.00     0.024 A 
ATOM     11  N   UNL A   1      35.620  31.717  28.603  1.00  0.00    -0.314 N 
ATOM     12  C   UNL A   1      33.553  31.787  27.749  1.00  0.00     0.033 A 
ATOM     13  C   UNL A   1      34.393  32.366  28.682  1.00  0.00     0.053 A 
BRANCH  11  14
ATOM     14  C   UNL A   1      36.825  32.140  29.243  1.00  0.00     0.046 A 
ATOM     15  C   UNL A   1      37.286  31.544  30.415  1.00  0.00     0.026 A 
ATOM     16  C   UNL A   1      37.482  33.270  28.753  1.00  0.00     0.026 A 
ATOM     17  C   UNL A   1      38.407  32.076  31.068  1.00  0.00     0.002 A 
ATOM     18  C   UNL A   1      38.575  33.823  29.417  1.00  0.00     0.002 A 
ATOM     19  C   UNL A   1      39.044  33.220  30.577  1.00  0.00     0.000 A 
ENDBRANCH  11  14
BRANCH  13  20
ATOM     20  C   UNL A   1      34.111  33.507  29.547  1.00  0.00    -0.001 A 
ATOM     21  C   UNL A   1      34.541  33.508  30.874  1.00  0.00     0.011 A 
ATOM     22  C   UNL A   1      33.384  34.595  29.054  1.00  0.00     0.011 A 
ATOM     23  C   UNL A   1      34.207  34.557  31.729  1.00  0.00     0.021 A 
ATOM     24  C   UNL A   1      33.042  35.650  29.902  1.00  0.00     0.021 A 
ATOM     25  C   UNL A   1      33.438  35.613  31.241  1.00  0.00     0.067 A 
BRANCH  25  26
ATOM     26  S   UNL A   1      32.996  36.927  32.350  1.00  0.00     0.175 S 
ATOM     27  C   UNL A   1      33.955  36.601  33.811  1.00  0.00     0.163 C 
ATOM     28  O   UNL A   1      33.430  38.150  31.749  1.00  0.00    -0.224 OA
ATOM     29  O   UNL A   1      31.586  36.720  32.706  1.00  0.00    -0.224 OA
ENDBRANCH  25  26
ENDBRANCH  13  20
ENDBRANCH   7   8
ENDBRANCH   5   7
ENDBRANCH   4   5
ENDBRANCH   3   4
ENDBRANCH   2   3
ENDBRANCH   1   2
BRANCH   1  30
ATOM     30  C   UNL A   1      35.604  23.307  24.960  1.00  0.00     0.202 C 
BRANCH  30  31
ATOM     31  C   UNL A   1      36.860  23.240  25.873  1.00  0.00     0.261 C 
BRANCH  31  32
ATOM     32  O   UNL A   1      37.767  24.425  25.881  1.00  0.00    -0.460 OA
BRANCH  32  33
ATOM     33  C   UNL A   1      38.751  24.392  26.861  1.00  0.00     0.338 C 
ATOM     34  O   UNL A   1      38.462  24.243  28.043  1.00  0.00    -0.246 OA
BRANCH  33  35
ATOM     35  C   UNL A   1      40.244  24.516  26.476  1.00  0.00     0.060 A 
ATOM     36  C   UNL A   1      41.174  23.698  27.103  1.00  0.00     0.016 A 
ATOM     37  C   UNL A   1      40.829  25.624  25.810  1.00  0.00     0.016 A 
ATOM     38  C   UNL A   1      42.598  23.955  27.019  1.00  0.00     0.010 A 
ATOM     39  C   UNL A   1      42.289  25.915  25.778  1.00  0.00     0.010 A 
ATOM     40  C   UNL A   1      43.247  25.098  26.403  1.00  0.00    -0.014 A 
BRANCH  40  41
ATOM     41  C   UNL A   1      44.795  25.467  26.894  1.00  0.00     0.031 A 
ATOM     42  C   UNL A   1      44.698  25.280  28.373  1.00  0.00     0.074 A 
ATOM     43  C   UNL A   1      46.059  25.962  26.507  1.00  0.00     0.049 A 
ATOM     44  N   UNL A   1      43.772  25.908  29.045  1.00  0.00    -0.248 NA
ATOM     45  C   UNL A   1      45.290  24.139  29.073  1.00  0.00     0.031 C 
ATOM     46  C   UNL A   1      46.487  26.450  25.182  1.00  0.00     0.029 A 
ATOM     47  N   UNL A   1      47.308  26.165  27.225  1.00  0.00    -0.354 N 
ATOM     48  C   UNL A   1      43.884  25.479  30.340  1.00  0.00     0.074 A 
ATOM     49  C   UNL A   1      44.650  24.242  30.244  1.00  0.00     0.031 C 
ATOM     50  C   UNL A   1      47.827  26.734  25.136  1.00  0.00     0.029 A 
ATOM     51  C   UNL A   1      48.472  26.546  26.438  1.00  0.00     0.049 A 
ATOM     52  H   UNL A   1      47.363  26.049  28.202  1.00  0.00     0.167 HD
ATOM     53  C   UNL A   1      43.952  26.452  31.294  1.00  0.00     0.034 A 
ATOM     54  C   UNL A   1      49.819  26.775  26.776  1.00  0.00     0.034 A 
ATOM     55  C   UNL A   1      45.293  26.610  31.789  1.00  0.00     0.049 A 
ATOM     56  C   UNL A   1      49.863  27.152  28.190  1.00  0.00     0.074 A 
ATOM     57  C   UNL A   1      46.277  25.722  32.175  1.00  0.00     0.029 A 
ATOM     58  N   UNL A   1      45.936  27.785  31.456  1.00  0.00    -0.354 N 
ATOM     59  N   UNL A   1      49.504  28.327  28.596  1.00  0.00    -0.248 NA
ATOM     60  C   UNL A   1      50.371  26.256  29.222  1.00  0.00     0.031 C 
ATOM     61  C   UNL A   1      47.454  26.203  31.551  1.00  0.00     0.029 A 
ATOM     62  C   UNL A   1      47.249  27.515  31.133  1.00  0.00     0.049 A 
ATOM     63  H   UNL A   1      45.520  28.677  31.450  1.00  0.00     0.167 HD
ATOM     64  C   UNL A   1      49.214  28.112  29.907  1.00  0.00     0.074 A 
ATOM     65  C   UNL A   1      50.013  26.966  30.295  1.00  0.00     0.031 C 
ATOM     66  C   UNL A   1      47.980  28.481  30.331  1.00  0.00     0.034 A 
BRANCH  53  67
ATOM     67  C   UNL A   1      42.995  27.601  31.092  1.00  0.00     0.023 A 
ATOM     68  C   UNL A   1      42.248  27.676  29.910  1.00  0.00     0.031 A 
ATOM     69  C   UNL A   1      42.873  28.666  32.014  1.00  0.00     0.131 A 
ATOM     70  C   UNL A   1      41.469  28.819  29.651  1.00  0.00     0.055 A 
ATOM     71  C   UNL A   1      42.156  29.823  31.723  1.00  0.00     0.041 A 
ATOM     72  F   UNL A   1      43.439  28.588  33.230  1.00  0.00    -0.206 F 
ATOM     73  C   UNL A   1      41.454  29.909  30.527  1.00  0.00     0.022 A 
BRANCH  70  74
ATOM     74  S   UNL A   1      40.422  28.839  28.170  1.00  0.00     0.124 S 
ATOM     75  O   UNL A   1      39.647  30.064  28.347  1.00  0.00    -0.237 OA
ATOM     76  O   UNL A   1      41.409  28.869  27.095  1.00  0.00    -0.237 OA
ATOM     77  O   UNL A   1      39.654  27.599  28.268  1.00  0.00    -0.744 OA
ENDBRANCH  70  74
ENDBRANCH  53  67
BRANCH  54  78
ATOM     78  C   UNL A   1      51.265  26.922  26.180  1.00  0.00     0.023 A 
ATOM     79  C   UNL A   1      52.333  25.955  26.416  1.00  0.00     0.031 A 
ATOM     80  C   UNL A   1      51.489  27.755  25.076  1.00  0.00     0.131 A 
ATOM     81  C   UNL A   1      53.481  25.841  25.569  1.00  0.00     0.055 A 
ATOM     82  C   UNL A   1      52.634  27.643  24.246  1.00  0.00     0.041 A 
ATOM     83  F   UNL A   1      50.551  28.632  24.695  1.00  0.00    -0.206 F 
ATOM     84  C   UNL A   1      53.620  26.686  24.476  1.00  0.00     0.022 A 
BRANCH  81  85
ATOM     85  S   UNL A   1      54.745  24.497  25.754  1.00  0.00     0.124 S 
ATOM     86  O   UNL A   1      55.772  24.872  24.792  1.00  0.00    -0.237 OA
ATOM     87  O   UNL A   1      55.106  24.586  27.165  1.00  0.00    -0.237 OA
ATOM     88  O   UNL A   1      54.009  23.278  25.405  1.00  0.00    -0.744 OA
ENDBRANCH  81  85
ENDBRANCH  54  78
BRANCH  66  89
ATOM     89  C   UNL A   1      47.399  29.783  29.764  1.00  0.00     0.023 A 
ATOM     90  C   UNL A   1      46.640  29.923  28.569  1.00  0.00     0.031 A 
ATOM     91  C   UNL A   1      47.699  30.973  30.447  1.00  0.00     0.131 A 
ATOM     92  C   UNL A   1      46.254  31.195  28.094  1.00  0.00     0.055 A 
ATOM     93  C   UNL A   1      47.273  32.227  30.005  1.00  0.00     0.041 A 
ATOM     94  F   UNL A   1      48.422  30.937  31.577  1.00  0.00    -0.206 F 
ATOM     95  C   UNL A   1      46.564  32.345  28.817  1.00  0.00     0.022 A 
BRANCH  92  96
ATOM     96  S   UNL A   1      45.416  31.372  26.480  1.00  0.00     0.124 S 
ATOM     97  O   UNL A   1      44.153  30.671  26.674  1.00  0.00    -0.237 OA
ATOM     98  O   UNL A   1      45.322  32.822  26.321  1.00  0.00    -0.237 OA
ATOM     99  O   UNL A   1      46.334  30.718  25.544  1.00  0.00    -0.744 OA
ENDBRANCH  92  96
ENDBRANCH  66  89
ENDBRANCH  40  41
ENDBRANCH  33  35
ENDBRANCH  32  33
ENDBRANCH  31  32
ENDBRANCH  30  31
ENDBRANCH   1  30
TORSDOF 21
ENDMDL
