MODEL 1
REMARK VINA RESULT:     -10.9      0.000      0.000
REMARK SMILES CCc1cc(Oc2cncc(C(=O)OCCOCCOC(=O)c3ccc(-c4c5nc(c(-c6cc(S(=O)(=O)[O-])ccc6F)c6ccc([nH]6)c(-c6cc(S(=O)(=O)[O-])ccc6F)c6nc(c(-c7cc(S(=O)(=O)[O-])ccc7F)c7ccc4[nH]7)C=C6)C=C5)cc3)n2)ccc1Cl
REMARK SMILES IDX 17 1 16 2 15 3 14 4 12 5 13 6 11 7 7 8 8 9 86 10 9 11 10 12
REMARK SMILES IDX 6 13 5 14 3 15 4 16 89 17 88 18 90 19 87 20 2 21 1 22 18 23
REMARK SMILES IDX 19 24 20 25 21 26 22 27 23 28 24 29 85 30 25 31 84 32 26 33
REMARK SMILES IDX 27 34 28 35 78 36 29 37 83 38 77 39 79 40 30 41 82 42 76 43
REMARK SMILES IDX 75 44 31 46 63 47 43 48 62 49 44 50 47 51 61 52 80 53 45 54
REMARK SMILES IDX 46 55 60 57 81 58 48 59 32 60 33 61 41 62 34 63 40 64 42 65
REMARK SMILES IDX 39 66 35 67 36 68 37 69 38 70 64 71 65 72 73 73 66 74 72 75
REMARK SMILES IDX 74 76 71 77 67 78 68 79 69 80 70 81 49 82 50 83 58 84 51 85
REMARK SMILES IDX 57 86 59 87 56 88 52 89 53 90 54 91 55 92
REMARK H PARENT 79 45 47 56
REMARK Flexibility Score: inf
ROOT
ATOM      1  O   UNL A   1      44.936  40.739  27.032  1.00  0.00    -0.374 OA
ENDROOT
BRANCH   1   2
ATOM      2  C   UNL A   1      44.073  41.114  25.958  1.00  0.00     0.202 C 
BRANCH   2   3
ATOM      3  C   UNL A   1      44.668  42.082  24.929  1.00  0.00     0.261 C 
BRANCH   3   4
ATOM      4  O   UNL A   1      43.933  42.050  23.694  1.00  0.00    -0.458 OA
BRANCH   4   5
ATOM      5  C   UNL A   1      44.460  42.786  22.684  1.00  0.00     0.358 C 
ATOM      6  O   UNL A   1      45.635  43.101  22.548  1.00  0.00    -0.244 OA
BRANCH   5   7
ATOM      7  C   UNL A   1      43.446  43.059  21.638  1.00  0.00     0.170 A 
ATOM      8  C   UNL A   1      42.825  43.669  19.511  1.00  0.00     0.238 A 
ATOM      9  C   UNL A   1      41.490  43.502  19.870  1.00  0.00     0.179 A 
ATOM     10  N   UNL A   1      43.831  43.437  20.390  1.00  0.00    -0.203 NA
ATOM     11  N   UNL A   1      41.097  43.176  21.127  1.00  0.00    -0.257 NA
ATOM     12  C   UNL A   1      42.110  42.953  22.000  1.00  0.00     0.147 A 
BRANCH   8  13
ATOM     13  O   UNL A   1      43.236  43.946  18.229  1.00  0.00    -0.437 OA
BRANCH  13  14
ATOM     14  C   UNL A   1      43.203  45.233  17.739  1.00  0.00     0.129 A 
ATOM     15  C   UNL A   1      44.592  47.165  17.127  1.00  0.00    -0.026 A 
ATOM     16  C   UNL A   1      44.459  45.827  17.550  1.00  0.00     0.052 A 
ATOM     17  C   UNL A   1      43.420  47.883  16.845  1.00  0.00     0.044 A 
ATOM     18  C   UNL A   1      42.164  47.297  17.041  1.00  0.00     0.024 A 
ATOM     19  Cl  UNL A   1      43.441  49.508  16.256  1.00  0.00    -0.084 Cl
ATOM     20  C   UNL A   1      42.053  45.987  17.515  1.00  0.00     0.049 A 
BRANCH  15  21
ATOM     21  C   UNL A   1      45.980  47.758  17.004  1.00  0.00     0.034 C 
ATOM     22  C   UNL A   1      47.054  46.712  16.719  1.00  0.00     0.009 C 
ENDBRANCH  15  21
ENDBRANCH  13  14
ENDBRANCH   8  13
ENDBRANCH   5   7
ENDBRANCH   4   5
ENDBRANCH   3   4
ENDBRANCH   2   3
ENDBRANCH   1   2
BRANCH   1  23
ATOM     23  C   UNL A   1      44.703  39.460  27.627  1.00  0.00     0.202 C 
BRANCH  23  24
ATOM     24  C   UNL A   1      45.520  38.283  27.081  1.00  0.00     0.261 C 
BRANCH  24  25
ATOM     25  O   UNL A   1      46.342  37.679  28.095  1.00  0.00    -0.460 OA
BRANCH  25  26
ATOM     26  C   UNL A   1      45.664  37.178  29.156  1.00  0.00     0.338 C 
ATOM     27  O   UNL A   1      45.189  37.817  30.088  1.00  0.00    -0.246 OA
BRANCH  26  28
ATOM     28  C   UNL A   1      45.394  35.743  28.952  1.00  0.00     0.060 A 
ATOM     29  C   UNL A   1      44.752  35.366  27.765  1.00  0.00     0.016 A 
ATOM     30  C   UNL A   1      45.714  34.786  29.919  1.00  0.00     0.016 A 
ATOM     31  C   UNL A   1      44.387  34.038  27.559  1.00  0.00     0.010 A 
ATOM     32  C   UNL A   1      45.338  33.454  29.712  1.00  0.00     0.010 A 
ATOM     33  C   UNL A   1      44.647  33.078  28.545  1.00  0.00    -0.014 A 
BRANCH  33  34
ATOM     34  C   UNL A   1      44.075  31.714  28.417  1.00  0.00     0.031 A 
ATOM     35  C   UNL A   1      44.832  30.678  27.632  1.00  0.00     0.074 A 
ATOM     36  C   UNL A   1      42.911  31.396  29.012  1.00  0.00     0.049 A 
ATOM     37  N   UNL A   1      44.494  29.451  27.332  1.00  0.00    -0.248 NA
ATOM     38  C   UNL A   1      46.148  31.084  27.116  1.00  0.00     0.031 C 
ATOM     39  C   UNL A   1      42.116  32.299  29.845  1.00  0.00     0.029 A 
ATOM     40  N   UNL A   1      42.191  30.228  29.002  1.00  0.00    -0.354 N 
ATOM     41  C   UNL A   1      45.553  28.937  26.590  1.00  0.00     0.074 A 
ATOM     42  C   UNL A   1      46.526  30.000  26.455  1.00  0.00     0.031 C 
ATOM     43  C   UNL A   1      41.013  31.652  30.258  1.00  0.00     0.029 A 
ATOM     44  C   UNL A   1      40.998  30.308  29.683  1.00  0.00     0.049 A 
ATOM     45  H   UNL A   1      42.499  29.410  28.550  1.00  0.00     0.167 HD
ATOM     46  C   UNL A   1      45.703  27.690  26.078  1.00  0.00     0.034 A 
ATOM     47  C   UNL A   1      39.997  29.411  29.800  1.00  0.00     0.034 A 
ATOM     48  C   UNL A   1      44.717  26.644  26.209  1.00  0.00     0.049 A 
ATOM     49  C   UNL A   1      40.139  28.066  29.125  1.00  0.00     0.074 A 
ATOM     50  C   UNL A   1      44.767  25.347  25.730  1.00  0.00     0.029 A 
ATOM     51  N   UNL A   1      43.495  26.780  26.855  1.00  0.00    -0.354 N 
ATOM     52  N   UNL A   1      41.142  27.593  28.423  1.00  0.00    -0.248 NA
ATOM     53  C   UNL A   1      39.012  27.134  29.264  1.00  0.00     0.031 C 
ATOM     54  C   UNL A   1      43.550  24.723  26.024  1.00  0.00     0.029 A 
ATOM     55  C   UNL A   1      42.770  25.602  26.757  1.00  0.00     0.049 A 
ATOM     56  H   UNL A   1      43.188  27.594  27.316  1.00  0.00     0.167 HD
ATOM     57  C   UNL A   1      40.779  26.296  28.066  1.00  0.00     0.074 A 
ATOM     58  C   UNL A   1      39.473  26.058  28.644  1.00  0.00     0.031 C 
ATOM     59  C   UNL A   1      41.462  25.381  27.331  1.00  0.00     0.034 A 
BRANCH  46  60
ATOM     60  C   UNL A   1      46.957  27.411  25.285  1.00  0.00     0.023 A 
ATOM     61  C   UNL A   1      47.105  27.843  23.955  1.00  0.00     0.031 A 
ATOM     62  C   UNL A   1      48.015  26.685  25.862  1.00  0.00     0.131 A 
ATOM     63  C   UNL A   1      48.253  27.492  23.229  1.00  0.00     0.055 A 
ATOM     64  C   UNL A   1      49.187  26.404  25.158  1.00  0.00     0.041 A 
ATOM     65  F   UNL A   1      47.921  26.226  27.120  1.00  0.00    -0.206 F 
ATOM     66  C   UNL A   1      49.305  26.797  23.828  1.00  0.00     0.022 A 
BRANCH  63  67
ATOM     67  S   UNL A   1      48.293  27.838  21.449  1.00  0.00     0.124 S 
ATOM     68  O   UNL A   1      46.927  28.297  21.206  1.00  0.00    -0.237 OA
ATOM     69  O   UNL A   1      49.335  28.852  21.348  1.00  0.00    -0.237 OA
ATOM     70  O   UNL A   1      48.622  26.543  20.855  1.00  0.00    -0.744 OA
ENDBRANCH  63  67
ENDBRANCH  46  60
BRANCH  47  71
ATOM     71  C   UNL A   1      38.748  29.757  30.538  1.00  0.00     0.023 A 
ATOM     72  C   UNL A   1      37.765  30.574  29.958  1.00  0.00     0.031 A 
ATOM     73  C   UNL A   1      38.552  29.336  31.866  1.00  0.00     0.131 A 
ATOM     74  C   UNL A   1      36.661  30.990  30.719  1.00  0.00     0.055 A 
ATOM     75  C   UNL A   1      37.423  29.702  32.599  1.00  0.00     0.041 A 
ATOM     76  F   UNL A   1      39.463  28.557  32.473  1.00  0.00    -0.206 F 
ATOM     77  C   UNL A   1      36.476  30.548  32.031  1.00  0.00     0.022 A 
BRANCH  74  78
ATOM     78  S   UNL A   1      35.521  32.205  30.003  1.00  0.00     0.124 S 
ATOM     79  O   UNL A   1      34.527  32.339  31.060  1.00  0.00    -0.237 OA
ATOM     80  O   UNL A   1      36.396  33.354  29.794  1.00  0.00    -0.237 OA
ATOM     81  O   UNL A   1      35.051  31.553  28.783  1.00  0.00    -0.744 OA
ENDBRANCH  74  78
ENDBRANCH  47  71
BRANCH  59  82
ATOM     82  C   UNL A   1      40.825  24.024  27.155  1.00  0.00     0.023 A 
ATOM     83  C   UNL A   1      39.694  23.834  26.340  1.00  0.00     0.031 A 
ATOM     84  C   UNL A   1      41.349  22.904  27.825  1.00  0.00     0.131 A 
ATOM     85  C   UNL A   1      39.093  22.569  26.261  1.00  0.00     0.055 A 
ATOM     86  C   UNL A   1      40.784  21.635  27.693  1.00  0.00     0.041 A 
ATOM     87  F   UNL A   1      42.426  23.025  28.619  1.00  0.00    -0.206 F 
ATOM     88  C   UNL A   1      39.642  21.465  26.918  1.00  0.00     0.022 A 
BRANCH  85  89
ATOM     89  S   UNL A   1      37.526  22.403  25.361  1.00  0.00     0.124 S 
ATOM     90  O   UNL A   1      36.581  22.144  26.442  1.00  0.00    -0.237 OA
ATOM     91  O   UNL A   1      37.404  23.699  24.704  1.00  0.00    -0.237 OA
ATOM     92  O   UNL A   1      37.765  21.274  24.463  1.00  0.00    -0.744 OA
ENDBRANCH  85  89
ENDBRANCH  59  82
ENDBRANCH  33  34
ENDBRANCH  26  28
ENDBRANCH  25  26
ENDBRANCH  24  25
ENDBRANCH  23  24
ENDBRANCH   1  23
TORSDOF 20
ENDMDL
MODEL 2
REMARK VINA RESULT:     -10.9      9.728     15.320
REMARK SMILES CCc1cc(Oc2cncc(C(=O)OCCOCCOC(=O)c3ccc(-c4c5nc(c(-c6cc(S(=O)(=O)[O-])ccc6F)c6ccc([nH]6)c(-c6cc(S(=O)(=O)[O-])ccc6F)c6nc(c(-c7cc(S(=O)(=O)[O-])ccc7F)c7ccc4[nH]7)C=C6)C=C5)cc3)n2)ccc1Cl
REMARK SMILES IDX 17 1 16 2 15 3 14 4 12 5 13 6 11 7 7 8 8 9 86 10 9 11 10 12
REMARK SMILES IDX 6 13 5 14 3 15 4 16 89 17 88 18 90 19 87 20 2 21 1 22 18 23
REMARK SMILES IDX 19 24 20 25 21 26 22 27 23 28 24 29 85 30 25 31 84 32 26 33
REMARK SMILES IDX 27 34 28 35 78 36 29 37 83 38 77 39 79 40 30 41 82 42 76 43
REMARK SMILES IDX 75 44 31 46 63 47 43 48 62 49 44 50 47 51 61 52 80 53 45 54
REMARK SMILES IDX 46 55 60 57 81 58 48 59 32 60 33 61 41 62 34 63 40 64 42 65
REMARK SMILES IDX 39 66 35 67 36 68 37 69 38 70 64 71 65 72 73 73 66 74 72 75
REMARK SMILES IDX 74 76 71 77 67 78 68 79 69 80 70 81 49 82 50 83 58 84 51 85
REMARK SMILES IDX 57 86 59 87 56 88 52 89 53 90 54 91 55 92
REMARK H PARENT 79 45 47 56
REMARK Flexibility Score: inf
ROOT
ATOM      1  O   UNL A   1      32.584  31.129  27.621  1.00  0.00    -0.374 OA
ENDROOT
BRANCH   1   2
ATOM      2  C   UNL A   1      33.863  30.741  27.115  1.00  0.00     0.202 C 
BRANCH   2   3
ATOM      3  C   UNL A   1      33.972  29.297  26.613  1.00  0.00     0.261 C 
BRANCH   3   4
ATOM      4  O   UNL A   1      32.678  28.745  26.318  1.00  0.00    -0.458 OA
BRANCH   4   5
ATOM      5  C   UNL A   1      32.551  28.183  25.091  1.00  0.00     0.358 C 
ATOM      6  O   UNL A   1      32.977  28.633  24.036  1.00  0.00    -0.244 OA
BRANCH   5   7
ATOM      7  C   UNL A   1      31.941  26.835  25.183  1.00  0.00     0.170 A 
ATOM      8  C   UNL A   1      31.626  24.685  24.433  1.00  0.00     0.238 A 
ATOM      9  C   UNL A   1      30.761  24.457  25.502  1.00  0.00     0.179 A 
ATOM     10  N   UNL A   1      32.242  25.880  24.262  1.00  0.00    -0.203 NA
ATOM     11  N   UNL A   1      30.417  25.419  26.393  1.00  0.00    -0.257 NA
ATOM     12  C   UNL A   1      31.034  26.613  26.209  1.00  0.00     0.147 A 
BRANCH   8  13
ATOM     13  O   UNL A   1      32.023  23.704  23.557  1.00  0.00    -0.437 OA
BRANCH  13  14
ATOM     14  C   UNL A   1      32.937  22.745  23.935  1.00  0.00     0.129 A 
ATOM     15  C   UNL A   1      35.334  22.272  24.192  1.00  0.00    -0.026 A 
ATOM     16  C   UNL A   1      34.276  23.159  23.906  1.00  0.00     0.052 A 
ATOM     17  C   UNL A   1      35.007  20.959  24.562  1.00  0.00     0.044 A 
ATOM     18  C   UNL A   1      33.671  20.539  24.583  1.00  0.00     0.024 A 
ATOM     19  Cl  UNL A   1      36.201  19.789  25.001  1.00  0.00    -0.084 Cl
ATOM     20  C   UNL A   1      32.640  21.419  24.241  1.00  0.00     0.049 A 
BRANCH  15  21
ATOM     21  C   UNL A   1      36.759  22.774  24.081  1.00  0.00     0.034 C 
ATOM     22  C   UNL A   1      37.152  23.712  25.219  1.00  0.00     0.009 C 
ENDBRANCH  15  21
ENDBRANCH  13  14
ENDBRANCH   8  13
ENDBRANCH   5   7
ENDBRANCH   4   5
ENDBRANCH   3   4
ENDBRANCH   2   3
ENDBRANCH   1   2
BRANCH   1  23
ATOM     23  C   UNL A   1      31.885  32.142  26.892  1.00  0.00     0.202 C 
BRANCH  23  24
ATOM     24  C   UNL A   1      32.477  33.556  26.929  1.00  0.00     0.261 C 
BRANCH  24  25
ATOM     25  O   UNL A   1      32.442  34.121  28.251  1.00  0.00    -0.460 OA
BRANCH  25  26
ATOM     26  C   UNL A   1      33.545  34.828  28.598  1.00  0.00     0.338 C 
ATOM     27  O   UNL A   1      33.624  36.044  28.730  1.00  0.00    -0.246 OA
BRANCH  26  28
ATOM     28  C   UNL A   1      34.630  33.910  28.994  1.00  0.00     0.060 A 
ATOM     29  C   UNL A   1      34.343  32.956  29.980  1.00  0.00     0.016 A 
ATOM     30  C   UNL A   1      35.915  34.008  28.456  1.00  0.00     0.016 A 
ATOM     31  C   UNL A   1      35.352  32.125  30.462  1.00  0.00     0.010 A 
ATOM     32  C   UNL A   1      36.927  33.177  28.949  1.00  0.00     0.010 A 
ATOM     33  C   UNL A   1      36.659  32.253  29.975  1.00  0.00    -0.014 A 
BRANCH  33  34
ATOM     34  C   UNL A   1      37.768  31.517  30.633  1.00  0.00     0.031 A 
ATOM     35  C   UNL A   1      38.134  31.868  32.050  1.00  0.00     0.074 A 
ATOM     36  C   UNL A   1      38.422  30.535  29.987  1.00  0.00     0.049 A 
ATOM     37  N   UNL A   1      39.105  31.409  32.796  1.00  0.00    -0.248 NA
ATOM     38  C   UNL A   1      37.288  32.874  32.712  1.00  0.00     0.031 C 
ATOM     39  C   UNL A   1      38.119  30.068  28.634  1.00  0.00     0.029 A 
ATOM     40  N   UNL A   1      39.481  29.757  30.382  1.00  0.00    -0.354 N 
ATOM     41  C   UNL A   1      38.991  32.070  34.015  1.00  0.00     0.074 A 
ATOM     42  C   UNL A   1      37.879  32.988  33.891  1.00  0.00     0.031 C 
ATOM     43  C   UNL A   1      38.982  29.090  28.308  1.00  0.00     0.029 A 
ATOM     44  C   UNL A   1      39.925  28.893  29.407  1.00  0.00     0.049 A 
ATOM     45  H   UNL A   1      39.886  29.812  31.277  1.00  0.00     0.167 HD
ATOM     46  C   UNL A   1      39.739  31.917  35.135  1.00  0.00     0.034 A 
ATOM     47  C   UNL A   1      40.989  28.063  29.394  1.00  0.00     0.034 A 
ATOM     48  C   UNL A   1      40.855  31.006  35.237  1.00  0.00     0.049 A 
ATOM     49  C   UNL A   1      41.875  27.992  30.616  1.00  0.00     0.074 A 
ATOM     50  C   UNL A   1      41.679  30.771  36.324  1.00  0.00     0.029 A 
ATOM     51  N   UNL A   1      41.310  30.189  34.211  1.00  0.00    -0.354 N 
ATOM     52  N   UNL A   1      41.761  28.625  31.761  1.00  0.00    -0.248 NA
ATOM     53  C   UNL A   1      43.032  27.090  30.543  1.00  0.00     0.031 C 
ATOM     54  C   UNL A   1      42.675  29.869  35.933  1.00  0.00     0.029 A 
ATOM     55  C   UNL A   1      42.425  29.476  34.628  1.00  0.00     0.049 A 
ATOM     56  H   UNL A   1      40.902  30.125  33.317  1.00  0.00     0.167 HD
ATOM     57  C   UNL A   1      42.812  28.170  32.554  1.00  0.00     0.074 A 
ATOM     58  C   UNL A   1      43.538  27.200  31.762  1.00  0.00     0.031 C 
ATOM     59  C   UNL A   1      43.147  28.518  33.823  1.00  0.00     0.034 A 
BRANCH  46  60
ATOM     60  C   UNL A   1      39.404  32.792  36.319  1.00  0.00     0.023 A 
ATOM     61  C   UNL A   1      39.992  34.057  36.496  1.00  0.00     0.031 A 
ATOM     62  C   UNL A   1      38.496  32.346  37.297  1.00  0.00     0.131 A 
ATOM     63  C   UNL A   1      39.716  34.802  37.652  1.00  0.00     0.055 A 
ATOM     64  C   UNL A   1      38.167  33.126  38.406  1.00  0.00     0.041 A 
ATOM     65  F   UNL A   1      37.922  31.137  37.195  1.00  0.00    -0.206 F 
ATOM     66  C   UNL A   1      38.789  34.356  38.596  1.00  0.00     0.022 A 
BRANCH  63  67
ATOM     67  S   UNL A   1      40.687  36.300  37.971  1.00  0.00     0.124 S 
ATOM     68  O   UNL A   1      41.239  36.582  36.648  1.00  0.00    -0.237 OA
ATOM     69  O   UNL A   1      39.677  37.234  38.454  1.00  0.00    -0.237 OA
ATOM     70  O   UNL A   1      41.666  35.868  38.968  1.00  0.00    -0.744 OA
ENDBRANCH  63  67
ENDBRANCH  46  60
BRANCH  47  71
ATOM     71  C   UNL A   1      41.318  27.267  28.176  1.00  0.00     0.023 A 
ATOM     72  C   UNL A   1      41.148  25.874  28.152  1.00  0.00     0.031 A 
ATOM     73  C   UNL A   1      41.880  27.880  27.042  1.00  0.00     0.131 A 
ATOM     74  C   UNL A   1      41.585  25.134  27.042  1.00  0.00     0.055 A 
ATOM     75  C   UNL A   1      42.257  27.148  25.916  1.00  0.00     0.041 A 
ATOM     76  F   UNL A   1      42.071  29.209  27.012  1.00  0.00    -0.206 F 
ATOM     77  C   UNL A   1      42.126  25.763  25.918  1.00  0.00     0.022 A 
BRANCH  74  78
ATOM     78  S   UNL A   1      41.535  23.323  27.131  1.00  0.00     0.124 S 
ATOM     79  O   UNL A   1      42.557  23.047  28.133  1.00  0.00    -0.237 OA
ATOM     80  O   UNL A   1      40.155  23.079  27.536  1.00  0.00    -0.237 OA
ATOM     81  O   UNL A   1      41.865  22.906  25.770  1.00  0.00    -0.744 OA
ENDBRANCH  74  78
ENDBRANCH  47  71
BRANCH  59  82
ATOM     82  C   UNL A   1      44.325  27.806  34.445  1.00  0.00     0.023 A 
ATOM     83  C   UNL A   1      44.174  26.600  35.151  1.00  0.00     0.031 A 
ATOM     84  C   UNL A   1      45.617  28.352  34.340  1.00  0.00     0.131 A 
ATOM     85  C   UNL A   1      45.285  26.009  35.773  1.00  0.00     0.055 A 
ATOM     86  C   UNL A   1      46.728  27.727  34.907  1.00  0.00     0.041 A 
ATOM     87  F   UNL A   1      45.821  29.504  33.679  1.00  0.00    -0.206 F 
ATOM     88  C   UNL A   1      46.564  26.556  35.639  1.00  0.00     0.022 A 
BRANCH  85  89
ATOM     89  S   UNL A   1      45.023  24.564  36.838  1.00  0.00     0.124 S 
ATOM     90  O   UNL A   1      44.441  23.603  35.906  1.00  0.00    -0.237 OA
ATOM     91  O   UNL A   1      46.373  24.266  37.300  1.00  0.00    -0.237 OA
ATOM     92  O   UNL A   1      44.111  25.059  37.867  1.00  0.00    -0.744 OA
ENDBRANCH  85  89
ENDBRANCH  59  82
ENDBRANCH  33  34
ENDBRANCH  26  28
ENDBRANCH  25  26
ENDBRANCH  24  25
ENDBRANCH  23  24
ENDBRANCH   1  23
TORSDOF 20
ENDMDL
MODEL 3
REMARK VINA RESULT:     -10.8      9.731     14.265
REMARK SMILES CCc1cc(Oc2cncc(C(=O)OCCOCCOC(=O)c3ccc(-c4c5nc(c(-c6cc(S(=O)(=O)[O-])ccc6F)c6ccc([nH]6)c(-c6cc(S(=O)(=O)[O-])ccc6F)c6nc(c(-c7cc(S(=O)(=O)[O-])ccc7F)c7ccc4[nH]7)C=C6)C=C5)cc3)n2)ccc1Cl
REMARK SMILES IDX 17 1 16 2 15 3 14 4 12 5 13 6 11 7 7 8 8 9 86 10 9 11 10 12
REMARK SMILES IDX 6 13 5 14 3 15 4 16 89 17 88 18 90 19 87 20 2 21 1 22 18 23
REMARK SMILES IDX 19 24 20 25 21 26 22 27 23 28 24 29 85 30 25 31 84 32 26 33
REMARK SMILES IDX 27 34 28 35 78 36 29 37 83 38 77 39 79 40 30 41 82 42 76 43
REMARK SMILES IDX 75 44 31 46 63 47 43 48 62 49 44 50 47 51 61 52 80 53 45 54
REMARK SMILES IDX 46 55 60 57 81 58 48 59 32 60 33 61 41 62 34 63 40 64 42 65
REMARK SMILES IDX 39 66 35 67 36 68 37 69 38 70 64 71 65 72 73 73 66 74 72 75
REMARK SMILES IDX 74 76 71 77 67 78 68 79 69 80 70 81 49 82 50 83 58 84 51 85
REMARK SMILES IDX 57 86 59 87 56 88 52 89 53 90 54 91 55 92
REMARK H PARENT 79 45 47 56
REMARK Flexibility Score: inf
ROOT
ATOM      1  O   UNL A   1      34.259  31.312  27.746  1.00  0.00    -0.374 OA
ENDROOT
BRANCH   1   2
ATOM      2  C   UNL A   1      34.438  29.988  27.240  1.00  0.00     0.202 C 
BRANCH   2   3
ATOM      3  C   UNL A   1      33.281  29.430  26.403  1.00  0.00     0.261 C 
BRANCH   3   4
ATOM      4  O   UNL A   1      33.129  28.014  26.598  1.00  0.00    -0.458 OA
BRANCH   4   5
ATOM      5  C   UNL A   1      31.862  27.544  26.492  1.00  0.00     0.358 C 
ATOM      6  O   UNL A   1      31.031  27.479  27.388  1.00  0.00    -0.244 OA
BRANCH   5   7
ATOM      7  C   UNL A   1      31.523  27.240  25.081  1.00  0.00     0.170 A 
ATOM      8  C   UNL A   1      31.458  25.845  23.256  1.00  0.00     0.238 A 
ATOM      9  C   UNL A   1      30.837  26.856  22.526  1.00  0.00     0.179 A 
ATOM     10  N   UNL A   1      31.802  26.017  24.555  1.00  0.00    -0.203 NA
ATOM     11  N   UNL A   1      30.602  28.094  23.028  1.00  0.00    -0.257 NA
ATOM     12  C   UNL A   1      30.957  28.258  24.327  1.00  0.00     0.147 A 
BRANCH   8  13
ATOM     13  O   UNL A   1      31.650  24.572  22.775  1.00  0.00    -0.437 OA
BRANCH  13  14
ATOM     14  C   UNL A   1      32.726  23.815  23.186  1.00  0.00     0.129 A 
ATOM     15  C   UNL A   1      33.377  21.725  24.300  1.00  0.00    -0.026 A 
ATOM     16  C   UNL A   1      32.395  22.580  23.760  1.00  0.00     0.052 A 
ATOM     17  C   UNL A   1      34.719  22.122  24.198  1.00  0.00     0.044 A 
ATOM     18  C   UNL A   1      35.053  23.360  23.634  1.00  0.00     0.024 A 
ATOM     19  Cl  UNL A   1      36.027  21.140  24.758  1.00  0.00    -0.084 Cl
ATOM     20  C   UNL A   1      34.059  24.218  23.156  1.00  0.00     0.049 A 
BRANCH  15  21
ATOM     21  C   UNL A   1      32.940  20.433  24.959  1.00  0.00     0.034 C 
ATOM     22  C   UNL A   1      32.557  19.350  23.955  1.00  0.00     0.009 C 
ENDBRANCH  15  21
ENDBRANCH  13  14
ENDBRANCH   8  13
ENDBRANCH   5   7
ENDBRANCH   4   5
ENDBRANCH   3   4
ENDBRANCH   2   3
ENDBRANCH   1   2
BRANCH   1  23
ATOM     23  C   UNL A   1      32.970  31.902  27.561  1.00  0.00     0.202 C 
BRANCH  23  24
ATOM     24  C   UNL A   1      32.918  33.430  27.443  1.00  0.00     0.261 C 
BRANCH  24  25
ATOM     25  O   UNL A   1      32.473  34.052  28.662  1.00  0.00    -0.460 OA
BRANCH  25  26
ATOM     26  C   UNL A   1      33.371  34.887  29.237  1.00  0.00     0.338 C 
ATOM     27  O   UNL A   1      33.201  36.070  29.508  1.00  0.00    -0.246 OA
BRANCH  26  28
ATOM     28  C   UNL A   1      34.553  34.127  29.685  1.00  0.00     0.060 A 
ATOM     29  C   UNL A   1      34.368  33.181  30.702  1.00  0.00     0.016 A 
ATOM     30  C   UNL A   1      35.827  34.365  29.164  1.00  0.00     0.016 A 
ATOM     31  C   UNL A   1      35.462  32.500  31.232  1.00  0.00     0.010 A 
ATOM     32  C   UNL A   1      36.925  33.686  29.704  1.00  0.00     0.010 A 
ATOM     33  C   UNL A   1      36.753  32.773  30.760  1.00  0.00    -0.014 A 
BRANCH  33  34
ATOM     34  C   UNL A   1      37.931  32.206  31.463  1.00  0.00     0.031 A 
ATOM     35  C   UNL A   1      38.692  31.079  30.818  1.00  0.00     0.074 A 
ATOM     36  C   UNL A   1      38.332  32.703  32.647  1.00  0.00     0.049 A 
ATOM     37  N   UNL A   1      39.703  30.388  31.276  1.00  0.00    -0.248 NA
ATOM     38  C   UNL A   1      38.248  30.679  29.473  1.00  0.00     0.031 C 
ATOM     39  C   UNL A   1      37.709  33.830  33.341  1.00  0.00     0.029 A 
ATOM     40  N   UNL A   1      39.356  32.321  33.476  1.00  0.00    -0.354 N 
ATOM     41  C   UNL A   1      40.017  29.470  30.279  1.00  0.00     0.074 A 
ATOM     42  C   UNL A   1      39.063  29.670  29.209  1.00  0.00     0.031 C 
ATOM     43  C   UNL A   1      38.360  34.041  34.499  1.00  0.00     0.029 A 
ATOM     44  C   UNL A   1      39.413  33.038  34.650  1.00  0.00     0.049 A 
ATOM     45  H   UNL A   1      39.989  31.601  33.254  1.00  0.00     0.167 HD
ATOM     46  C   UNL A   1      41.016  28.553  30.257  1.00  0.00     0.034 A 
ATOM     47  C   UNL A   1      40.203  32.881  35.732  1.00  0.00     0.034 A 
ATOM     48  C   UNL A   1      41.951  28.357  31.339  1.00  0.00     0.049 A 
ATOM     49  C   UNL A   1      41.236  31.778  35.728  1.00  0.00     0.074 A 
ATOM     50  C   UNL A   1      43.000  27.458  31.419  1.00  0.00     0.029 A 
ATOM     51  N   UNL A   1      41.942  29.062  32.535  1.00  0.00    -0.354 N 
ATOM     52  N   UNL A   1      41.522  30.912  34.782  1.00  0.00    -0.248 NA
ATOM     53  C   UNL A   1      42.056  31.634  36.939  1.00  0.00     0.031 C 
ATOM     54  C   UNL A   1      43.578  27.569  32.689  1.00  0.00     0.029 A 
ATOM     55  C   UNL A   1      42.944  28.594  33.373  1.00  0.00     0.049 A 
ATOM     56  H   UNL A   1      41.315  29.789  32.757  1.00  0.00     0.167 HD
ATOM     57  C   UNL A   1      42.576  30.146  35.274  1.00  0.00     0.074 A 
ATOM     58  C   UNL A   1      42.885  30.662  36.591  1.00  0.00     0.031 C 
ATOM     59  C   UNL A   1      43.234  29.112  34.690  1.00  0.00     0.034 A 
BRANCH  46  60
ATOM     60  C   UNL A   1      41.111  27.660  29.043  1.00  0.00     0.023 A 
ATOM     61  C   UNL A   1      42.083  27.863  28.047  1.00  0.00     0.031 A 
ATOM     62  C   UNL A   1      40.201  26.601  28.868  1.00  0.00     0.131 A 
ATOM     63  C   UNL A   1      42.083  27.062  26.896  1.00  0.00     0.055 A 
ATOM     64  C   UNL A   1      40.256  25.760  27.756  1.00  0.00     0.041 A 
ATOM     65  F   UNL A   1      39.236  26.374  29.772  1.00  0.00    -0.206 F 
ATOM     66  C   UNL A   1      41.193  25.996  26.754  1.00  0.00     0.022 A 
BRANCH  63  67
ATOM     67  S   UNL A   1      43.177  27.518  25.522  1.00  0.00     0.124 S 
ATOM     68  O   UNL A   1      42.258  28.227  24.636  1.00  0.00    -0.237 OA
ATOM     69  O   UNL A   1      44.188  28.335  26.181  1.00  0.00    -0.237 OA
ATOM     70  O   UNL A   1      43.648  26.229  25.017  1.00  0.00    -0.744 OA
ENDBRANCH  63  67
ENDBRANCH  46  60
BRANCH  47  71
ATOM     71  C   UNL A   1      40.027  33.746  36.935  1.00  0.00     0.023 A 
ATOM     72  C   UNL A   1      40.899  34.814  37.195  1.00  0.00     0.031 A 
ATOM     73  C   UNL A   1      39.027  33.469  37.884  1.00  0.00     0.131 A 
ATOM     74  C   UNL A   1      40.791  35.530  38.397  1.00  0.00     0.055 A 
ATOM     75  C   UNL A   1      38.884  34.223  39.050  1.00  0.00     0.041 A 
ATOM     76  F   UNL A   1      38.167  32.455  37.690  1.00  0.00    -0.206 F 
ATOM     77  C   UNL A   1      39.780  35.251  39.319  1.00  0.00     0.022 A 
BRANCH  74  78
ATOM     78  S   UNL A   1      42.059  36.767  38.787  1.00  0.00     0.124 S 
ATOM     79  O   UNL A   1      41.280  37.777  39.494  1.00  0.00    -0.237 OA
ATOM     80  O   UNL A   1      42.995  35.995  39.598  1.00  0.00    -0.237 OA
ATOM     81  O   UNL A   1      42.559  37.169  37.474  1.00  0.00    -0.744 OA
ENDBRANCH  74  78
ENDBRANCH  47  71
BRANCH  59  82
ATOM     82  C   UNL A   1      44.384  28.505  35.458  1.00  0.00     0.023 A 
ATOM     83  C   UNL A   1      44.189  27.478  36.399  1.00  0.00     0.031 A 
ATOM     84  C   UNL A   1      45.695  28.972  35.255  1.00  0.00     0.131 A 
ATOM     85  C   UNL A   1      45.277  26.993  37.140  1.00  0.00     0.055 A 
ATOM     86  C   UNL A   1      46.782  28.442  35.950  1.00  0.00     0.041 A 
ATOM     87  F   UNL A   1      45.942  29.954  34.371  1.00  0.00    -0.206 F 
ATOM     88  C   UNL A   1      46.574  27.455  36.909  1.00  0.00     0.022 A 
BRANCH  85  89
ATOM     89  S   UNL A   1      44.960  25.811  38.480  1.00  0.00     0.124 S 
ATOM     90  O   UNL A   1      43.940  26.504  39.261  1.00  0.00    -0.237 OA
ATOM     91  O   UNL A   1      44.512  24.628  37.755  1.00  0.00    -0.237 OA
ATOM     92  O   UNL A   1      46.260  25.680  39.136  1.00  0.00    -0.744 OA
ENDBRANCH  85  89
ENDBRANCH  59  82
ENDBRANCH  33  34
ENDBRANCH  26  28
ENDBRANCH  25  26
ENDBRANCH  24  25
ENDBRANCH  23  24
ENDBRANCH   1  23
TORSDOF 20
ENDMDL
