MODEL 1
REMARK VINA RESULT:     -10.2      0.000      0.000
REMARK SMILES CC(C)Cc1ccc([C@H](CF)C(=O)OCCOCCOC(=O)c2ccc(-c3c4nc(c(-c5cc(S(=O)(=O)[O-])ccc5F)c5ccc([nH]5)c(-c5cc(S(=O)(=O)[O-])ccc5F)c5nc(c(-c6cc(S(=O)(=O)[O-])ccc6F)c6ccc3[nH]6)C=C5)C=C4)cc2)cc1
REMARK SMILES IDX 17 1 16 2 15 3 14 4 12 5 13 6 9 7 8 8 5 9 6 10 87 11 7 12
REMARK SMILES IDX 86 13 4 14 2 15 1 16 3 17 10 18 11 19 18 20 19 21 20 22
REMARK SMILES IDX 21 23 22 24 23 25 24 26 85 27 25 28 84 29 26 30 27 31 28 32
REMARK SMILES IDX 78 33 29 34 83 35 77 36 79 37 30 38 82 39 76 40 75 41 31 43
REMARK SMILES IDX 63 44 43 45 62 46 44 47 47 48 61 49 80 50 45 51 46 52 60 54
REMARK SMILES IDX 81 55 48 56 32 57 33 58 41 59 34 60 40 61 42 62 39 63 35 64
REMARK SMILES IDX 36 65 37 66 38 67 64 68 65 69 73 70 66 71 72 72 74 73 71 74
REMARK SMILES IDX 67 75 68 76 69 77 70 78 49 79 50 80 58 81 51 82 57 83 59 84
REMARK SMILES IDX 56 85 52 86 53 87 54 88 55 89
REMARK H PARENT 79 42 47 53
REMARK Flexibility Score: inf
ROOT
ATOM      1  O   UNL A   1      33.238  30.359  26.874  1.00  0.00    -0.374 OA
ENDROOT
BRANCH   1   2
ATOM      2  C   UNL A   1      33.307  28.979  27.229  1.00  0.00     0.202 C 
BRANCH   2   3
ATOM      3  C   UNL A   1      33.814  28.003  26.162  1.00  0.00     0.261 C 
BRANCH   3   4
ATOM      4  O   UNL A   1      33.219  26.695  26.265  1.00  0.00    -0.463 OA
BRANCH   4   5
ATOM      5  C   UNL A   1      31.908  26.616  25.903  1.00  0.00     0.316 C 
ATOM      6  O   UNL A   1      30.975  26.476  26.688  1.00  0.00    -0.251 OA
BRANCH   5   7
ATOM      7  C   UNL A   1      31.706  26.695  24.395  1.00  0.00     0.160 C 
BRANCH   7   8
ATOM      8  C   UNL A   1      30.663  27.749  24.052  1.00  0.00    -0.031 A 
ATOM      9  C   UNL A   1      28.765  29.625  23.143  1.00  0.00    -0.048 A 
ATOM     10  C   UNL A   1      28.489  28.259  23.074  1.00  0.00     0.004 A 
ATOM     11  C   UNL A   1      29.950  30.050  23.750  1.00  0.00     0.004 A 
ATOM     12  C   UNL A   1      29.423  27.333  23.533  1.00  0.00     0.005 A 
ATOM     13  C   UNL A   1      30.888  29.122  24.203  1.00  0.00     0.005 A 
BRANCH   9  14
ATOM     14  C   UNL A   1      27.839  30.623  22.494  1.00  0.00     0.038 C 
BRANCH  14  15
ATOM     15  C   UNL A   1      28.604  31.738  21.751  1.00  0.00    -0.013 C 
ATOM     16  C   UNL A   1      27.978  32.071  20.394  1.00  0.00     0.008 C 
ATOM     17  C   UNL A   1      28.661  32.994  22.619  1.00  0.00     0.008 C 
ENDBRANCH  14  15
ENDBRANCH   9  14
ENDBRANCH   7   8
BRANCH   7  18
ATOM     18  C   UNL A   1      31.480  25.300  23.813  1.00  0.00     0.234 C 
ATOM     19  F   UNL A   1      32.092  24.377  24.611  1.00  0.00    -0.250 F 
ENDBRANCH   7  18
ENDBRANCH   5   7
ENDBRANCH   4   5
ENDBRANCH   3   4
ENDBRANCH   2   3
ENDBRANCH   1   2
BRANCH   1  20
ATOM     20  C   UNL A   1      31.987  31.026  27.006  1.00  0.00     0.202 C 
BRANCH  20  21
ATOM     21  C   UNL A   1      32.003  32.553  27.153  1.00  0.00     0.261 C 
BRANCH  21  22
ATOM     22  O   UNL A   1      33.330  33.092  27.300  1.00  0.00    -0.460 OA
BRANCH  22  23
ATOM     23  C   UNL A   1      33.434  34.059  28.245  1.00  0.00     0.338 C 
ATOM     24  O   UNL A   1      32.709  35.041  28.368  1.00  0.00    -0.246 OA
BRANCH  23  25
ATOM     25  C   UNL A   1      34.439  33.703  29.262  1.00  0.00     0.060 A 
ATOM     26  C   UNL A   1      35.759  34.108  29.024  1.00  0.00     0.016 A 
ATOM     27  C   UNL A   1      34.131  32.899  30.362  1.00  0.00     0.016 A 
ATOM     28  C   UNL A   1      36.786  33.665  29.854  1.00  0.00     0.010 A 
ATOM     29  C   UNL A   1      35.169  32.449  31.191  1.00  0.00     0.010 A 
ATOM     30  C   UNL A   1      36.505  32.798  30.919  1.00  0.00    -0.014 A 
BRANCH  30  31
ATOM     31  C   UNL A   1      37.635  32.151  31.635  1.00  0.00     0.031 A 
ATOM     32  C   UNL A   1      38.385  31.031  30.962  1.00  0.00     0.074 A 
ATOM     33  C   UNL A   1      38.035  32.601  32.838  1.00  0.00     0.049 A 
ATOM     34  N   UNL A   1      39.417  30.349  31.385  1.00  0.00    -0.248 NA
ATOM     35  C   UNL A   1      37.902  30.628  29.632  1.00  0.00     0.031 C 
ATOM     36  C   UNL A   1      37.419  33.707  33.570  1.00  0.00     0.029 A 
ATOM     37  N   UNL A   1      39.058  32.188  33.653  1.00  0.00    -0.354 N 
ATOM     38  C   UNL A   1      39.714  29.440  30.375  1.00  0.00     0.074 A 
ATOM     39  C   UNL A   1      38.722  29.631  29.337  1.00  0.00     0.031 C 
ATOM     40  C   UNL A   1      38.077  33.883  34.728  1.00  0.00     0.029 A 
ATOM     41  C   UNL A   1      39.140  32.885  34.836  1.00  0.00     0.049 A 
ATOM     42  H   UNL A   1      39.677  31.460  33.414  1.00  0.00     0.167 HD
ATOM     43  C   UNL A   1      40.726  28.539  30.312  1.00  0.00     0.034 A 
ATOM     44  C   UNL A   1      39.965  32.726  35.891  1.00  0.00     0.034 A 
ATOM     45  C   UNL A   1      41.702  28.350  31.358  1.00  0.00     0.049 A 
ATOM     46  C   UNL A   1      41.031  31.658  35.835  1.00  0.00     0.074 A 
ATOM     47  C   UNL A   1      42.776  27.477  31.388  1.00  0.00     0.029 A 
ATOM     48  N   UNL A   1      41.716  29.033  32.567  1.00  0.00    -0.354 N 
ATOM     49  N   UNL A   1      41.308  30.816  34.866  1.00  0.00    -0.248 NA
ATOM     50  C   UNL A   1      41.901  31.528  37.012  1.00  0.00     0.031 C 
ATOM     51  C   UNL A   1      43.394  27.582  32.640  1.00  0.00     0.029 A 
ATOM     52  C   UNL A   1      42.755  28.575  33.363  1.00  0.00     0.049 A 
ATOM     53  H   UNL A   1      41.079  29.740  32.822  1.00  0.00     0.167 HD
ATOM     54  C   UNL A   1      42.403  30.076  35.307  1.00  0.00     0.074 A 
ATOM     55  C   UNL A   1      42.742  30.582  36.623  1.00  0.00     0.031 C 
ATOM     56  C   UNL A   1      43.073  29.075  34.681  1.00  0.00     0.034 A 
BRANCH  43  57
ATOM     57  C   UNL A   1      40.791  27.655  29.089  1.00  0.00     0.023 A 
ATOM     58  C   UNL A   1      41.724  27.880  28.060  1.00  0.00     0.031 A 
ATOM     59  C   UNL A   1      39.888  26.588  28.937  1.00  0.00     0.131 A 
ATOM     60  C   UNL A   1      41.686  27.094  26.897  1.00  0.00     0.055 A 
ATOM     61  C   UNL A   1      39.906  25.762  27.812  1.00  0.00     0.041 A 
ATOM     62  F   UNL A   1      38.961  26.339  29.876  1.00  0.00    -0.206 F 
ATOM     63  C   UNL A   1      40.799  26.022  26.777  1.00  0.00     0.022 A 
BRANCH  60  64
ATOM     64  S   UNL A   1      42.718  27.579  25.487  1.00  0.00     0.124 S 
ATOM     65  O   UNL A   1      43.972  27.934  26.148  1.00  0.00    -0.237 OA
ATOM     66  O   UNL A   1      42.741  26.365  24.680  1.00  0.00    -0.237 OA
ATOM     67  O   UNL A   1      41.992  28.704  24.902  1.00  0.00    -0.744 OA
ENDBRANCH  60  64
ENDBRANCH  43  57
BRANCH  44  68
ATOM     68  C   UNL A   1      39.799  33.568  37.110  1.00  0.00     0.023 A 
ATOM     69  C   UNL A   1      40.603  34.697  37.333  1.00  0.00     0.031 A 
ATOM     70  C   UNL A   1      38.864  33.218  38.099  1.00  0.00     0.131 A 
ATOM     71  C   UNL A   1      40.485  35.411  38.537  1.00  0.00     0.055 A 
ATOM     72  C   UNL A   1      38.714  33.961  39.272  1.00  0.00     0.041 A 
ATOM     73  F   UNL A   1      38.072  32.146  37.936  1.00  0.00    -0.206 F 
ATOM     74  C   UNL A   1      39.538  35.058  39.501  1.00  0.00     0.022 A 
BRANCH  71  75
ATOM     75  S   UNL A   1      41.645  36.768  38.861  1.00  0.00     0.124 S 
ATOM     76  O   UNL A   1      40.738  37.854  39.217  1.00  0.00    -0.237 OA
ATOM     77  O   UNL A   1      42.451  36.222  39.948  1.00  0.00    -0.237 OA
ATOM     78  O   UNL A   1      42.344  36.930  37.588  1.00  0.00    -0.744 OA
ENDBRANCH  71  75
ENDBRANCH  44  68
BRANCH  56  79
ATOM     79  C   UNL A   1      44.266  28.491  35.399  1.00  0.00     0.023 A 
ATOM     80  C   UNL A   1      44.127  27.491  36.378  1.00  0.00     0.031 A 
ATOM     81  C   UNL A   1      45.563  28.951  35.105  1.00  0.00     0.131 A 
ATOM     82  C   UNL A   1      45.257  27.024  37.068  1.00  0.00     0.055 A 
ATOM     83  C   UNL A   1      46.689  28.441  35.752  1.00  0.00     0.041 A 
ATOM     84  F   UNL A   1      45.756  29.904  34.180  1.00  0.00    -0.206 F 
ATOM     85  C   UNL A   1      46.539  27.480  36.749  1.00  0.00     0.022 A 
BRANCH  82  86
ATOM     86  S   UNL A   1      45.021  25.873  38.449  1.00  0.00     0.124 S 
ATOM     87  O   UNL A   1      46.395  25.622  38.873  1.00  0.00    -0.237 OA
ATOM     88  O   UNL A   1      44.203  26.654  39.371  1.00  0.00    -0.237 OA
ATOM     89  O   UNL A   1      44.345  24.732  37.834  1.00  0.00    -0.744 OA
ENDBRANCH  82  86
ENDBRANCH  56  79
ENDBRANCH  30  31
ENDBRANCH  23  25
ENDBRANCH  22  23
ENDBRANCH  21  22
ENDBRANCH  20  21
ENDBRANCH   1  20
TORSDOF 21
ENDMDL
MODEL 2
REMARK VINA RESULT:      -9.8      2.941      8.691
REMARK SMILES CC(C)Cc1ccc([C@H](CF)C(=O)OCCOCCOC(=O)c2ccc(-c3c4nc(c(-c5cc(S(=O)(=O)[O-])ccc5F)c5ccc([nH]5)c(-c5cc(S(=O)(=O)[O-])ccc5F)c5nc(c(-c6cc(S(=O)(=O)[O-])ccc6F)c6ccc3[nH]6)C=C5)C=C4)cc2)cc1
REMARK SMILES IDX 17 1 16 2 15 3 14 4 12 5 13 6 9 7 8 8 5 9 6 10 87 11 7 12
REMARK SMILES IDX 86 13 4 14 2 15 1 16 3 17 10 18 11 19 18 20 19 21 20 22
REMARK SMILES IDX 21 23 22 24 23 25 24 26 85 27 25 28 84 29 26 30 27 31 28 32
REMARK SMILES IDX 78 33 29 34 83 35 77 36 79 37 30 38 82 39 76 40 75 41 31 43
REMARK SMILES IDX 63 44 43 45 62 46 44 47 47 48 61 49 80 50 45 51 46 52 60 54
REMARK SMILES IDX 81 55 48 56 32 57 33 58 41 59 34 60 40 61 42 62 39 63 35 64
REMARK SMILES IDX 36 65 37 66 38 67 64 68 65 69 73 70 66 71 72 72 74 73 71 74
REMARK SMILES IDX 67 75 68 76 69 77 70 78 49 79 50 80 58 81 51 82 57 83 59 84
REMARK SMILES IDX 56 85 52 86 53 87 54 88 55 89
REMARK H PARENT 79 42 47 53
REMARK Flexibility Score: inf
ROOT
ATOM      1  O   UNL A   1      32.153  30.264  27.479  1.00  0.00    -0.374 OA
ENDROOT
BRANCH   1   2
ATOM      2  C   UNL A   1      32.320  28.907  27.070  1.00  0.00     0.202 C 
BRANCH   2   3
ATOM      3  C   UNL A   1      33.411  28.613  26.035  1.00  0.00     0.261 C 
BRANCH   3   4
ATOM      4  O   UNL A   1      32.995  27.671  25.028  1.00  0.00    -0.463 OA
BRANCH   4   5
ATOM      5  C   UNL A   1      32.068  28.130  24.141  1.00  0.00     0.316 C 
ATOM      6  O   UNL A   1      32.180  29.162  23.487  1.00  0.00    -0.251 OA
BRANCH   5   7
ATOM      7  C   UNL A   1      30.839  27.233  24.055  1.00  0.00     0.160 C 
BRANCH   7   8
ATOM      8  C   UNL A   1      31.236  25.824  23.639  1.00  0.00    -0.031 A 
ATOM      9  C   UNL A   1      32.098  23.190  23.123  1.00  0.00    -0.048 A 
ATOM     10  C   UNL A   1      31.103  23.429  24.072  1.00  0.00     0.004 A 
ATOM     11  C   UNL A   1      32.592  24.260  22.371  1.00  0.00     0.004 A 
ATOM     12  C   UNL A   1      30.670  24.730  24.319  1.00  0.00     0.005 A 
ATOM     13  C   UNL A   1      32.164  25.563  22.624  1.00  0.00     0.005 A 
BRANCH   9  14
ATOM     14  C   UNL A   1      32.692  21.812  22.973  1.00  0.00     0.038 C 
BRANCH  14  15
ATOM     15  C   UNL A   1      32.937  21.127  24.333  1.00  0.00    -0.013 C 
ATOM     16  C   UNL A   1      32.478  19.665  24.343  1.00  0.00     0.008 C 
ATOM     17  C   UNL A   1      34.421  21.207  24.693  1.00  0.00     0.008 C 
ENDBRANCH  14  15
ENDBRANCH   9  14
ENDBRANCH   7   8
BRANCH   7  18
ATOM     18  C   UNL A   1      29.745  27.904  23.224  1.00  0.00     0.234 C 
ATOM     19  F   UNL A   1      30.124  27.917  21.913  1.00  0.00    -0.250 F 
ENDBRANCH   7  18
ENDBRANCH   5   7
ENDBRANCH   4   5
ENDBRANCH   3   4
ENDBRANCH   2   3
ENDBRANCH   1   2
BRANCH   1  20
ATOM     20  C   UNL A   1      31.720  31.211  26.507  1.00  0.00     0.202 C 
BRANCH  20  21
ATOM     21  C   UNL A   1      31.692  32.690  26.914  1.00  0.00     0.261 C 
BRANCH  21  22
ATOM     22  O   UNL A   1      32.995  33.303  26.901  1.00  0.00    -0.460 OA
BRANCH  22  23
ATOM     23  C   UNL A   1      33.479  33.598  28.133  1.00  0.00     0.338 C 
ATOM     24  O   UNL A   1      32.898  34.222  29.016  1.00  0.00    -0.246 OA
BRANCH  23  25
ATOM     25  C   UNL A   1      34.760  32.914  28.380  1.00  0.00     0.060 A 
ATOM     26  C   UNL A   1      34.701  31.572  28.777  1.00  0.00     0.016 A 
ATOM     27  C   UNL A   1      35.983  33.587  28.340  1.00  0.00     0.016 A 
ATOM     28  C   UNL A   1      35.856  30.912  29.188  1.00  0.00     0.010 A 
ATOM     29  C   UNL A   1      37.144  32.922  28.762  1.00  0.00     0.010 A 
ATOM     30  C   UNL A   1      37.080  31.595  29.224  1.00  0.00    -0.014 A 
BRANCH  30  31
ATOM     31  C   UNL A   1      38.241  30.950  29.890  1.00  0.00     0.031 A 
ATOM     32  C   UNL A   1      38.545  31.290  31.326  1.00  0.00     0.074 A 
ATOM     33  C   UNL A   1      38.974  30.022  29.248  1.00  0.00     0.049 A 
ATOM     34  N   UNL A   1      39.484  30.826  32.110  1.00  0.00    -0.248 NA
ATOM     35  C   UNL A   1      37.670  32.288  31.960  1.00  0.00     0.031 C 
ATOM     36  C   UNL A   1      38.751  29.576  27.874  1.00  0.00     0.029 A 
ATOM     37  N   UNL A   1      40.051  29.283  29.671  1.00  0.00    -0.354 N 
ATOM     38  C   UNL A   1      39.311  31.468  33.332  1.00  0.00     0.074 A 
ATOM     39  C   UNL A   1      38.204  32.387  33.168  1.00  0.00     0.031 C 
ATOM     40  C   UNL A   1      39.665  28.640  27.566  1.00  0.00     0.029 A 
ATOM     41  C   UNL A   1      40.557  28.442  28.707  1.00  0.00     0.049 A 
ATOM     42  H   UNL A   1      40.426  29.348  30.579  1.00  0.00     0.167 HD
ATOM     43  C   UNL A   1      40.004  31.299  34.486  1.00  0.00     0.034 A 
ATOM     44  C   UNL A   1      41.626  27.620  28.736  1.00  0.00     0.034 A 
ATOM     45  C   UNL A   1      41.113  30.388  34.634  1.00  0.00     0.049 A 
ATOM     46  C   UNL A   1      42.435  27.512  30.006  1.00  0.00     0.074 A 
ATOM     47  C   UNL A   1      41.871  30.129  35.763  1.00  0.00     0.029 A 
ATOM     48  N   UNL A   1      41.635  29.598  33.618  1.00  0.00    -0.354 N 
ATOM     49  N   UNL A   1      42.250  28.115  31.158  1.00  0.00    -0.248 NA
ATOM     50  C   UNL A   1      43.589  26.604  29.981  1.00  0.00     0.031 C 
ATOM     51  C   UNL A   1      42.893  29.238  35.412  1.00  0.00     0.029 A 
ATOM     52  C   UNL A   1      42.727  28.880  34.084  1.00  0.00     0.049 A 
ATOM     53  H   UNL A   1      41.281  29.554  32.700  1.00  0.00     0.167 HD
ATOM     54  C   UNL A   1      43.250  27.636  32.002  1.00  0.00     0.074 A 
ATOM     55  C   UNL A   1      44.024  26.684  31.230  1.00  0.00     0.031 C 
ATOM     56  C   UNL A   1      43.502  27.946  33.299  1.00  0.00     0.034 A 
BRANCH  43  57
ATOM     57  C   UNL A   1      39.607  32.159  35.663  1.00  0.00     0.023 A 
ATOM     58  C   UNL A   1      38.772  31.676  36.687  1.00  0.00     0.031 A 
ATOM     59  C   UNL A   1      40.050  33.491  35.748  1.00  0.00     0.131 A 
ATOM     60  C   UNL A   1      38.351  32.539  37.711  1.00  0.00     0.055 A 
ATOM     61  C   UNL A   1      39.691  34.320  36.811  1.00  0.00     0.041 A 
ATOM     62  F   UNL A   1      40.832  34.013  34.790  1.00  0.00    -0.206 F 
ATOM     63  C   UNL A   1      38.823  33.851  37.793  1.00  0.00     0.022 A 
BRANCH  60  64
ATOM     64  S   UNL A   1      37.067  31.965  38.857  1.00  0.00     0.124 S 
ATOM     65  O   UNL A   1      37.683  32.244  40.152  1.00  0.00    -0.237 OA
ATOM     66  O   UNL A   1      35.927  32.799  38.497  1.00  0.00    -0.237 OA
ATOM     67  O   UNL A   1      36.930  30.546  38.535  1.00  0.00    -0.744 OA
ENDBRANCH  60  64
ENDBRANCH  43  57
BRANCH  44  68
ATOM     68  C   UNL A   1      42.025  26.861  27.516  1.00  0.00     0.023 A 
ATOM     69  C   UNL A   1      41.786  25.482  27.403  1.00  0.00     0.031 A 
ATOM     70  C   UNL A   1      42.704  27.501  26.465  1.00  0.00     0.131 A 
ATOM     71  C   UNL A   1      42.260  24.781  26.283  1.00  0.00     0.055 A 
ATOM     72  C   UNL A   1      43.129  26.810  25.329  1.00  0.00     0.041 A 
ATOM     73  F   UNL A   1      42.959  28.819  26.524  1.00  0.00    -0.206 F 
ATOM     74  C   UNL A   1      42.918  25.438  25.240  1.00  0.00     0.022 A 
BRANCH  71  75
ATOM     75  S   UNL A   1      42.073  22.977  26.242  1.00  0.00     0.124 S 
ATOM     76  O   UNL A   1      42.630  22.651  24.933  1.00  0.00    -0.237 OA
ATOM     77  O   UNL A   1      42.864  22.565  27.397  1.00  0.00    -0.237 OA
ATOM     78  O   UNL A   1      40.631  22.781  26.373  1.00  0.00    -0.744 OA
ENDBRANCH  71  75
ENDBRANCH  44  68
BRANCH  56  79
ATOM     79  C   UNL A   1      44.639  27.217  33.974  1.00  0.00     0.023 A 
ATOM     80  C   UNL A   1      45.946  27.735  33.990  1.00  0.00     0.031 A 
ATOM     81  C   UNL A   1      44.412  25.978  34.599  1.00  0.00     0.131 A 
ATOM     82  C   UNL A   1      46.986  26.992  34.571  1.00  0.00     0.055 A 
ATOM     83  C   UNL A   1      45.438  25.271  35.227  1.00  0.00     0.041 A 
ATOM     84  F   UNL A   1      43.185  25.435  34.613  1.00  0.00    -0.206 F 
ATOM     85  C   UNL A   1      46.738  25.771  35.204  1.00  0.00     0.022 A 
BRANCH  82  86
ATOM     86  S   UNL A   1      48.687  27.601  34.412  1.00  0.00     0.124 S 
ATOM     87  O   UNL A   1      49.216  27.380  35.754  1.00  0.00    -0.237 OA
ATOM     88  O   UNL A   1      49.231  26.744  33.364  1.00  0.00    -0.237 OA
ATOM     89  O   UNL A   1      48.516  29.004  34.038  1.00  0.00    -0.744 OA
ENDBRANCH  82  86
ENDBRANCH  56  79
ENDBRANCH  30  31
ENDBRANCH  23  25
ENDBRANCH  22  23
ENDBRANCH  21  22
ENDBRANCH  20  21
ENDBRANCH   1  20
TORSDOF 21
ENDMDL
MODEL 3
REMARK VINA RESULT:      -9.8      5.900     10.975
REMARK SMILES CC(C)Cc1ccc([C@H](CF)C(=O)OCCOCCOC(=O)c2ccc(-c3c4nc(c(-c5cc(S(=O)(=O)[O-])ccc5F)c5ccc([nH]5)c(-c5cc(S(=O)(=O)[O-])ccc5F)c5nc(c(-c6cc(S(=O)(=O)[O-])ccc6F)c6ccc3[nH]6)C=C5)C=C4)cc2)cc1
REMARK SMILES IDX 17 1 16 2 15 3 14 4 12 5 13 6 9 7 8 8 5 9 6 10 87 11 7 12
REMARK SMILES IDX 86 13 4 14 2 15 1 16 3 17 10 18 11 19 18 20 19 21 20 22
REMARK SMILES IDX 21 23 22 24 23 25 24 26 85 27 25 28 84 29 26 30 27 31 28 32
REMARK SMILES IDX 78 33 29 34 83 35 77 36 79 37 30 38 82 39 76 40 75 41 31 43
REMARK SMILES IDX 63 44 43 45 62 46 44 47 47 48 61 49 80 50 45 51 46 52 60 54
REMARK SMILES IDX 81 55 48 56 32 57 33 58 41 59 34 60 40 61 42 62 39 63 35 64
REMARK SMILES IDX 36 65 37 66 38 67 64 68 65 69 73 70 66 71 72 72 74 73 71 74
REMARK SMILES IDX 67 75 68 76 69 77 70 78 49 79 50 80 58 81 51 82 57 83 59 84
REMARK SMILES IDX 56 85 52 86 53 87 54 88 55 89
REMARK H PARENT 79 42 47 53
REMARK Flexibility Score: inf
ROOT
ATOM      1  O   UNL A   1      37.237  21.553  25.587  1.00  0.00    -0.374 OA
ENDROOT
BRANCH   1   2
ATOM      2  C   UNL A   1      37.130  22.765  24.844  1.00  0.00     0.202 C 
BRANCH   2   3
ATOM      3  C   UNL A   1      36.618  22.664  23.402  1.00  0.00     0.261 C 
BRANCH   3   4
ATOM      4  O   UNL A   1      35.407  23.411  23.180  1.00  0.00    -0.463 OA
BRANCH   4   5
ATOM      5  C   UNL A   1      34.251  22.763  23.496  1.00  0.00     0.316 C 
ATOM      6  O   UNL A   1      34.186  21.747  24.180  1.00  0.00    -0.251 OA
BRANCH   5   7
ATOM      7  C   UNL A   1      33.020  23.422  22.884  1.00  0.00     0.160 C 
BRANCH   7   8
ATOM      8  C   UNL A   1      32.834  24.825  23.442  1.00  0.00    -0.031 A 
ATOM      9  C   UNL A   1      32.255  27.327  24.606  1.00  0.00    -0.048 A 
ATOM     10  C   UNL A   1      32.672  26.261  25.405  1.00  0.00     0.004 A 
ATOM     11  C   UNL A   1      32.218  27.163  23.218  1.00  0.00     0.004 A 
ATOM     12  C   UNL A   1      32.968  25.028  24.828  1.00  0.00     0.005 A 
ATOM     13  C   UNL A   1      32.508  25.926  22.642  1.00  0.00     0.005 A 
BRANCH   9  14
ATOM     14  C   UNL A   1      31.770  28.607  25.237  1.00  0.00     0.038 C 
BRANCH  14  15
ATOM     15  C   UNL A   1      32.366  28.831  26.643  1.00  0.00    -0.013 C 
ATOM     16  C   UNL A   1      32.636  30.311  26.934  1.00  0.00     0.008 C 
ATOM     17  C   UNL A   1      31.425  28.258  27.702  1.00  0.00     0.008 C 
ENDBRANCH  14  15
ENDBRANCH   9  14
ENDBRANCH   7   8
BRANCH   7  18
ATOM     18  C   UNL A   1      31.814  22.488  22.978  1.00  0.00     0.234 C 
ATOM     19  F   UNL A   1      30.676  23.235  23.089  1.00  0.00    -0.250 F 
ENDBRANCH   7  18
ENDBRANCH   5   7
ENDBRANCH   4   5
ENDBRANCH   3   4
ENDBRANCH   2   3
ENDBRANCH   1   2
BRANCH   1  20
ATOM     20  C   UNL A   1      37.374  20.332  24.867  1.00  0.00     0.202 C 
BRANCH  20  21
ATOM     21  C   UNL A   1      38.611  19.469  25.151  1.00  0.00     0.261 C 
BRANCH  21  22
ATOM     22  O   UNL A   1      39.227  19.766  26.417  1.00  0.00    -0.460 OA
BRANCH  22  23
ATOM     23  C   UNL A   1      40.543  20.081  26.332  1.00  0.00     0.338 C 
ATOM     24  O   UNL A   1      41.419  19.419  25.783  1.00  0.00    -0.246 OA
BRANCH  23  25
ATOM     25  C   UNL A   1      40.798  21.443  26.833  1.00  0.00     0.060 A 
ATOM     26  C   UNL A   1      40.344  22.508  26.046  1.00  0.00     0.016 A 
ATOM     27  C   UNL A   1      41.560  21.683  27.980  1.00  0.00     0.016 A 
ATOM     28  C   UNL A   1      40.695  23.817  26.370  1.00  0.00     0.010 A 
ATOM     29  C   UNL A   1      41.918  23.001  28.299  1.00  0.00     0.010 A 
ATOM     30  C   UNL A   1      41.520  24.070  27.475  1.00  0.00    -0.014 A 
BRANCH  30  31
ATOM     31  C   UNL A   1      42.075  25.436  27.658  1.00  0.00     0.031 A 
ATOM     32  C   UNL A   1      41.279  26.454  28.433  1.00  0.00     0.074 A 
ATOM     33  C   UNL A   1      43.302  25.746  27.200  1.00  0.00     0.049 A 
ATOM     34  N   UNL A   1      41.583  27.689  28.739  1.00  0.00    -0.248 NA
ATOM     35  C   UNL A   1      39.964  26.017  28.927  1.00  0.00     0.031 C 
ATOM     36  C   UNL A   1      44.185  24.834  26.476  1.00  0.00     0.029 A 
ATOM     37  N   UNL A   1      44.019  26.913  27.284  1.00  0.00    -0.354 N 
ATOM     38  C   UNL A   1      40.502  28.177  29.468  1.00  0.00     0.074 A 
ATOM     39  C   UNL A   1      39.518  27.116  29.516  1.00  0.00     0.031 C 
ATOM     40  C   UNL A   1      45.327  25.478  26.180  1.00  0.00     0.029 A 
ATOM     41  C   UNL A   1      45.245  26.855  26.665  1.00  0.00     0.049 A 
ATOM     42  H   UNL A   1      43.687  27.718  27.745  1.00  0.00     0.167 HD
ATOM     43  C   UNL A   1      40.350  29.392  30.051  1.00  0.00     0.034 A 
ATOM     44  C   UNL A   1      46.186  27.806  26.493  1.00  0.00     0.034 A 
ATOM     45  C   UNL A   1      41.334  30.446  29.986  1.00  0.00     0.049 A 
ATOM     46  C   UNL A   1      45.957  29.179  27.078  1.00  0.00     0.074 A 
ATOM     47  C   UNL A   1      41.286  31.707  30.555  1.00  0.00     0.029 A 
ATOM     48  N   UNL A   1      42.538  30.370  29.297  1.00  0.00    -0.354 N 
ATOM     49  N   UNL A   1      44.936  29.621  27.776  1.00  0.00    -0.248 NA
ATOM     50  C   UNL A   1      47.014  30.177  26.859  1.00  0.00     0.031 C 
ATOM     51  C   UNL A   1      42.425  32.415  30.152  1.00  0.00     0.029 A 
ATOM     52  C   UNL A   1      43.222  31.573  29.397  1.00  0.00     0.049 A 
ATOM     53  H   UNL A   1      42.858  29.577  28.810  1.00  0.00     0.167 HD
ATOM     54  C   UNL A   1      45.243  30.940  28.104  1.00  0.00     0.074 A 
ATOM     55  C   UNL A   1      46.549  31.215  27.538  1.00  0.00     0.031 C 
ATOM     56  C   UNL A   1      44.517  31.840  28.813  1.00  0.00     0.034 A 
BRANCH  43  57
ATOM     57  C   UNL A   1      39.047  29.658  30.766  1.00  0.00     0.023 A 
ATOM     58  C   UNL A   1      38.038  30.458  30.198  1.00  0.00     0.031 A 
ATOM     59  C   UNL A   1      38.819  29.124  32.047  1.00  0.00     0.131 A 
ATOM     60  C   UNL A   1      36.883  30.758  30.937  1.00  0.00     0.055 A 
ATOM     61  C   UNL A   1      37.635  29.363  32.745  1.00  0.00     0.041 A 
ATOM     62  F   UNL A   1      39.754  28.371  32.649  1.00  0.00    -0.206 F 
ATOM     63  C   UNL A   1      36.664  30.196  32.197  1.00  0.00     0.022 A 
BRANCH  60  64
ATOM     64  S   UNL A   1      35.735  32.002  30.287  1.00  0.00     0.124 S 
ATOM     65  O   UNL A   1      35.221  31.334  29.095  1.00  0.00    -0.237 OA
ATOM     66  O   UNL A   1      34.791  32.165  31.386  1.00  0.00    -0.237 OA
ATOM     67  O   UNL A   1      36.592  33.156  30.025  1.00  0.00    -0.744 OA
ENDBRANCH  60  64
ENDBRANCH  43  57
BRANCH  44  68
ATOM     68  C   UNL A   1      47.416  27.514  25.702  1.00  0.00     0.023 A 
ATOM     69  C   UNL A   1      47.476  27.771  24.323  1.00  0.00     0.031 A 
ATOM     70  C   UNL A   1      48.534  26.920  26.312  1.00  0.00     0.131 A 
ATOM     71  C   UNL A   1      48.614  27.395  23.592  1.00  0.00     0.055 A 
ATOM     72  C   UNL A   1      49.684  26.595  25.590  1.00  0.00     0.041 A 
ATOM     73  F   UNL A   1      48.528  26.652  27.628  1.00  0.00    -0.206 F 
ATOM     74  C   UNL A   1      49.723  26.822  24.219  1.00  0.00     0.022 A 
BRANCH  71  75
ATOM     75  S   UNL A   1      48.597  27.597  21.789  1.00  0.00     0.124 S 
ATOM     76  O   UNL A   1      47.258  28.132  21.564  1.00  0.00    -0.237 OA
ATOM     77  O   UNL A   1      49.703  28.524  21.578  1.00  0.00    -0.237 OA
ATOM     78  O   UNL A   1      48.819  26.240  21.293  1.00  0.00    -0.744 OA
ENDBRANCH  71  75
ENDBRANCH  44  68
BRANCH  56  79
ATOM     79  C   UNL A   1      45.141  33.195  29.051  1.00  0.00     0.023 A 
ATOM     80  C   UNL A   1      44.966  34.260  28.149  1.00  0.00     0.031 A 
ATOM     81  C   UNL A   1      45.933  33.419  30.191  1.00  0.00     0.131 A 
ATOM     82  C   UNL A   1      45.618  35.483  28.375  1.00  0.00     0.055 A 
ATOM     83  C   UNL A   1      46.531  34.654  30.441  1.00  0.00     0.041 A 
ATOM     84  F   UNL A   1      46.135  32.438  31.085  1.00  0.00    -0.206 F 
ATOM     85  C   UNL A   1      46.387  35.691  29.524  1.00  0.00     0.022 A 
BRANCH  82  86
ATOM     86  S   UNL A   1      45.522  36.771  27.102  1.00  0.00     0.124 S 
ATOM     87  O   UNL A   1      44.082  36.887  26.896  1.00  0.00    -0.237 OA
ATOM     88  O   UNL A   1      46.165  37.906  27.756  1.00  0.00    -0.237 OA
ATOM     89  O   UNL A   1      46.264  36.201  25.980  1.00  0.00    -0.744 OA
ENDBRANCH  82  86
ENDBRANCH  56  79
ENDBRANCH  30  31
ENDBRANCH  23  25
ENDBRANCH  22  23
ENDBRANCH  21  22
ENDBRANCH  20  21
ENDBRANCH   1  20
TORSDOF 21
ENDMDL
