MODEL 1
REMARK VINA RESULT:     -11.0      0.000      0.000
REMARK SMILES CC(C)n1ccc(C[C@@H](C(=O)OCCOCCOC(=O)c2ccc(-c3c4nc(c(-c5cc(S(=O)(=O)[O-])ccc5F)c5ccc([nH]5)c(-c5cc(S(=O)(=O)[O-])ccc5F)c5nc(c(-c6cc(S(=O)(=O)[O-])ccc6F)c6ccc3[nH]6)C=C5)C=C4)cc2)c2cccc(Cl)c2)n1
REMARK SMILES IDX 15 1 14 2 13 3 12 4 10 5 11 6 9 7 8 8 7 9 4 10 5 11 91 12
REMARK SMILES IDX 6 13 2 14 1 15 3 16 84 17 85 18 90 19 86 20 88 21 87 22
REMARK SMILES IDX 89 23 16 24 17 25 18 26 19 27 20 28 21 29 22 30 83 31 23 32
REMARK SMILES IDX 82 33 24 34 25 35 26 36 76 37 27 38 81 39 75 40 77 41 28 42
REMARK SMILES IDX 80 43 74 44 73 45 29 47 61 48 41 49 60 50 42 51 45 52 59 53
REMARK SMILES IDX 78 54 43 55 44 56 58 58 79 59 46 60 30 61 31 62 39 63 32 64
REMARK SMILES IDX 38 65 40 66 37 67 33 68 34 69 35 70 36 71 62 72 63 73 71 74
REMARK SMILES IDX 64 75 70 76 72 77 69 78 65 79 66 80 67 81 68 82 47 83 48 84
REMARK SMILES IDX 56 85 49 86 55 87 57 88 54 89 50 90 51 91 52 92 53 93
REMARK H PARENT 77 46 45 57
REMARK Flexibility Score: inf
ROOT
ATOM      1  O   UNL A   1      34.833  32.450  30.034  1.00  0.00    -0.374 OA
ENDROOT
BRANCH   1   2
ATOM      2  C   UNL A   1      34.384  32.804  28.721  1.00  0.00     0.202 C 
BRANCH   2   3
ATOM      3  C   UNL A   1      34.634  31.730  27.659  1.00  0.00     0.261 C 
BRANCH   3   4
ATOM      4  O   UNL A   1      33.381  31.087  27.357  1.00  0.00    -0.463 OA
BRANCH   4   5
ATOM      5  C   UNL A   1      33.333  29.743  27.266  1.00  0.00     0.313 C 
ATOM      6  O   UNL A   1      34.247  29.005  27.621  1.00  0.00    -0.252 OA
BRANCH   5   7
ATOM      7  C   UNL A   1      31.971  29.226  26.765  1.00  0.00     0.135 C 
BRANCH   7   8
ATOM      8  C   UNL A   1      31.466  27.852  27.291  1.00  0.00     0.078 C 
BRANCH   8   9
ATOM      9  C   UNL A   1      31.696  26.613  26.464  1.00  0.00     0.064 A 
ATOM     10  N   UNL A   1      32.650  24.843  25.756  1.00  0.00    -0.270 N 
ATOM     11  C   UNL A   1      31.359  24.719  25.341  1.00  0.00     0.109 A 
ATOM     12  N   UNL A   1      32.897  26.013  26.401  1.00  0.00    -0.178 NA
ATOM     13  C   UNL A   1      30.714  25.824  25.821  1.00  0.00     0.045 A 
BRANCH  10  14
ATOM     14  C   UNL A   1      33.675  23.823  25.565  1.00  0.00     0.101 C 
ATOM     15  C   UNL A   1      33.160  22.656  24.733  1.00  0.00     0.033 C 
ATOM     16  C   UNL A   1      34.974  24.408  25.013  1.00  0.00     0.033 C 
ENDBRANCH  10  14
ENDBRANCH   8   9
ENDBRANCH   7   8
BRANCH   7  17
ATOM     17  C   UNL A   1      31.924  29.201  25.213  1.00  0.00    -0.032 A 
ATOM     18  C   UNL A   1      30.703  29.405  24.550  1.00  0.00     0.005 A 
ATOM     19  C   UNL A   1      33.054  28.923  24.416  1.00  0.00     0.025 A 
ATOM     20  C   UNL A   1      30.611  29.312  23.155  1.00  0.00     0.002 A 
ATOM     21  C   UNL A   1      32.955  28.812  23.025  1.00  0.00     0.041 A 
ATOM     22  C   UNL A   1      31.735  29.004  22.391  1.00  0.00     0.020 A 
ATOM     23  Cl  UNL A   1      34.350  28.419  22.095  1.00  0.00    -0.084 Cl
ENDBRANCH   7  17
ENDBRANCH   5   7
ENDBRANCH   4   5
ENDBRANCH   3   4
ENDBRANCH   2   3
ENDBRANCH   1   2
BRANCH   1  24
ATOM     24  C   UNL A   1      36.102  32.944  30.452  1.00  0.00     0.202 C 
BRANCH  24  25
ATOM     25  C   UNL A   1      37.170  31.911  30.759  1.00  0.00     0.261 C 
BRANCH  25  26
ATOM     26  O   UNL A   1      37.349  31.054  29.644  1.00  0.00    -0.460 OA
BRANCH  26  27
ATOM     27  C   UNL A   1      36.982  29.764  29.829  1.00  0.00     0.338 C 
ATOM     28  O   UNL A   1      36.033  29.345  30.446  1.00  0.00    -0.246 OA
BRANCH  27  29
ATOM     29  C   UNL A   1      38.046  28.944  29.231  1.00  0.00     0.060 A 
ATOM     30  C   UNL A   1      38.536  27.889  29.997  1.00  0.00     0.016 A 
ATOM     31  C   UNL A   1      38.696  29.383  28.066  1.00  0.00     0.016 A 
ATOM     32  C   UNL A   1      39.806  27.432  29.722  1.00  0.00     0.010 A 
ATOM     33  C   UNL A   1      39.948  28.917  27.782  1.00  0.00     0.010 A 
ATOM     34  C   UNL A   1      40.525  28.033  28.681  1.00  0.00    -0.014 A 
BRANCH  34  35
ATOM     35  C   UNL A   1      41.892  27.637  28.442  1.00  0.00     0.031 A 
ATOM     36  C   UNL A   1      41.945  26.349  27.727  1.00  0.00     0.074 A 
ATOM     37  C   UNL A   1      42.937  28.437  28.733  1.00  0.00     0.049 A 
ATOM     38  N   UNL A   1      42.178  25.192  28.246  1.00  0.00    -0.248 NA
ATOM     39  C   UNL A   1      41.386  26.286  26.363  1.00  0.00     0.031 C 
ATOM     40  C   UNL A   1      42.924  29.820  29.216  1.00  0.00     0.029 A 
ATOM     41  N   UNL A   1      44.263  28.193  28.578  1.00  0.00    -0.354 N 
ATOM     42  C   UNL A   1      42.113  24.306  27.182  1.00  0.00     0.074 A 
ATOM     43  C   UNL A   1      41.339  24.968  26.171  1.00  0.00     0.031 C 
ATOM     44  C   UNL A   1      44.164  30.353  29.097  1.00  0.00     0.029 A 
ATOM     45  C   UNL A   1      45.086  29.316  28.657  1.00  0.00     0.049 A 
ATOM     46  H   UNL A   1      44.618  27.288  28.421  1.00  0.00     0.167 HD
ATOM     47  C   UNL A   1      43.001  23.279  27.099  1.00  0.00     0.034 A 
ATOM     48  C   UNL A   1      46.410  29.377  28.329  1.00  0.00     0.034 A 
ATOM     49  C   UNL A   1      43.631  23.052  28.387  1.00  0.00     0.049 A 
ATOM     50  C   UNL A   1      46.917  27.978  28.379  1.00  0.00     0.074 A 
ATOM     51  C   UNL A   1      43.157  22.761  29.653  1.00  0.00     0.029 A 
ATOM     52  N   UNL A   1      44.908  23.541  28.572  1.00  0.00    -0.354 N 
ATOM     53  N   UNL A   1      46.990  27.293  29.489  1.00  0.00    -0.248 NA
ATOM     54  C   UNL A   1      46.818  27.176  27.168  1.00  0.00     0.031 C 
ATOM     55  C   UNL A   1      43.962  23.538  30.538  1.00  0.00     0.029 A 
ATOM     56  C   UNL A   1      44.957  24.174  29.792  1.00  0.00     0.049 A 
ATOM     57  H   UNL A   1      45.656  23.453  27.939  1.00  0.00     0.167 HD
ATOM     58  C   UNL A   1      46.500  26.035  29.169  1.00  0.00     0.074 A 
ATOM     59  C   UNL A   1      46.490  25.996  27.706  1.00  0.00     0.031 C 
ATOM     60  C   UNL A   1      45.860  25.269  30.105  1.00  0.00     0.034 A 
BRANCH  47  61
ATOM     61  C   UNL A   1      43.616  22.798  25.801  1.00  0.00     0.023 A 
ATOM     62  C   UNL A   1      43.723  21.405  25.642  1.00  0.00     0.031 A 
ATOM     63  C   UNL A   1      44.346  23.576  24.871  1.00  0.00     0.131 A 
ATOM     64  C   UNL A   1      44.610  20.852  24.705  1.00  0.00     0.055 A 
ATOM     65  C   UNL A   1      45.179  23.019  23.899  1.00  0.00     0.041 A 
ATOM     66  F   UNL A   1      44.374  24.913  24.888  1.00  0.00    -0.206 F 
ATOM     67  C   UNL A   1      45.345  21.650  23.835  1.00  0.00     0.022 A 
BRANCH  64  68
ATOM     68  S   UNL A   1      44.918  19.073  24.778  1.00  0.00     0.124 S 
ATOM     69  O   UNL A   1      43.566  18.554  24.962  1.00  0.00    -0.237 OA
ATOM     70  O   UNL A   1      45.534  18.825  23.479  1.00  0.00    -0.237 OA
ATOM     71  O   UNL A   1      45.805  18.932  25.928  1.00  0.00    -0.744 OA
ENDBRANCH  64  68
ENDBRANCH  47  61
BRANCH  48  72
ATOM     72  C   UNL A   1      47.134  30.482  27.623  1.00  0.00     0.023 A 
ATOM     73  C   UNL A   1      46.483  31.588  27.024  1.00  0.00     0.031 A 
ATOM     74  C   UNL A   1      48.536  30.583  27.765  1.00  0.00     0.131 A 
ATOM     75  C   UNL A   1      47.229  32.720  26.604  1.00  0.00     0.055 A 
ATOM     76  C   UNL A   1      49.264  31.704  27.355  1.00  0.00     0.041 A 
ATOM     77  F   UNL A   1      49.243  29.630  28.391  1.00  0.00    -0.206 F 
ATOM     78  C   UNL A   1      48.613  32.782  26.783  1.00  0.00     0.022 A 
BRANCH  75  79
ATOM     79  S   UNL A   1      46.407  34.186  25.883  1.00  0.00     0.124 S 
ATOM     80  O   UNL A   1      45.263  33.596  25.197  1.00  0.00    -0.237 OA
ATOM     81  O   UNL A   1      46.113  34.995  27.060  1.00  0.00    -0.237 OA
ATOM     82  O   UNL A   1      47.426  34.751  24.997  1.00  0.00    -0.744 OA
ENDBRANCH  75  79
ENDBRANCH  48  72
BRANCH  60  83
ATOM     83  C   UNL A   1      45.964  25.685  31.564  1.00  0.00     0.023 A 
ATOM     84  C   UNL A   1      47.057  25.415  32.425  1.00  0.00     0.031 A 
ATOM     85  C   UNL A   1      44.925  26.485  32.071  1.00  0.00     0.131 A 
ATOM     86  C   UNL A   1      47.063  25.928  33.740  1.00  0.00     0.055 A 
ATOM     87  C   UNL A   1      44.948  27.011  33.360  1.00  0.00     0.041 A 
ATOM     88  F   UNL A   1      43.871  26.797  31.299  1.00  0.00    -0.206 F 
ATOM     89  C   UNL A   1      46.014  26.728  34.204  1.00  0.00     0.022 A 
BRANCH  86  90
ATOM     90  S   UNL A   1      48.420  25.537  34.896  1.00  0.00     0.124 S 
ATOM     91  O   UNL A   1      49.356  26.639  34.711  1.00  0.00    -0.237 OA
ATOM     92  O   UNL A   1      47.733  25.493  36.184  1.00  0.00    -0.237 OA
ATOM     93  O   UNL A   1      48.906  24.239  34.423  1.00  0.00    -0.744 OA
ENDBRANCH  86  90
ENDBRANCH  60  83
ENDBRANCH  34  35
ENDBRANCH  27  29
ENDBRANCH  26  27
ENDBRANCH  25  26
ENDBRANCH  24  25
ENDBRANCH   1  24
TORSDOF 21
ENDMDL
MODEL 2
REMARK VINA RESULT:     -10.9      4.918     10.810
REMARK SMILES CC(C)n1ccc(C[C@@H](C(=O)OCCOCCOC(=O)c2ccc(-c3c4nc(c(-c5cc(S(=O)(=O)[O-])ccc5F)c5ccc([nH]5)c(-c5cc(S(=O)(=O)[O-])ccc5F)c5nc(c(-c6cc(S(=O)(=O)[O-])ccc6F)c6ccc3[nH]6)C=C5)C=C4)cc2)c2cccc(Cl)c2)n1
REMARK SMILES IDX 15 1 14 2 13 3 12 4 10 5 11 6 9 7 8 8 7 9 4 10 5 11 91 12
REMARK SMILES IDX 6 13 2 14 1 15 3 16 84 17 85 18 90 19 86 20 88 21 87 22
REMARK SMILES IDX 89 23 16 24 17 25 18 26 19 27 20 28 21 29 22 30 83 31 23 32
REMARK SMILES IDX 82 33 24 34 25 35 26 36 76 37 27 38 81 39 75 40 77 41 28 42
REMARK SMILES IDX 80 43 74 44 73 45 29 47 61 48 41 49 60 50 42 51 45 52 59 53
REMARK SMILES IDX 78 54 43 55 44 56 58 58 79 59 46 60 30 61 31 62 39 63 32 64
REMARK SMILES IDX 38 65 40 66 37 67 33 68 34 69 35 70 36 71 62 72 63 73 71 74
REMARK SMILES IDX 64 75 70 76 72 77 69 78 65 79 66 80 67 81 68 82 47 83 48 84
REMARK SMILES IDX 56 85 49 86 55 87 57 88 54 89 50 90 51 91 52 92 53 93
REMARK H PARENT 77 46 45 57
REMARK Flexibility Score: inf
ROOT
ATOM      1  O   UNL A   1      38.267  21.682  25.919  1.00  0.00    -0.374 OA
ENDROOT
BRANCH   1   2
ATOM      2  C   UNL A   1      37.459  22.437  25.011  1.00  0.00     0.202 C 
BRANCH   2   3
ATOM      3  C   UNL A   1      36.035  21.900  24.840  1.00  0.00     0.261 C 
BRANCH   3   4
ATOM      4  O   UNL A   1      35.453  21.727  26.145  1.00  0.00    -0.463 OA
BRANCH   4   5
ATOM      5  C   UNL A   1      34.199  21.243  26.251  1.00  0.00     0.313 C 
ATOM      6  O   UNL A   1      33.675  20.943  27.320  1.00  0.00    -0.252 OA
BRANCH   5   7
ATOM      7  C   UNL A   1      33.459  21.200  24.901  1.00  0.00     0.135 C 
BRANCH   7   8
ATOM      8  C   UNL A   1      32.013  21.769  24.836  1.00  0.00     0.078 C 
BRANCH   8   9
ATOM      9  C   UNL A   1      31.803  23.214  24.459  1.00  0.00     0.064 A 
ATOM     10  N   UNL A   1      32.207  25.299  24.269  1.00  0.00    -0.270 N 
ATOM     11  C   UNL A   1      31.250  25.053  23.331  1.00  0.00     0.109 A 
ATOM     12  N   UNL A   1      32.528  24.204  25.007  1.00  0.00    -0.178 NA
ATOM     13  C   UNL A   1      31.005  23.711  23.403  1.00  0.00     0.045 A 
BRANCH  10  14
ATOM     14  C   UNL A   1      32.857  26.590  24.461  1.00  0.00     0.101 C 
ATOM     15  C   UNL A   1      33.865  26.549  25.602  1.00  0.00     0.033 C 
ATOM     16  C   UNL A   1      33.461  27.130  23.165  1.00  0.00     0.033 C 
ENDBRANCH  10  14
ENDBRANCH   8   9
ENDBRANCH   7   8
BRANCH   7  17
ATOM     17  C   UNL A   1      33.442  19.758  24.323  1.00  0.00    -0.032 A 
ATOM     18  C   UNL A   1      32.518  19.421  23.321  1.00  0.00     0.005 A 
ATOM     19  C   UNL A   1      34.283  18.731  24.799  1.00  0.00     0.025 A 
ATOM     20  C   UNL A   1      32.424  18.111  22.832  1.00  0.00     0.002 A 
ATOM     21  C   UNL A   1      34.174  17.421  24.325  1.00  0.00     0.041 A 
ATOM     22  C   UNL A   1      33.245  17.106  23.342  1.00  0.00     0.020 A 
ATOM     23  Cl  UNL A   1      35.185  16.186  24.972  1.00  0.00    -0.084 Cl
ENDBRANCH   7  17
ENDBRANCH   5   7
ENDBRANCH   4   5
ENDBRANCH   3   4
ENDBRANCH   2   3
ENDBRANCH   1   2
BRANCH   1  24
ATOM     24  C   UNL A   1      39.632  22.064  26.062  1.00  0.00     0.202 C 
BRANCH  24  25
ATOM     25  C   UNL A   1      39.970  22.970  27.231  1.00  0.00     0.261 C 
BRANCH  25  26
ATOM     26  O   UNL A   1      39.313  24.217  27.082  1.00  0.00    -0.460 OA
BRANCH  26  27
ATOM     27  C   UNL A   1      40.102  25.260  26.728  1.00  0.00     0.338 C 
ATOM     28  O   UNL A   1      41.031  25.257  25.957  1.00  0.00    -0.246 OA
BRANCH  27  29
ATOM     29  C   UNL A   1      39.687  26.393  27.568  1.00  0.00     0.060 A 
ATOM     30  C   UNL A   1      40.010  27.669  27.112  1.00  0.00     0.016 A 
ATOM     31  C   UNL A   1      39.231  26.163  28.877  1.00  0.00     0.016 A 
ATOM     32  C   UNL A   1      40.101  28.679  28.044  1.00  0.00     0.010 A 
ATOM     33  C   UNL A   1      39.302  27.169  29.797  1.00  0.00     0.010 A 
ATOM     34  C   UNL A   1      39.845  28.378  29.388  1.00  0.00    -0.014 A 
BRANCH  34  35
ATOM     35  C   UNL A   1      40.031  29.399  30.391  1.00  0.00     0.031 A 
ATOM     36  C   UNL A   1      38.801  30.193  30.562  1.00  0.00     0.074 A 
ATOM     37  C   UNL A   1      41.151  29.482  31.136  1.00  0.00     0.049 A 
ATOM     38  N   UNL A   1      38.568  31.361  30.069  1.00  0.00    -0.248 NA
ATOM     39  C   UNL A   1      37.596  29.511  31.069  1.00  0.00     0.031 C 
ATOM     40  C   UNL A   1      42.296  28.569  31.173  1.00  0.00     0.029 A 
ATOM     41  N   UNL A   1      41.467  30.389  32.096  1.00  0.00    -0.354 N 
ATOM     42  C   UNL A   1      37.289  31.679  30.498  1.00  0.00     0.074 A 
ATOM     43  C   UNL A   1      36.662  30.427  30.812  1.00  0.00     0.031 C 
ATOM     44  C   UNL A   1      43.062  28.847  32.256  1.00  0.00     0.029 A 
ATOM     45  C   UNL A   1      42.541  30.036  32.914  1.00  0.00     0.049 A 
ATOM     46  H   UNL A   1      40.975  31.234  32.205  1.00  0.00     0.167 HD
ATOM     47  C   UNL A   1      37.002  32.947  30.896  1.00  0.00     0.034 A 
ATOM     48  C   UNL A   1      42.919  30.658  34.069  1.00  0.00     0.034 A 
ATOM     49  C   UNL A   1      38.014  33.869  30.413  1.00  0.00     0.049 A 
ATOM     50  C   UNL A   1      42.340  32.028  34.014  1.00  0.00     0.074 A 
ATOM     51  C   UNL A   1      38.502  34.192  29.160  1.00  0.00     0.029 A 
ATOM     52  N   UNL A   1      38.977  34.291  31.306  1.00  0.00    -0.354 N 
ATOM     53  N   UNL A   1      42.720  32.921  33.140  1.00  0.00    -0.248 NA
ATOM     54  C   UNL A   1      40.995  32.219  34.541  1.00  0.00     0.031 C 
ATOM     55  C   UNL A   1      39.910  34.333  29.335  1.00  0.00     0.029 A 
ATOM     56  C   UNL A   1      40.205  34.203  30.694  1.00  0.00     0.049 A 
ATOM     57  H   UNL A   1      38.813  34.602  32.225  1.00  0.00     0.167 HD
ATOM     58  C   UNL A   1      41.545  33.498  32.678  1.00  0.00     0.074 A 
ATOM     59  C   UNL A   1      40.521  33.085  33.638  1.00  0.00     0.031 C 
ATOM     60  C   UNL A   1      41.455  33.988  31.404  1.00  0.00     0.034 A 
BRANCH  47  61
ATOM     61  C   UNL A   1      36.094  33.281  32.062  1.00  0.00     0.023 A 
ATOM     62  C   UNL A   1      34.975  34.080  31.770  1.00  0.00     0.031 A 
ATOM     63  C   UNL A   1      36.393  33.127  33.437  1.00  0.00     0.131 A 
ATOM     64  C   UNL A   1      34.302  34.777  32.786  1.00  0.00     0.055 A 
ATOM     65  C   UNL A   1      35.680  33.774  34.449  1.00  0.00     0.041 A 
ATOM     66  F   UNL A   1      37.432  32.420  33.893  1.00  0.00    -0.206 F 
ATOM     67  C   UNL A   1      34.650  34.635  34.125  1.00  0.00     0.022 A 
BRANCH  64  68
ATOM     68  S   UNL A   1      33.080  36.015  32.297  1.00  0.00     0.124 S 
ATOM     69  O   UNL A   1      33.453  36.255  30.906  1.00  0.00    -0.237 OA
ATOM     70  O   UNL A   1      31.828  35.300  32.516  1.00  0.00    -0.237 OA
ATOM     71  O   UNL A   1      33.338  37.121  33.215  1.00  0.00    -0.744 OA
ENDBRANCH  64  68
ENDBRANCH  47  61
BRANCH  48  72
ATOM     72  C   UNL A   1      43.404  30.028  35.338  1.00  0.00     0.023 A 
ATOM     73  C   UNL A   1      43.000  28.744  35.779  1.00  0.00     0.031 A 
ATOM     74  C   UNL A   1      44.502  30.605  36.015  1.00  0.00     0.131 A 
ATOM     75  C   UNL A   1      43.687  28.100  36.842  1.00  0.00     0.055 A 
ATOM     76  C   UNL A   1      45.177  29.963  37.057  1.00  0.00     0.041 A 
ATOM     77  F   UNL A   1      45.018  31.781  35.626  1.00  0.00    -0.206 F 
ATOM     78  C   UNL A   1      44.779  28.703  37.468  1.00  0.00     0.022 A 
BRANCH  75  79
ATOM     79  S   UNL A   1      43.224  26.418  37.391  1.00  0.00     0.124 S 
ATOM     80  O   UNL A   1      43.683  25.591  36.281  1.00  0.00    -0.237 OA
ATOM     81  O   UNL A   1      43.953  26.284  38.647  1.00  0.00    -0.237 OA
ATOM     82  O   UNL A   1      41.769  26.493  37.538  1.00  0.00    -0.744 OA
ENDBRANCH  75  79
ENDBRANCH  48  72
BRANCH  60  83
ATOM     83  C   UNL A   1      42.741  34.168  30.612  1.00  0.00     0.023 A 
ATOM     84  C   UNL A   1      43.225  33.290  29.611  1.00  0.00     0.031 A 
ATOM     85  C   UNL A   1      43.459  35.357  30.832  1.00  0.00     0.131 A 
ATOM     86  C   UNL A   1      44.396  33.616  28.893  1.00  0.00     0.055 A 
ATOM     87  C   UNL A   1      44.599  35.686  30.103  1.00  0.00     0.041 A 
ATOM     88  F   UNL A   1      43.041  36.242  31.751  1.00  0.00    -0.206 F 
ATOM     89  C   UNL A   1      45.077  34.813  29.135  1.00  0.00     0.022 A 
BRANCH  86  90
ATOM     90  S   UNL A   1      45.086  32.473  27.649  1.00  0.00     0.124 S 
ATOM     91  O   UNL A   1      46.399  33.035  27.358  1.00  0.00    -0.237 OA
ATOM     92  O   UNL A   1      45.081  31.196  28.358  1.00  0.00    -0.237 OA
ATOM     93  O   UNL A   1      44.129  32.557  26.543  1.00  0.00    -0.744 OA
ENDBRANCH  86  90
ENDBRANCH  60  83
ENDBRANCH  34  35
ENDBRANCH  27  29
ENDBRANCH  26  27
ENDBRANCH  25  26
ENDBRANCH  24  25
ENDBRANCH   1  24
TORSDOF 21
ENDMDL
MODEL 3
REMARK VINA RESULT:     -10.6      4.210      9.299
REMARK SMILES CC(C)n1ccc(C[C@@H](C(=O)OCCOCCOC(=O)c2ccc(-c3c4nc(c(-c5cc(S(=O)(=O)[O-])ccc5F)c5ccc([nH]5)c(-c5cc(S(=O)(=O)[O-])ccc5F)c5nc(c(-c6cc(S(=O)(=O)[O-])ccc6F)c6ccc3[nH]6)C=C5)C=C4)cc2)c2cccc(Cl)c2)n1
REMARK SMILES IDX 15 1 14 2 13 3 12 4 10 5 11 6 9 7 8 8 7 9 4 10 5 11 91 12
REMARK SMILES IDX 6 13 2 14 1 15 3 16 84 17 85 18 90 19 86 20 88 21 87 22
REMARK SMILES IDX 89 23 16 24 17 25 18 26 19 27 20 28 21 29 22 30 83 31 23 32
REMARK SMILES IDX 82 33 24 34 25 35 26 36 76 37 27 38 81 39 75 40 77 41 28 42
REMARK SMILES IDX 80 43 74 44 73 45 29 47 61 48 41 49 60 50 42 51 45 52 59 53
REMARK SMILES IDX 78 54 43 55 44 56 58 58 79 59 46 60 30 61 31 62 39 63 32 64
REMARK SMILES IDX 38 65 40 66 37 67 33 68 34 69 35 70 36 71 62 72 63 73 71 74
REMARK SMILES IDX 64 75 70 76 72 77 69 78 65 79 66 80 67 81 68 82 47 83 48 84
REMARK SMILES IDX 56 85 49 86 55 87 57 88 54 89 50 90 51 91 52 92 53 93
REMARK H PARENT 77 46 45 57
REMARK Flexibility Score: inf
ROOT
ATOM      1  O   UNL A   1      37.934  22.170  24.784  1.00  0.00    -0.374 OA
ENDROOT
BRANCH   1   2
ATOM      2  C   UNL A   1      37.324  23.452  24.967  1.00  0.00     0.202 C 
BRANCH   2   3
ATOM      3  C   UNL A   1      35.864  23.395  25.423  1.00  0.00     0.261 C 
BRANCH   3   4
ATOM      4  O   UNL A   1      35.112  22.641  24.453  1.00  0.00    -0.463 OA
BRANCH   4   5
ATOM      5  C   UNL A   1      34.185  23.268  23.701  1.00  0.00     0.313 C 
ATOM      6  O   UNL A   1      34.461  24.022  22.772  1.00  0.00    -0.252 OA
BRANCH   5   7
ATOM      7  C   UNL A   1      32.745  22.862  24.066  1.00  0.00     0.135 C 
BRANCH   7   8
ATOM      8  C   UNL A   1      32.098  23.498  25.329  1.00  0.00     0.078 C 
BRANCH   8   9
ATOM      9  C   UNL A   1      31.955  24.997  25.411  1.00  0.00     0.064 A 
ATOM     10  N   UNL A   1      32.236  26.986  26.126  1.00  0.00    -0.270 N 
ATOM     11  C   UNL A   1      31.790  27.146  24.850  1.00  0.00     0.109 A 
ATOM     12  N   UNL A   1      32.300  25.685  26.513  1.00  0.00    -0.178 NA
ATOM     13  C   UNL A   1      31.643  25.882  24.353  1.00  0.00     0.045 A 
BRANCH  10  14
ATOM     14  C   UNL A   1      32.641  28.082  26.999  1.00  0.00     0.101 C 
ATOM     15  C   UNL A   1      34.103  28.456  26.792  1.00  0.00     0.033 C 
ATOM     16  C   UNL A   1      31.706  29.285  26.884  1.00  0.00     0.033 C 
ENDBRANCH  10  14
ENDBRANCH   8   9
ENDBRANCH   7   8
BRANCH   7  17
ATOM     17  C   UNL A   1      32.615  21.318  24.177  1.00  0.00    -0.032 A 
ATOM     18  C   UNL A   1      32.787  20.693  25.423  1.00  0.00     0.005 A 
ATOM     19  C   UNL A   1      32.386  20.485  23.062  1.00  0.00     0.025 A 
ATOM     20  C   UNL A   1      32.753  19.297  25.545  1.00  0.00     0.002 A 
ATOM     21  C   UNL A   1      32.373  19.092  23.183  1.00  0.00     0.041 A 
ATOM     22  C   UNL A   1      32.558  18.495  24.422  1.00  0.00     0.020 A 
ATOM     23  Cl  UNL A   1      32.143  18.112  21.787  1.00  0.00    -0.084 Cl
ENDBRANCH   7  17
ENDBRANCH   5   7
ENDBRANCH   4   5
ENDBRANCH   3   4
ENDBRANCH   2   3
ENDBRANCH   1   2
BRANCH   1  24
ATOM     24  C   UNL A   1      38.427  21.503  25.941  1.00  0.00     0.202 C 
BRANCH  24  25
ATOM     25  C   UNL A   1      39.930  21.517  26.152  1.00  0.00     0.261 C 
BRANCH  25  26
ATOM     26  O   UNL A   1      40.267  22.446  27.168  1.00  0.00    -0.460 OA
BRANCH  26  27
ATOM     27  C   UNL A   1      41.085  23.457  26.794  1.00  0.00     0.338 C 
ATOM     28  O   UNL A   1      41.938  23.442  25.939  1.00  0.00    -0.246 OA
BRANCH  27  29
ATOM     29  C   UNL A   1      40.824  24.565  27.725  1.00  0.00     0.060 A 
ATOM     30  C   UNL A   1      39.669  25.312  27.510  1.00  0.00     0.016 A 
ATOM     31  C   UNL A   1      41.832  24.988  28.608  1.00  0.00     0.016 A 
ATOM     32  C   UNL A   1      39.637  26.598  28.002  1.00  0.00     0.010 A 
ATOM     33  C   UNL A   1      41.792  26.257  29.111  1.00  0.00     0.010 A 
ATOM     34  C   UNL A   1      40.750  27.077  28.705  1.00  0.00    -0.014 A 
BRANCH  34  35
ATOM     35  C   UNL A   1      40.776  28.453  29.140  1.00  0.00     0.031 A 
ATOM     36  C   UNL A   1      41.875  29.186  28.487  1.00  0.00     0.074 A 
ATOM     37  C   UNL A   1      39.819  28.977  29.931  1.00  0.00     0.049 A 
ATOM     38  N   UNL A   1      43.019  29.476  29.006  1.00  0.00    -0.248 NA
ATOM     39  C   UNL A   1      41.830  29.350  27.021  1.00  0.00     0.031 C 
ATOM     40  C   UNL A   1      38.579  28.356  30.404  1.00  0.00     0.029 A 
ATOM     41  N   UNL A   1      39.723  30.238  30.425  1.00  0.00    -0.354 N 
ATOM     42  C   UNL A   1      43.701  30.154  28.008  1.00  0.00     0.074 A 
ATOM     43  C   UNL A   1      43.071  29.770  26.777  1.00  0.00     0.031 C 
ATOM     44  C   UNL A   1      37.765  29.307  30.921  1.00  0.00     0.029 A 
ATOM     45  C   UNL A   1      38.471  30.579  30.938  1.00  0.00     0.049 A 
ATOM     46  H   UNL A   1      40.481  30.865  30.423  1.00  0.00     0.167 HD
ATOM     47  C   UNL A   1      44.467  31.232  28.322  1.00  0.00     0.034 A 
ATOM     48  C   UNL A   1      38.053  31.830  31.293  1.00  0.00     0.034 A 
ATOM     49  C   UNL A   1      44.761  31.246  29.744  1.00  0.00     0.049 A 
ATOM     50  C   UNL A   1      39.286  32.632  31.525  1.00  0.00     0.074 A 
ATOM     51  C   UNL A   1      45.365  30.354  30.610  1.00  0.00     0.029 A 
ATOM     52  N   UNL A   1      44.031  32.103  30.542  1.00  0.00    -0.354 N 
ATOM     53  N   UNL A   1      40.116  32.384  32.502  1.00  0.00    -0.248 NA
ATOM     54  C   UNL A   1      39.870  33.324  30.384  1.00  0.00     0.031 C 
ATOM     55  C   UNL A   1      44.588  30.413  31.805  1.00  0.00     0.029 A 
ATOM     56  C   UNL A   1      43.622  31.412  31.659  1.00  0.00     0.049 A 
ATOM     57  H   UNL A   1      43.836  33.047  30.345  1.00  0.00     0.167 HD
ATOM     58  C   UNL A   1      41.379  32.471  31.935  1.00  0.00     0.074 A 
ATOM     59  C   UNL A   1      41.168  33.137  30.648  1.00  0.00     0.031 C 
ATOM     60  C   UNL A   1      42.420  31.723  32.413  1.00  0.00     0.034 A 
BRANCH  47  61
ATOM     61  C   UNL A   1      44.565  32.477  27.464  1.00  0.00     0.023 A 
ATOM     62  C   UNL A   1      43.934  33.629  27.963  1.00  0.00     0.031 A 
ATOM     63  C   UNL A   1      44.964  32.539  26.107  1.00  0.00     0.131 A 
ATOM     64  C   UNL A   1      43.609  34.699  27.114  1.00  0.00     0.055 A 
ATOM     65  C   UNL A   1      44.694  33.632  25.282  1.00  0.00     0.041 A 
ATOM     66  F   UNL A   1      45.559  31.528  25.464  1.00  0.00    -0.206 F 
ATOM     67  C   UNL A   1      43.980  34.708  25.774  1.00  0.00     0.022 A 
BRANCH  64  68
ATOM     68  S   UNL A   1      42.530  35.996  27.761  1.00  0.00     0.124 S 
ATOM     69  O   UNL A   1      42.845  35.950  29.185  1.00  0.00    -0.237 OA
ATOM     70  O   UNL A   1      43.005  37.168  27.032  1.00  0.00    -0.237 OA
ATOM     71  O   UNL A   1      41.194  35.533  27.399  1.00  0.00    -0.744 OA
ENDBRANCH  64  68
ENDBRANCH  47  61
BRANCH  48  72
ATOM     72  C   UNL A   1      36.708  32.449  31.070  1.00  0.00     0.023 A 
ATOM     73  C   UNL A   1      36.046  33.252  32.031  1.00  0.00     0.031 A 
ATOM     74  C   UNL A   1      36.165  32.460  29.765  1.00  0.00     0.131 A 
ATOM     75  C   UNL A   1      34.906  34.016  31.666  1.00  0.00     0.055 A 
ATOM     76  C   UNL A   1      35.046  33.219  29.412  1.00  0.00     0.041 A 
ATOM     77  F   UNL A   1      36.759  31.799  28.759  1.00  0.00    -0.206 F 
ATOM     78  C   UNL A   1      34.418  34.009  30.358  1.00  0.00     0.022 A 
BRANCH  75  79
ATOM     79  S   UNL A   1      34.070  35.108  32.872  1.00  0.00     0.124 S 
ATOM     80  O   UNL A   1      32.661  34.855  32.597  1.00  0.00    -0.237 OA
ATOM     81  O   UNL A   1      34.583  34.621  34.148  1.00  0.00    -0.237 OA
ATOM     82  O   UNL A   1      34.534  36.447  32.502  1.00  0.00    -0.744 OA
ENDBRANCH  75  79
ENDBRANCH  48  72
BRANCH  60  83
ATOM     83  C   UNL A   1      42.247  31.032  33.757  1.00  0.00     0.023 A 
ATOM     84  C   UNL A   1      42.086  29.638  33.955  1.00  0.00     0.031 A 
ATOM     85  C   UNL A   1      42.351  31.840  34.903  1.00  0.00     0.131 A 
ATOM     86  C   UNL A   1      42.016  29.115  35.265  1.00  0.00     0.055 A 
ATOM     87  C   UNL A   1      42.308  31.316  36.192  1.00  0.00     0.041 A 
ATOM     88  F   UNL A   1      42.528  33.166  34.785  1.00  0.00    -0.206 F 
ATOM     89  C   UNL A   1      42.132  29.951  36.379  1.00  0.00     0.022 A 
BRANCH  86  90
ATOM     90  S   UNL A   1      41.735  27.336  35.553  1.00  0.00     0.124 S 
ATOM     91  O   UNL A   1      41.193  27.289  36.905  1.00  0.00    -0.237 OA
ATOM     92  O   UNL A   1      40.807  26.985  34.481  1.00  0.00    -0.237 OA
ATOM     93  O   UNL A   1      43.071  26.753  35.412  1.00  0.00    -0.744 OA
ENDBRANCH  86  90
ENDBRANCH  60  83
ENDBRANCH  34  35
ENDBRANCH  27  29
ENDBRANCH  26  27
ENDBRANCH  25  26
ENDBRANCH  24  25
ENDBRANCH   1  24
TORSDOF 21
ENDMDL
