MODEL 1
REMARK VINA RESULT:     -11.7      0.000      0.000
REMARK SMILES CC[C@](C)(NC(=O)N1Cc2ccccc2C1)C(=O)OCCOCCOC(=O)c1ccc(-c2c3nc(c(-c4cc(S(=O)(=O)[O-])ccc4F)c4ccc([nH]4)c(-c4cc(S(=O)(=O)[O-])ccc4F)c4nc(c(-c5cc(S(=O)(=O)[O-])ccc5F)c5ccc2[nH]5)C=C4)C=C3)cc1
REMARK SMILES IDX 23 1 22 2 21 3 20 4 19 5 17 6 18 7 3 8 4 9 2 10 1 11 5 12
REMARK SMILES IDX 6 13 7 15 8 16 9 17 16 18 10 19 15 20 11 21 14 22 12 23
REMARK SMILES IDX 13 24 24 25 25 26 26 27 27 28 28 29 29 30 90 31 30 32 89 33
REMARK SMILES IDX 31 34 32 35 33 36 83 37 34 38 88 39 82 40 84 41 35 42 87 43
REMARK SMILES IDX 81 44 80 45 36 47 68 48 48 49 67 50 49 51 52 52 66 53 85 54
REMARK SMILES IDX 50 55 51 56 65 58 86 59 53 60 37 61 38 62 46 63 39 64 45 65
REMARK SMILES IDX 47 66 44 67 40 68 41 69 42 70 43 71 69 72 70 73 78 74 71 75
REMARK SMILES IDX 77 76 79 77 76 78 72 79 73 80 74 81 75 82 54 83 55 84 63 85
REMARK SMILES IDX 56 86 62 87 64 88 61 89 57 90 58 91 59 92 60 93
REMARK H PARENT 5 14 84 46 52 57
REMARK Flexibility Score: inf
ROOT
ATOM      1  C   UNL A   1      38.140  19.768  24.905  1.00  0.00     0.202 C 
ENDROOT
BRANCH   1   2
ATOM      2  O   UNL A   1      37.562  21.065  24.618  1.00  0.00    -0.374 OA
BRANCH   2   3
ATOM      3  C   UNL A   1      37.616  22.231  25.471  1.00  0.00     0.202 C 
BRANCH   3   4
ATOM      4  C   UNL A   1      36.418  23.150  25.849  1.00  0.00     0.261 C 
BRANCH   4   5
ATOM      5  O   UNL A   1      36.211  24.195  24.924  1.00  0.00    -0.462 OA
BRANCH   5   6
ATOM      6  C   UNL A   1      35.309  24.019  23.957  1.00  0.00     0.331 C 
ATOM      7  O   UNL A   1      35.522  23.395  22.913  1.00  0.00    -0.249 OA
BRANCH   6   8
ATOM      8  C   UNL A   1      33.957  24.639  24.356  1.00  0.00     0.136 C 
ATOM      9  C   UNL A   1      33.260  24.926  22.991  1.00  0.00     0.047 C 
BRANCH   8  10
ATOM     10  C   UNL A   1      34.163  25.995  25.084  1.00  0.00     0.037 C 
ATOM     11  C   UNL A   1      33.626  27.244  24.375  1.00  0.00     0.007 C 
ENDBRANCH   8  10
BRANCH   8  12
ATOM     12  N   UNL A   1      32.993  23.796  25.196  1.00  0.00    -0.322 N 
ATOM     13  C   UNL A   1      32.704  22.510  25.550  1.00  0.00     0.318 C 
ATOM     14  H   UNL A   1      32.352  24.397  25.639  1.00  0.00     0.166 HD
ATOM     15  O   UNL A   1      31.907  22.390  26.484  1.00  0.00    -0.249 OA
ATOM     16  N   UNL A   1      33.154  21.419  24.846  1.00  0.00    -0.316 N 
ATOM     17  C   UNL A   1      32.192  20.632  24.090  1.00  0.00     0.157 C 
ATOM     18  C   UNL A   1      33.992  20.419  25.514  1.00  0.00     0.157 C 
ATOM     19  C   UNL A   1      32.810  19.329  23.777  1.00  0.00    -0.023 A 
ATOM     20  C   UNL A   1      33.897  19.192  24.629  1.00  0.00    -0.023 A 
ATOM     21  C   UNL A   1      32.391  18.355  22.875  1.00  0.00     0.006 A 
ATOM     22  C   UNL A   1      34.623  18.025  24.580  1.00  0.00     0.006 A 
ATOM     23  C   UNL A   1      33.140  17.191  22.805  1.00  0.00     0.000 A 
ATOM     24  C   UNL A   1      34.248  17.032  23.653  1.00  0.00     0.000 A 
ENDBRANCH   8  12
ENDBRANCH   6   8
ENDBRANCH   5   6
ENDBRANCH   4   5
ENDBRANCH   3   4
ENDBRANCH   2   3
ENDBRANCH   1   2
BRANCH   1  25
ATOM     25  C   UNL A   1      39.277  19.531  26.016  1.00  0.00     0.261 C 
BRANCH  25  26
ATOM     26  O   UNL A   1      40.553  18.946  25.493  1.00  0.00    -0.460 OA
BRANCH  26  27
ATOM     27  C   UNL A   1      41.765  19.435  25.957  1.00  0.00     0.338 C 
ATOM     28  O   UNL A   1      42.836  18.915  25.674  1.00  0.00    -0.246 OA
BRANCH  27  29
ATOM     29  C   UNL A   1      41.717  20.841  26.590  1.00  0.00     0.060 A 
ATOM     30  C   UNL A   1      41.461  21.926  25.723  1.00  0.00     0.016 A 
ATOM     31  C   UNL A   1      41.886  21.159  27.945  1.00  0.00     0.016 A 
ATOM     32  C   UNL A   1      41.306  23.258  26.184  1.00  0.00     0.010 A 
ATOM     33  C   UNL A   1      41.819  22.522  28.400  1.00  0.00     0.010 A 
ATOM     34  C   UNL A   1      41.537  23.596  27.524  1.00  0.00    -0.014 A 
BRANCH  34  35
ATOM     35  C   UNL A   1      41.850  25.049  27.860  1.00  0.00     0.031 A 
ATOM     36  C   UNL A   1      43.210  25.561  27.406  1.00  0.00     0.074 A 
ATOM     37  C   UNL A   1      41.009  25.953  28.422  1.00  0.00     0.049 A 
ATOM     38  N   UNL A   1      43.759  26.746  27.523  1.00  0.00    -0.248 NA
ATOM     39  C   UNL A   1      44.052  24.582  26.700  1.00  0.00     0.031 C 
ATOM     40  C   UNL A   1      39.626  25.706  28.820  1.00  0.00     0.029 A 
ATOM     41  N   UNL A   1      41.199  27.290  28.746  1.00  0.00    -0.354 N 
ATOM     42  C   UNL A   1      45.005  26.651  26.903  1.00  0.00     0.074 A 
ATOM     43  C   UNL A   1      45.131  25.291  26.427  1.00  0.00     0.031 C 
ATOM     44  C   UNL A   1      39.100  26.839  29.334  1.00  0.00     0.029 A 
ATOM     45  C   UNL A   1      40.110  27.901  29.344  1.00  0.00     0.049 A 
ATOM     46  H   UNL A   1      42.042  27.766  28.564  1.00  0.00     0.167 HD
ATOM     47  C   UNL A   1      45.971  27.592  26.741  1.00  0.00     0.034 A 
ATOM     48  C   UNL A   1      39.946  29.150  29.856  1.00  0.00     0.034 A 
ATOM     49  C   UNL A   1      45.890  28.938  27.247  1.00  0.00     0.049 A 
ATOM     50  C   UNL A   1      41.096  30.148  29.799  1.00  0.00     0.074 A 
ATOM     51  C   UNL A   1      46.841  29.943  27.173  1.00  0.00     0.029 A 
ATOM     52  N   UNL A   1      44.810  29.468  27.938  1.00  0.00    -0.354 N 
ATOM     53  N   UNL A   1      42.279  30.022  29.242  1.00  0.00    -0.248 NA
ATOM     54  C   UNL A   1      40.883  31.458  30.440  1.00  0.00     0.031 C 
ATOM     55  C   UNL A   1      46.372  31.048  27.892  1.00  0.00     0.029 A 
ATOM     56  C   UNL A   1      45.086  30.771  28.327  1.00  0.00     0.049 A 
ATOM     57  H   UNL A   1      43.971  28.989  28.127  1.00  0.00     0.167 HD
ATOM     58  C   UNL A   1      42.924  31.250  29.426  1.00  0.00     0.074 A 
ATOM     59  C   UNL A   1      41.999  32.103  30.135  1.00  0.00     0.031 C 
ATOM     60  C   UNL A   1      44.167  31.633  29.033  1.00  0.00     0.034 A 
BRANCH  47  61
ATOM     61  C   UNL A   1      47.250  27.145  26.069  1.00  0.00     0.023 A 
ATOM     62  C   UNL A   1      48.214  26.368  26.738  1.00  0.00     0.031 A 
ATOM     63  C   UNL A   1      47.538  27.566  24.758  1.00  0.00     0.131 A 
ATOM     64  C   UNL A   1      49.449  26.109  26.123  1.00  0.00     0.055 A 
ATOM     65  C   UNL A   1      48.732  27.229  24.121  1.00  0.00     0.041 A 
ATOM     66  F   UNL A   1      46.669  28.333  24.080  1.00  0.00    -0.206 F 
ATOM     67  C   UNL A   1      49.704  26.511  24.811  1.00  0.00     0.022 A 
BRANCH  64  68
ATOM     68  S   UNL A   1      50.782  25.388  27.123  1.00  0.00     0.124 S 
ATOM     69  O   UNL A   1      51.658  24.833  26.093  1.00  0.00    -0.237 OA
ATOM     70  O   UNL A   1      51.298  26.546  27.845  1.00  0.00    -0.237 OA
ATOM     71  O   UNL A   1      50.094  24.395  27.946  1.00  0.00    -0.744 OA
ENDBRANCH  64  68
ENDBRANCH  47  61
BRANCH  48  72
ATOM     72  C   UNL A   1      38.673  29.560  30.550  1.00  0.00     0.023 A 
ATOM     73  C   UNL A   1      37.717  30.396  29.935  1.00  0.00     0.031 A 
ATOM     74  C   UNL A   1      38.456  29.223  31.900  1.00  0.00     0.131 A 
ATOM     75  C   UNL A   1      36.626  30.894  30.675  1.00  0.00     0.055 A 
ATOM     76  C   UNL A   1      37.340  29.674  32.613  1.00  0.00     0.041 A 
ATOM     77  F   UNL A   1      39.341  28.459  32.559  1.00  0.00    -0.206 F 
ATOM     78  C   UNL A   1      36.423  30.524  32.005  1.00  0.00     0.022 A 
BRANCH  75  79
ATOM     79  S   UNL A   1      35.520  32.120  29.912  1.00  0.00     0.124 S 
ATOM     80  O   UNL A   1      34.507  32.292  30.947  1.00  0.00    -0.237 OA
ATOM     81  O   UNL A   1      36.419  33.249  29.698  1.00  0.00    -0.237 OA
ATOM     82  O   UNL A   1      35.060  31.455  28.694  1.00  0.00    -0.744 OA
ENDBRANCH  75  79
ENDBRANCH  48  72
BRANCH  60  83
ATOM     83  C   UNL A   1      44.581  33.069  29.289  1.00  0.00     0.023 A 
ATOM     84  C   UNL A   1      44.037  34.150  28.571  1.00  0.00     0.031 A 
ATOM     85  C   UNL A   1      45.549  33.358  30.270  1.00  0.00     0.131 A 
ATOM     86  C   UNL A   1      44.514  35.453  28.795  1.00  0.00     0.055 A 
ATOM     87  C   UNL A   1      45.966  34.662  30.539  1.00  0.00     0.041 A 
ATOM     88  F   UNL A   1      46.109  32.371  30.989  1.00  0.00    -0.206 F 
ATOM     89  C   UNL A   1      45.461  35.718  29.787  1.00  0.00     0.022 A 
BRANCH  86  90
ATOM     90  S   UNL A   1      43.972  36.785  27.688  1.00  0.00     0.124 S 
ATOM     91  O   UNL A   1      42.882  37.389  28.449  1.00  0.00    -0.237 OA
ATOM     92  O   UNL A   1      45.180  37.593  27.557  1.00  0.00    -0.237 OA
ATOM     93  O   UNL A   1      43.564  36.079  26.475  1.00  0.00    -0.744 OA
ENDBRANCH  86  90
ENDBRANCH  60  83
ENDBRANCH  34  35
ENDBRANCH  27  29
ENDBRANCH  26  27
ENDBRANCH  25  26
ENDBRANCH   1  25
TORSDOF 19
ENDMDL
MODEL 2
REMARK VINA RESULT:     -11.5      5.012     10.972
REMARK SMILES CC[C@](C)(NC(=O)N1Cc2ccccc2C1)C(=O)OCCOCCOC(=O)c1ccc(-c2c3nc(c(-c4cc(S(=O)(=O)[O-])ccc4F)c4ccc([nH]4)c(-c4cc(S(=O)(=O)[O-])ccc4F)c4nc(c(-c5cc(S(=O)(=O)[O-])ccc5F)c5ccc2[nH]5)C=C4)C=C3)cc1
REMARK SMILES IDX 23 1 22 2 21 3 20 4 19 5 17 6 18 7 3 8 4 9 2 10 1 11 5 12
REMARK SMILES IDX 6 13 7 15 8 16 9 17 16 18 10 19 15 20 11 21 14 22 12 23
REMARK SMILES IDX 13 24 24 25 25 26 26 27 27 28 28 29 29 30 90 31 30 32 89 33
REMARK SMILES IDX 31 34 32 35 33 36 83 37 34 38 88 39 82 40 84 41 35 42 87 43
REMARK SMILES IDX 81 44 80 45 36 47 68 48 48 49 67 50 49 51 52 52 66 53 85 54
REMARK SMILES IDX 50 55 51 56 65 58 86 59 53 60 37 61 38 62 46 63 39 64 45 65
REMARK SMILES IDX 47 66 44 67 40 68 41 69 42 70 43 71 69 72 70 73 78 74 71 75
REMARK SMILES IDX 77 76 79 77 76 78 72 79 73 80 74 81 75 82 54 83 55 84 63 85
REMARK SMILES IDX 56 86 62 87 64 88 61 89 57 90 58 91 59 92 60 93
REMARK H PARENT 5 14 84 46 52 57
REMARK Flexibility Score: inf
ROOT
ATOM      1  C   UNL A   1      31.984  30.901  26.155  1.00  0.00     0.202 C 
ENDROOT
BRANCH   1   2
ATOM      2  O   UNL A   1      31.605  29.754  26.953  1.00  0.00    -0.374 OA
BRANCH   2   3
ATOM      3  C   UNL A   1      32.500  28.748  27.479  1.00  0.00     0.202 C 
BRANCH   3   4
ATOM      4  C   UNL A   1      33.368  27.761  26.645  1.00  0.00     0.261 C 
BRANCH   4   5
ATOM      5  O   UNL A   1      32.661  27.174  25.576  1.00  0.00    -0.462 OA
BRANCH   5   6
ATOM      6  C   UNL A   1      31.892  26.112  25.828  1.00  0.00     0.331 C 
ATOM      7  O   UNL A   1      31.147  26.010  26.807  1.00  0.00    -0.249 OA
BRANCH   6   8
ATOM      8  C   UNL A   1      32.014  25.073  24.698  1.00  0.00     0.136 C 
ATOM      9  C   UNL A   1      30.981  23.973  25.089  1.00  0.00     0.047 C 
BRANCH   8  10
ATOM     10  C   UNL A   1      33.425  24.425  24.691  1.00  0.00     0.037 C 
ATOM     11  C   UNL A   1      34.031  24.084  26.059  1.00  0.00     0.007 C 
ENDBRANCH   8  10
BRANCH   8  12
ATOM     12  N   UNL A   1      31.693  25.517  23.268  1.00  0.00    -0.322 N 
ATOM     13  C   UNL A   1      31.218  26.569  22.540  1.00  0.00     0.318 C 
ATOM     14  H   UNL A   1      31.907  24.779  22.652  1.00  0.00     0.166 HD
ATOM     15  O   UNL A   1      31.373  26.476  21.320  1.00  0.00    -0.249 OA
ATOM     16  N   UNL A   1      30.500  27.601  23.095  1.00  0.00    -0.316 N 
ATOM     17  C   UNL A   1      29.085  27.715  22.780  1.00  0.00     0.157 C 
ATOM     18  C   UNL A   1      31.004  28.974  22.992  1.00  0.00     0.157 C 
ATOM     19  C   UNL A   1      28.644  29.079  23.134  1.00  0.00    -0.023 A 
ATOM     20  C   UNL A   1      29.793  29.844  23.266  1.00  0.00    -0.023 A 
ATOM     21  C   UNL A   1      27.349  29.577  23.252  1.00  0.00     0.006 A 
ATOM     22  C   UNL A   1      29.657  31.184  23.543  1.00  0.00     0.006 A 
ATOM     23  C   UNL A   1      27.213  30.921  23.560  1.00  0.00     0.000 A 
ATOM     24  C   UNL A   1      28.362  31.715  23.705  1.00  0.00     0.000 A 
ENDBRANCH   8  12
ENDBRANCH   6   8
ENDBRANCH   5   6
ENDBRANCH   4   5
ENDBRANCH   3   4
ENDBRANCH   2   3
ENDBRANCH   1   2
BRANCH   1  25
ATOM     25  C   UNL A   1      31.598  32.413  26.536  1.00  0.00     0.261 C 
BRANCH  25  26
ATOM     26  O   UNL A   1      32.019  32.842  27.908  1.00  0.00    -0.460 OA
BRANCH  26  27
ATOM     27  C   UNL A   1      33.061  33.745  28.048  1.00  0.00     0.338 C 
ATOM     28  O   UNL A   1      32.876  34.945  28.203  1.00  0.00    -0.246 OA
BRANCH  27  29
ATOM     29  C   UNL A   1      34.449  33.124  28.311  1.00  0.00     0.060 A 
ATOM     30  C   UNL A   1      34.507  31.721  28.456  1.00  0.00     0.016 A 
ATOM     31  C   UNL A   1      35.670  33.807  28.405  1.00  0.00     0.016 A 
ATOM     32  C   UNL A   1      35.726  31.014  28.615  1.00  0.00     0.010 A 
ATOM     33  C   UNL A   1      36.896  33.098  28.657  1.00  0.00     0.010 A 
ATOM     34  C   UNL A   1      36.943  31.690  28.776  1.00  0.00    -0.014 A 
BRANCH  34  35
ATOM     35  C   UNL A   1      38.101  30.947  29.430  1.00  0.00     0.031 A 
ATOM     36  C   UNL A   1      38.348  31.255  30.900  1.00  0.00     0.074 A 
ATOM     37  C   UNL A   1      38.860  29.971  28.870  1.00  0.00     0.049 A 
ATOM     38  N   UNL A   1      39.237  30.775  31.736  1.00  0.00    -0.248 NA
ATOM     39  C   UNL A   1      37.434  32.237  31.503  1.00  0.00     0.031 C 
ATOM     40  C   UNL A   1      38.713  29.438  27.519  1.00  0.00     0.029 A 
ATOM     41  N   UNL A   1      39.915  29.232  29.390  1.00  0.00    -0.354 N 
ATOM     42  C   UNL A   1      38.983  31.395  32.959  1.00  0.00     0.074 A 
ATOM     43  C   UNL A   1      37.869  32.293  32.748  1.00  0.00     0.031 C 
ATOM     44  C   UNL A   1      39.637  28.474  27.316  1.00  0.00     0.029 A 
ATOM     45  C   UNL A   1      40.479  28.328  28.506  1.00  0.00     0.049 A 
ATOM     46  H   UNL A   1      40.236  29.342  30.315  1.00  0.00     0.167 HD
ATOM     47  C   UNL A   1      39.611  31.253  34.154  1.00  0.00     0.034 A 
ATOM     48  C   UNL A   1      41.551  27.500  28.625  1.00  0.00     0.034 A 
ATOM     49  C   UNL A   1      40.752  30.402  34.380  1.00  0.00     0.049 A 
ATOM     50  C   UNL A   1      42.337  27.462  29.929  1.00  0.00     0.074 A 
ATOM     51  C   UNL A   1      41.483  30.233  35.545  1.00  0.00     0.029 A 
ATOM     52  N   UNL A   1      41.346  29.594  33.422  1.00  0.00    -0.354 N 
ATOM     53  N   UNL A   1      42.101  28.088  31.061  1.00  0.00    -0.248 NA
ATOM     54  C   UNL A   1      43.533  26.603  29.970  1.00  0.00     0.031 C 
ATOM     55  C   UNL A   1      42.566  29.392  35.268  1.00  0.00     0.029 A 
ATOM     56  C   UNL A   1      42.454  28.953  33.960  1.00  0.00     0.049 A 
ATOM     57  H   UNL A   1      41.030  29.491  32.495  1.00  0.00     0.167 HD
ATOM     58  C   UNL A   1      43.089  27.658  31.952  1.00  0.00     0.074 A 
ATOM     59  C   UNL A   1      43.916  26.716  31.233  1.00  0.00     0.031 C 
ATOM     60  C   UNL A   1      43.285  28.008  33.250  1.00  0.00     0.034 A 
BRANCH  47  61
ATOM     61  C   UNL A   1      39.125  32.129  35.288  1.00  0.00     0.023 A 
ATOM     62  C   UNL A   1      39.552  33.462  35.437  1.00  0.00     0.031 A 
ATOM     63  C   UNL A   1      38.275  31.596  36.272  1.00  0.00     0.131 A 
ATOM     64  C   UNL A   1      39.194  34.184  36.586  1.00  0.00     0.055 A 
ATOM     65  C   UNL A   1      37.851  32.350  37.367  1.00  0.00     0.041 A 
ATOM     66  F   UNL A   1      37.858  30.322  36.198  1.00  0.00    -0.206 F 
ATOM     67  C   UNL A   1      38.326  33.646  37.538  1.00  0.00     0.022 A 
BRANCH  64  68
ATOM     68  S   UNL A   1      40.014  35.771  36.906  1.00  0.00     0.124 S 
ATOM     69  O   UNL A   1      41.414  35.365  37.012  1.00  0.00    -0.237 OA
ATOM     70  O   UNL A   1      39.663  36.552  35.725  1.00  0.00    -0.237 OA
ATOM     71  O   UNL A   1      39.408  36.224  38.157  1.00  0.00    -0.744 OA
ENDBRANCH  64  68
ENDBRANCH  47  61
BRANCH  48  72
ATOM     72  C   UNL A   1      42.035  26.660  27.470  1.00  0.00     0.023 A 
ATOM     73  C   UNL A   1      41.701  25.295  27.342  1.00  0.00     0.031 A 
ATOM     74  C   UNL A   1      42.953  27.186  26.542  1.00  0.00     0.131 A 
ATOM     75  C   UNL A   1      42.310  24.505  26.346  1.00  0.00     0.055 A 
ATOM     76  C   UNL A   1      43.510  26.410  25.520  1.00  0.00     0.041 A 
ATOM     77  F   UNL A   1      43.342  28.468  26.624  1.00  0.00    -0.206 F 
ATOM     78  C   UNL A   1      43.199  25.059  25.424  1.00  0.00     0.022 A 
BRANCH  75  79
ATOM     79  S   UNL A   1      42.007  22.711  26.327  1.00  0.00     0.124 S 
ATOM     80  O   UNL A   1      42.623  22.318  25.064  1.00  0.00    -0.237 OA
ATOM     81  O   UNL A   1      42.691  22.274  27.539  1.00  0.00    -0.237 OA
ATOM     82  O   UNL A   1      40.549  22.610  26.368  1.00  0.00    -0.744 OA
ENDBRANCH  75  79
ENDBRANCH  48  72
BRANCH  60  83
ATOM     83  C   UNL A   1      44.394  27.311  34.014  1.00  0.00     0.023 A 
ATOM     84  C   UNL A   1      44.246  26.016  34.544  1.00  0.00     0.031 A 
ATOM     85  C   UNL A   1      45.623  27.966  34.222  1.00  0.00     0.131 A 
ATOM     86  C   UNL A   1      45.279  25.450  35.311  1.00  0.00     0.055 A 
ATOM     87  C   UNL A   1      46.672  27.369  34.922  1.00  0.00     0.041 A 
ATOM     88  F   UNL A   1      45.827  29.204  33.743  1.00  0.00    -0.206 F 
ATOM     89  C   UNL A   1      46.497  26.110  35.488  1.00  0.00     0.022 A 
BRANCH  86  90
ATOM     90  S   UNL A   1      44.966  23.888  36.182  1.00  0.00     0.124 S 
ATOM     91  O   UNL A   1      46.141  23.100  35.825  1.00  0.00    -0.237 OA
ATOM     92  O   UNL A   1      44.887  24.318  37.574  1.00  0.00    -0.237 OA
ATOM     93  O   UNL A   1      43.706  23.420  35.605  1.00  0.00    -0.744 OA
ENDBRANCH  86  90
ENDBRANCH  60  83
ENDBRANCH  34  35
ENDBRANCH  27  29
ENDBRANCH  26  27
ENDBRANCH  25  26
ENDBRANCH   1  25
TORSDOF 19
ENDMDL
MODEL 3
REMARK VINA RESULT:     -11.4      4.821     10.410
REMARK SMILES CC[C@](C)(NC(=O)N1Cc2ccccc2C1)C(=O)OCCOCCOC(=O)c1ccc(-c2c3nc(c(-c4cc(S(=O)(=O)[O-])ccc4F)c4ccc([nH]4)c(-c4cc(S(=O)(=O)[O-])ccc4F)c4nc(c(-c5cc(S(=O)(=O)[O-])ccc5F)c5ccc2[nH]5)C=C4)C=C3)cc1
REMARK SMILES IDX 23 1 22 2 21 3 20 4 19 5 17 6 18 7 3 8 4 9 2 10 1 11 5 12
REMARK SMILES IDX 6 13 7 15 8 16 9 17 16 18 10 19 15 20 11 21 14 22 12 23
REMARK SMILES IDX 13 24 24 25 25 26 26 27 27 28 28 29 29 30 90 31 30 32 89 33
REMARK SMILES IDX 31 34 32 35 33 36 83 37 34 38 88 39 82 40 84 41 35 42 87 43
REMARK SMILES IDX 81 44 80 45 36 47 68 48 48 49 67 50 49 51 52 52 66 53 85 54
REMARK SMILES IDX 50 55 51 56 65 58 86 59 53 60 37 61 38 62 46 63 39 64 45 65
REMARK SMILES IDX 47 66 44 67 40 68 41 69 42 70 43 71 69 72 70 73 78 74 71 75
REMARK SMILES IDX 77 76 79 77 76 78 72 79 73 80 74 81 75 82 54 83 55 84 63 85
REMARK SMILES IDX 56 86 62 87 64 88 61 89 57 90 58 91 59 92 60 93
REMARK H PARENT 5 14 84 46 52 57
REMARK Flexibility Score: inf
ROOT
ATOM      1  C   UNL A   1      32.510  31.443  26.763  1.00  0.00     0.202 C 
ENDROOT
BRANCH   1   2
ATOM      2  O   UNL A   1      31.767  30.199  26.721  1.00  0.00    -0.374 OA
BRANCH   2   3
ATOM      3  C   UNL A   1      32.201  28.928  27.255  1.00  0.00     0.202 C 
BRANCH   3   4
ATOM      4  C   UNL A   1      31.425  27.582  27.171  1.00  0.00     0.261 C 
BRANCH   4   5
ATOM      5  O   UNL A   1      31.615  26.911  25.945  1.00  0.00    -0.462 OA
BRANCH   5   6
ATOM      6  C   UNL A   1      32.763  27.096  25.290  1.00  0.00     0.331 C 
ATOM      7  O   UNL A   1      33.875  26.807  25.741  1.00  0.00    -0.249 OA
BRANCH   6   8
ATOM      8  C   UNL A   1      32.498  27.651  23.878  1.00  0.00     0.136 C 
ATOM      9  C   UNL A   1      33.284  28.998  23.852  1.00  0.00     0.047 C 
BRANCH   8  10
ATOM     10  C   UNL A   1      30.992  27.970  23.682  1.00  0.00     0.037 C 
ATOM     11  C   UNL A   1      30.587  28.575  22.331  1.00  0.00     0.007 C 
ENDBRANCH   8  10
BRANCH   8  12
ATOM     12  N   UNL A   1      32.965  26.823  22.676  1.00  0.00    -0.322 N 
ATOM     13  C   UNL A   1      33.185  25.542  22.262  1.00  0.00     0.318 C 
ATOM     14  H   UNL A   1      33.184  27.436  21.937  1.00  0.00     0.166 HD
ATOM     15  O   UNL A   1      33.366  25.408  21.049  1.00  0.00    -0.249 OA
ATOM     16  N   UNL A   1      33.329  24.487  23.130  1.00  0.00    -0.316 N 
ATOM     17  C   UNL A   1      34.638  23.870  23.268  1.00  0.00     0.157 C 
ATOM     18  C   UNL A   1      32.403  23.353  23.055  1.00  0.00     0.157 C 
ATOM     19  C   UNL A   1      34.460  22.551  23.906  1.00  0.00    -0.023 A 
ATOM     20  C   UNL A   1      33.116  22.233  23.785  1.00  0.00    -0.023 A 
ATOM     21  C   UNL A   1      35.420  21.713  24.466  1.00  0.00     0.006 A 
ATOM     22  C   UNL A   1      32.689  21.013  24.256  1.00  0.00     0.006 A 
ATOM     23  C   UNL A   1      34.984  20.497  24.967  1.00  0.00     0.000 A 
ATOM     24  C   UNL A   1      33.627  20.154  24.861  1.00  0.00     0.000 A 
ENDBRANCH   8  12
ENDBRANCH   6   8
ENDBRANCH   5   6
ENDBRANCH   4   5
ENDBRANCH   3   4
ENDBRANCH   2   3
ENDBRANCH   1   2
BRANCH   1  25
ATOM     25  C   UNL A   1      31.935  32.798  27.404  1.00  0.00     0.261 C 
BRANCH  25  26
ATOM     26  O   UNL A   1      32.939  33.899  27.553  1.00  0.00    -0.460 OA
BRANCH  26  27
ATOM     27  C   UNL A   1      33.610  34.050  28.757  1.00  0.00     0.338 C 
ATOM     28  O   UNL A   1      33.083  34.539  29.747  1.00  0.00    -0.246 OA
BRANCH  27  29
ATOM     29  C   UNL A   1      34.947  33.289  28.874  1.00  0.00     0.060 A 
ATOM     30  C   UNL A   1      34.878  31.922  29.221  1.00  0.00     0.016 A 
ATOM     31  C   UNL A   1      36.231  33.808  28.655  1.00  0.00     0.016 A 
ATOM     32  C   UNL A   1      36.022  31.085  29.280  1.00  0.00     0.010 A 
ATOM     33  C   UNL A   1      37.398  32.981  28.803  1.00  0.00     0.010 A 
ATOM     34  C   UNL A   1      37.314  31.607  29.127  1.00  0.00    -0.014 A 
BRANCH  34  35
ATOM     35  C   UNL A   1      38.486  30.809  29.683  1.00  0.00     0.031 A 
ATOM     36  C   UNL A   1      38.882  31.115  31.120  1.00  0.00     0.074 A 
ATOM     37  C   UNL A   1      39.138  29.789  29.070  1.00  0.00     0.049 A 
ATOM     38  N   UNL A   1      39.817  30.595  31.878  1.00  0.00    -0.248 NA
ATOM     39  C   UNL A   1      38.080  32.150  31.791  1.00  0.00     0.031 C 
ATOM     40  C   UNL A   1      38.840  29.253  27.744  1.00  0.00     0.029 A 
ATOM     41  N   UNL A   1      40.196  28.998  29.501  1.00  0.00    -0.354 N 
ATOM     42  C   UNL A   1      39.709  31.238  33.111  1.00  0.00     0.074 A 
ATOM     43  C   UNL A   1      38.630  32.193  32.990  1.00  0.00     0.031 C 
ATOM     44  C   UNL A   1      39.689  28.239  27.471  1.00  0.00     0.029 A 
ATOM     45  C   UNL A   1      40.628  28.058  28.582  1.00  0.00     0.049 A 
ATOM     46  H   UNL A   1      40.605  29.098  30.391  1.00  0.00     0.167 HD
ATOM     47  C   UNL A   1      40.436  31.072  34.246  1.00  0.00     0.034 A 
ATOM     48  C   UNL A   1      41.661  27.174  28.614  1.00  0.00     0.034 A 
ATOM     49  C   UNL A   1      41.546  30.163  34.378  1.00  0.00     0.049 A 
ATOM     50  C   UNL A   1      42.560  27.105  29.841  1.00  0.00     0.074 A 
ATOM     51  C   UNL A   1      42.370  29.965  35.474  1.00  0.00     0.029 A 
ATOM     52  N   UNL A   1      42.007  29.317  33.381  1.00  0.00    -0.354 N 
ATOM     53  N   UNL A   1      42.462  27.752  30.981  1.00  0.00    -0.248 NA
ATOM     54  C   UNL A   1      43.708  26.184  29.785  1.00  0.00     0.031 C 
ATOM     55  C   UNL A   1      43.377  29.065  35.112  1.00  0.00     0.029 A 
ATOM     56  C   UNL A   1      43.123  28.621  33.824  1.00  0.00     0.049 A 
ATOM     57  H   UNL A   1      41.602  29.223  32.489  1.00  0.00     0.167 HD
ATOM     58  C   UNL A   1      43.503  27.277  31.784  1.00  0.00     0.074 A 
ATOM     59  C   UNL A   1      44.210  26.286  31.006  1.00  0.00     0.031 C 
ATOM     60  C   UNL A   1      43.835  27.627  33.055  1.00  0.00     0.034 A 
BRANCH  47  61
ATOM     61  C   UNL A   1      40.102  31.983  35.407  1.00  0.00     0.023 A 
ATOM     62  C   UNL A   1      39.179  31.617  36.403  1.00  0.00     0.031 A 
ATOM     63  C   UNL A   1      40.670  33.268  35.477  1.00  0.00     0.131 A 
ATOM     64  C   UNL A   1      38.790  32.555  37.372  1.00  0.00     0.055 A 
ATOM     65  C   UNL A   1      40.345  34.164  36.495  1.00  0.00     0.041 A 
ATOM     66  F   UNL A   1      41.536  33.684  34.538  1.00  0.00    -0.206 F 
ATOM     67  C   UNL A   1      39.386  33.815  37.441  1.00  0.00     0.022 A 
BRANCH  64  68
ATOM     68  S   UNL A   1      37.373  32.167  38.437  1.00  0.00     0.124 S 
ATOM     69  O   UNL A   1      37.871  32.567  39.752  1.00  0.00    -0.237 OA
ATOM     70  O   UNL A   1      36.316  32.999  37.874  1.00  0.00    -0.237 OA
ATOM     71  O   UNL A   1      37.194  30.726  38.260  1.00  0.00    -0.744 OA
ENDBRANCH  64  68
ENDBRANCH  47  61
BRANCH  48  72
ATOM     72  C   UNL A   1      41.992  26.300  27.431  1.00  0.00     0.023 A 
ATOM     73  C   UNL A   1      41.643  24.933  27.385  1.00  0.00     0.031 A 
ATOM     74  C   UNL A   1      42.784  26.795  26.378  1.00  0.00     0.131 A 
ATOM     75  C   UNL A   1      42.119  24.113  26.343  1.00  0.00     0.055 A 
ATOM     76  C   UNL A   1      43.205  25.989  25.315  1.00  0.00     0.041 A 
ATOM     77  F   UNL A   1      43.181  28.077  26.373  1.00  0.00    -0.206 F 
ATOM     78  C   UNL A   1      42.883  24.636  25.299  1.00  0.00     0.022 A 
BRANCH  75  79
ATOM     79  S   UNL A   1      41.815  22.320  26.414  1.00  0.00     0.124 S 
ATOM     80  O   UNL A   1      40.374  22.254  26.198  1.00  0.00    -0.237 OA
ATOM     81  O   UNL A   1      42.652  21.827  25.326  1.00  0.00    -0.237 OA
ATOM     82  O   UNL A   1      42.263  21.950  27.756  1.00  0.00    -0.744 OA
ENDBRANCH  75  79
ENDBRANCH  48  72
BRANCH  60  83
ATOM     83  C   UNL A   1      44.970  26.878  33.724  1.00  0.00     0.023 A 
ATOM     84  C   UNL A   1      44.777  25.657  34.395  1.00  0.00     0.031 A 
ATOM     85  C   UNL A   1      46.275  27.407  33.694  1.00  0.00     0.131 A 
ATOM     86  C   UNL A   1      45.851  25.046  35.065  1.00  0.00     0.055 A 
ATOM     87  C   UNL A   1      47.353  26.758  34.299  1.00  0.00     0.041 A 
ATOM     88  F   UNL A   1      46.527  28.570  33.071  1.00  0.00    -0.206 F 
ATOM     89  C   UNL A   1      47.140  25.579  35.005  1.00  0.00     0.022 A 
BRANCH  86  90
ATOM     90  S   UNL A   1      45.518  23.608  36.121  1.00  0.00     0.124 S 
ATOM     91  O   UNL A   1      46.765  22.857  36.016  1.00  0.00    -0.237 OA
ATOM     92  O   UNL A   1      45.255  24.226  37.416  1.00  0.00    -0.237 OA
ATOM     93  O   UNL A   1      44.360  22.977  35.489  1.00  0.00    -0.744 OA
ENDBRANCH  86  90
ENDBRANCH  60  83
ENDBRANCH  34  35
ENDBRANCH  27  29
ENDBRANCH  26  27
ENDBRANCH  25  26
ENDBRANCH   1  25
TORSDOF 19
ENDMDL
