MODEL 1
REMARK VINA RESULT:     -10.4      0.000      0.000
REMARK SMILES CC[C@H](C)N(CC)c1cc(C)c(N)c(C(=O)OCCOCCOC(=O)c2ccc(-c3c4nc(c(-c5cc(S(=O)(=O)[O-])ccc5F)c5ccc([nH]5)c(-c5cc(S(=O)(=O)[O-])ccc5F)c5nc(c(-c6cc(S(=O)(=O)[O-])ccc6F)c6ccc3[nH]6)C=C5)C=C4)cc2)c1
REMARK SMILES IDX 20 1 19 2 18 3 17 4 15 5 16 6 14 7 8 8 9 9 89 10 10 11 11 12
REMARK SMILES IDX 12 13 5 14 3 15 4 16 2 17 1 18 6 19 7 20 13 21 21 24 22 25
REMARK SMILES IDX 23 26 24 27 25 28 26 29 27 30 88 31 28 32 87 33 29 34 30 35
REMARK SMILES IDX 31 36 81 37 32 38 86 39 80 40 82 41 33 42 85 43 79 44 78 45
REMARK SMILES IDX 34 47 66 48 46 49 65 50 47 51 50 52 64 53 83 54 48 55 49 56
REMARK SMILES IDX 63 58 84 59 51 60 35 61 36 62 44 63 37 64 43 65 45 66 42 67
REMARK SMILES IDX 38 68 39 69 40 70 41 71 67 72 68 73 76 74 69 75 75 76 77 77
REMARK SMILES IDX 74 78 70 79 71 80 72 81 73 82 52 83 53 84 61 85 54 86 60 87
REMARK SMILES IDX 62 88 59 89 55 90 56 91 57 92 58 93
REMARK H PARENT 13 22 13 23 82 46 50 57
REMARK Flexibility Score: inf
ROOT
ATOM      1  O   UNL A   1      37.053  21.488  25.737  1.00  0.00    -0.374 OA
ENDROOT
BRANCH   1   2
ATOM      2  C   UNL A   1      35.663  21.808  25.801  1.00  0.00     0.202 C 
BRANCH   2   3
ATOM      3  C   UNL A   1      35.098  22.577  24.603  1.00  0.00     0.261 C 
BRANCH   3   4
ATOM      4  O   UNL A   1      34.019  21.854  23.986  1.00  0.00    -0.460 OA
BRANCH   4   5
ATOM      5  C   UNL A   1      33.126  22.621  23.312  1.00  0.00     0.340 C 
ATOM      6  O   UNL A   1      32.887  22.567  22.114  1.00  0.00    -0.246 OA
BRANCH   5   7
ATOM      7  C   UNL A   1      32.334  23.454  24.257  1.00  0.00     0.085 A 
ATOM      8  C   UNL A   1      31.663  25.687  25.052  1.00  0.00     0.038 A 
ATOM      9  C   UNL A   1      30.879  25.019  26.000  1.00  0.00     0.031 A 
ATOM     10  C   UNL A   1      32.393  24.859  24.185  1.00  0.00     0.043 A 
ATOM     11  C   UNL A   1      30.783  23.613  26.088  1.00  0.00    -0.025 A 
ATOM     12  C   UNL A   1      29.873  23.013  27.125  1.00  0.00     0.047 C 
ATOM     13  C   UNL A   1      31.523  22.809  25.211  1.00  0.00     0.049 A 
BRANCH   8  14
ATOM     14  N   UNL A   1      31.704  27.075  24.953  1.00  0.00    -0.369 N 
BRANCH  14  15
ATOM     15  C   UNL A   1      30.588  27.937  24.475  1.00  0.00     0.078 C 
ATOM     16  C   UNL A   1      31.040  29.370  24.174  1.00  0.00     0.031 C 
BRANCH  15  17
ATOM     17  C   UNL A   1      29.762  27.261  23.363  1.00  0.00     0.021 C 
ATOM     18  C   UNL A   1      28.570  26.463  23.879  1.00  0.00     0.006 C 
ENDBRANCH  15  17
ENDBRANCH  14  15
BRANCH  14  19
ATOM     19  C   UNL A   1      33.005  27.758  25.118  1.00  0.00     0.113 C 
ATOM     20  C   UNL A   1      33.629  27.511  26.485  1.00  0.00     0.027 C 
ENDBRANCH  14  19
ENDBRANCH   8  14
BRANCH  13  21
ATOM     21  N   UNL A   1      31.585  21.427  25.407  1.00  0.00    -0.398 N 
ATOM     22  H   UNL A   1      32.373  21.027  25.842  1.00  0.00     0.156 HD
ATOM     23  H   UNL A   1      30.843  20.853  25.108  1.00  0.00     0.156 HD
ENDBRANCH  13  21
ENDBRANCH   5   7
ENDBRANCH   4   5
ENDBRANCH   3   4
ENDBRANCH   2   3
ENDBRANCH   1   2
BRANCH   1  24
ATOM     24  C   UNL A   1      37.415  20.364  24.928  1.00  0.00     0.202 C 
BRANCH  24  25
ATOM     25  C   UNL A   1      38.853  19.855  25.077  1.00  0.00     0.261 C 
BRANCH  25  26
ATOM     26  O   UNL A   1      39.348  20.015  26.420  1.00  0.00    -0.460 OA
BRANCH  26  27
ATOM     27  C   UNL A   1      40.664  20.319  26.509  1.00  0.00     0.338 C 
ATOM     28  O   UNL A   1      41.598  19.663  26.064  1.00  0.00    -0.246 OA
BRANCH  27  29
ATOM     29  C   UNL A   1      40.839  21.674  27.067  1.00  0.00     0.060 A 
ATOM     30  C   UNL A   1      40.110  22.714  26.474  1.00  0.00     0.016 A 
ATOM     31  C   UNL A   1      41.740  21.942  28.099  1.00  0.00     0.016 A 
ATOM     32  C   UNL A   1      40.322  24.033  26.871  1.00  0.00     0.010 A 
ATOM     33  C   UNL A   1      41.959  23.269  28.491  1.00  0.00     0.010 A 
ATOM     34  C   UNL A   1      41.279  24.323  27.852  1.00  0.00    -0.014 A 
BRANCH  34  35
ATOM     35  C   UNL A   1      41.689  25.733  28.077  1.00  0.00     0.031 A 
ATOM     36  C   UNL A   1      43.053  26.170  27.614  1.00  0.00     0.074 A 
ATOM     37  C   UNL A   1      40.847  26.621  28.639  1.00  0.00     0.049 A 
ATOM     38  N   UNL A   1      43.647  27.328  27.748  1.00  0.00    -0.248 NA
ATOM     39  C   UNL A   1      43.854  25.162  26.900  1.00  0.00     0.031 C 
ATOM     40  C   UNL A   1      39.480  26.331  29.071  1.00  0.00     0.029 A 
ATOM     41  N   UNL A   1      41.021  27.948  28.944  1.00  0.00    -0.354 N 
ATOM     42  C   UNL A   1      44.886  27.192  27.129  1.00  0.00     0.074 A 
ATOM     43  C   UNL A   1      44.975  25.826  26.661  1.00  0.00     0.031 C 
ATOM     44  C   UNL A   1      38.944  27.446  29.597  1.00  0.00     0.029 A 
ATOM     45  C   UNL A   1      39.940  28.517  29.577  1.00  0.00     0.049 A 
ATOM     46  H   UNL A   1      41.843  28.446  28.729  1.00  0.00     0.167 HD
ATOM     47  C   UNL A   1      45.853  28.125  26.955  1.00  0.00     0.034 A 
ATOM     48  C   UNL A   1      39.785  29.750  30.102  1.00  0.00     0.034 A 
ATOM     49  C   UNL A   1      45.761  29.480  27.442  1.00  0.00     0.049 A 
ATOM     50  C   UNL A   1      40.922  30.742  29.988  1.00  0.00     0.074 A 
ATOM     51  C   UNL A   1      46.697  30.496  27.352  1.00  0.00     0.029 A 
ATOM     52  N   UNL A   1      44.666  30.009  28.111  1.00  0.00    -0.354 N 
ATOM     53  N   UNL A   1      42.096  30.593  29.418  1.00  0.00    -0.248 NA
ATOM     54  C   UNL A   1      40.709  32.071  30.577  1.00  0.00     0.031 C 
ATOM     55  C   UNL A   1      46.192  31.619  28.014  1.00  0.00     0.029 A 
ATOM     56  C   UNL A   1      44.911  31.329  28.453  1.00  0.00     0.049 A 
ATOM     57  H   UNL A   1      43.836  29.518  28.313  1.00  0.00     0.167 HD
ATOM     58  C   UNL A   1      42.739  31.824  29.543  1.00  0.00     0.074 A 
ATOM     59  C   UNL A   1      41.818  32.705  30.230  1.00  0.00     0.031 C 
ATOM     60  C   UNL A   1      43.975  32.197  29.127  1.00  0.00     0.034 A 
BRANCH  47  61
ATOM     61  C   UNL A   1      47.110  27.697  26.240  1.00  0.00     0.023 A 
ATOM     62  C   UNL A   1      47.287  27.925  24.864  1.00  0.00     0.031 A 
ATOM     63  C   UNL A   1      48.142  27.047  26.939  1.00  0.00     0.131 A 
ATOM     64  C   UNL A   1      48.444  27.462  24.221  1.00  0.00     0.055 A 
ATOM     65  C   UNL A   1      49.321  26.650  26.308  1.00  0.00     0.041 A 
ATOM     66  F   UNL A   1      48.017  26.781  28.250  1.00  0.00    -0.206 F 
ATOM     67  C   UNL A   1      49.474  26.849  24.938  1.00  0.00     0.022 A 
BRANCH  64  68
ATOM     68  S   UNL A   1      48.540  27.575  22.414  1.00  0.00     0.124 S 
ATOM     69  O   UNL A   1      47.305  28.289  22.098  1.00  0.00    -0.237 OA
ATOM     70  O   UNL A   1      49.778  28.316  22.208  1.00  0.00    -0.237 OA
ATOM     71  O   UNL A   1      48.571  26.177  21.985  1.00  0.00    -0.744 OA
ENDBRANCH  64  68
ENDBRANCH  47  61
BRANCH  48  72
ATOM     72  C   UNL A   1      38.536  30.123  30.832  1.00  0.00     0.023 A 
ATOM     73  C   UNL A   1      37.516  30.852  30.201  1.00  0.00     0.031 A 
ATOM     74  C   UNL A   1      38.393  29.846  32.204  1.00  0.00     0.131 A 
ATOM     75  C   UNL A   1      36.437  31.344  30.954  1.00  0.00     0.055 A 
ATOM     76  C   UNL A   1      37.284  30.279  32.934  1.00  0.00     0.041 A 
ATOM     77  F   UNL A   1      39.339  29.156  32.862  1.00  0.00    -0.206 F 
ATOM     78  C   UNL A   1      36.307  31.051  32.313  1.00  0.00     0.022 A 
BRANCH  75  79
ATOM     79  S   UNL A   1      35.277  32.491  30.160  1.00  0.00     0.124 S 
ATOM     80  O   UNL A   1      36.173  33.546  29.699  1.00  0.00    -0.237 OA
ATOM     81  O   UNL A   1      34.686  31.652  29.124  1.00  0.00    -0.237 OA
ATOM     82  O   UNL A   1      34.375  32.868  31.247  1.00  0.00    -0.744 OA
ENDBRANCH  75  79
ENDBRANCH  48  72
BRANCH  60  83
ATOM     83  C   UNL A   1      44.369  33.639  29.339  1.00  0.00     0.023 A 
ATOM     84  C   UNL A   1      43.971  34.657  28.455  1.00  0.00     0.031 A 
ATOM     85  C   UNL A   1      45.162  33.995  30.445  1.00  0.00     0.131 A 
ATOM     86  C   UNL A   1      44.416  35.972  28.659  1.00  0.00     0.055 A 
ATOM     87  C   UNL A   1      45.554  35.315  30.674  1.00  0.00     0.041 A 
ATOM     88  F   UNL A   1      45.569  33.064  31.322  1.00  0.00    -0.206 F 
ATOM     89  C   UNL A   1      45.192  36.310  29.771  1.00  0.00     0.022 A 
BRANCH  86  90
ATOM     90  S   UNL A   1      44.043  37.224  27.400  1.00  0.00     0.124 S 
ATOM     91  O   UNL A   1      43.503  38.313  28.206  1.00  0.00    -0.237 OA
ATOM     92  O   UNL A   1      45.352  37.463  26.801  1.00  0.00    -0.237 OA
ATOM     93  O   UNL A   1      43.076  36.558  26.529  1.00  0.00    -0.744 OA
ENDBRANCH  86  90
ENDBRANCH  60  83
ENDBRANCH  34  35
ENDBRANCH  27  29
ENDBRANCH  26  27
ENDBRANCH  25  26
ENDBRANCH  24  25
ENDBRANCH   1  24
TORSDOF 22
ENDMDL
MODEL 2
REMARK VINA RESULT:     -10.3      4.692      7.591
REMARK SMILES CC[C@H](C)N(CC)c1cc(C)c(N)c(C(=O)OCCOCCOC(=O)c2ccc(-c3c4nc(c(-c5cc(S(=O)(=O)[O-])ccc5F)c5ccc([nH]5)c(-c5cc(S(=O)(=O)[O-])ccc5F)c5nc(c(-c6cc(S(=O)(=O)[O-])ccc6F)c6ccc3[nH]6)C=C5)C=C4)cc2)c1
REMARK SMILES IDX 20 1 19 2 18 3 17 4 15 5 16 6 14 7 8 8 9 9 89 10 10 11 11 12
REMARK SMILES IDX 12 13 5 14 3 15 4 16 2 17 1 18 6 19 7 20 13 21 21 24 22 25
REMARK SMILES IDX 23 26 24 27 25 28 26 29 27 30 88 31 28 32 87 33 29 34 30 35
REMARK SMILES IDX 31 36 81 37 32 38 86 39 80 40 82 41 33 42 85 43 79 44 78 45
REMARK SMILES IDX 34 47 66 48 46 49 65 50 47 51 50 52 64 53 83 54 48 55 49 56
REMARK SMILES IDX 63 58 84 59 51 60 35 61 36 62 44 63 37 64 43 65 45 66 42 67
REMARK SMILES IDX 38 68 39 69 40 70 41 71 67 72 68 73 76 74 69 75 75 76 77 77
REMARK SMILES IDX 74 78 70 79 71 80 72 81 73 82 52 83 53 84 61 85 54 86 60 87
REMARK SMILES IDX 62 88 59 89 55 90 56 91 57 92 58 93
REMARK H PARENT 13 22 13 23 82 46 50 57
REMARK Flexibility Score: inf
ROOT
ATOM      1  O   UNL A   1      33.106  29.711  24.546  1.00  0.00    -0.374 OA
ENDROOT
BRANCH   1   2
ATOM      2  C   UNL A   1      33.798  28.486  24.302  1.00  0.00     0.202 C 
BRANCH   2   3
ATOM      3  C   UNL A   1      34.007  28.118  22.830  1.00  0.00     0.261 C 
BRANCH   3   4
ATOM      4  O   UNL A   1      32.810  27.556  22.262  1.00  0.00    -0.460 OA
BRANCH   4   5
ATOM      5  C   UNL A   1      32.883  26.236  21.963  1.00  0.00     0.340 C 
ATOM      6  O   UNL A   1      33.194  25.757  20.881  1.00  0.00    -0.246 OA
BRANCH   5   7
ATOM      7  C   UNL A   1      32.683  25.411  23.185  1.00  0.00     0.085 A 
ATOM      8  C   UNL A   1      33.464  23.598  24.660  1.00  0.00     0.038 A 
ATOM      9  C   UNL A   1      32.333  23.866  25.442  1.00  0.00     0.031 A 
ATOM     10  C   UNL A   1      33.607  24.400  23.517  1.00  0.00     0.043 A 
ATOM     11  C   UNL A   1      31.399  24.882  25.147  1.00  0.00    -0.025 A 
ATOM     12  C   UNL A   1      30.245  25.099  26.088  1.00  0.00     0.047 C 
ATOM     13  C   UNL A   1      31.564  25.668  24.000  1.00  0.00     0.049 A 
BRANCH   8  14
ATOM     14  N   UNL A   1      34.398  22.622  24.996  1.00  0.00    -0.369 N 
BRANCH  14  15
ATOM     15  C   UNL A   1      34.495  21.273  24.374  1.00  0.00     0.078 C 
ATOM     16  C   UNL A   1      35.553  20.391  25.047  1.00  0.00     0.031 C 
BRANCH  15  17
ATOM     17  C   UNL A   1      33.114  20.615  24.186  1.00  0.00     0.021 C 
ATOM     18  C   UNL A   1      32.794  19.547  25.225  1.00  0.00     0.006 C 
ENDBRANCH  15  17
ENDBRANCH  14  15
BRANCH  14  19
ATOM     19  C   UNL A   1      35.228  22.824  26.202  1.00  0.00     0.113 C 
ATOM     20  C   UNL A   1      36.406  23.757  25.955  1.00  0.00     0.027 C 
ENDBRANCH  14  19
ENDBRANCH   8  14
BRANCH  13  21
ATOM     21  N   UNL A   1      30.554  26.544  23.595  1.00  0.00    -0.398 N 
ATOM     22  H   UNL A   1      29.629  26.220  23.504  1.00  0.00     0.156 HD
ATOM     23  H   UNL A   1      30.767  27.485  23.400  1.00  0.00     0.156 HD
ENDBRANCH  13  21
ENDBRANCH   5   7
ENDBRANCH   4   5
ENDBRANCH   3   4
ENDBRANCH   2   3
ENDBRANCH   1   2
BRANCH   1  24
ATOM     24  C   UNL A   1      31.912  29.628  25.329  1.00  0.00     0.202 C 
BRANCH  24  25
ATOM     25  C   UNL A   1      31.812  30.587  26.521  1.00  0.00     0.261 C 
BRANCH  25  26
ATOM     26  O   UNL A   1      32.911  30.426  27.438  1.00  0.00    -0.460 OA
BRANCH  26  27
ATOM     27  C   UNL A   1      33.689  31.522  27.591  1.00  0.00     0.338 C 
ATOM     28  O   UNL A   1      33.320  32.690  27.578  1.00  0.00    -0.246 OA
BRANCH  27  29
ATOM     29  C   UNL A   1      35.060  31.127  27.971  1.00  0.00     0.060 A 
ATOM     30  C   UNL A   1      35.276  29.781  28.294  1.00  0.00     0.016 A 
ATOM     31  C   UNL A   1      36.099  32.054  28.075  1.00  0.00     0.016 A 
ATOM     32  C   UNL A   1      36.515  29.367  28.780  1.00  0.00     0.010 A 
ATOM     33  C   UNL A   1      37.341  31.638  28.572  1.00  0.00     0.010 A 
ATOM     34  C   UNL A   1      37.542  30.301  28.962  1.00  0.00    -0.014 A 
BRANCH  34  35
ATOM     35  C   UNL A   1      38.757  29.910  29.722  1.00  0.00     0.031 A 
ATOM     36  C   UNL A   1      39.679  28.878  29.127  1.00  0.00     0.074 A 
ATOM     37  C   UNL A   1      39.062  30.494  30.895  1.00  0.00     0.049 A 
ATOM     38  N   UNL A   1      40.762  28.343  29.625  1.00  0.00    -0.248 NA
ATOM     39  C   UNL A   1      39.328  28.386  27.784  1.00  0.00     0.031 C 
ATOM     40  C   UNL A   1      38.281  31.549  31.541  1.00  0.00     0.029 A 
ATOM     41  N   UNL A   1      40.112  30.281  31.754  1.00  0.00    -0.354 N 
ATOM     42  C   UNL A   1      41.229  27.459  28.657  1.00  0.00     0.074 A 
ATOM     43  C   UNL A   1      40.284  27.497  27.562  1.00  0.00     0.031 C 
ATOM     44  C   UNL A   1      38.874  31.881  32.701  1.00  0.00     0.029 A 
ATOM     45  C   UNL A   1      40.052  31.038  32.901  1.00  0.00     0.049 A 
ATOM     46  H   UNL A   1      40.840  29.646  31.566  1.00  0.00     0.167 HD
ATOM     47  C   UNL A   1      42.350  26.697  28.674  1.00  0.00     0.034 A 
ATOM     48  C   UNL A   1      40.841  31.030  33.996  1.00  0.00     0.034 A 
ATOM     49  C   UNL A   1      43.275  26.653  29.779  1.00  0.00     0.049 A 
ATOM     50  C   UNL A   1      42.027  30.091  34.034  1.00  0.00     0.074 A 
ATOM     51  C   UNL A   1      44.423  25.890  29.915  1.00  0.00     0.029 A 
ATOM     52  N   UNL A   1      43.161  27.406  30.939  1.00  0.00    -0.354 N 
ATOM     53  N   UNL A   1      42.445  29.246  33.120  1.00  0.00    -0.248 NA
ATOM     54  C   UNL A   1      42.857  30.115  35.248  1.00  0.00     0.031 C 
ATOM     55  C   UNL A   1      44.969  26.139  31.178  1.00  0.00     0.029 A 
ATOM     56  C   UNL A   1      44.206  27.113  31.801  1.00  0.00     0.049 A 
ATOM     57  H   UNL A   1      42.443  28.054  31.124  1.00  0.00     0.167 HD
ATOM     58  C   UNL A   1      43.608  28.674  33.632  1.00  0.00     0.074 A 
ATOM     59  C   UNL A   1      43.832  29.279  34.928  1.00  0.00     0.031 C 
ATOM     60  C   UNL A   1      44.421  27.736  33.084  1.00  0.00     0.034 A 
BRANCH  47  61
ATOM     61  C   UNL A   1      42.611  25.821  27.474  1.00  0.00     0.023 A 
ATOM     62  C   UNL A   1      42.124  24.504  27.405  1.00  0.00     0.031 A 
ATOM     63  C   UNL A   1      43.362  26.304  26.389  1.00  0.00     0.131 A 
ATOM     64  C   UNL A   1      42.435  23.700  26.299  1.00  0.00     0.055 A 
ATOM     65  C   UNL A   1      43.609  25.523  25.260  1.00  0.00     0.041 A 
ATOM     66  F   UNL A   1      43.873  27.546  26.410  1.00  0.00    -0.206 F 
ATOM     67  C   UNL A   1      43.152  24.208  25.214  1.00  0.00     0.022 A 
BRANCH  64  68
ATOM     68  S   UNL A   1      41.980  21.945  26.344  1.00  0.00     0.124 S 
ATOM     69  O   UNL A   1      42.820  21.397  25.282  1.00  0.00    -0.237 OA
ATOM     70  O   UNL A   1      42.337  21.560  27.704  1.00  0.00    -0.237 OA
ATOM     71  O   UNL A   1      40.547  21.955  26.055  1.00  0.00    -0.744 OA
ENDBRANCH  64  68
ENDBRANCH  47  61
BRANCH  48  72
ATOM     72  C   UNL A   1      40.527  31.890  35.176  1.00  0.00     0.023 A 
ATOM     73  C   UNL A   1      39.536  31.524  36.099  1.00  0.00     0.031 A 
ATOM     74  C   UNL A   1      41.143  33.145  35.337  1.00  0.00     0.131 A 
ATOM     75  C   UNL A   1      39.136  32.430  37.095  1.00  0.00     0.055 A 
ATOM     76  C   UNL A   1      40.790  34.015  36.370  1.00  0.00     0.041 A 
ATOM     77  F   UNL A   1      42.097  33.550  34.482  1.00  0.00    -0.206 F 
ATOM     78  C   UNL A   1      39.765  33.668  37.245  1.00  0.00     0.022 A 
BRANCH  75  79
ATOM     79  S   UNL A   1      37.683  32.024  38.104  1.00  0.00     0.124 S 
ATOM     80  O   UNL A   1      36.713  33.008  37.635  1.00  0.00    -0.237 OA
ATOM     81  O   UNL A   1      37.430  30.640  37.723  1.00  0.00    -0.237 OA
ATOM     82  O   UNL A   1      38.157  32.218  39.473  1.00  0.00    -0.744 OA
ENDBRANCH  75  79
ENDBRANCH  48  72
BRANCH  60  83
ATOM     83  C   UNL A   1      45.665  27.366  33.855  1.00  0.00     0.023 A 
ATOM     84  C   UNL A   1      46.886  28.038  33.666  1.00  0.00     0.031 A 
ATOM     85  C   UNL A   1      45.626  26.316  34.791  1.00  0.00     0.131 A 
ATOM     86  C   UNL A   1      48.030  27.615  34.358  1.00  0.00     0.055 A 
ATOM     87  C   UNL A   1      46.754  25.938  35.519  1.00  0.00     0.041 A 
ATOM     88  F   UNL A   1      44.487  25.641  35.013  1.00  0.00    -0.206 F 
ATOM     89  C   UNL A   1      47.969  26.580  35.295  1.00  0.00     0.022 A 
BRANCH  86  90
ATOM     90  S   UNL A   1      49.626  28.378  33.954  1.00  0.00     0.124 S 
ATOM     91  O   UNL A   1      50.558  27.554  34.715  1.00  0.00    -0.237 OA
ATOM     92  O   UNL A   1      49.683  28.229  32.503  1.00  0.00    -0.237 OA
ATOM     93  O   UNL A   1      49.480  29.752  34.428  1.00  0.00    -0.744 OA
ENDBRANCH  86  90
ENDBRANCH  60  83
ENDBRANCH  34  35
ENDBRANCH  27  29
ENDBRANCH  26  27
ENDBRANCH  25  26
ENDBRANCH  24  25
ENDBRANCH   1  24
TORSDOF 22
ENDMDL
MODEL 3
REMARK VINA RESULT:     -10.3      4.876     10.615
REMARK SMILES CC[C@H](C)N(CC)c1cc(C)c(N)c(C(=O)OCCOCCOC(=O)c2ccc(-c3c4nc(c(-c5cc(S(=O)(=O)[O-])ccc5F)c5ccc([nH]5)c(-c5cc(S(=O)(=O)[O-])ccc5F)c5nc(c(-c6cc(S(=O)(=O)[O-])ccc6F)c6ccc3[nH]6)C=C5)C=C4)cc2)c1
REMARK SMILES IDX 20 1 19 2 18 3 17 4 15 5 16 6 14 7 8 8 9 9 89 10 10 11 11 12
REMARK SMILES IDX 12 13 5 14 3 15 4 16 2 17 1 18 6 19 7 20 13 21 21 24 22 25
REMARK SMILES IDX 23 26 24 27 25 28 26 29 27 30 88 31 28 32 87 33 29 34 30 35
REMARK SMILES IDX 31 36 81 37 32 38 86 39 80 40 82 41 33 42 85 43 79 44 78 45
REMARK SMILES IDX 34 47 66 48 46 49 65 50 47 51 50 52 64 53 83 54 48 55 49 56
REMARK SMILES IDX 63 58 84 59 51 60 35 61 36 62 44 63 37 64 43 65 45 66 42 67
REMARK SMILES IDX 38 68 39 69 40 70 41 71 67 72 68 73 76 74 69 75 75 76 77 77
REMARK SMILES IDX 74 78 70 79 71 80 72 81 73 82 52 83 53 84 61 85 54 86 60 87
REMARK SMILES IDX 62 88 59 89 55 90 56 91 57 92 58 93
REMARK H PARENT 13 22 13 23 82 46 50 57
REMARK Flexibility Score: inf
ROOT
ATOM      1  O   UNL A   1      32.940  30.484  26.380  1.00  0.00    -0.374 OA
ENDROOT
BRANCH   1   2
ATOM      2  C   UNL A   1      32.900  29.100  26.030  1.00  0.00     0.202 C 
BRANCH   2   3
ATOM      3  C   UNL A   1      31.512  28.531  25.718  1.00  0.00     0.261 C 
BRANCH   3   4
ATOM      4  O   UNL A   1      31.472  27.111  25.945  1.00  0.00    -0.460 OA
BRANCH   4   5
ATOM      5  C   UNL A   1      31.108  26.368  24.871  1.00  0.00     0.340 C 
ATOM      6  O   UNL A   1      30.958  26.777  23.728  1.00  0.00    -0.246 OA
BRANCH   5   7
ATOM      7  C   UNL A   1      31.064  24.924  25.225  1.00  0.00     0.085 A 
ATOM      8  C   UNL A   1      31.931  22.641  24.897  1.00  0.00     0.038 A 
ATOM      9  C   UNL A   1      30.998  22.241  25.862  1.00  0.00     0.031 A 
ATOM     10  C   UNL A   1      31.933  24.012  24.595  1.00  0.00     0.043 A 
ATOM     11  C   UNL A   1      30.125  23.132  26.525  1.00  0.00    -0.025 A 
ATOM     12  C   UNL A   1      29.195  22.586  27.573  1.00  0.00     0.047 C 
ATOM     13  C   UNL A   1      30.147  24.495  26.204  1.00  0.00     0.049 A 
BRANCH   8  14
ATOM     14  N   UNL A   1      32.814  21.752  24.291  1.00  0.00    -0.369 N 
BRANCH  14  15
ATOM     15  C   UNL A   1      33.719  20.813  25.011  1.00  0.00     0.078 C 
ATOM     16  C   UNL A   1      34.563  21.516  26.081  1.00  0.00     0.031 C 
BRANCH  15  17
ATOM     17  C   UNL A   1      32.986  19.542  25.484  1.00  0.00     0.021 C 
ATOM     18  C   UNL A   1      33.110  18.366  24.522  1.00  0.00     0.006 C 
ENDBRANCH  15  17
ENDBRANCH  14  15
BRANCH  14  19
ATOM     19  C   UNL A   1      33.057  21.875  22.839  1.00  0.00     0.113 C 
ATOM     20  C   UNL A   1      31.968  21.216  22.003  1.00  0.00     0.027 C 
ENDBRANCH  14  19
ENDBRANCH   8  14
BRANCH  13  21
ATOM     21  N   UNL A   1      29.167  25.353  26.710  1.00  0.00    -0.398 N 
ATOM     22  H   UNL A   1      29.411  26.258  27.008  1.00  0.00     0.156 HD
ATOM     23  H   UNL A   1      28.232  25.050  26.770  1.00  0.00     0.156 HD
ENDBRANCH  13  21
ENDBRANCH   5   7
ENDBRANCH   4   5
ENDBRANCH   3   4
ENDBRANCH   2   3
ENDBRANCH   1   2
BRANCH   1  24
ATOM     24  C   UNL A   1      31.700  31.195  26.325  1.00  0.00     0.202 C 
BRANCH  24  25
ATOM     25  C   UNL A   1      31.622  32.491  27.142  1.00  0.00     0.261 C 
BRANCH  25  26
ATOM     26  O   UNL A   1      32.778  33.327  26.940  1.00  0.00    -0.460 OA
BRANCH  26  27
ATOM     27  C   UNL A   1      33.355  33.782  28.077  1.00  0.00     0.338 C 
ATOM     28  O   UNL A   1      32.878  34.583  28.870  1.00  0.00    -0.246 OA
BRANCH  27  29
ATOM     29  C   UNL A   1      34.597  33.033  28.354  1.00  0.00     0.060 A 
ATOM     30  C   UNL A   1      34.467  31.712  28.801  1.00  0.00     0.016 A 
ATOM     31  C   UNL A   1      35.859  33.621  28.245  1.00  0.00     0.016 A 
ATOM     32  C   UNL A   1      35.593  30.992  29.197  1.00  0.00     0.010 A 
ATOM     33  C   UNL A   1      36.989  32.900  28.653  1.00  0.00     0.010 A 
ATOM     34  C   UNL A   1      36.856  31.597  29.166  1.00  0.00    -0.014 A 
BRANCH  34  35
ATOM     35  C   UNL A   1      38.002  30.927  29.834  1.00  0.00     0.031 A 
ATOM     36  C   UNL A   1      38.299  31.269  31.269  1.00  0.00     0.074 A 
ATOM     37  C   UNL A   1      38.734  29.997  29.193  1.00  0.00     0.049 A 
ATOM     38  N   UNL A   1      39.272  30.857  32.039  1.00  0.00    -0.248 NA
ATOM     39  C   UNL A   1      37.370  32.205  31.924  1.00  0.00     0.031 C 
ATOM     40  C   UNL A   1      38.503  29.537  27.824  1.00  0.00     0.029 A 
ATOM     41  N   UNL A   1      39.823  29.273  29.610  1.00  0.00    -0.354 N 
ATOM     42  C   UNL A   1      39.069  31.472  33.271  1.00  0.00     0.074 A 
ATOM     43  C   UNL A   1      37.906  32.322  33.129  1.00  0.00     0.031 C 
ATOM     44  C   UNL A   1      39.432  28.617  27.511  1.00  0.00     0.029 A 
ATOM     45  C   UNL A   1      40.347  28.451  28.640  1.00  0.00     0.049 A 
ATOM     46  H   UNL A   1      40.195  29.337  30.520  1.00  0.00     0.167 HD
ATOM     47  C   UNL A   1      39.778  31.330  34.417  1.00  0.00     0.034 A 
ATOM     48  C   UNL A   1      41.452  27.677  28.654  1.00  0.00     0.034 A 
ATOM     49  C   UNL A   1      40.946  30.494  34.542  1.00  0.00     0.049 A 
ATOM     50  C   UNL A   1      42.288  27.618  29.914  1.00  0.00     0.074 A 
ATOM     51  C   UNL A   1      41.759  30.305  35.647  1.00  0.00     0.029 A 
ATOM     52  N   UNL A   1      41.468  29.705  33.526  1.00  0.00    -0.354 N 
ATOM     53  N   UNL A   1      42.095  28.222  31.065  1.00  0.00    -0.248 NA
ATOM     54  C   UNL A   1      43.483  26.763  29.882  1.00  0.00     0.031 C 
ATOM     55  C   UNL A   1      42.802  29.448  35.282  1.00  0.00     0.029 A 
ATOM     56  C   UNL A   1      42.600  29.042  33.974  1.00  0.00     0.049 A 
ATOM     57  H   UNL A   1      41.090  29.626  32.621  1.00  0.00     0.167 HD
ATOM     58  C   UNL A   1      43.119  27.782  31.902  1.00  0.00     0.074 A 
ATOM     59  C   UNL A   1      43.918  26.856  31.129  1.00  0.00     0.031 C 
ATOM     60  C   UNL A   1      43.377  28.111  33.193  1.00  0.00     0.034 A 
BRANCH  47  61
ATOM     61  C   UNL A   1      39.327  32.129  35.615  1.00  0.00     0.023 A 
ATOM     62  C   UNL A   1      38.598  31.537  36.660  1.00  0.00     0.031 A 
ATOM     63  C   UNL A   1      39.624  33.499  35.710  1.00  0.00     0.131 A 
ATOM     64  C   UNL A   1      38.147  32.323  37.731  1.00  0.00     0.055 A 
ATOM     65  C   UNL A   1      39.233  34.261  36.812  1.00  0.00     0.041 A 
ATOM     66  F   UNL A   1      40.297  34.123  34.730  1.00  0.00    -0.206 F 
ATOM     67  C   UNL A   1      38.481  33.676  37.827  1.00  0.00     0.022 A 
BRANCH  64  68
ATOM     68  S   UNL A   1      37.024  31.578  38.945  1.00  0.00     0.124 S 
ATOM     69  O   UNL A   1      35.862  32.458  38.849  1.00  0.00    -0.237 OA
ATOM     70  O   UNL A   1      36.848  30.227  38.426  1.00  0.00    -0.237 OA
ATOM     71  O   UNL A   1      37.768  31.671  40.201  1.00  0.00    -0.744 OA
ENDBRANCH  64  68
ENDBRANCH  47  61
BRANCH  48  72
ATOM     72  C   UNL A   1      41.881  26.927  27.435  1.00  0.00     0.023 A 
ATOM     73  C   UNL A   1      41.664  25.546  27.317  1.00  0.00     0.031 A 
ATOM     74  C   UNL A   1      42.611  27.567  26.415  1.00  0.00     0.131 A 
ATOM     75  C   UNL A   1      42.233  24.835  26.247  1.00  0.00     0.055 A 
ATOM     76  C   UNL A   1      43.117  26.867  25.318  1.00  0.00     0.041 A 
ATOM     77  F   UNL A   1      42.853  28.887  26.476  1.00  0.00    -0.206 F 
ATOM     78  C   UNL A   1      42.947  25.489  25.240  1.00  0.00     0.022 A 
BRANCH  75  79
ATOM     79  S   UNL A   1      42.147  23.023  26.267  1.00  0.00     0.124 S 
ATOM     80  O   UNL A   1      42.964  22.700  27.431  1.00  0.00    -0.237 OA
ATOM     81  O   UNL A   1      40.713  22.793  26.404  1.00  0.00    -0.237 OA
ATOM     82  O   UNL A   1      42.719  22.643  24.977  1.00  0.00    -0.744 OA
ENDBRANCH  75  79
ENDBRANCH  48  72
BRANCH  60  83
ATOM     83  C   UNL A   1      44.528  27.404  33.867  1.00  0.00     0.023 A 
ATOM     84  C   UNL A   1      44.339  26.254  34.652  1.00  0.00     0.031 A 
ATOM     85  C   UNL A   1      45.838  27.899  33.724  1.00  0.00     0.131 A 
ATOM     86  C   UNL A   1      45.431  25.671  35.311  1.00  0.00     0.055 A 
ATOM     87  C   UNL A   1      46.928  27.281  34.335  1.00  0.00     0.041 A 
ATOM     88  F   UNL A   1      46.077  28.995  32.984  1.00  0.00    -0.206 F 
ATOM     89  C   UNL A   1      46.727  26.168  35.146  1.00  0.00     0.022 A 
BRANCH  86  90
ATOM     90  S   UNL A   1      45.125  24.303  36.464  1.00  0.00     0.124 S 
ATOM     91  O   UNL A   1      44.143  24.885  37.372  1.00  0.00    -0.237 OA
ATOM     92  O   UNL A   1      44.631  23.254  35.578  1.00  0.00    -0.237 OA
ATOM     93  O   UNL A   1      46.439  24.048  37.051  1.00  0.00    -0.744 OA
ENDBRANCH  86  90
ENDBRANCH  60  83
ENDBRANCH  34  35
ENDBRANCH  27  29
ENDBRANCH  26  27
ENDBRANCH  25  26
ENDBRANCH  24  25
ENDBRANCH   1  24
TORSDOF 22
ENDMDL
