MODEL 1
REMARK VINA RESULT:      -8.3      0.000      0.000
REMARK SMILES COCCNc1cc(C)nc2cc(C(=O)OCCOCCOC(=O)c3ccc(-c4c5nc(c(-c6cc(S(=O)(=O)[O-])ccc6F)c6ccc([nH]6)c(-c6cc(S(=O)(=O)[O-])ccc6F)c6nc(c(-c7cc(S(=O)(=O)[O-])ccc7F)c7ccc4[nH]7)C=C6)C=C5)cc3)ccc12
REMARK SMILES IDX 18 1 17 2 16 3 14 4 15 5 13 6 6 7 7 8 90 9 8 10 11 11 89 12
REMARK SMILES IDX 9 13 10 14 12 15 88 16 5 17 4 19 3 20 2 21 1 22 19 23 20 24
REMARK SMILES IDX 21 25 22 26 23 27 24 28 25 29 26 30 87 31 27 32 86 33 28 34
REMARK SMILES IDX 29 35 30 36 80 37 31 38 85 39 79 40 81 41 32 42 84 43 78 44
REMARK SMILES IDX 77 45 33 47 65 48 45 49 64 50 46 51 49 52 63 53 82 54 47 55
REMARK SMILES IDX 48 56 62 58 83 59 50 60 34 61 35 62 43 63 36 64 42 65 44 66
REMARK SMILES IDX 41 67 37 68 38 69 39 70 40 71 66 72 67 73 75 74 68 75 74 76
REMARK SMILES IDX 76 77 73 78 69 79 70 80 71 81 72 82 51 83 52 84 60 85 53 86
REMARK SMILES IDX 59 87 61 88 58 89 54 90 55 91 56 92 57 93
REMARK H PARENT 5 18 81 46 49 57
REMARK Flexibility Score: inf
ROOT
ATOM      1  C   UNL A   1      34.659  35.574  33.803  1.00  0.00     0.202 C 
ENDROOT
BRANCH   1   2
ATOM      2  C   UNL A   1      35.762  34.672  33.242  1.00  0.00     0.261 C 
BRANCH   2   3
ATOM      3  O   UNL A   1      35.698  33.352  33.809  1.00  0.00    -0.460 OA
BRANCH   3   4
ATOM      4  C   UNL A   1      36.507  33.155  34.873  1.00  0.00     0.338 C 
ATOM      5  O   UNL A   1      36.411  33.671  35.979  1.00  0.00    -0.246 OA
BRANCH   4   6
ATOM      6  C   UNL A   1      37.473  32.070  34.601  1.00  0.00     0.062 A 
ATOM      7  C   UNL A   1      40.501  29.309  33.660  1.00  0.00     0.045 A 
ATOM      8  C   UNL A   1      40.227  28.354  32.684  1.00  0.00     0.049 A 
ATOM      9  C   UNL A   1      39.471  30.193  34.046  1.00  0.00     0.023 A 
ATOM     10  C   UNL A   1      38.973  28.331  32.089  1.00  0.00     0.040 A 
ATOM     11  C   UNL A   1      38.229  30.116  33.374  1.00  0.00     0.073 A 
ATOM     12  C   UNL A   1      39.662  31.177  35.035  1.00  0.00     0.013 A 
ATOM     13  C   UNL A   1      38.648  27.318  31.032  1.00  0.00     0.067 C 
ATOM     14  N   UNL A   1      37.988  29.195  32.428  1.00  0.00    -0.253 NA
ATOM     15  C   UNL A   1      37.239  31.047  33.676  1.00  0.00     0.044 A 
ATOM     16  C   UNL A   1      38.678  32.117  35.301  1.00  0.00     0.016 A 
BRANCH   7  17
ATOM     17  N   UNL A   1      41.737  29.327  34.301  1.00  0.00    -0.382 N 
ATOM     18  H   UNL A   1      42.194  30.187  34.444  1.00  0.00     0.160 HD
BRANCH  17  19
ATOM     19  C   UNL A   1      42.366  28.096  34.763  1.00  0.00     0.141 C 
BRANCH  19  20
ATOM     20  C   UNL A   1      43.248  28.347  35.999  1.00  0.00     0.181 C 
BRANCH  20  21
ATOM     21  O   UNL A   1      42.769  27.689  37.179  1.00  0.00    -0.383 OA
ATOM     22  C   UNL A   1      42.475  26.314  36.981  1.00  0.00     0.194 C 
ENDBRANCH  20  21
ENDBRANCH  19  20
ENDBRANCH  17  19
ENDBRANCH   7  17
ENDBRANCH   4   6
ENDBRANCH   3   4
ENDBRANCH   2   3
ENDBRANCH   1   2
BRANCH   1  23
ATOM     23  O   UNL A   1      34.324  36.719  33.016  1.00  0.00    -0.374 OA
BRANCH  23  24
ATOM     24  C   UNL A   1      33.092  36.667  32.294  1.00  0.00     0.202 C 
BRANCH  24  25
ATOM     25  C   UNL A   1      33.175  36.252  30.820  1.00  0.00     0.261 C 
BRANCH  25  26
ATOM     26  O   UNL A   1      33.113  34.824  30.657  1.00  0.00    -0.460 OA
BRANCH  26  27
ATOM     27  C   UNL A   1      33.434  34.379  29.419  1.00  0.00     0.338 C 
ATOM     28  O   UNL A   1      32.828  34.604  28.379  1.00  0.00    -0.246 OA
BRANCH  27  29
ATOM     29  C   UNL A   1      34.756  33.723  29.446  1.00  0.00     0.060 A 
ATOM     30  C   UNL A   1      34.920  32.636  30.316  1.00  0.00     0.016 A 
ATOM     31  C   UNL A   1      35.829  34.186  28.681  1.00  0.00     0.016 A 
ATOM     32  C   UNL A   1      36.169  32.038  30.460  1.00  0.00     0.010 A 
ATOM     33  C   UNL A   1      37.085  33.589  28.834  1.00  0.00     0.010 A 
ATOM     34  C   UNL A   1      37.269  32.535  29.749  1.00  0.00    -0.014 A 
BRANCH  34  35
ATOM     35  C   UNL A   1      38.632  32.047  30.076  1.00  0.00     0.031 A 
ATOM     36  C   UNL A   1      39.422  32.757  31.141  1.00  0.00     0.074 A 
ATOM     37  C   UNL A   1      39.143  30.967  29.459  1.00  0.00     0.049 A 
ATOM     38  N   UNL A   1      40.636  32.527  31.569  1.00  0.00    -0.248 NA
ATOM     39  C   UNL A   1      38.750  33.882  31.807  1.00  0.00     0.031 C 
ATOM     40  C   UNL A   1      38.454  30.170  28.446  1.00  0.00     0.029 A 
ATOM     41  N   UNL A   1      40.365  30.355  29.595  1.00  0.00    -0.354 N 
ATOM     42  C   UNL A   1      40.876  33.479  32.555  1.00  0.00     0.074 A 
ATOM     43  C   UNL A   1      39.696  34.315  32.626  1.00  0.00     0.031 C 
ATOM     44  C   UNL A   1      39.267  29.177  28.046  1.00  0.00     0.029 A 
ATOM     45  C   UNL A   1      40.545  29.291  28.744  1.00  0.00     0.049 A 
ATOM     46  H   UNL A   1      41.046  30.652  30.239  1.00  0.00     0.167 HD
ATOM     47  C   UNL A   1      41.975  33.635  33.335  1.00  0.00     0.034 A 
ATOM     48  C   UNL A   1      41.628  28.513  28.538  1.00  0.00     0.034 A 
ATOM     49  C   UNL A   1      43.151  32.802  33.240  1.00  0.00     0.049 A 
ATOM     50  C   UNL A   1      42.877  28.765  29.348  1.00  0.00     0.074 A 
ATOM     51  C   UNL A   1      44.313  32.860  33.988  1.00  0.00     0.029 A 
ATOM     52  N   UNL A   1      43.321  31.768  32.326  1.00  0.00    -0.354 N 
ATOM     53  N   UNL A   1      43.090  29.662  30.284  1.00  0.00    -0.248 NA
ATOM     54  C   UNL A   1      44.028  27.894  29.078  1.00  0.00     0.031 C 
ATOM     55  C   UNL A   1      45.212  31.916  33.479  1.00  0.00     0.029 A 
ATOM     56  C   UNL A   1      44.582  31.209  32.466  1.00  0.00     0.049 A 
ATOM     57  H   UNL A   1      42.645  31.475  31.674  1.00  0.00     0.167 HD
ATOM     58  C   UNL A   1      44.391  29.442  30.733  1.00  0.00     0.074 A 
ATOM     59  C   UNL A   1      44.905  28.321  29.974  1.00  0.00     0.031 C 
ATOM     60  C   UNL A   1      45.092  30.101  31.690  1.00  0.00     0.034 A 
BRANCH  47  61
ATOM     61  C   UNL A   1      41.970  34.785  34.315  1.00  0.00     0.023 A 
ATOM     62  C   UNL A   1      41.447  34.650  35.614  1.00  0.00     0.031 A 
ATOM     63  C   UNL A   1      42.453  36.048  33.929  1.00  0.00     0.131 A 
ATOM     64  C   UNL A   1      41.349  35.774  36.449  1.00  0.00     0.055 A 
ATOM     65  C   UNL A   1      42.428  37.143  34.795  1.00  0.00     0.041 A 
ATOM     66  F   UNL A   1      42.941  36.246  32.694  1.00  0.00    -0.206 F 
ATOM     67  C   UNL A   1      41.858  37.014  36.058  1.00  0.00     0.022 A 
BRANCH  64  68
ATOM     68  S   UNL A   1      40.402  35.627  37.990  1.00  0.00     0.124 S 
ATOM     69  O   UNL A   1      39.513  36.783  37.902  1.00  0.00    -0.237 OA
ATOM     70  O   UNL A   1      39.770  34.321  37.849  1.00  0.00    -0.237 OA
ATOM     71  O   UNL A   1      41.425  35.718  39.031  1.00  0.00    -0.744 OA
ENDBRANCH  64  68
ENDBRANCH  47  61
BRANCH  48  72
ATOM     72  C   UNL A   1      41.602  27.449  27.493  1.00  0.00     0.023 A 
ATOM     73  C   UNL A   1      41.251  26.128  27.809  1.00  0.00     0.031 A 
ATOM     74  C   UNL A   1      41.976  27.733  26.167  1.00  0.00     0.131 A 
ATOM     75  C   UNL A   1      41.317  25.132  26.823  1.00  0.00     0.055 A 
ATOM     76  C   UNL A   1      41.991  26.750  25.178  1.00  0.00     0.041 A 
ATOM     77  F   UNL A   1      42.323  28.981  25.812  1.00  0.00    -0.206 F 
ATOM     78  C   UNL A   1      41.672  25.436  25.506  1.00  0.00     0.022 A 
BRANCH  75  79
ATOM     79  S   UNL A   1      41.006  23.410  27.302  1.00  0.00     0.124 S 
ATOM     80  O   UNL A   1      41.532  22.682  26.153  1.00  0.00    -0.237 OA
ATOM     81  O   UNL A   1      41.772  23.297  28.538  1.00  0.00    -0.237 OA
ATOM     82  O   UNL A   1      39.555  23.359  27.464  1.00  0.00    -0.744 OA
ENDBRANCH  75  79
ENDBRANCH  48  72
BRANCH  60  83
ATOM     83  C   UNL A   1      46.482  29.594  31.996  1.00  0.00     0.023 A 
ATOM     84  C   UNL A   1      47.599  29.984  31.234  1.00  0.00     0.031 A 
ATOM     85  C   UNL A   1      46.689  28.699  33.061  1.00  0.00     0.131 A 
ATOM     86  C   UNL A   1      48.861  29.436  31.513  1.00  0.00     0.055 A 
ATOM     87  C   UNL A   1      47.957  28.206  33.374  1.00  0.00     0.041 A 
ATOM     88  F   UNL A   1      45.660  28.291  33.820  1.00  0.00    -0.206 F 
ATOM     89  C   UNL A   1      49.050  28.564  32.589  1.00  0.00     0.022 A 
BRANCH  86  90
ATOM     90  S   UNL A   1      50.240  29.807  30.395  1.00  0.00     0.124 S 
ATOM     91  O   UNL A   1      49.737  29.310  29.118  1.00  0.00    -0.237 OA
ATOM     92  O   UNL A   1      50.358  31.256  30.513  1.00  0.00    -0.237 OA
ATOM     93  O   UNL A   1      51.354  29.047  30.960  1.00  0.00    -0.744 OA
ENDBRANCH  86  90
ENDBRANCH  60  83
ENDBRANCH  34  35
ENDBRANCH  27  29
ENDBRANCH  26  27
ENDBRANCH  25  26
ENDBRANCH  24  25
ENDBRANCH  23  24
ENDBRANCH   1  23
TORSDOF 21
ENDMDL
MODEL 2
REMARK VINA RESULT:      -8.0      5.156     10.947
REMARK SMILES COCCNc1cc(C)nc2cc(C(=O)OCCOCCOC(=O)c3ccc(-c4c5nc(c(-c6cc(S(=O)(=O)[O-])ccc6F)c6ccc([nH]6)c(-c6cc(S(=O)(=O)[O-])ccc6F)c6nc(c(-c7cc(S(=O)(=O)[O-])ccc7F)c7ccc4[nH]7)C=C6)C=C5)cc3)ccc12
REMARK SMILES IDX 18 1 17 2 16 3 14 4 15 5 13 6 6 7 7 8 90 9 8 10 11 11 89 12
REMARK SMILES IDX 9 13 10 14 12 15 88 16 5 17 4 19 3 20 2 21 1 22 19 23 20 24
REMARK SMILES IDX 21 25 22 26 23 27 24 28 25 29 26 30 87 31 27 32 86 33 28 34
REMARK SMILES IDX 29 35 30 36 80 37 31 38 85 39 79 40 81 41 32 42 84 43 78 44
REMARK SMILES IDX 77 45 33 47 65 48 45 49 64 50 46 51 49 52 63 53 82 54 47 55
REMARK SMILES IDX 48 56 62 58 83 59 50 60 34 61 35 62 43 63 36 64 42 65 44 66
REMARK SMILES IDX 41 67 37 68 38 69 39 70 40 71 66 72 67 73 75 74 68 75 74 76
REMARK SMILES IDX 76 77 73 78 69 79 70 80 71 81 72 82 51 83 52 84 60 85 53 86
REMARK SMILES IDX 59 87 61 88 58 89 54 90 55 91 56 92 57 93
REMARK H PARENT 5 18 81 46 49 57
REMARK Flexibility Score: inf
ROOT
ATOM      1  C   UNL A   1      33.258  28.523  23.770  1.00  0.00     0.202 C 
ENDROOT
BRANCH   1   2
ATOM      2  C   UNL A   1      33.436  27.565  22.587  1.00  0.00     0.261 C 
BRANCH   2   3
ATOM      3  O   UNL A   1      32.643  26.377  22.753  1.00  0.00    -0.460 OA
BRANCH   3   4
ATOM      4  C   UNL A   1      32.905  25.395  21.863  1.00  0.00     0.338 C 
ATOM      5  O   UNL A   1      32.910  25.487  20.642  1.00  0.00    -0.246 OA
BRANCH   4   6
ATOM      6  C   UNL A   1      33.371  24.174  22.553  1.00  0.00     0.062 A 
ATOM      7  C   UNL A   1      34.391  20.803  24.849  1.00  0.00     0.045 A 
ATOM      8  C   UNL A   1      35.680  20.743  25.375  1.00  0.00     0.049 A 
ATOM      9  C   UNL A   1      34.055  21.887  24.011  1.00  0.00     0.023 A 
ATOM     10  C   UNL A   1      36.574  21.767  25.100  1.00  0.00     0.040 A 
ATOM     11  C   UNL A   1      35.019  22.900  23.799  1.00  0.00     0.073 A 
ATOM     12  C   UNL A   1      32.780  22.015  23.428  1.00  0.00     0.013 A 
ATOM     13  C   UNL A   1      37.968  21.734  25.654  1.00  0.00     0.067 C 
ATOM     14  N   UNL A   1      36.253  22.828  24.323  1.00  0.00    -0.253 NA
ATOM     15  C   UNL A   1      34.667  24.023  23.056  1.00  0.00     0.044 A 
ATOM     16  C   UNL A   1      32.434  23.154  22.717  1.00  0.00     0.016 A 
BRANCH   7  17
ATOM     17  N   UNL A   1      33.488  19.768  25.076  1.00  0.00    -0.382 N 
ATOM     18  H   UNL A   1      32.702  19.929  25.646  1.00  0.00     0.160 HD
BRANCH  17  19
ATOM     19  C   UNL A   1      33.685  18.450  24.484  1.00  0.00     0.141 C 
BRANCH  19  20
ATOM     20  C   UNL A   1      33.040  17.348  25.342  1.00  0.00     0.181 C 
BRANCH  20  21
ATOM     21  O   UNL A   1      33.267  16.028  24.833  1.00  0.00    -0.383 OA
ATOM     22  C   UNL A   1      32.531  15.023  25.516  1.00  0.00     0.194 C 
ENDBRANCH  20  21
ENDBRANCH  19  20
ENDBRANCH  17  19
ENDBRANCH   7  17
ENDBRANCH   4   6
ENDBRANCH   3   4
ENDBRANCH   2   3
ENDBRANCH   1   2
BRANCH   1  23
ATOM     23  O   UNL A   1      32.364  28.091  24.798  1.00  0.00    -0.374 OA
BRANCH  23  24
ATOM     24  C   UNL A   1      31.347  29.011  25.197  1.00  0.00     0.202 C 
BRANCH  24  25
ATOM     25  C   UNL A   1      31.813  30.406  25.633  1.00  0.00     0.261 C 
BRANCH  25  26
ATOM     26  O   UNL A   1      32.478  30.380  26.907  1.00  0.00    -0.460 OA
BRANCH  26  27
ATOM     27  C   UNL A   1      33.128  31.522  27.233  1.00  0.00     0.338 C 
ATOM     28  O   UNL A   1      32.660  32.654  27.243  1.00  0.00    -0.246 OA
BRANCH  27  29
ATOM     29  C   UNL A   1      34.463  31.206  27.776  1.00  0.00     0.060 A 
ATOM     30  C   UNL A   1      34.737  29.864  28.075  1.00  0.00     0.016 A 
ATOM     31  C   UNL A   1      35.411  32.198  28.037  1.00  0.00     0.016 A 
ATOM     32  C   UNL A   1      35.942  29.516  28.680  1.00  0.00     0.010 A 
ATOM     33  C   UNL A   1      36.616  31.846  28.654  1.00  0.00     0.010 A 
ATOM     34  C   UNL A   1      36.873  30.509  29.010  1.00  0.00    -0.014 A 
BRANCH  34  35
ATOM     35  C   UNL A   1      38.043  30.163  29.856  1.00  0.00     0.031 A 
ATOM     36  C   UNL A   1      39.071  29.205  29.319  1.00  0.00     0.074 A 
ATOM     37  C   UNL A   1      38.204  30.721  31.069  1.00  0.00     0.049 A 
ATOM     38  N   UNL A   1      40.151  28.738  29.888  1.00  0.00    -0.248 NA
ATOM     39  C   UNL A   1      38.842  28.705  27.955  1.00  0.00     0.031 C 
ATOM     40  C   UNL A   1      37.300  31.696  31.675  1.00  0.00     0.029 A 
ATOM     41  N   UNL A   1      39.188  30.542  32.010  1.00  0.00    -0.354 N 
ATOM     42  C   UNL A   1      40.733  27.886  28.954  1.00  0.00     0.074 A 
ATOM     43  C   UNL A   1      39.858  27.870  27.801  1.00  0.00     0.031 C 
ATOM     44  C   UNL A   1      37.768  32.026  32.891  1.00  0.00     0.029 A 
ATOM     45  C   UNL A   1      38.980  31.259  33.165  1.00  0.00     0.049 A 
ATOM     46  H   UNL A   1      39.966  29.957  31.871  1.00  0.00     0.167 HD
ATOM     47  C   UNL A   1      41.894  27.190  29.048  1.00  0.00     0.034 A 
ATOM     48  C   UNL A   1      39.678  31.272  34.320  1.00  0.00     0.034 A 
ATOM     49  C   UNL A   1      42.746  27.205  30.213  1.00  0.00     0.049 A 
ATOM     50  C   UNL A   1      40.915  30.415  34.439  1.00  0.00     0.074 A 
ATOM     51  C   UNL A   1      43.949  26.552  30.410  1.00  0.00     0.029 A 
ATOM     52  N   UNL A   1      42.475  27.897  31.388  1.00  0.00    -0.354 N 
ATOM     53  N   UNL A   1      41.461  29.621  33.547  1.00  0.00    -0.248 NA
ATOM     54  C   UNL A   1      41.632  30.463  35.720  1.00  0.00     0.031 C 
ATOM     55  C   UNL A   1      44.367  26.785  31.726  1.00  0.00     0.029 A 
ATOM     56  C   UNL A   1      43.467  27.653  32.326  1.00  0.00     0.049 A 
ATOM     57  H   UNL A   1      41.692  28.476  31.534  1.00  0.00     0.167 HD
ATOM     58  C   UNL A   1      42.603  29.097  34.151  1.00  0.00     0.074 A 
ATOM     59  C   UNL A   1      42.671  29.677  35.477  1.00  0.00     0.031 C 
ATOM     60  C   UNL A   1      43.515  28.224  33.653  1.00  0.00     0.034 A 
BRANCH  47  61
ATOM     61  C   UNL A   1      42.270  26.314  27.876  1.00  0.00     0.023 A 
ATOM     62  C   UNL A   1      41.918  24.953  27.824  1.00  0.00     0.031 A 
ATOM     63  C   UNL A   1      43.033  26.835  26.816  1.00  0.00     0.131 A 
ATOM     64  C   UNL A   1      42.393  24.146  26.779  1.00  0.00     0.055 A 
ATOM     65  C   UNL A   1      43.432  26.046  25.737  1.00  0.00     0.041 A 
ATOM     66  F   UNL A   1      43.421  28.121  26.821  1.00  0.00    -0.206 F 
ATOM     67  C   UNL A   1      43.127  24.689  25.722  1.00  0.00     0.022 A 
BRANCH  64  68
ATOM     68  S   UNL A   1      42.173  22.350  26.902  1.00  0.00     0.124 S 
ATOM     69  O   UNL A   1      41.533  22.219  28.209  1.00  0.00    -0.237 OA
ATOM     70  O   UNL A   1      41.334  22.054  25.746  1.00  0.00    -0.237 OA
ATOM     71  O   UNL A   1      43.538  21.831  26.831  1.00  0.00    -0.744 OA
ENDBRANCH  64  68
ENDBRANCH  47  61
BRANCH  48  72
ATOM     72  C   UNL A   1      39.206  32.091  35.473  1.00  0.00     0.023 A 
ATOM     73  C   UNL A   1      39.660  33.405  35.666  1.00  0.00     0.031 A 
ATOM     74  C   UNL A   1      38.328  31.549  36.429  1.00  0.00     0.131 A 
ATOM     75  C   UNL A   1      39.264  34.121  36.807  1.00  0.00     0.055 A 
ATOM     76  C   UNL A   1      37.897  32.282  37.535  1.00  0.00     0.041 A 
ATOM     77  F   UNL A   1      37.867  30.295  36.294  1.00  0.00    -0.206 F 
ATOM     78  C   UNL A   1      38.375  33.573  37.736  1.00  0.00     0.022 A 
BRANCH  75  79
ATOM     79  S   UNL A   1      39.989  35.757  37.103  1.00  0.00     0.124 S 
ATOM     80  O   UNL A   1      39.652  36.459  35.869  1.00  0.00    -0.237 OA
ATOM     81  O   UNL A   1      39.279  36.190  38.302  1.00  0.00    -0.237 OA
ATOM     82  O   UNL A   1      41.409  35.471  37.293  1.00  0.00    -0.744 OA
ENDBRANCH  75  79
ENDBRANCH  48  72
BRANCH  60  83
ATOM     83  C   UNL A   1      44.689  27.876  34.538  1.00  0.00     0.023 A 
ATOM     84  C   UNL A   1      44.607  26.874  35.522  1.00  0.00     0.031 A 
ATOM     85  C   UNL A   1      45.907  28.568  34.401  1.00  0.00     0.131 A 
ATOM     86  C   UNL A   1      45.701  26.631  36.365  1.00  0.00     0.055 A 
ATOM     87  C   UNL A   1      47.013  28.278  35.201  1.00  0.00     0.041 A 
ATOM     88  F   UNL A   1      46.042  29.536  33.481  1.00  0.00    -0.206 F 
ATOM     89  C   UNL A   1      46.910  27.314  36.200  1.00  0.00     0.022 A 
BRANCH  86  90
ATOM     90  S   UNL A   1      45.499  25.471  37.746  1.00  0.00     0.124 S 
ATOM     91  O   UNL A   1      44.086  25.120  37.642  1.00  0.00    -0.237 OA
ATOM     92  O   UNL A   1      46.445  24.413  37.407  1.00  0.00    -0.237 OA
ATOM     93  O   UNL A   1      45.855  26.267  38.919  1.00  0.00    -0.744 OA
ENDBRANCH  86  90
ENDBRANCH  60  83
ENDBRANCH  34  35
ENDBRANCH  27  29
ENDBRANCH  26  27
ENDBRANCH  25  26
ENDBRANCH  24  25
ENDBRANCH  23  24
ENDBRANCH   1  23
TORSDOF 21
ENDMDL
MODEL 3
REMARK VINA RESULT:      -8.0      5.153     10.544
REMARK SMILES COCCNc1cc(C)nc2cc(C(=O)OCCOCCOC(=O)c3ccc(-c4c5nc(c(-c6cc(S(=O)(=O)[O-])ccc6F)c6ccc([nH]6)c(-c6cc(S(=O)(=O)[O-])ccc6F)c6nc(c(-c7cc(S(=O)(=O)[O-])ccc7F)c7ccc4[nH]7)C=C6)C=C5)cc3)ccc12
REMARK SMILES IDX 18 1 17 2 16 3 14 4 15 5 13 6 6 7 7 8 90 9 8 10 11 11 89 12
REMARK SMILES IDX 9 13 10 14 12 15 88 16 5 17 4 19 3 20 2 21 1 22 19 23 20 24
REMARK SMILES IDX 21 25 22 26 23 27 24 28 25 29 26 30 87 31 27 32 86 33 28 34
REMARK SMILES IDX 29 35 30 36 80 37 31 38 85 39 79 40 81 41 32 42 84 43 78 44
REMARK SMILES IDX 77 45 33 47 65 48 45 49 64 50 46 51 49 52 63 53 82 54 47 55
REMARK SMILES IDX 48 56 62 58 83 59 50 60 34 61 35 62 43 63 36 64 42 65 44 66
REMARK SMILES IDX 41 67 37 68 38 69 39 70 40 71 66 72 67 73 75 74 68 75 74 76
REMARK SMILES IDX 76 77 73 78 69 79 70 80 71 81 72 82 51 83 52 84 60 85 53 86
REMARK SMILES IDX 59 87 61 88 58 89 54 90 55 91 56 92 57 93
REMARK H PARENT 5 18 81 46 49 57
REMARK Flexibility Score: inf
ROOT
ATOM      1  C   UNL A   1      31.367  28.934  24.806  1.00  0.00     0.202 C 
ENDROOT
BRANCH   1   2
ATOM      2  C   UNL A   1      32.069  27.578  24.937  1.00  0.00     0.261 C 
BRANCH   2   3
ATOM      3  O   UNL A   1      31.183  26.496  24.604  1.00  0.00    -0.460 OA
BRANCH   3   4
ATOM      4  C   UNL A   1      30.947  25.628  25.613  1.00  0.00     0.338 C 
ATOM      5  O   UNL A   1      30.110  25.737  26.500  1.00  0.00    -0.246 OA
BRANCH   4   6
ATOM      6  C   UNL A   1      31.733  24.390  25.433  1.00  0.00     0.062 A 
ATOM      7  C   UNL A   1      33.918  20.798  25.373  1.00  0.00     0.045 A 
ATOM      8  C   UNL A   1      35.270  20.868  25.045  1.00  0.00     0.049 A 
ATOM      9  C   UNL A   1      33.151  21.981  25.321  1.00  0.00     0.023 A 
ATOM     10  C   UNL A   1      35.830  22.096  24.725  1.00  0.00     0.040 A 
ATOM     11  C   UNL A   1      33.804  23.195  25.007  1.00  0.00     0.073 A 
ATOM     12  C   UNL A   1      31.776  21.994  25.624  1.00  0.00     0.013 A 
ATOM     13  C   UNL A   1      37.284  22.205  24.371  1.00  0.00     0.067 C 
ATOM     14  N   UNL A   1      35.111  23.243  24.703  1.00  0.00    -0.253 NA
ATOM     15  C   UNL A   1      33.079  24.383  25.049  1.00  0.00     0.044 A 
ATOM     16  C   UNL A   1      31.075  23.189  25.694  1.00  0.00     0.016 A 
BRANCH   7  17
ATOM     17  N   UNL A   1      33.324  19.572  25.657  1.00  0.00    -0.382 N 
ATOM     18  H   UNL A   1      32.918  19.426  26.542  1.00  0.00     0.160 HD
BRANCH  17  19
ATOM     19  C   UNL A   1      33.291  18.501  24.669  1.00  0.00     0.141 C 
BRANCH  19  20
ATOM     20  C   UNL A   1      32.426  17.323  25.147  1.00  0.00     0.181 C 
BRANCH  20  21
ATOM     21  O   UNL A   1      32.858  16.057  24.632  1.00  0.00    -0.383 OA
ATOM     22  C   UNL A   1      32.628  14.975  25.523  1.00  0.00     0.194 C 
ENDBRANCH  20  21
ENDBRANCH  19  20
ENDBRANCH  17  19
ENDBRANCH   7  17
ENDBRANCH   4   6
ENDBRANCH   3   4
ENDBRANCH   2   3
ENDBRANCH   1   2
BRANCH   1  23
ATOM     23  O   UNL A   1      31.643  29.884  25.836  1.00  0.00    -0.374 OA
BRANCH  23  24
ATOM     24  C   UNL A   1      30.995  31.154  25.733  1.00  0.00     0.202 C 
BRANCH  24  25
ATOM     25  C   UNL A   1      31.595  32.302  26.555  1.00  0.00     0.261 C 
BRANCH  25  26
ATOM     26  O   UNL A   1      32.741  31.881  27.314  1.00  0.00    -0.460 OA
BRANCH  26  27
ATOM     27  C   UNL A   1      33.590  32.877  27.660  1.00  0.00     0.338 C 
ATOM     28  O   UNL A   1      33.324  34.069  27.749  1.00  0.00    -0.246 OA
BRANCH  27  29
ATOM     29  C   UNL A   1      34.873  32.310  28.119  1.00  0.00     0.060 A 
ATOM     30  C   UNL A   1      34.874  30.974  28.542  1.00  0.00     0.016 A 
ATOM     31  C   UNL A   1      36.040  33.074  28.184  1.00  0.00     0.016 A 
ATOM     32  C   UNL A   1      36.029  30.411  29.078  1.00  0.00     0.010 A 
ATOM     33  C   UNL A   1      37.198  32.509  28.731  1.00  0.00     0.010 A 
ATOM     34  C   UNL A   1      37.189  31.186  29.212  1.00  0.00    -0.014 A 
BRANCH  34  35
ATOM     35  C   UNL A   1      38.337  30.656  29.988  1.00  0.00     0.031 A 
ATOM     36  C   UNL A   1      39.253  29.654  29.339  1.00  0.00     0.074 A 
ATOM     37  C   UNL A   1      38.581  31.087  31.238  1.00  0.00     0.049 A 
ATOM     38  N   UNL A   1      40.294  29.037  29.832  1.00  0.00    -0.248 NA
ATOM     39  C   UNL A   1      38.944  29.300  27.946  1.00  0.00     0.031 C 
ATOM     40  C   UNL A   1      37.793  32.088  31.954  1.00  0.00     0.029 A 
ATOM     41  N   UNL A   1      39.564  30.732  32.130  1.00  0.00    -0.354 N 
ATOM     42  C   UNL A   1      40.768  28.219  28.811  1.00  0.00     0.074 A 
ATOM     43  C   UNL A   1      39.870  28.389  27.689  1.00  0.00     0.031 C 
ATOM     44  C   UNL A   1      38.319  32.263  33.179  1.00  0.00     0.029 A 
ATOM     45  C   UNL A   1      39.455  31.361  33.347  1.00  0.00     0.049 A 
ATOM     46  H   UNL A   1      40.277  30.089  31.916  1.00  0.00     0.167 HD
ATOM     47  C   UNL A   1      41.856  27.408  28.808  1.00  0.00     0.034 A 
ATOM     48  C   UNL A   1      40.177  31.206  34.476  1.00  0.00     0.034 A 
ATOM     49  C   UNL A   1      42.732  27.238  29.943  1.00  0.00     0.049 A 
ATOM     50  C   UNL A   1      41.325  30.226  34.483  1.00  0.00     0.074 A 
ATOM     51  C   UNL A   1      43.869  26.457  30.046  1.00  0.00     0.029 A 
ATOM     52  N   UNL A   1      42.558  27.847  31.181  1.00  0.00    -0.354 N 
ATOM     53  N   UNL A   1      41.770  29.464  33.510  1.00  0.00    -0.248 NA
ATOM     54  C   UNL A   1      42.073  30.092  35.740  1.00  0.00     0.031 C 
ATOM     55  C   UNL A   1      44.338  26.532  31.363  1.00  0.00     0.029 A 
ATOM     56  C   UNL A   1      43.543  27.427  32.062  1.00  0.00     0.049 A 
ATOM     57  H   UNL A   1      41.840  28.484  31.400  1.00  0.00     0.167 HD
ATOM     58  C   UNL A   1      42.867  28.782  34.031  1.00  0.00     0.074 A 
ATOM     59  C   UNL A   1      43.023  29.234  35.398  1.00  0.00     0.031 C 
ATOM     60  C   UNL A   1      43.677  27.872  33.432  1.00  0.00     0.034 A 
BRANCH  47  61
ATOM     61  C   UNL A   1      42.117  26.606  27.555  1.00  0.00     0.023 A 
ATOM     62  C   UNL A   1      41.757  25.250  27.453  1.00  0.00     0.031 A 
ATOM     63  C   UNL A   1      42.778  27.193  26.462  1.00  0.00     0.131 A 
ATOM     64  C   UNL A   1      42.128  24.510  26.321  1.00  0.00     0.055 A 
ATOM     65  C   UNL A   1      43.070  26.472  25.303  1.00  0.00     0.041 A 
ATOM     66  F   UNL A   1      43.168  28.477  26.508  1.00  0.00    -0.206 F 
ATOM     67  C   UNL A   1      42.760  25.117  25.234  1.00  0.00     0.022 A 
BRANCH  64  68
ATOM     68  S   UNL A   1      41.914  22.708  26.354  1.00  0.00     0.124 S 
ATOM     69  O   UNL A   1      42.658  22.345  27.558  1.00  0.00    -0.237 OA
ATOM     70  O   UNL A   1      40.465  22.563  26.429  1.00  0.00    -0.237 OA
ATOM     71  O   UNL A   1      42.522  22.267  25.100  1.00  0.00    -0.744 OA
ENDBRANCH  64  68
ENDBRANCH  47  61
BRANCH  48  72
ATOM     72  C   UNL A   1      39.815  31.962  35.710  1.00  0.00     0.023 A 
ATOM     73  C   UNL A   1      38.862  31.467  36.612  1.00  0.00     0.031 A 
ATOM     74  C   UNL A   1      40.387  33.219  35.977  1.00  0.00     0.131 A 
ATOM     75  C   UNL A   1      38.480  32.240  37.720  1.00  0.00     0.055 A 
ATOM     76  C   UNL A   1      40.041  33.962  37.107  1.00  0.00     0.041 A 
ATOM     77  F   UNL A   1      41.302  33.740  35.144  1.00  0.00    -0.206 F 
ATOM     78  C   UNL A   1      39.073  33.478  37.980  1.00  0.00     0.022 A 
BRANCH  75  79
ATOM     79  S   UNL A   1      37.136  31.639  38.780  1.00  0.00     0.124 S 
ATOM     80  O   UNL A   1      36.085  32.613  38.508  1.00  0.00    -0.237 OA
ATOM     81  O   UNL A   1      36.916  30.295  38.256  1.00  0.00    -0.237 OA
ATOM     82  O   UNL A   1      37.710  31.696  40.122  1.00  0.00    -0.744 OA
ENDBRANCH  75  79
ENDBRANCH  48  72
BRANCH  60  83
ATOM     83  C   UNL A   1      44.832  27.336  34.247  1.00  0.00     0.023 A 
ATOM     84  C   UNL A   1      44.712  26.172  35.028  1.00  0.00     0.031 A 
ATOM     85  C   UNL A   1      46.067  28.009  34.248  1.00  0.00     0.131 A 
ATOM     86  C   UNL A   1      45.790  25.749  35.820  1.00  0.00     0.055 A 
ATOM     87  C   UNL A   1      47.156  27.547  34.990  1.00  0.00     0.041 A 
ATOM     88  F   UNL A   1      46.237  29.126  33.524  1.00  0.00    -0.206 F 
ATOM     89  C   UNL A   1      47.017  26.418  35.793  1.00  0.00     0.022 A 
BRANCH  86  90
ATOM     90  S   UNL A   1      45.542  24.360  36.961  1.00  0.00     0.124 S 
ATOM     91  O   UNL A   1      45.070  23.311  36.063  1.00  0.00    -0.237 OA
ATOM     92  O   UNL A   1      46.877  24.170  37.518  1.00  0.00    -0.237 OA
ATOM     93  O   UNL A   1      44.544  24.864  37.903  1.00  0.00    -0.744 OA
ENDBRANCH  86  90
ENDBRANCH  60  83
ENDBRANCH  34  35
ENDBRANCH  27  29
ENDBRANCH  26  27
ENDBRANCH  25  26
ENDBRANCH  24  25
ENDBRANCH  23  24
ENDBRANCH   1  23
TORSDOF 21
ENDMDL
