MODEL 1
REMARK VINA RESULT:     -11.3      0.000      0.000
REMARK SMILES Cc1cc(C)c(NC(=O)C[C@H](C(=O)OCCOCCOC(=O)c2ccc(-c3c4nc(c(-c5cc(S(=O)(=O)[O-])ccc5F)c5ccc([nH]5)c(-c5cc(S(=O)(=O)[O-])ccc5F)c5nc(c(-c6cc(S(=O)(=O)[O-])ccc6F)c6ccc3[nH]6)C=C5)C=C4)cc2)[NH+]2CC[NH+](C)CC2)c(C)c1
REMARK SMILES IDX 17 1 16 2 15 3 14 4 12 5 13 6 11 7 10 8 8 9 7 10 9 12 6 13
REMARK SMILES IDX 1 14 2 15 3 16 95 17 4 18 93 19 5 20 94 21 86 22 87 23 92 24
REMARK SMILES IDX 88 26 91 27 89 28 90 29 18 31 19 32 20 33 21 34 22 35 23 36
REMARK SMILES IDX 24 37 85 38 25 39 84 40 26 41 27 42 28 43 78 44 29 45 83 46
REMARK SMILES IDX 77 47 79 48 30 49 82 50 76 51 75 52 31 54 63 55 43 56 62 57
REMARK SMILES IDX 44 58 47 59 61 60 80 61 45 62 46 63 60 65 81 66 48 67 32 68
REMARK SMILES IDX 33 69 41 70 34 71 40 72 42 73 39 74 35 75 36 76 37 77 38 78
REMARK SMILES IDX 64 79 65 80 73 81 66 82 72 83 74 84 71 85 67 86 68 87 69 88
REMARK SMILES IDX 70 89 49 90 50 91 58 92 51 93 57 94 59 95 56 96 52 97 53 98
REMARK SMILES IDX 54 99 55 100
REMARK H PARENT 7 11 86 25 89 30 79 53 47 64
REMARK Flexibility Score: inf
ROOT
ATOM      1  O   UNL A   1      32.855  30.431  27.257  1.00  0.00    -0.374 OA
ENDROOT
BRANCH   1   2
ATOM      2  C   UNL A   1      32.818  29.025  27.054  1.00  0.00     0.202 C 
BRANCH   2   3
ATOM      3  C   UNL A   1      34.024  28.348  26.389  1.00  0.00     0.261 C 
BRANCH   3   4
ATOM      4  O   UNL A   1      33.769  27.003  25.950  1.00  0.00    -0.459 OA
BRANCH   4   5
ATOM      5  C   UNL A   1      33.262  26.896  24.679  1.00  0.00     0.365 C 
ATOM      6  O   UNL A   1      33.926  27.144  23.681  1.00  0.00    -0.245 OA
BRANCH   5   7
ATOM      7  C   UNL A   1      31.798  26.334  24.703  1.00  0.00     0.304 C 
BRANCH   7   8
ATOM      8  C   UNL A   1      31.615  25.559  26.037  1.00  0.00     0.177 C 
BRANCH   8   9
ATOM      9  C   UNL A   1      30.539  24.509  26.269  1.00  0.00     0.231 C 
ATOM     10  N   UNL A   1      30.653  23.177  26.018  1.00  0.00    -0.325 N 
ATOM     11  H   UNL A   1      29.817  22.665  26.111  1.00  0.00     0.169 HD
ATOM     12  O   UNL A   1      29.451  24.879  26.742  1.00  0.00    -0.274 OA
BRANCH  10  13
ATOM     13  C   UNL A   1      31.771  22.414  25.649  1.00  0.00     0.047 A 
ATOM     14  C   UNL A   1      34.319  19.181  24.468  1.00  0.00     0.044 C 
ATOM     15  C   UNL A   1      33.560  20.419  24.836  1.00  0.00    -0.050 A 
ATOM     16  C   UNL A   1      33.546  20.867  26.159  1.00  0.00     0.009 A 
ATOM     17  C   UNL A   1      32.808  21.111  23.888  1.00  0.00     0.009 A 
ATOM     18  C   UNL A   1      32.684  21.895  26.573  1.00  0.00    -0.027 A 
ATOM     19  C   UNL A   1      31.949  22.151  24.274  1.00  0.00    -0.027 A 
ATOM     20  C   UNL A   1      32.889  22.470  27.947  1.00  0.00     0.046 C 
ATOM     21  C   UNL A   1      31.219  22.921  23.205  1.00  0.00     0.046 C 
ENDBRANCH  10  13
ENDBRANCH   8   9
ENDBRANCH   7   8
BRANCH   7  22
ATOM     22  N   UNL A   1      30.819  27.380  24.318  1.00  0.00    -0.313 N 
ATOM     23  C   UNL A   1      29.843  27.024  23.275  1.00  0.00     0.325 C 
ATOM     24  C   UNL A   1      31.424  28.662  23.880  1.00  0.00     0.325 C 
ATOM     25  H   UNL A   1      30.334  27.479  25.209  1.00  0.00     0.349 HD
ATOM     26  C   UNL A   1      28.729  28.108  23.214  1.00  0.00     0.324 C 
ATOM     27  C   UNL A   1      30.348  29.769  23.913  1.00  0.00     0.324 C 
ATOM     28  N   UNL A   1      29.165  29.512  23.068  1.00  0.00    -0.328 N 
ATOM     29  C   UNL A   1      29.401  29.867  21.678  1.00  0.00     0.333 C 
ATOM     30  H   UNL A   1      28.406  30.114  23.389  1.00  0.00     0.348 HD
ENDBRANCH   7  22
ENDBRANCH   5   7
ENDBRANCH   4   5
ENDBRANCH   3   4
ENDBRANCH   2   3
ENDBRANCH   1   2
BRANCH   1  31
ATOM     31  C   UNL A   1      31.822  31.229  26.686  1.00  0.00     0.202 C 
BRANCH  31  32
ATOM     32  C   UNL A   1      31.635  32.680  27.155  1.00  0.00     0.261 C 
BRANCH  32  33
ATOM     33  O   UNL A   1      32.806  33.507  27.023  1.00  0.00    -0.460 OA
BRANCH  33  34
ATOM     34  C   UNL A   1      33.325  33.933  28.203  1.00  0.00     0.338 C 
ATOM     35  O   UNL A   1      32.811  34.716  28.989  1.00  0.00    -0.246 OA
BRANCH  34  36
ATOM     36  C   UNL A   1      34.561  33.201  28.524  1.00  0.00     0.060 A 
ATOM     37  C   UNL A   1      34.452  31.988  29.219  1.00  0.00     0.016 A 
ATOM     38  C   UNL A   1      35.811  33.774  28.284  1.00  0.00     0.016 A 
ATOM     39  C   UNL A   1      35.595  31.361  29.712  1.00  0.00     0.010 A 
ATOM     40  C   UNL A   1      36.954  33.148  28.791  1.00  0.00     0.010 A 
ATOM     41  C   UNL A   1      36.849  31.959  29.536  1.00  0.00    -0.014 A 
BRANCH  41  42
ATOM     42  C   UNL A   1      38.033  31.438  30.264  1.00  0.00     0.031 A 
ATOM     43  C   UNL A   1      38.891  30.398  29.599  1.00  0.00     0.074 A 
ATOM     44  C   UNL A   1      38.323  31.868  31.503  1.00  0.00     0.049 A 
ATOM     45  N   UNL A   1      39.893  29.713  30.082  1.00  0.00    -0.248 NA
ATOM     46  C   UNL A   1      38.562  30.084  28.200  1.00  0.00     0.031 C 
ATOM     47  C   UNL A   1      37.588  32.901  32.229  1.00  0.00     0.029 A 
ATOM     48  N   UNL A   1      39.300  31.468  32.380  1.00  0.00    -0.354 N 
ATOM     49  C   UNL A   1      40.305  28.869  29.055  1.00  0.00     0.074 A 
ATOM     50  C   UNL A   1      39.423  29.116  27.933  1.00  0.00     0.031 C 
ATOM     51  C   UNL A   1      38.115  33.027  33.458  1.00  0.00     0.029 A 
ATOM     52  C   UNL A   1      39.196  32.055  33.619  1.00  0.00     0.049 A 
ATOM     53  H   UNL A   1      40.005  30.823  32.145  1.00  0.00     0.167 HD
ATOM     54  C   UNL A   1      41.324  27.972  29.053  1.00  0.00     0.034 A 
ATOM     55  C   UNL A   1      39.862  31.803  34.764  1.00  0.00     0.034 A 
ATOM     56  C   UNL A   1      42.182  27.737  30.188  1.00  0.00     0.049 A 
ATOM     57  C   UNL A   1      40.942  30.750  34.769  1.00  0.00     0.074 A 
ATOM     58  C   UNL A   1      43.269  26.886  30.287  1.00  0.00     0.029 A 
ATOM     59  N   UNL A   1      42.036  28.339  31.432  1.00  0.00    -0.354 N 
ATOM     60  N   UNL A   1      41.339  29.972  33.788  1.00  0.00    -0.248 NA
ATOM     61  C   UNL A   1      41.666  30.543  36.030  1.00  0.00     0.031 C 
ATOM     62  C   UNL A   1      43.730  26.916  31.609  1.00  0.00     0.029 A 
ATOM     63  C   UNL A   1      42.985  27.846  32.315  1.00  0.00     0.049 A 
ATOM     64  H   UNL A   1      41.358  29.017  31.655  1.00  0.00     0.167 HD
ATOM     65  C   UNL A   1      42.377  29.203  34.308  1.00  0.00     0.074 A 
ATOM     66  C   UNL A   1      42.545  29.611  35.688  1.00  0.00     0.031 C 
ATOM     67  C   UNL A   1      43.131  28.255  33.695  1.00  0.00     0.034 A 
BRANCH  54  68
ATOM     68  C   UNL A   1      41.507  27.137  27.808  1.00  0.00     0.023 A 
ATOM     69  C   UNL A   1      41.093  25.794  27.743  1.00  0.00     0.031 A 
ATOM     70  C   UNL A   1      42.155  27.678  26.683  1.00  0.00     0.131 A 
ATOM     71  C   UNL A   1      41.410  25.017  26.619  1.00  0.00     0.055 A 
ATOM     72  C   UNL A   1      42.391  26.923  25.533  1.00  0.00     0.041 A 
ATOM     73  F   UNL A   1      42.591  28.948  26.691  1.00  0.00    -0.206 F 
ATOM     74  C   UNL A   1      42.036  25.578  25.504  1.00  0.00     0.022 A 
BRANCH  71  75
ATOM     75  S   UNL A   1      41.148  23.223  26.704  1.00  0.00     0.124 S 
ATOM     76  O   UNL A   1      41.556  22.929  28.076  1.00  0.00    -0.237 OA
ATOM     77  O   UNL A   1      39.723  23.100  26.421  1.00  0.00    -0.237 OA
ATOM     78  O   UNL A   1      42.038  22.697  25.672  1.00  0.00    -0.744 OA
ENDBRANCH  71  75
ENDBRANCH  54  68
BRANCH  55  79
ATOM     79  C   UNL A   1      39.478  32.516  36.015  1.00  0.00     0.023 A 
ATOM     80  C   UNL A   1      38.553  31.969  36.917  1.00  0.00     0.031 A 
ATOM     81  C   UNL A   1      40.038  33.770  36.320  1.00  0.00     0.131 A 
ATOM     82  C   UNL A   1      38.197  32.687  38.070  1.00  0.00     0.055 A 
ATOM     83  C   UNL A   1      39.713  34.460  37.488  1.00  0.00     0.041 A 
ATOM     84  F   UNL A   1      40.931  34.334  35.491  1.00  0.00    -0.206 F 
ATOM     85  C   UNL A   1      38.781  33.921  38.369  1.00  0.00     0.022 A 
BRANCH  82  86
ATOM     86  S   UNL A   1      36.918  32.004  39.160  1.00  0.00     0.124 S 
ATOM     87  O   UNL A   1      36.929  30.595  38.785  1.00  0.00    -0.237 OA
ATOM     88  O   UNL A   1      37.446  32.321  40.483  1.00  0.00    -0.237 OA
ATOM     89  O   UNL A   1      35.716  32.743  38.779  1.00  0.00    -0.744 OA
ENDBRANCH  82  86
ENDBRANCH  55  79
BRANCH  67  90
ATOM     90  C   UNL A   1      44.244  27.627  34.497  1.00  0.00     0.023 A 
ATOM     91  C   UNL A   1      44.107  26.366  35.102  1.00  0.00     0.031 A 
ATOM     92  C   UNL A   1      45.476  28.296  34.629  1.00  0.00     0.131 A 
ATOM     93  C   UNL A   1      45.174  25.827  35.839  1.00  0.00     0.055 A 
ATOM     94  C   UNL A   1      46.549  27.733  35.320  1.00  0.00     0.041 A 
ATOM     95  F   UNL A   1      45.659  29.503  34.071  1.00  0.00    -0.206 F 
ATOM     96  C   UNL A   1      46.399  26.494  35.936  1.00  0.00     0.022 A 
BRANCH  93  97
ATOM     97  S   UNL A   1      44.928  24.259  36.718  1.00  0.00     0.124 S 
ATOM     98  O   UNL A   1      46.216  23.599  36.526  1.00  0.00    -0.237 OA
ATOM     99  O   UNL A   1      44.635  24.704  38.077  1.00  0.00    -0.237 OA
ATOM    100  O   UNL A   1      43.804  23.643  36.014  1.00  0.00    -0.744 OA
ENDBRANCH  93  97
ENDBRANCH  67  90
ENDBRANCH  41  42
ENDBRANCH  34  36
ENDBRANCH  33  34
ENDBRANCH  32  33
ENDBRANCH  31  32
ENDBRANCH   1  31
TORSDOF 21
ENDMDL
MODEL 2
REMARK VINA RESULT:     -11.1      1.737      3.955
REMARK SMILES Cc1cc(C)c(NC(=O)C[C@H](C(=O)OCCOCCOC(=O)c2ccc(-c3c4nc(c(-c5cc(S(=O)(=O)[O-])ccc5F)c5ccc([nH]5)c(-c5cc(S(=O)(=O)[O-])ccc5F)c5nc(c(-c6cc(S(=O)(=O)[O-])ccc6F)c6ccc3[nH]6)C=C5)C=C4)cc2)[NH+]2CC[NH+](C)CC2)c(C)c1
REMARK SMILES IDX 17 1 16 2 15 3 14 4 12 5 13 6 11 7 10 8 8 9 7 10 9 12 6 13
REMARK SMILES IDX 1 14 2 15 3 16 95 17 4 18 93 19 5 20 94 21 86 22 87 23 92 24
REMARK SMILES IDX 88 26 91 27 89 28 90 29 18 31 19 32 20 33 21 34 22 35 23 36
REMARK SMILES IDX 24 37 85 38 25 39 84 40 26 41 27 42 28 43 78 44 29 45 83 46
REMARK SMILES IDX 77 47 79 48 30 49 82 50 76 51 75 52 31 54 63 55 43 56 62 57
REMARK SMILES IDX 44 58 47 59 61 60 80 61 45 62 46 63 60 65 81 66 48 67 32 68
REMARK SMILES IDX 33 69 41 70 34 71 40 72 42 73 39 74 35 75 36 76 37 77 38 78
REMARK SMILES IDX 64 79 65 80 73 81 66 82 72 83 74 84 71 85 67 86 68 87 69 88
REMARK SMILES IDX 70 89 49 90 50 91 58 92 51 93 57 94 59 95 56 96 52 97 53 98
REMARK SMILES IDX 54 99 55 100
REMARK H PARENT 7 11 86 25 89 30 79 53 47 64
REMARK Flexibility Score: inf
ROOT
ATOM      1  O   UNL A   1      32.336  29.792  27.199  1.00  0.00    -0.374 OA
ENDROOT
BRANCH   1   2
ATOM      2  C   UNL A   1      32.039  28.404  27.130  1.00  0.00     0.202 C 
BRANCH   2   3
ATOM      3  C   UNL A   1      32.701  27.566  26.029  1.00  0.00     0.261 C 
BRANCH   3   4
ATOM      4  O   UNL A   1      32.331  26.177  26.051  1.00  0.00    -0.459 OA
BRANCH   4   5
ATOM      5  C   UNL A   1      33.340  25.304  25.729  1.00  0.00     0.365 C 
ATOM      6  O   UNL A   1      34.427  25.316  26.292  1.00  0.00    -0.245 OA
BRANCH   5   7
ATOM      7  C   UNL A   1      32.866  24.272  24.648  1.00  0.00     0.304 C 
BRANCH   7   8
ATOM      8  C   UNL A   1      33.638  24.579  23.335  1.00  0.00     0.177 C 
BRANCH   8   9
ATOM      9  C   UNL A   1      32.975  24.735  21.975  1.00  0.00     0.231 C 
ATOM     10  N   UNL A   1      32.049  25.675  21.639  1.00  0.00    -0.325 N 
ATOM     11  H   UNL A   1      31.637  25.551  20.754  1.00  0.00     0.169 HD
ATOM     12  O   UNL A   1      33.303  23.951  21.070  1.00  0.00    -0.274 OA
BRANCH  10  13
ATOM     13  C   UNL A   1      31.589  26.792  22.352  1.00  0.00     0.047 A 
ATOM     14  C   UNL A   1      29.451  30.315  23.516  1.00  0.00     0.044 C 
ATOM     15  C   UNL A   1      30.250  29.071  23.276  1.00  0.00    -0.050 A 
ATOM     16  C   UNL A   1      31.560  29.159  22.799  1.00  0.00     0.009 A 
ATOM     17  C   UNL A   1      29.691  27.809  23.465  1.00  0.00     0.009 A 
ATOM     18  C   UNL A   1      32.259  28.019  22.370  1.00  0.00    -0.027 A 
ATOM     19  C   UNL A   1      30.375  26.653  23.058  1.00  0.00    -0.027 A 
ATOM     20  C   UNL A   1      33.728  28.164  22.087  1.00  0.00     0.046 C 
ATOM     21  C   UNL A   1      29.765  25.309  23.356  1.00  0.00     0.046 C 
ENDBRANCH  10  13
ENDBRANCH   8   9
ENDBRANCH   7   8
BRANCH   7  22
ATOM     22  N   UNL A   1      32.859  22.892  25.193  1.00  0.00    -0.313 N 
ATOM     23  C   UNL A   1      34.114  22.406  25.787  1.00  0.00     0.325 C 
ATOM     24  C   UNL A   1      32.443  21.847  24.225  1.00  0.00     0.325 C 
ATOM     25  H   UNL A   1      32.166  23.018  25.931  1.00  0.00     0.349 HD
ATOM     26  C   UNL A   1      33.845  21.085  26.563  1.00  0.00     0.324 C 
ATOM     27  C   UNL A   1      32.075  20.560  24.994  1.00  0.00     0.324 C 
ATOM     28  N   UNL A   1      33.159  20.002  25.828  1.00  0.00    -0.328 N 
ATOM     29  C   UNL A   1      34.087  19.199  25.049  1.00  0.00     0.333 C 
ATOM     30  H   UNL A   1      32.742  19.370  26.512  1.00  0.00     0.348 HD
ENDBRANCH   7  22
ENDBRANCH   5   7
ENDBRANCH   4   5
ENDBRANCH   3   4
ENDBRANCH   2   3
ENDBRANCH   1   2
BRANCH   1  31
ATOM     31  C   UNL A   1      31.552  30.696  26.424  1.00  0.00     0.202 C 
BRANCH  31  32
ATOM     32  C   UNL A   1      31.422  32.161  26.867  1.00  0.00     0.261 C 
BRANCH  32  33
ATOM     33  O   UNL A   1      32.614  32.948  26.689  1.00  0.00    -0.460 OA
BRANCH  33  34
ATOM     34  C   UNL A   1      33.121  33.463  27.838  1.00  0.00     0.338 C 
ATOM     35  O   UNL A   1      32.574  34.259  28.588  1.00  0.00    -0.246 OA
BRANCH  34  36
ATOM     36  C   UNL A   1      34.397  32.816  28.182  1.00  0.00     0.060 A 
ATOM     37  C   UNL A   1      34.358  31.597  28.873  1.00  0.00     0.016 A 
ATOM     38  C   UNL A   1      35.610  33.472  27.965  1.00  0.00     0.016 A 
ATOM     39  C   UNL A   1      35.531  31.047  29.387  1.00  0.00     0.010 A 
ATOM     40  C   UNL A   1      36.784  32.924  28.493  1.00  0.00     0.010 A 
ATOM     41  C   UNL A   1      36.745  31.729  29.235  1.00  0.00    -0.014 A 
BRANCH  41  42
ATOM     42  C   UNL A   1      37.947  31.287  29.984  1.00  0.00     0.031 A 
ATOM     43  C   UNL A   1      38.842  30.247  29.369  1.00  0.00     0.074 A 
ATOM     44  C   UNL A   1      38.224  31.789  31.200  1.00  0.00     0.049 A 
ATOM     45  N   UNL A   1      39.868  29.623  29.883  1.00  0.00    -0.248 NA
ATOM     46  C   UNL A   1      38.522  29.853  27.989  1.00  0.00     0.031 C 
ATOM     47  C   UNL A   1      37.452  32.830  31.876  1.00  0.00     0.029 A 
ATOM     48  N   UNL A   1      39.215  31.468  32.093  1.00  0.00    -0.354 N 
ATOM     49  C   UNL A   1      40.309  28.744  28.898  1.00  0.00     0.074 A 
ATOM     50  C   UNL A   1      39.417  28.903  27.768  1.00  0.00     0.031 C 
ATOM     51  C   UNL A   1      37.977  33.036  33.095  1.00  0.00     0.029 A 
ATOM     52  C   UNL A   1      39.091  32.112  33.301  1.00  0.00     0.049 A 
ATOM     53  H   UNL A   1      39.943  30.837  31.888  1.00  0.00     0.167 HD
ATOM     54  C   UNL A   1      41.359  27.886  28.937  1.00  0.00     0.034 A 
ATOM     55  C   UNL A   1      39.767  31.942  34.456  1.00  0.00     0.034 A 
ATOM     56  C   UNL A   1      42.227  27.738  30.081  1.00  0.00     0.049 A 
ATOM     57  C   UNL A   1      40.884  30.929  34.510  1.00  0.00     0.074 A 
ATOM     58  C   UNL A   1      43.344  26.933  30.218  1.00  0.00     0.029 A 
ATOM     59  N   UNL A   1      42.060  28.395  31.293  1.00  0.00    -0.354 N 
ATOM     60  N   UNL A   1      41.308  30.118  33.567  1.00  0.00    -0.248 NA
ATOM     61  C   UNL A   1      41.617  30.811  35.777  1.00  0.00     0.031 C 
ATOM     62  C   UNL A   1      43.804  27.044  31.535  1.00  0.00     0.029 A 
ATOM     63  C   UNL A   1      43.027  27.982  32.197  1.00  0.00     0.049 A 
ATOM     64  H   UNL A   1      41.358  29.059  31.484  1.00  0.00     0.167 HD
ATOM     65  C   UNL A   1      42.374  29.413  34.121  1.00  0.00     0.074 A 
ATOM     66  C   UNL A   1      42.528  29.895  35.479  1.00  0.00     0.031 C 
ATOM     67  C   UNL A   1      43.160  28.463  33.554  1.00  0.00     0.034 A 
BRANCH  54  68
ATOM     68  C   UNL A   1      41.570  26.997  27.735  1.00  0.00     0.023 A 
ATOM     69  C   UNL A   1      41.091  25.675  27.691  1.00  0.00     0.031 A 
ATOM     70  C   UNL A   1      42.310  27.462  26.633  1.00  0.00     0.131 A 
ATOM     71  C   UNL A   1      41.432  24.841  26.616  1.00  0.00     0.055 A 
ATOM     72  C   UNL A   1      42.574  26.653  25.526  1.00  0.00     0.041 A 
ATOM     73  F   UNL A   1      42.812  28.707  26.625  1.00  0.00    -0.206 F 
ATOM     74  C   UNL A   1      42.150  25.328  25.521  1.00  0.00     0.022 A 
BRANCH  71  75
ATOM     75  S   UNL A   1      41.072  23.067  26.746  1.00  0.00     0.124 S 
ATOM     76  O   UNL A   1      41.599  22.754  28.071  1.00  0.00    -0.237 OA
ATOM     77  O   UNL A   1      39.620  23.031  26.611  1.00  0.00    -0.237 OA
ATOM     78  O   UNL A   1      41.817  22.483  25.633  1.00  0.00    -0.744 OA
ENDBRANCH  71  75
ENDBRANCH  54  68
BRANCH  55  79
ATOM     79  C   UNL A   1      39.359  32.701  35.670  1.00  0.00     0.023 A 
ATOM     80  C   UNL A   1      39.818  34.005  35.910  1.00  0.00     0.031 A 
ATOM     81  C   UNL A   1      38.498  32.117  36.618  1.00  0.00     0.131 A 
ATOM     82  C   UNL A   1      39.432  34.674  37.082  1.00  0.00     0.055 A 
ATOM     83  C   UNL A   1      38.082  32.803  37.759  1.00  0.00     0.041 A 
ATOM     84  F   UNL A   1      38.027  30.874  36.432  1.00  0.00    -0.206 F 
ATOM     85  C   UNL A   1      38.556  34.088  38.001  1.00  0.00     0.022 A 
BRANCH  82  86
ATOM     86  S   UNL A   1      40.129  36.315  37.417  1.00  0.00     0.124 S 
ATOM     87  O   UNL A   1      40.129  36.915  36.088  1.00  0.00    -0.237 OA
ATOM     88  O   UNL A   1      39.170  36.863  38.370  1.00  0.00    -0.237 OA
ATOM     89  O   UNL A   1      41.450  36.018  37.969  1.00  0.00    -0.744 OA
ENDBRANCH  82  86
ENDBRANCH  55  79
BRANCH  67  90
ATOM     90  C   UNL A   1      44.296  27.917  34.384  1.00  0.00     0.023 A 
ATOM     91  C   UNL A   1      44.160  26.752  35.158  1.00  0.00     0.031 A 
ATOM     92  C   UNL A   1      45.548  28.561  34.369  1.00  0.00     0.131 A 
ATOM     93  C   UNL A   1      45.248  26.285  35.913  1.00  0.00     0.055 A 
ATOM     94  C   UNL A   1      46.639  28.065  35.081  1.00  0.00     0.041 A 
ATOM     95  F   UNL A   1      45.731  29.677  33.646  1.00  0.00    -0.206 F 
ATOM     96  C   UNL A   1      46.491  26.924  35.865  1.00  0.00     0.022 A 
BRANCH  93  97
ATOM     97  S   UNL A   1      45.009  24.857  37.005  1.00  0.00     0.124 S 
ATOM     98  O   UNL A   1      44.113  24.018  36.215  1.00  0.00    -0.237 OA
ATOM     99  O   UNL A   1      46.370  24.358  37.172  1.00  0.00    -0.237 OA
ATOM    100  O   UNL A   1      44.413  25.439  38.207  1.00  0.00    -0.744 OA
ENDBRANCH  93  97
ENDBRANCH  67  90
ENDBRANCH  41  42
ENDBRANCH  34  36
ENDBRANCH  33  34
ENDBRANCH  32  33
ENDBRANCH  31  32
ENDBRANCH   1  31
TORSDOF 21
ENDMDL
MODEL 3
REMARK VINA RESULT:     -10.7      2.601      4.622
REMARK SMILES Cc1cc(C)c(NC(=O)C[C@H](C(=O)OCCOCCOC(=O)c2ccc(-c3c4nc(c(-c5cc(S(=O)(=O)[O-])ccc5F)c5ccc([nH]5)c(-c5cc(S(=O)(=O)[O-])ccc5F)c5nc(c(-c6cc(S(=O)(=O)[O-])ccc6F)c6ccc3[nH]6)C=C5)C=C4)cc2)[NH+]2CC[NH+](C)CC2)c(C)c1
REMARK SMILES IDX 17 1 16 2 15 3 14 4 12 5 13 6 11 7 10 8 8 9 7 10 9 12 6 13
REMARK SMILES IDX 1 14 2 15 3 16 95 17 4 18 93 19 5 20 94 21 86 22 87 23 92 24
REMARK SMILES IDX 88 26 91 27 89 28 90 29 18 31 19 32 20 33 21 34 22 35 23 36
REMARK SMILES IDX 24 37 85 38 25 39 84 40 26 41 27 42 28 43 78 44 29 45 83 46
REMARK SMILES IDX 77 47 79 48 30 49 82 50 76 51 75 52 31 54 63 55 43 56 62 57
REMARK SMILES IDX 44 58 47 59 61 60 80 61 45 62 46 63 60 65 81 66 48 67 32 68
REMARK SMILES IDX 33 69 41 70 34 71 40 72 42 73 39 74 35 75 36 76 37 77 38 78
REMARK SMILES IDX 64 79 65 80 73 81 66 82 72 83 74 84 71 85 67 86 68 87 69 88
REMARK SMILES IDX 70 89 49 90 50 91 58 92 51 93 57 94 59 95 56 96 52 97 53 98
REMARK SMILES IDX 54 99 55 100
REMARK H PARENT 7 11 86 25 89 30 79 53 47 64
REMARK Flexibility Score: inf
ROOT
ATOM      1  O   UNL A   1      33.272  31.085  26.765  1.00  0.00    -0.374 OA
ENDROOT
BRANCH   1   2
ATOM      2  C   UNL A   1      34.200  30.250  27.446  1.00  0.00     0.202 C 
BRANCH   2   3
ATOM      3  C   UNL A   1      34.453  28.838  26.900  1.00  0.00     0.261 C 
BRANCH   3   4
ATOM      4  O   UNL A   1      33.324  27.956  27.019  1.00  0.00    -0.459 OA
BRANCH   4   5
ATOM      5  C   UNL A   1      33.020  27.249  25.882  1.00  0.00     0.365 C 
ATOM      6  O   UNL A   1      33.673  27.346  24.850  1.00  0.00    -0.245 OA
BRANCH   5   7
ATOM      7  C   UNL A   1      31.822  26.269  26.133  1.00  0.00     0.304 C 
BRANCH   7   8
ATOM      8  C   UNL A   1      30.598  26.811  25.345  1.00  0.00     0.177 C 
BRANCH   8   9
ATOM      9  C   UNL A   1      30.077  26.196  24.055  1.00  0.00     0.231 C 
ATOM     10  N   UNL A   1      29.439  26.859  23.053  1.00  0.00    -0.325 N 
ATOM     11  H   UNL A   1      29.062  26.283  22.350  1.00  0.00     0.169 HD
ATOM     12  O   UNL A   1      30.250  24.979  23.874  1.00  0.00    -0.274 OA
BRANCH  10  13
ATOM     13  C   UNL A   1      29.233  28.234  22.860  1.00  0.00     0.047 A 
ATOM     14  C   UNL A   1      28.151  32.019  21.176  1.00  0.00     0.044 C 
ATOM     15  C   UNL A   1      28.542  30.779  21.919  1.00  0.00    -0.050 A 
ATOM     16  C   UNL A   1      29.877  30.368  21.946  1.00  0.00     0.009 A 
ATOM     17  C   UNL A   1      27.584  29.982  22.544  1.00  0.00     0.009 A 
ATOM     18  C   UNL A   1      30.243  29.111  22.452  1.00  0.00    -0.027 A 
ATOM     19  C   UNL A   1      27.928  28.727  23.070  1.00  0.00    -0.027 A 
ATOM     20  C   UNL A   1      31.707  28.837  22.654  1.00  0.00     0.046 C 
ATOM     21  C   UNL A   1      26.877  27.939  23.807  1.00  0.00     0.046 C 
ENDBRANCH  10  13
ENDBRANCH   8   9
ENDBRANCH   7   8
BRANCH   7  22
ATOM     22  N   UNL A   1      32.243  24.857  25.961  1.00  0.00    -0.313 N 
ATOM     23  C   UNL A   1      31.532  23.849  26.764  1.00  0.00     0.325 C 
ATOM     24  C   UNL A   1      33.687  24.609  26.196  1.00  0.00     0.325 C 
ATOM     25  H   UNL A   1      31.996  24.736  24.980  1.00  0.00     0.349 HD
ATOM     26  C   UNL A   1      31.886  22.426  26.246  1.00  0.00     0.324 C 
ATOM     27  C   UNL A   1      34.073  23.241  25.594  1.00  0.00     0.324 C 
ATOM     28  N   UNL A   1      33.320  22.090  26.133  1.00  0.00    -0.328 N 
ATOM     29  C   UNL A   1      33.871  21.622  27.394  1.00  0.00     0.333 C 
ATOM     30  H   UNL A   1      33.413  21.313  25.477  1.00  0.00     0.348 HD
ENDBRANCH   7  22
ENDBRANCH   5   7
ENDBRANCH   4   5
ENDBRANCH   3   4
ENDBRANCH   2   3
ENDBRANCH   1   2
BRANCH   1  31
ATOM     31  C   UNL A   1      32.545  32.051  27.518  1.00  0.00     0.202 C 
BRANCH  31  32
ATOM     32  C   UNL A   1      32.994  33.520  27.504  1.00  0.00     0.261 C 
BRANCH  32  33
ATOM     33  O   UNL A   1      32.528  34.299  28.621  1.00  0.00    -0.460 OA
BRANCH  33  34
ATOM     34  C   UNL A   1      33.492  35.035  29.231  1.00  0.00     0.338 C 
ATOM     35  O   UNL A   1      33.416  36.208  29.567  1.00  0.00    -0.246 OA
BRANCH  34  36
ATOM     36  C   UNL A   1      34.638  34.189  29.601  1.00  0.00     0.060 A 
ATOM     37  C   UNL A   1      34.444  33.199  30.575  1.00  0.00     0.016 A 
ATOM     38  C   UNL A   1      35.915  34.467  29.113  1.00  0.00     0.016 A 
ATOM     39  C   UNL A   1      35.538  32.508  31.095  1.00  0.00     0.010 A 
ATOM     40  C   UNL A   1      37.011  33.780  29.646  1.00  0.00     0.010 A 
ATOM     41  C   UNL A   1      36.831  32.824  30.663  1.00  0.00    -0.014 A 
BRANCH  41  42
ATOM     42  C   UNL A   1      38.011  32.279  31.380  1.00  0.00     0.031 A 
ATOM     43  C   UNL A   1      38.803  31.175  30.736  1.00  0.00     0.074 A 
ATOM     44  C   UNL A   1      38.356  32.746  32.591  1.00  0.00     0.049 A 
ATOM     45  N   UNL A   1      39.787  30.466  31.221  1.00  0.00    -0.248 NA
ATOM     46  C   UNL A   1      38.420  30.820  29.362  1.00  0.00     0.031 C 
ATOM     47  C   UNL A   1      37.688  33.841  33.293  1.00  0.00     0.029 A 
ATOM     48  N   UNL A   1      39.338  32.338  33.458  1.00  0.00    -0.354 N 
ATOM     49  C   UNL A   1      40.132  29.563  30.220  1.00  0.00     0.074 A 
ATOM     50  C   UNL A   1      39.230  29.803  29.112  1.00  0.00     0.031 C 
ATOM     51  C   UNL A   1      38.256  33.993  34.501  1.00  0.00     0.029 A 
ATOM     52  C   UNL A   1      39.296  32.980  34.673  1.00  0.00     0.049 A 
ATOM     53  H   UNL A   1      40.008  31.653  33.232  1.00  0.00     0.167 HD
ATOM     54  C   UNL A   1      41.109  28.621  30.228  1.00  0.00     0.034 A 
ATOM     55  C   UNL A   1      39.983  32.746  35.810  1.00  0.00     0.034 A 
ATOM     56  C   UNL A   1      41.989  28.394  31.349  1.00  0.00     0.049 A 
ATOM     57  C   UNL A   1      41.015  31.645  35.830  1.00  0.00     0.074 A 
ATOM     58  C   UNL A   1      43.039  27.499  31.454  1.00  0.00     0.029 A 
ATOM     59  N   UNL A   1      41.905  29.052  32.570  1.00  0.00    -0.354 N 
ATOM     60  N   UNL A   1      41.349  30.810  34.872  1.00  0.00    -0.248 NA
ATOM     61  C   UNL A   1      41.765  31.457  37.079  1.00  0.00     0.031 C 
ATOM     62  C   UNL A   1      43.539  27.562  32.760  1.00  0.00     0.029 A 
ATOM     63  C   UNL A   1      42.856  28.554  33.447  1.00  0.00     0.049 A 
ATOM     64  H   UNL A   1      41.264  29.769  32.781  1.00  0.00     0.167 HD
ATOM     65  C   UNL A   1      42.367  30.016  35.396  1.00  0.00     0.074 A 
ATOM     66  C   UNL A   1      42.592  30.473  36.753  1.00  0.00     0.031 C 
ATOM     67  C   UNL A   1      43.060  29.011  34.803  1.00  0.00     0.034 A 
BRANCH  54  68
ATOM     68  C   UNL A   1      41.219  27.729  29.015  1.00  0.00     0.023 A 
ATOM     69  C   UNL A   1      42.239  27.891  28.060  1.00  0.00     0.031 A 
ATOM     70  C   UNL A   1      40.256  26.731  28.781  1.00  0.00     0.131 A 
ATOM     71  C   UNL A   1      42.221  27.133  26.879  1.00  0.00     0.055 A 
ATOM     72  C   UNL A   1      40.292  25.921  27.644  1.00  0.00     0.041 A 
ATOM     73  F   UNL A   1      39.246  26.541  29.645  1.00  0.00    -0.206 F 
ATOM     74  C   UNL A   1      41.268  26.133  26.675  1.00  0.00     0.022 A 
BRANCH  71  75
ATOM     75  S   UNL A   1      43.356  27.590  25.538  1.00  0.00     0.124 S 
ATOM     76  O   UNL A   1      44.075  26.338  25.320  1.00  0.00    -0.237 OA
ATOM     77  O   UNL A   1      42.441  27.994  24.477  1.00  0.00    -0.237 OA
ATOM     78  O   UNL A   1      44.156  28.666  26.117  1.00  0.00    -0.744 OA
ENDBRANCH  71  75
ENDBRANCH  54  68
BRANCH  55  79
ATOM     79  C   UNL A   1      39.667  33.525  37.039  1.00  0.00     0.023 A 
ATOM     80  C   UNL A   1      40.355  34.705  37.358  1.00  0.00     0.031 A 
ATOM     81  C   UNL A   1      38.662  33.086  37.921  1.00  0.00     0.131 A 
ATOM     82  C   UNL A   1      40.045  35.394  38.541  1.00  0.00     0.055 A 
ATOM     83  C   UNL A   1      38.328  33.797  39.074  1.00  0.00     0.041 A 
ATOM     84  F   UNL A   1      37.972  31.964  37.659  1.00  0.00    -0.206 F 
ATOM     85  C   UNL A   1      39.027  34.956  39.394  1.00  0.00     0.022 A 
BRANCH  82  86
ATOM     86  S   UNL A   1      41.026  36.856  38.980  1.00  0.00     0.124 S 
ATOM     87  O   UNL A   1      41.653  36.430  40.225  1.00  0.00    -0.237 OA
ATOM     88  O   UNL A   1      41.910  36.985  37.826  1.00  0.00    -0.237 OA
ATOM     89  O   UNL A   1      40.023  37.911  39.113  1.00  0.00    -0.744 OA
ENDBRANCH  82  86
ENDBRANCH  55  79
BRANCH  67  90
ATOM     90  C   UNL A   1      44.167  28.367  35.602  1.00  0.00     0.023 A 
ATOM     91  C   UNL A   1      45.489  28.841  35.558  1.00  0.00     0.031 A 
ATOM     92  C   UNL A   1      43.880  27.278  36.446  1.00  0.00     0.131 A 
ATOM     93  C   UNL A   1      46.483  28.206  36.321  1.00  0.00     0.055 A 
ATOM     94  C   UNL A   1      44.860  26.683  37.240  1.00  0.00     0.041 A 
ATOM     95  F   UNL A   1      42.633  26.787  36.524  1.00  0.00    -0.206 F 
ATOM     96  C   UNL A   1      46.172  27.142  37.174  1.00  0.00     0.022 A 
BRANCH  93  97
ATOM     97  S   UNL A   1      48.204  28.752  36.148  1.00  0.00     0.124 S 
ATOM     98  O   UNL A   1      48.078  29.852  35.196  1.00  0.00    -0.237 OA
ATOM     99  O   UNL A   1      48.553  29.127  37.514  1.00  0.00    -0.237 OA
ATOM    100  O   UNL A   1      48.891  27.566  35.638  1.00  0.00    -0.744 OA
ENDBRANCH  93  97
ENDBRANCH  67  90
ENDBRANCH  41  42
ENDBRANCH  34  36
ENDBRANCH  33  34
ENDBRANCH  32  33
ENDBRANCH  31  32
ENDBRANCH   1  31
TORSDOF 21
ENDMDL
