MODEL 1
REMARK VINA RESULT:     -11.0      0.000      0.000
REMARK SMILES CCC[C@@H](Oc1ccc(-c2ccccc2)cc1)C(=O)OCCOCCOC(=O)c1ccc(-c2c3nc(c(-c4cc(S(=O)(=O)[O-])ccc4F)c4ccc([nH]4)c(-c4cc(S(=O)(=O)[O-])ccc4F)c4nc(c(-c5cc(S(=O)(=O)[O-])ccc5F)c5ccc2[nH]5)C=C4)C=C3)cc1
REMARK SMILES IDX 23 1 22 2 21 3 20 4 18 5 19 6 4 7 3 8 2 9 1 10 5 11 6 12
REMARK SMILES IDX 7 13 17 14 8 15 16 16 9 17 10 18 11 19 15 20 12 21 14 22
REMARK SMILES IDX 13 23 24 24 25 25 26 26 27 27 28 28 29 29 30 30 91 31 31 32
REMARK SMILES IDX 90 33 32 34 33 35 34 36 84 37 35 38 89 39 83 40 85 41 36 42
REMARK SMILES IDX 88 43 82 44 81 45 37 47 69 48 49 49 68 50 50 51 53 52 67 53
REMARK SMILES IDX 86 54 51 55 52 56 66 58 87 59 54 60 38 61 39 62 47 63 40 64
REMARK SMILES IDX 46 65 48 66 45 67 41 68 42 69 43 70 44 71 70 72 71 73 79 74
REMARK SMILES IDX 72 75 78 76 80 77 77 78 73 79 74 80 75 81 76 82 55 83 56 84
REMARK SMILES IDX 64 85 57 86 63 87 65 88 62 89 58 90 59 91 60 92 61 93
REMARK H PARENT 85 46 53 57
REMARK Flexibility Score: inf
ROOT
ATOM      1  O   UNL A   1      32.058  29.149  25.543  1.00  0.00    -0.374 OA
ENDROOT
BRANCH   1   2
ATOM      2  C   UNL A   1      31.590  28.242  26.543  1.00  0.00     0.202 C 
BRANCH   2   3
ATOM      3  C   UNL A   1      32.103  26.800  26.466  1.00  0.00     0.261 C 
BRANCH   3   4
ATOM      4  O   UNL A   1      31.158  25.857  27.008  1.00  0.00    -0.461 OA
BRANCH   4   5
ATOM      5  C   UNL A   1      31.033  24.673  26.342  1.00  0.00     0.347 C 
ATOM      6  O   UNL A   1      30.526  23.656  26.806  1.00  0.00    -0.248 OA
BRANCH   5   7
ATOM      7  C   UNL A   1      31.592  24.743  24.920  1.00  0.00     0.282 C 
BRANCH   7   8
ATOM      8  C   UNL A   1      32.655  23.650  24.663  1.00  0.00     0.057 C 
BRANCH   8   9
ATOM      9  C   UNL A   1      33.662  23.900  23.529  1.00  0.00     0.001 C 
ATOM     10  C   UNL A   1      33.165  23.547  22.136  1.00  0.00     0.004 C 
ENDBRANCH   8   9
ENDBRANCH   7   8
BRANCH   7  11
ATOM     11  O   UNL A   1      30.451  24.607  24.056  1.00  0.00    -0.479 OA
BRANCH  11  12
ATOM     12  C   UNL A   1      29.987  25.829  23.665  1.00  0.00     0.120 A 
ATOM     13  C   UNL A   1      28.714  26.265  24.014  1.00  0.00     0.047 A 
ATOM     14  C   UNL A   1      30.816  26.625  22.893  1.00  0.00     0.047 A 
ATOM     15  C   UNL A   1      28.306  27.553  23.649  1.00  0.00     0.012 A 
ATOM     16  C   UNL A   1      30.426  27.924  22.578  1.00  0.00     0.012 A 
ATOM     17  C   UNL A   1      29.163  28.424  22.948  1.00  0.00    -0.018 A 
BRANCH  17  18
ATOM     18  C   UNL A   1      28.773  29.812  22.602  1.00  0.00    -0.018 A 
ATOM     19  C   UNL A   1      28.487  30.773  23.589  1.00  0.00     0.009 A 
ATOM     20  C   UNL A   1      28.700  30.232  21.260  1.00  0.00     0.009 A 
ATOM     21  C   UNL A   1      28.147  32.087  23.249  1.00  0.00     0.001 A 
ATOM     22  C   UNL A   1      28.377  31.547  20.917  1.00  0.00     0.001 A 
ATOM     23  C   UNL A   1      28.098  32.474  21.912  1.00  0.00     0.000 A 
ENDBRANCH  17  18
ENDBRANCH  11  12
ENDBRANCH   7  11
ENDBRANCH   5   7
ENDBRANCH   4   5
ENDBRANCH   3   4
ENDBRANCH   2   3
ENDBRANCH   1   2
BRANCH   1  24
ATOM     24  C   UNL A   1      31.459  30.440  25.499  1.00  0.00     0.202 C 
BRANCH  24  25
ATOM     25  C   UNL A   1      31.805  31.419  26.632  1.00  0.00     0.261 C 
BRANCH  25  26
ATOM     26  O   UNL A   1      32.958  31.029  27.400  1.00  0.00    -0.460 OA
BRANCH  26  27
ATOM     27  C   UNL A   1      33.787  32.055  27.715  1.00  0.00     0.338 C 
ATOM     28  O   UNL A   1      33.466  33.227  27.885  1.00  0.00    -0.246 OA
BRANCH  27  29
ATOM     29  C   UNL A   1      35.149  31.571  28.006  1.00  0.00     0.060 A 
ATOM     30  C   UNL A   1      35.308  30.192  28.198  1.00  0.00     0.016 A 
ATOM     31  C   UNL A   1      36.227  32.439  28.194  1.00  0.00     0.016 A 
ATOM     32  C   UNL A   1      36.528  29.683  28.634  1.00  0.00     0.010 A 
ATOM     33  C   UNL A   1      37.453  31.923  28.637  1.00  0.00     0.010 A 
ATOM     34  C   UNL A   1      37.599  30.548  28.897  1.00  0.00    -0.014 A 
BRANCH  34  35
ATOM     35  C   UNL A   1      38.803  30.013  29.586  1.00  0.00     0.031 A 
ATOM     36  C   UNL A   1      39.130  30.500  30.974  1.00  0.00     0.074 A 
ATOM     37  C   UNL A   1      39.553  29.052  29.016  1.00  0.00     0.049 A 
ATOM     38  N   UNL A   1      40.108  30.151  31.770  1.00  0.00    -0.248 NA
ATOM     39  C   UNL A   1      38.231  31.520  31.536  1.00  0.00     0.031 C 
ATOM     40  C   UNL A   1      39.311  28.466  27.699  1.00  0.00     0.029 A 
ATOM     41  N   UNL A   1      40.666  28.394  29.478  1.00  0.00    -0.354 N 
ATOM     42  C   UNL A   1      39.942  30.903  32.930  1.00  0.00     0.074 A 
ATOM     43  C   UNL A   1      38.796  31.761  32.709  1.00  0.00     0.031 C 
ATOM     44  C   UNL A   1      40.249  27.533  27.459  1.00  0.00     0.029 A 
ATOM     45  C   UNL A   1      41.174  27.477  28.589  1.00  0.00     0.049 A 
ATOM     46  H   UNL A   1      41.063  28.563  30.363  1.00  0.00     0.167 HD
ATOM     47  C   UNL A   1      40.668  30.874  34.075  1.00  0.00     0.034 A 
ATOM     48  C   UNL A   1      42.269  26.693  28.671  1.00  0.00     0.034 A 
ATOM     49  C   UNL A   1      41.818  30.024  34.277  1.00  0.00     0.049 A 
ATOM     50  C   UNL A   1      43.111  26.737  29.922  1.00  0.00     0.074 A 
ATOM     51  C   UNL A   1      42.622  29.912  35.400  1.00  0.00     0.029 A 
ATOM     52  N   UNL A   1      42.338  29.149  33.332  1.00  0.00    -0.354 N 
ATOM     53  N   UNL A   1      42.939  27.448  31.013  1.00  0.00    -0.248 NA
ATOM     54  C   UNL A   1      44.290  25.861  29.957  1.00  0.00     0.031 C 
ATOM     55  C   UNL A   1      43.665  29.024  35.107  1.00  0.00     0.029 A 
ATOM     56  C   UNL A   1      43.469  28.520  33.832  1.00  0.00     0.049 A 
ATOM     57  H   UNL A   1      41.959  28.997  32.435  1.00  0.00     0.167 HD
ATOM     58  C   UNL A   1      43.971  27.080  31.874  1.00  0.00     0.074 A 
ATOM     59  C   UNL A   1      44.748  26.073  31.181  1.00  0.00     0.031 C 
ATOM     60  C   UNL A   1      44.249  27.529  33.125  1.00  0.00     0.034 A 
BRANCH  47  61
ATOM     61  C   UNL A   1      40.266  31.831  35.174  1.00  0.00     0.023 A 
ATOM     62  C   UNL A   1      39.360  31.461  36.185  1.00  0.00     0.031 A 
ATOM     63  C   UNL A   1      40.768  33.143  35.190  1.00  0.00     0.131 A 
ATOM     64  C   UNL A   1      38.931  32.413  37.123  1.00  0.00     0.055 A 
ATOM     65  C   UNL A   1      40.398  34.063  36.173  1.00  0.00     0.041 A 
ATOM     66  F   UNL A   1      41.618  33.562  34.238  1.00  0.00    -0.206 F 
ATOM     67  C   UNL A   1      39.462  33.704  37.139  1.00  0.00     0.022 A 
BRANCH  64  68
ATOM     68  S   UNL A   1      37.558  31.984  38.229  1.00  0.00     0.124 S 
ATOM     69  O   UNL A   1      38.191  32.092  39.541  1.00  0.00    -0.237 OA
ATOM     70  O   UNL A   1      36.567  33.007  37.911  1.00  0.00    -0.237 OA
ATOM     71  O   UNL A   1      37.204  30.625  37.826  1.00  0.00    -0.744 OA
ENDBRANCH  64  68
ENDBRANCH  47  61
BRANCH  48  72
ATOM     72  C   UNL A   1      42.661  25.822  27.524  1.00  0.00     0.023 A 
ATOM     73  C   UNL A   1      42.300  24.466  27.480  1.00  0.00     0.031 A 
ATOM     74  C   UNL A   1      43.458  26.327  26.481  1.00  0.00     0.131 A 
ATOM     75  C   UNL A   1      42.771  23.651  26.439  1.00  0.00     0.055 A 
ATOM     76  C   UNL A   1      43.880  25.524  25.420  1.00  0.00     0.041 A 
ATOM     77  F   UNL A   1      43.835  27.615  26.476  1.00  0.00    -0.206 F 
ATOM     78  C   UNL A   1      43.548  24.173  25.402  1.00  0.00     0.022 A 
BRANCH  75  79
ATOM     79  S   UNL A   1      42.423  21.872  26.502  1.00  0.00     0.124 S 
ATOM     80  O   UNL A   1      42.402  21.623  27.938  1.00  0.00    -0.237 OA
ATOM     81  O   UNL A   1      41.136  21.791  25.818  1.00  0.00    -0.237 OA
ATOM     82  O   UNL A   1      43.548  21.280  25.781  1.00  0.00    -0.744 OA
ENDBRANCH  75  79
ENDBRANCH  48  72
BRANCH  60  83
ATOM     83  C   UNL A   1      45.423  26.895  33.836  1.00  0.00     0.023 A 
ATOM     84  C   UNL A   1      45.274  25.753  34.642  1.00  0.00     0.031 A 
ATOM     85  C   UNL A   1      46.705  27.463  33.729  1.00  0.00     0.131 A 
ATOM     86  C   UNL A   1      46.372  25.255  35.362  1.00  0.00     0.055 A 
ATOM     87  C   UNL A   1      47.807  26.925  34.396  1.00  0.00     0.041 A 
ATOM     88  F   UNL A   1      46.909  28.556  32.974  1.00  0.00    -0.206 F 
ATOM     89  C   UNL A   1      47.640  25.825  35.231  1.00  0.00     0.022 A 
BRANCH  86  90
ATOM     90  S   UNL A   1      46.096  23.921  36.559  1.00  0.00     0.124 S 
ATOM     91  O   UNL A   1      47.399  23.265  36.590  1.00  0.00    -0.237 OA
ATOM     92  O   UNL A   1      45.724  24.655  37.765  1.00  0.00    -0.237 OA
ATOM     93  O   UNL A   1      45.022  23.134  35.957  1.00  0.00    -0.744 OA
ENDBRANCH  86  90
ENDBRANCH  60  83
ENDBRANCH  34  35
ENDBRANCH  27  29
ENDBRANCH  26  27
ENDBRANCH  25  26
ENDBRANCH  24  25
ENDBRANCH   1  24
TORSDOF 22
ENDMDL
MODEL 2
REMARK VINA RESULT:     -10.8      2.577      4.765
REMARK SMILES CCC[C@@H](Oc1ccc(-c2ccccc2)cc1)C(=O)OCCOCCOC(=O)c1ccc(-c2c3nc(c(-c4cc(S(=O)(=O)[O-])ccc4F)c4ccc([nH]4)c(-c4cc(S(=O)(=O)[O-])ccc4F)c4nc(c(-c5cc(S(=O)(=O)[O-])ccc5F)c5ccc2[nH]5)C=C4)C=C3)cc1
REMARK SMILES IDX 23 1 22 2 21 3 20 4 18 5 19 6 4 7 3 8 2 9 1 10 5 11 6 12
REMARK SMILES IDX 7 13 17 14 8 15 16 16 9 17 10 18 11 19 15 20 12 21 14 22
REMARK SMILES IDX 13 23 24 24 25 25 26 26 27 27 28 28 29 29 30 30 91 31 31 32
REMARK SMILES IDX 90 33 32 34 33 35 34 36 84 37 35 38 89 39 83 40 85 41 36 42
REMARK SMILES IDX 88 43 82 44 81 45 37 47 69 48 49 49 68 50 50 51 53 52 67 53
REMARK SMILES IDX 86 54 51 55 52 56 66 58 87 59 54 60 38 61 39 62 47 63 40 64
REMARK SMILES IDX 46 65 48 66 45 67 41 68 42 69 43 70 44 71 70 72 71 73 79 74
REMARK SMILES IDX 72 75 78 76 80 77 77 78 73 79 74 80 75 81 76 82 55 83 56 84
REMARK SMILES IDX 64 85 57 86 63 87 65 88 62 89 58 90 59 91 60 92 61 93
REMARK H PARENT 85 46 53 57
REMARK Flexibility Score: inf
ROOT
ATOM      1  O   UNL A   1      31.287  29.708  24.136  1.00  0.00    -0.374 OA
ENDROOT
BRANCH   1   2
ATOM      2  C   UNL A   1      29.982  29.753  23.557  1.00  0.00     0.202 C 
BRANCH   2   3
ATOM      3  C   UNL A   1      29.588  28.589  22.641  1.00  0.00     0.261 C 
BRANCH   3   4
ATOM      4  O   UNL A   1      30.580  27.544  22.633  1.00  0.00    -0.461 OA
BRANCH   4   5
ATOM      5  C   UNL A   1      30.313  26.448  23.399  1.00  0.00     0.347 C 
ATOM      6  O   UNL A   1      29.227  26.197  23.913  1.00  0.00    -0.248 OA
BRANCH   5   7
ATOM      7  C   UNL A   1      31.530  25.533  23.550  1.00  0.00     0.282 C 
BRANCH   7   8
ATOM      8  C   UNL A   1      32.841  26.337  23.703  1.00  0.00     0.057 C 
BRANCH   8   9
ATOM      9  C   UNL A   1      33.277  26.705  25.131  1.00  0.00     0.001 C 
ATOM     10  C   UNL A   1      34.229  25.718  25.789  1.00  0.00     0.004 C 
ENDBRANCH   8   9
ENDBRANCH   7   8
BRANCH   7  11
ATOM     11  O   UNL A   1      31.251  24.718  24.701  1.00  0.00    -0.479 OA
BRANCH  11  12
ATOM     12  C   UNL A   1      31.609  23.420  24.478  1.00  0.00     0.120 A 
ATOM     13  C   UNL A   1      31.519  22.851  23.214  1.00  0.00     0.047 A 
ATOM     14  C   UNL A   1      32.053  22.672  25.556  1.00  0.00     0.047 A 
ATOM     15  C   UNL A   1      31.960  21.538  23.018  1.00  0.00     0.012 A 
ATOM     16  C   UNL A   1      32.540  21.385  25.347  1.00  0.00     0.012 A 
ATOM     17  C   UNL A   1      32.509  20.783  24.074  1.00  0.00    -0.018 A 
BRANCH  17  18
ATOM     18  C   UNL A   1      33.037  19.412  23.878  1.00  0.00    -0.018 A 
ATOM     19  C   UNL A   1      32.517  18.546  22.899  1.00  0.00     0.009 A 
ATOM     20  C   UNL A   1      34.108  18.929  24.655  1.00  0.00     0.009 A 
ATOM     21  C   UNL A   1      33.044  17.264  22.706  1.00  0.00     0.001 A 
ATOM     22  C   UNL A   1      34.647  17.657  24.454  1.00  0.00     0.001 A 
ATOM     23  C   UNL A   1      34.113  16.822  23.481  1.00  0.00     0.000 A 
ENDBRANCH  17  18
ENDBRANCH  11  12
ENDBRANCH   7  11
ENDBRANCH   5   7
ENDBRANCH   4   5
ENDBRANCH   3   4
ENDBRANCH   2   3
ENDBRANCH   1   2
BRANCH   1  24
ATOM     24  C   UNL A   1      31.422  30.151  25.482  1.00  0.00     0.202 C 
BRANCH  24  25
ATOM     25  C   UNL A   1      32.841  30.460  25.985  1.00  0.00     0.261 C 
BRANCH  25  26
ATOM     26  O   UNL A   1      32.889  30.859  27.367  1.00  0.00    -0.460 OA
BRANCH  26  27
ATOM     27  C   UNL A   1      33.725  31.899  27.614  1.00  0.00     0.338 C 
ATOM     28  O   UNL A   1      33.424  33.088  27.635  1.00  0.00    -0.246 OA
BRANCH  27  29
ATOM     29  C   UNL A   1      35.055  31.426  28.037  1.00  0.00     0.060 A 
ATOM     30  C   UNL A   1      35.147  30.104  28.492  1.00  0.00     0.016 A 
ATOM     31  C   UNL A   1      36.166  32.270  28.093  1.00  0.00     0.016 A 
ATOM     32  C   UNL A   1      36.331  29.639  29.057  1.00  0.00     0.010 A 
ATOM     33  C   UNL A   1      37.357  31.800  28.666  1.00  0.00     0.010 A 
ATOM     34  C   UNL A   1      37.433  30.495  29.187  1.00  0.00    -0.014 A 
BRANCH  34  35
ATOM     35  C   UNL A   1      38.594  30.054  30.004  1.00  0.00     0.031 A 
ATOM     36  C   UNL A   1      38.735  30.567  31.414  1.00  0.00     0.074 A 
ATOM     37  C   UNL A   1      39.471  29.151  29.527  1.00  0.00     0.049 A 
ATOM     38  N   UNL A   1      39.646  30.295  32.312  1.00  0.00    -0.248 NA
ATOM     39  C   UNL A   1      37.707  31.517  31.867  1.00  0.00     0.031 C 
ATOM     40  C   UNL A   1      39.414  28.546  28.197  1.00  0.00     0.029 A 
ATOM     41  N   UNL A   1      40.574  28.580  30.110  1.00  0.00    -0.354 N 
ATOM     42  C   UNL A   1      39.302  31.035  33.440  1.00  0.00     0.074 A 
ATOM     43  C   UNL A   1      38.125  31.802  33.091  1.00  0.00     0.031 C 
ATOM     44  C   UNL A   1      40.440  27.686  28.066  1.00  0.00     0.029 A 
ATOM     45  C   UNL A   1      41.241  27.703  29.289  1.00  0.00     0.049 A 
ATOM     46  H   UNL A   1      40.861  28.780  31.030  1.00  0.00     0.167 HD
ATOM     47  C   UNL A   1      39.904  31.063  34.657  1.00  0.00     0.034 A 
ATOM     48  C   UNL A   1      42.377  27.004  29.493  1.00  0.00     0.034 A 
ATOM     49  C   UNL A   1      41.086  30.303  34.987  1.00  0.00     0.049 A 
ATOM     50  C   UNL A   1      43.076  27.114  30.826  1.00  0.00     0.074 A 
ATOM     51  C   UNL A   1      41.772  30.253  36.189  1.00  0.00     0.029 A 
ATOM     52  N   UNL A   1      41.768  29.467  34.110  1.00  0.00    -0.354 N 
ATOM     53  N   UNL A   1      42.736  27.812  31.886  1.00  0.00    -0.248 NA
ATOM     54  C   UNL A   1      44.307  26.329  30.994  1.00  0.00     0.031 C 
ATOM     55  C   UNL A   1      42.904  29.447  36.017  1.00  0.00     0.029 A 
ATOM     56  C   UNL A   1      42.883  28.927  34.733  1.00  0.00     0.049 A 
ATOM     57  H   UNL A   1      41.498  29.286  33.180  1.00  0.00     0.167 HD
ATOM     58  C   UNL A   1      43.696  27.525  32.854  1.00  0.00     0.074 A 
ATOM     59  C   UNL A   1      44.616  26.578  32.257  1.00  0.00     0.031 C 
ATOM     60  C   UNL A   1      43.806  27.996  34.123  1.00  0.00     0.034 A 
BRANCH  47  61
ATOM     61  C   UNL A   1      39.316  31.988  35.697  1.00  0.00     0.023 A 
ATOM     62  C   UNL A   1      39.711  33.335  35.800  1.00  0.00     0.031 A 
ATOM     63  C   UNL A   1      38.373  31.507  36.622  1.00  0.00     0.131 A 
ATOM     64  C   UNL A   1      39.220  34.130  36.848  1.00  0.00     0.055 A 
ATOM     65  C   UNL A   1      37.829  32.325  37.613  1.00  0.00     0.041 A 
ATOM     66  F   UNL A   1      37.975  30.225  36.588  1.00  0.00    -0.206 F 
ATOM     67  C   UNL A   1      38.263  33.642  37.740  1.00  0.00     0.022 A 
BRANCH  64  68
ATOM     68  S   UNL A   1      39.961  35.764  37.118  1.00  0.00     0.124 S 
ATOM     69  O   UNL A   1      39.650  36.441  35.862  1.00  0.00    -0.237 OA
ATOM     70  O   UNL A   1      39.247  36.242  38.297  1.00  0.00    -0.237 OA
ATOM     71  O   UNL A   1      41.377  35.468  37.323  1.00  0.00    -0.744 OA
ENDBRANCH  64  68
ENDBRANCH  47  61
BRANCH  48  72
ATOM     72  C   UNL A   1      42.953  26.163  28.403  1.00  0.00     0.023 A 
ATOM     73  C   UNL A   1      44.022  26.620  27.616  1.00  0.00     0.031 A 
ATOM     74  C   UNL A   1      42.397  24.908  28.096  1.00  0.00     0.131 A 
ATOM     75  C   UNL A   1      44.473  25.848  26.534  1.00  0.00     0.055 A 
ATOM     76  C   UNL A   1      42.884  24.120  27.052  1.00  0.00     0.041 A 
ATOM     77  F   UNL A   1      41.371  24.425  28.815  1.00  0.00    -0.206 F 
ATOM     78  C   UNL A   1      43.920  24.596  26.255  1.00  0.00     0.022 A 
BRANCH  75  79
ATOM     79  S   UNL A   1      45.742  26.541  25.439  1.00  0.00     0.124 S 
ATOM     80  O   UNL A   1      45.026  27.647  24.816  1.00  0.00    -0.237 OA
ATOM     81  O   UNL A   1      46.790  26.908  26.386  1.00  0.00    -0.237 OA
ATOM     82  O   UNL A   1      46.069  25.429  24.550  1.00  0.00    -0.744 OA
ENDBRANCH  75  79
ENDBRANCH  48  72
BRANCH  60  83
ATOM     83  C   UNL A   1      44.942  27.455  34.960  1.00  0.00     0.023 A 
ATOM     84  C   UNL A   1      44.801  26.293  35.740  1.00  0.00     0.031 A 
ATOM     85  C   UNL A   1      46.175  28.130  35.000  1.00  0.00     0.131 A 
ATOM     86  C   UNL A   1      45.849  25.881  36.578  1.00  0.00     0.055 A 
ATOM     87  C   UNL A   1      47.237  27.678  35.786  1.00  0.00     0.041 A 
ATOM     88  F   UNL A   1      46.368  29.245  34.278  1.00  0.00    -0.206 F 
ATOM     89  C   UNL A   1      47.071  26.557  36.593  1.00  0.00     0.022 A 
BRANCH  86  90
ATOM     90  S   UNL A   1      45.556  24.512  37.732  1.00  0.00     0.124 S 
ATOM     91  O   UNL A   1      44.404  24.993  38.488  1.00  0.00    -0.237 OA
ATOM     92  O   UNL A   1      45.304  23.392  36.831  1.00  0.00    -0.237 OA
ATOM     93  O   UNL A   1      46.803  24.428  38.490  1.00  0.00    -0.744 OA
ENDBRANCH  86  90
ENDBRANCH  60  83
ENDBRANCH  34  35
ENDBRANCH  27  29
ENDBRANCH  26  27
ENDBRANCH  25  26
ENDBRANCH  24  25
ENDBRANCH   1  24
TORSDOF 22
ENDMDL
MODEL 3
REMARK VINA RESULT:     -10.6      2.336      8.776
REMARK SMILES CCC[C@@H](Oc1ccc(-c2ccccc2)cc1)C(=O)OCCOCCOC(=O)c1ccc(-c2c3nc(c(-c4cc(S(=O)(=O)[O-])ccc4F)c4ccc([nH]4)c(-c4cc(S(=O)(=O)[O-])ccc4F)c4nc(c(-c5cc(S(=O)(=O)[O-])ccc5F)c5ccc2[nH]5)C=C4)C=C3)cc1
REMARK SMILES IDX 23 1 22 2 21 3 20 4 18 5 19 6 4 7 3 8 2 9 1 10 5 11 6 12
REMARK SMILES IDX 7 13 17 14 8 15 16 16 9 17 10 18 11 19 15 20 12 21 14 22
REMARK SMILES IDX 13 23 24 24 25 25 26 26 27 27 28 28 29 29 30 30 91 31 31 32
REMARK SMILES IDX 90 33 32 34 33 35 34 36 84 37 35 38 89 39 83 40 85 41 36 42
REMARK SMILES IDX 88 43 82 44 81 45 37 47 69 48 49 49 68 50 50 51 53 52 67 53
REMARK SMILES IDX 86 54 51 55 52 56 66 58 87 59 54 60 38 61 39 62 47 63 40 64
REMARK SMILES IDX 46 65 48 66 45 67 41 68 42 69 43 70 44 71 70 72 71 73 79 74
REMARK SMILES IDX 72 75 78 76 80 77 77 78 73 79 74 80 75 81 76 82 55 83 56 84
REMARK SMILES IDX 64 85 57 86 63 87 65 88 62 89 58 90 59 91 60 92 61 93
REMARK H PARENT 85 46 53 57
REMARK Flexibility Score: inf
ROOT
ATOM      1  O   UNL A   1      31.144  28.805  24.910  1.00  0.00    -0.374 OA
ENDROOT
BRANCH   1   2
ATOM      2  C   UNL A   1      30.960  28.637  23.503  1.00  0.00     0.202 C 
BRANCH   2   3
ATOM      3  C   UNL A   1      29.954  27.570  23.057  1.00  0.00     0.261 C 
BRANCH   3   4
ATOM      4  O   UNL A   1      30.464  26.234  23.232  1.00  0.00    -0.461 OA
BRANCH   4   5
ATOM      5  C   UNL A   1      31.380  25.811  22.315  1.00  0.00     0.347 C 
ATOM      6  O   UNL A   1      31.397  26.142  21.133  1.00  0.00    -0.248 OA
BRANCH   5   7
ATOM      7  C   UNL A   1      32.418  24.865  22.923  1.00  0.00     0.282 C 
BRANCH   7   8
ATOM      8  C   UNL A   1      33.726  25.603  23.289  1.00  0.00     0.057 C 
BRANCH   8   9
ATOM      9  C   UNL A   1      34.409  25.210  24.610  1.00  0.00     0.001 C 
ATOM     10  C   UNL A   1      33.938  25.979  25.833  1.00  0.00     0.004 C 
ENDBRANCH   8   9
ENDBRANCH   7   8
BRANCH   7  11
ATOM     11  O   UNL A   1      31.778  24.286  24.072  1.00  0.00    -0.479 OA
BRANCH  11  12
ATOM     12  C   UNL A   1      31.960  22.934  24.104  1.00  0.00     0.120 A 
ATOM     13  C   UNL A   1      32.225  22.213  22.947  1.00  0.00     0.047 A 
ATOM     14  C   UNL A   1      31.860  22.292  25.327  1.00  0.00     0.047 A 
ATOM     15  C   UNL A   1      32.472  20.838  23.036  1.00  0.00     0.012 A 
ATOM     16  C   UNL A   1      32.159  20.935  25.418  1.00  0.00     0.012 A 
ATOM     17  C   UNL A   1      32.475  20.172  24.278  1.00  0.00    -0.018 A 
BRANCH  17  18
ATOM     18  C   UNL A   1      32.792  18.730  24.403  1.00  0.00    -0.018 A 
ATOM     19  C   UNL A   1      33.389  18.004  23.356  1.00  0.00     0.009 A 
ATOM     20  C   UNL A   1      32.530  18.030  25.597  1.00  0.00     0.009 A 
ATOM     21  C   UNL A   1      33.709  16.649  23.498  1.00  0.00     0.001 A 
ATOM     22  C   UNL A   1      32.862  16.682  25.749  1.00  0.00     0.001 A 
ATOM     23  C   UNL A   1      33.450  15.991  24.697  1.00  0.00     0.000 A 
ENDBRANCH  17  18
ENDBRANCH  11  12
ENDBRANCH   7  11
ENDBRANCH   5   7
ENDBRANCH   4   5
ENDBRANCH   3   4
ENDBRANCH   2   3
ENDBRANCH   1   2
BRANCH   1  24
ATOM     24  C   UNL A   1      32.173  29.693  25.334  1.00  0.00     0.202 C 
BRANCH  24  25
ATOM     25  C   UNL A   1      31.743  30.972  26.069  1.00  0.00     0.261 C 
BRANCH  25  26
ATOM     26  O   UNL A   1      32.369  31.138  27.353  1.00  0.00    -0.460 OA
BRANCH  26  27
ATOM     27  C   UNL A   1      33.263  32.158  27.407  1.00  0.00     0.338 C 
ATOM     28  O   UNL A   1      33.021  33.349  27.242  1.00  0.00    -0.246 OA
BRANCH  27  29
ATOM     29  C   UNL A   1      34.582  31.687  27.866  1.00  0.00     0.060 A 
ATOM     30  C   UNL A   1      34.694  30.332  28.204  1.00  0.00     0.016 A 
ATOM     31  C   UNL A   1      35.657  32.556  28.067  1.00  0.00     0.016 A 
ATOM     32  C   UNL A   1      35.859  29.853  28.796  1.00  0.00     0.010 A 
ATOM     33  C   UNL A   1      36.828  32.070  28.668  1.00  0.00     0.010 A 
ATOM     34  C   UNL A   1      36.920  30.725  29.071  1.00  0.00    -0.014 A 
BRANCH  34  35
ATOM     35  C   UNL A   1      38.046  30.246  29.916  1.00  0.00     0.031 A 
ATOM     36  C   UNL A   1      39.021  29.251  29.342  1.00  0.00     0.074 A 
ATOM     37  C   UNL A   1      38.242  30.745  31.151  1.00  0.00     0.049 A 
ATOM     38  N   UNL A   1      40.087  28.721  29.885  1.00  0.00    -0.248 NA
ATOM     39  C   UNL A   1      38.754  28.793  27.970  1.00  0.00     0.031 C 
ATOM     40  C   UNL A   1      37.395  31.745  31.798  1.00  0.00     0.029 A 
ATOM     41  N   UNL A   1      39.221  30.482  32.076  1.00  0.00    -0.354 N 
ATOM     42  C   UNL A   1      40.623  27.871  28.922  1.00  0.00     0.074 A 
ATOM     43  C   UNL A   1      39.734  27.922  27.781  1.00  0.00     0.031 C 
ATOM     44  C   UNL A   1      37.893  32.014  33.017  1.00  0.00     0.029 A 
ATOM     45  C   UNL A   1      39.074  31.183  33.250  1.00  0.00     0.049 A 
ATOM     46  H   UNL A   1      39.960  29.852  31.915  1.00  0.00     0.167 HD
ATOM     47  C   UNL A   1      41.756  27.126  28.979  1.00  0.00     0.034 A 
ATOM     48  C   UNL A   1      39.798  31.148  34.387  1.00  0.00     0.034 A 
ATOM     49  C   UNL A   1      42.626  27.072  30.130  1.00  0.00     0.049 A 
ATOM     50  C   UNL A   1      41.008  30.249  34.458  1.00  0.00     0.074 A 
ATOM     51  C   UNL A   1      43.800  26.356  30.291  1.00  0.00     0.029 A 
ATOM     52  N   UNL A   1      42.414  27.752  31.323  1.00  0.00    -0.354 N 
ATOM     53  N   UNL A   1      41.507  29.455  33.538  1.00  0.00    -0.248 NA
ATOM     54  C   UNL A   1      41.761  30.252  35.720  1.00  0.00     0.031 C 
ATOM     55  C   UNL A   1      44.257  26.547  31.601  1.00  0.00     0.029 A 
ATOM     56  C   UNL A   1      43.414  27.446  32.234  1.00  0.00     0.049 A 
ATOM     57  H   UNL A   1      41.661  28.364  31.497  1.00  0.00     0.167 HD
ATOM     58  C   UNL A   1      42.648  28.889  34.102  1.00  0.00     0.074 A 
ATOM     59  C   UNL A   1      42.772  29.447  35.433  1.00  0.00     0.031 C 
ATOM     60  C   UNL A   1      43.519  27.995  33.567  1.00  0.00     0.034 A 
BRANCH  47  61
ATOM     61  C   UNL A   1      42.081  26.269  27.777  1.00  0.00     0.023 A 
ATOM     62  C   UNL A   1      41.641  24.937  27.674  1.00  0.00     0.031 A 
ATOM     63  C   UNL A   1      42.872  26.783  26.735  1.00  0.00     0.131 A 
ATOM     64  C   UNL A   1      42.055  24.145  26.592  1.00  0.00     0.055 A 
ATOM     65  C   UNL A   1      43.215  26.013  25.622  1.00  0.00     0.041 A 
ATOM     66  F   UNL A   1      43.341  28.039  26.788  1.00  0.00    -0.206 F 
ATOM     67  C   UNL A   1      42.818  24.680  25.553  1.00  0.00     0.022 A 
BRANCH  64  68
ATOM     68  S   UNL A   1      41.707  22.365  26.636  1.00  0.00     0.124 S 
ATOM     69  O   UNL A   1      42.315  21.914  25.386  1.00  0.00    -0.237 OA
ATOM     70  O   UNL A   1      42.376  21.943  27.862  1.00  0.00    -0.237 OA
ATOM     71  O   UNL A   1      40.247  22.302  26.668  1.00  0.00    -0.744 OA
ENDBRANCH  64  68
ENDBRANCH  47  61
BRANCH  48  72
ATOM     72  C   UNL A   1      39.387  31.960  35.570  1.00  0.00     0.023 A 
ATOM     73  C   UNL A   1      39.946  33.223  35.818  1.00  0.00     0.031 A 
ATOM     74  C   UNL A   1      38.467  31.450  36.504  1.00  0.00     0.131 A 
ATOM     75  C   UNL A   1      39.614  33.916  36.993  1.00  0.00     0.055 A 
ATOM     76  C   UNL A   1      38.100  32.166  37.644  1.00  0.00     0.041 A 
ATOM     77  F   UNL A   1      37.905  30.246  36.316  1.00  0.00    -0.206 F 
ATOM     78  C   UNL A   1      38.685  33.402  37.901  1.00  0.00     0.022 A 
BRANCH  75  79
ATOM     79  S   UNL A   1      40.478  35.467  37.363  1.00  0.00     0.124 S 
ATOM     80  O   UNL A   1      41.801  35.211  36.807  1.00  0.00    -0.237 OA
ATOM     81  O   UNL A   1      39.662  36.445  36.651  1.00  0.00    -0.237 OA
ATOM     82  O   UNL A   1      40.418  35.551  38.820  1.00  0.00    -0.744 OA
ENDBRANCH  75  79
ENDBRANCH  48  72
BRANCH  60  83
ATOM     83  C   UNL A   1      44.706  27.600  34.416  1.00  0.00     0.023 A 
ATOM     84  C   UNL A   1      44.674  26.476  35.260  1.00  0.00     0.031 A 
ATOM     85  C   UNL A   1      45.877  28.380  34.402  1.00  0.00     0.131 A 
ATOM     86  C   UNL A   1      45.762  26.202  36.104  1.00  0.00     0.055 A 
ATOM     87  C   UNL A   1      46.981  28.066  35.195  1.00  0.00     0.041 A 
ATOM     88  F   UNL A   1      45.965  29.466  33.617  1.00  0.00    -0.206 F 
ATOM     89  C   UNL A   1      46.921  26.981  36.064  1.00  0.00     0.022 A 
BRANCH  86  90
ATOM     90  S   UNL A   1      45.600  24.880  37.335  1.00  0.00     0.124 S 
ATOM     91  O   UNL A   1      44.276  25.142  37.890  1.00  0.00    -0.237 OA
ATOM     92  O   UNL A   1      45.721  23.677  36.518  1.00  0.00    -0.237 OA
ATOM     93  O   UNL A   1      46.714  25.123  38.249  1.00  0.00    -0.744 OA
ENDBRANCH  86  90
ENDBRANCH  60  83
ENDBRANCH  34  35
ENDBRANCH  27  29
ENDBRANCH  26  27
ENDBRANCH  25  26
ENDBRANCH  24  25
ENDBRANCH   1  24
TORSDOF 22
ENDMDL
