MODEL 1
REMARK VINA RESULT:     -12.0      0.000      0.000
REMARK SMILES O=C(OCCOCCOC(=O)c1sccc1S(=O)(=O)Nc1ccc(Cn2cncn2)cc1)c1ccc(-c2c3nc(c(-c4cc(S(=O)(=O)[O-])ccc4F)c4ccc([nH]4)c(-c4cc(S(=O)(=O)[O-])ccc4F)c4nc(c(-c5cc(S(=O)(=O)[O-])ccc5F)c5ccc2[nH]5)C=C4)C=C3)cc1
REMARK SMILES IDX 7 1 6 2 5 3 4 4 3 5 2 6 1 7 33 8 34 9 95 10 35 11 94 12
REMARK SMILES IDX 36 13 37 14 38 15 88 16 39 17 93 18 87 19 89 20 40 21 92 22
REMARK SMILES IDX 86 23 85 24 41 26 73 27 53 28 72 29 54 30 57 31 71 32 90 33
REMARK SMILES IDX 55 34 56 35 70 37 91 38 58 39 42 40 43 41 51 42 44 43 50 44
REMARK SMILES IDX 52 45 49 46 45 47 46 48 47 49 48 50 74 51 75 52 83 53 76 54
REMARK SMILES IDX 82 55 84 56 81 57 77 58 78 59 79 60 80 61 59 62 60 63 68 64
REMARK SMILES IDX 61 65 67 66 69 67 66 68 62 69 63 70 64 71 65 72 8 73 9 74
REMARK SMILES IDX 10 75 11 76 12 77 13 78 16 79 14 80 15 81 17 82 18 83 19 84
REMARK SMILES IDX 20 85 21 87 22 88 32 89 23 90 31 91 24 92 25 93 26 94 27 95
REMARK SMILES IDX 30 96 28 97 29 98
REMARK H PARENT 89 25 57 36 20 86
REMARK Flexibility Score: inf
ROOT
ATOM      1  C   UNL A   1      33.201  28.026  27.197  1.00  0.00     0.202 C 
ENDROOT
BRANCH   1   2
ATOM      2  O   UNL A   1      32.801  29.378  27.121  1.00  0.00    -0.374 OA
BRANCH   2   3
ATOM      3  C   UNL A   1      33.774  30.391  27.333  1.00  0.00     0.202 C 
BRANCH   3   4
ATOM      4  C   UNL A   1      35.259  30.001  27.369  1.00  0.00     0.261 C 
BRANCH   4   5
ATOM      5  O   UNL A   1      36.023  30.552  28.447  1.00  0.00    -0.460 OA
BRANCH   5   6
ATOM      6  C   UNL A   1      36.867  29.923  29.298  1.00  0.00     0.338 C 
ATOM      7  O   UNL A   1      36.802  30.217  30.492  1.00  0.00    -0.246 OA
BRANCH   6   8
ATOM      8  C   UNL A   1      37.993  29.035  28.866  1.00  0.00     0.060 A 
ATOM      9  C   UNL A   1      38.466  27.909  29.541  1.00  0.00     0.016 A 
ATOM     10  C   UNL A   1      38.642  29.435  27.678  1.00  0.00     0.016 A 
ATOM     11  C   UNL A   1      39.704  27.393  29.228  1.00  0.00     0.010 A 
ATOM     12  C   UNL A   1      39.877  28.921  27.352  1.00  0.00     0.010 A 
ATOM     13  C   UNL A   1      40.439  28.000  28.218  1.00  0.00    -0.014 A 
BRANCH  13  14
ATOM     14  C   UNL A   1      41.834  27.646  28.103  1.00  0.00     0.031 A 
ATOM     15  C   UNL A   1      42.032  26.359  27.410  1.00  0.00     0.074 A 
ATOM     16  C   UNL A   1      42.785  28.455  28.613  1.00  0.00     0.049 A 
ATOM     17  N   UNL A   1      42.315  25.225  27.956  1.00  0.00    -0.248 NA
ATOM     18  C   UNL A   1      41.619  26.255  26.002  1.00  0.00     0.031 C 
ATOM     19  C   UNL A   1      42.634  29.803  29.168  1.00  0.00     0.029 A 
ATOM     20  N   UNL A   1      44.127  28.259  28.676  1.00  0.00    -0.354 N 
ATOM     21  C   UNL A   1      42.421  24.329  26.900  1.00  0.00     0.074 A 
ATOM     22  C   UNL A   1      41.735  24.942  25.798  1.00  0.00     0.031 C 
ATOM     23  C   UNL A   1      43.851  30.384  29.285  1.00  0.00     0.029 A 
ATOM     24  C   UNL A   1      44.873  29.410  28.942  1.00  0.00     0.049 A 
ATOM     25  H   UNL A   1      44.542  27.375  28.547  1.00  0.00     0.167 HD
ATOM     26  C   UNL A   1      43.351  23.336  26.944  1.00  0.00     0.034 A 
ATOM     27  C   UNL A   1      46.225  29.541  28.800  1.00  0.00     0.034 A 
ATOM     28  C   UNL A   1      43.774  23.098  28.311  1.00  0.00     0.049 A 
ATOM     29  C   UNL A   1      46.779  28.159  28.885  1.00  0.00     0.074 A 
ATOM     30  C   UNL A   1      43.111  22.753  29.475  1.00  0.00     0.029 A 
ATOM     31  N   UNL A   1      44.984  23.621  28.716  1.00  0.00    -0.354 N 
ATOM     32  N   UNL A   1      46.718  27.447  29.981  1.00  0.00    -0.248 NA
ATOM     33  C   UNL A   1      46.860  27.384  27.652  1.00  0.00     0.031 C 
ATOM     34  C   UNL A   1      43.720  23.548  30.492  1.00  0.00     0.029 A 
ATOM     35  C   UNL A   1      44.792  24.242  29.927  1.00  0.00     0.049 A 
ATOM     36  H   UNL A   1      45.836  23.560  28.225  1.00  0.00     0.167 HD
ATOM     37  C   UNL A   1      46.311  26.184  29.571  1.00  0.00     0.074 A 
ATOM     38  C   UNL A   1      46.477  26.188  28.115  1.00  0.00     0.031 C 
ATOM     39  C   UNL A   1      45.584  25.367  30.393  1.00  0.00     0.034 A 
BRANCH  26  40
ATOM     40  C   UNL A   1      44.199  22.928  25.755  1.00  0.00     0.023 A 
ATOM     41  C   UNL A   1      44.315  21.546  25.519  1.00  0.00     0.031 A 
ATOM     42  C   UNL A   1      45.127  23.745  25.068  1.00  0.00     0.131 A 
ATOM     43  C   UNL A   1      45.391  21.029  24.781  1.00  0.00     0.055 A 
ATOM     44  C   UNL A   1      46.158  23.228  24.280  1.00  0.00     0.041 A 
ATOM     45  F   UNL A   1      45.156  25.076  25.176  1.00  0.00    -0.206 F 
ATOM     46  C   UNL A   1      46.321  21.861  24.165  1.00  0.00     0.022 A 
BRANCH  43  47
ATOM     47  S   UNL A   1      45.661  19.241  24.817  1.00  0.00     0.124 S 
ATOM     48  O   UNL A   1      46.949  19.161  25.497  1.00  0.00    -0.237 OA
ATOM     49  O   UNL A   1      44.503  18.780  25.575  1.00  0.00    -0.237 OA
ATOM     50  O   UNL A   1      45.670  18.872  23.404  1.00  0.00    -0.744 OA
ENDBRANCH  43  47
ENDBRANCH  26  40
BRANCH  27  51
ATOM     51  C   UNL A   1      46.949  30.698  28.178  1.00  0.00     0.023 A 
ATOM     52  C   UNL A   1      46.328  31.673  27.358  1.00  0.00     0.031 A 
ATOM     53  C   UNL A   1      48.271  30.987  28.593  1.00  0.00     0.131 A 
ATOM     54  C   UNL A   1      47.028  32.855  26.991  1.00  0.00     0.055 A 
ATOM     55  C   UNL A   1      48.950  32.152  28.233  1.00  0.00     0.041 A 
ATOM     56  F   UNL A   1      48.928  30.179  29.439  1.00  0.00    -0.206 F 
ATOM     57  C   UNL A   1      48.329  33.097  27.437  1.00  0.00     0.022 A 
BRANCH  54  58
ATOM     58  S   UNL A   1      46.239  34.152  25.971  1.00  0.00     0.124 S 
ATOM     59  O   UNL A   1      45.206  33.405  25.262  1.00  0.00    -0.237 OA
ATOM     60  O   UNL A   1      45.779  35.107  26.972  1.00  0.00    -0.237 OA
ATOM     61  O   UNL A   1      47.331  34.635  25.125  1.00  0.00    -0.744 OA
ENDBRANCH  54  58
ENDBRANCH  27  51
BRANCH  39  62
ATOM     62  C   UNL A   1      45.447  25.741  31.858  1.00  0.00     0.023 A 
ATOM     63  C   UNL A   1      46.402  25.477  32.870  1.00  0.00     0.031 A 
ATOM     64  C   UNL A   1      44.331  26.523  32.206  1.00  0.00     0.131 A 
ATOM     65  C   UNL A   1      46.204  25.984  34.174  1.00  0.00     0.055 A 
ATOM     66  C   UNL A   1      44.153  27.039  33.487  1.00  0.00     0.041 A 
ATOM     67  F   UNL A   1      43.405  26.834  31.284  1.00  0.00    -0.206 F 
ATOM     68  C   UNL A   1      45.085  26.765  34.478  1.00  0.00     0.022 A 
BRANCH  65  69
ATOM     69  S   UNL A   1      47.385  25.620  35.516  1.00  0.00     0.124 S 
ATOM     70  O   UNL A   1      47.011  26.562  36.565  1.00  0.00    -0.237 OA
ATOM     71  O   UNL A   1      47.119  24.212  35.798  1.00  0.00    -0.237 OA
ATOM     72  O   UNL A   1      48.689  25.879  34.901  1.00  0.00    -0.744 OA
ENDBRANCH  65  69
ENDBRANCH  39  62
ENDBRANCH  13  14
ENDBRANCH   6   8
ENDBRANCH   5   6
ENDBRANCH   4   5
ENDBRANCH   3   4
ENDBRANCH   2   3
ENDBRANCH   1   2
BRANCH   1  73
ATOM     73  C   UNL A   1      32.460  26.998  26.387  1.00  0.00     0.261 C 
BRANCH  73  74
ATOM     74  O   UNL A   1      33.028  25.736  26.098  1.00  0.00    -0.459 OA
BRANCH  74  75
ATOM     75  C   UNL A   1      32.073  24.762  26.011  1.00  0.00     0.349 C 
ATOM     76  O   UNL A   1      30.941  24.814  26.455  1.00  0.00    -0.245 OA
BRANCH  75  77
ATOM     77  C   UNL A   1      32.640  23.641  25.343  1.00  0.00     0.133 A 
ATOM     78  S   UNL A   1      32.970  22.264  26.304  1.00  0.00    -0.136 S 
ATOM     79  C   UNL A   1      33.011  23.488  24.026  1.00  0.00     0.113 A 
ATOM     80  C   UNL A   1      33.568  21.403  24.962  1.00  0.00     0.067 A 
ATOM     81  C   UNL A   1      33.535  22.162  23.811  1.00  0.00     0.035 A 
BRANCH  79  82
ATOM     82  S   UNL A   1      32.962  24.669  22.732  1.00  0.00     0.263 S 
ATOM     83  O   UNL A   1      33.894  25.684  23.169  1.00  0.00    -0.201 OA
ATOM     84  O   UNL A   1      33.263  23.839  21.582  1.00  0.00    -0.201 OA
BRANCH  82  85
ATOM     85  N   UNL A   1      31.482  25.362  22.355  1.00  0.00    -0.280 N 
ATOM     86  H   UNL A   1      31.068  25.063  21.513  1.00  0.00     0.180 HD
BRANCH  85  87
ATOM     87  C   UNL A   1      30.739  26.344  23.112  1.00  0.00     0.049 A 
ATOM     88  C   UNL A   1      31.067  27.696  22.864  1.00  0.00     0.027 A 
ATOM     89  C   UNL A   1      29.502  26.075  23.682  1.00  0.00     0.027 A 
ATOM     90  C   UNL A   1      30.078  28.707  22.901  1.00  0.00     0.008 A 
ATOM     91  C   UNL A   1      28.523  27.084  23.747  1.00  0.00     0.008 A 
ATOM     92  C   UNL A   1      28.755  28.372  23.222  1.00  0.00    -0.026 A 
BRANCH  92  93
ATOM     93  C   UNL A   1      27.538  29.091  22.636  1.00  0.00     0.181 C 
BRANCH  93  94
ATOM     94  N   UNL A   1      27.615  30.526  22.438  1.00  0.00    -0.249 N 
ATOM     95  C   UNL A   1      27.701  31.492  23.399  1.00  0.00     0.220 A 
ATOM     96  N   UNL A   1      28.029  31.012  21.246  1.00  0.00    -0.160 NA
ATOM     97  N   UNL A   1      28.106  32.619  22.861  1.00  0.00    -0.224 NA
ATOM     98  C   UNL A   1      28.335  32.272  21.563  1.00  0.00     0.246 A 
ENDBRANCH  93  94
ENDBRANCH  92  93
ENDBRANCH  85  87
ENDBRANCH  82  85
ENDBRANCH  79  82
ENDBRANCH  75  77
ENDBRANCH  74  75
ENDBRANCH  73  74
ENDBRANCH   1  73
TORSDOF 22
ENDMDL
MODEL 2
REMARK VINA RESULT:     -11.6      3.451      5.666
REMARK SMILES O=C(OCCOCCOC(=O)c1sccc1S(=O)(=O)Nc1ccc(Cn2cncn2)cc1)c1ccc(-c2c3nc(c(-c4cc(S(=O)(=O)[O-])ccc4F)c4ccc([nH]4)c(-c4cc(S(=O)(=O)[O-])ccc4F)c4nc(c(-c5cc(S(=O)(=O)[O-])ccc5F)c5ccc2[nH]5)C=C4)C=C3)cc1
REMARK SMILES IDX 7 1 6 2 5 3 4 4 3 5 2 6 1 7 33 8 34 9 95 10 35 11 94 12
REMARK SMILES IDX 36 13 37 14 38 15 88 16 39 17 93 18 87 19 89 20 40 21 92 22
REMARK SMILES IDX 86 23 85 24 41 26 73 27 53 28 72 29 54 30 57 31 71 32 90 33
REMARK SMILES IDX 55 34 56 35 70 37 91 38 58 39 42 40 43 41 51 42 44 43 50 44
REMARK SMILES IDX 52 45 49 46 45 47 46 48 47 49 48 50 74 51 75 52 83 53 76 54
REMARK SMILES IDX 82 55 84 56 81 57 77 58 78 59 79 60 80 61 59 62 60 63 68 64
REMARK SMILES IDX 61 65 67 66 69 67 66 68 62 69 63 70 64 71 65 72 8 73 9 74
REMARK SMILES IDX 10 75 11 76 12 77 13 78 16 79 14 80 15 81 17 82 18 83 19 84
REMARK SMILES IDX 20 85 21 87 22 88 32 89 23 90 31 91 24 92 25 93 26 94 27 95
REMARK SMILES IDX 30 96 28 97 29 98
REMARK H PARENT 89 25 57 36 20 86
REMARK Flexibility Score: inf
ROOT
ATOM      1  C   UNL A   1      37.810  34.452  32.815  1.00  0.00     0.202 C 
ENDROOT
BRANCH   1   2
ATOM      2  O   UNL A   1      38.749  33.450  33.148  1.00  0.00    -0.374 OA
BRANCH   2   3
ATOM      3  C   UNL A   1      38.278  32.141  33.437  1.00  0.00     0.202 C 
BRANCH   3   4
ATOM      4  C   UNL A   1      38.378  31.058  32.353  1.00  0.00     0.261 C 
BRANCH   4   5
ATOM      5  O   UNL A   1      37.152  30.405  32.008  1.00  0.00    -0.460 OA
BRANCH   5   6
ATOM      6  C   UNL A   1      36.891  29.583  30.965  1.00  0.00     0.338 C 
ATOM      7  O   UNL A   1      35.711  29.363  30.689  1.00  0.00    -0.246 OA
BRANCH   6   8
ATOM      8  C   UNL A   1      37.930  28.782  30.242  1.00  0.00     0.060 A 
ATOM      9  C   UNL A   1      38.541  27.614  30.698  1.00  0.00     0.016 A 
ATOM     10  C   UNL A   1      38.335  29.319  29.001  1.00  0.00     0.016 A 
ATOM     11  C   UNL A   1      39.706  27.175  30.108  1.00  0.00     0.010 A 
ATOM     12  C   UNL A   1      39.495  28.883  28.400  1.00  0.00     0.010 A 
ATOM     13  C   UNL A   1      40.227  27.904  29.047  1.00  0.00    -0.014 A 
BRANCH  13  14
ATOM     14  C   UNL A   1      41.580  27.613  28.638  1.00  0.00     0.031 A 
ATOM     15  C   UNL A   1      41.692  26.315  27.945  1.00  0.00     0.074 A 
ATOM     16  C   UNL A   1      42.574  28.482  28.911  1.00  0.00     0.049 A 
ATOM     17  N   UNL A   1      42.147  25.214  28.440  1.00  0.00    -0.248 NA
ATOM     18  C   UNL A   1      40.989  26.147  26.663  1.00  0.00     0.031 C 
ATOM     19  C   UNL A   1      42.476  29.839  29.458  1.00  0.00     0.029 A 
ATOM     20  N   UNL A   1      43.907  28.352  28.685  1.00  0.00    -0.354 N 
ATOM     21  C   UNL A   1      42.069  24.290  27.405  1.00  0.00     0.074 A 
ATOM     22  C   UNL A   1      41.128  24.835  26.467  1.00  0.00     0.031 C 
ATOM     23  C   UNL A   1      43.657  30.480  29.294  1.00  0.00     0.029 A 
ATOM     24  C   UNL A   1      44.630  29.545  28.757  1.00  0.00     0.049 A 
ATOM     25  H   UNL A   1      44.330  27.485  28.486  1.00  0.00     0.167 HD
ATOM     26  C   UNL A   1      43.038  23.345  27.266  1.00  0.00     0.034 A 
ATOM     27  C   UNL A   1      45.911  29.735  28.321  1.00  0.00     0.034 A 
ATOM     28  C   UNL A   1      43.759  23.171  28.513  1.00  0.00     0.049 A 
ATOM     29  C   UNL A   1      46.543  28.385  28.312  1.00  0.00     0.074 A 
ATOM     30  C   UNL A   1      43.384  22.832  29.801  1.00  0.00     0.029 A 
ATOM     31  N   UNL A   1      44.998  23.763  28.634  1.00  0.00    -0.354 N 
ATOM     32  N   UNL A   1      46.758  27.707  29.410  1.00  0.00    -0.248 NA
ATOM     33  C   UNL A   1      46.396  27.576  27.108  1.00  0.00     0.031 C 
ATOM     34  C   UNL A   1      44.155  23.687  30.643  1.00  0.00     0.029 A 
ATOM     35  C   UNL A   1      45.041  24.413  29.844  1.00  0.00     0.049 A 
ATOM     36  H   UNL A   1      45.725  23.727  27.970  1.00  0.00     0.167 HD
ATOM     37  C   UNL A   1      46.340  26.413  29.125  1.00  0.00     0.074 A 
ATOM     38  C   UNL A   1      46.186  26.378  27.668  1.00  0.00     0.031 C 
ATOM     39  C   UNL A   1      45.853  25.589  30.102  1.00  0.00     0.034 A 
BRANCH  26  40
ATOM     40  C   UNL A   1      43.629  22.939  25.930  1.00  0.00     0.023 A 
ATOM     41  C   UNL A   1      43.728  21.558  25.687  1.00  0.00     0.031 A 
ATOM     42  C   UNL A   1      44.371  23.768  25.057  1.00  0.00     0.131 A 
ATOM     43  C   UNL A   1      44.639  21.055  24.745  1.00  0.00     0.055 A 
ATOM     44  C   UNL A   1      45.227  23.264  24.075  1.00  0.00     0.041 A 
ATOM     45  F   UNL A   1      44.388  25.101  25.144  1.00  0.00    -0.206 F 
ATOM     46  C   UNL A   1      45.398  21.899  23.941  1.00  0.00     0.022 A 
BRANCH  43  47
ATOM     47  S   UNL A   1      44.956  19.275  24.740  1.00  0.00     0.124 S 
ATOM     48  O   UNL A   1      44.726  18.948  23.337  1.00  0.00    -0.237 OA
ATOM     49  O   UNL A   1      46.340  19.217  25.197  1.00  0.00    -0.237 OA
ATOM     50  O   UNL A   1      43.967  18.752  25.678  1.00  0.00    -0.744 OA
ENDBRANCH  43  47
ENDBRANCH  26  40
BRANCH  27  51
ATOM     51  C   UNL A   1      46.419  30.905  27.532  1.00  0.00     0.023 A 
ATOM     52  C   UNL A   1      45.584  31.838  26.868  1.00  0.00     0.031 A 
ATOM     53  C   UNL A   1      47.788  31.253  27.623  1.00  0.00     0.131 A 
ATOM     54  C   UNL A   1      46.129  33.037  26.333  1.00  0.00     0.055 A 
ATOM     55  C   UNL A   1      48.315  32.436  27.098  1.00  0.00     0.041 A 
ATOM     56  F   UNL A   1      48.659  30.490  28.302  1.00  0.00    -0.206 F 
ATOM     57  C   UNL A   1      47.486  33.338  26.458  1.00  0.00     0.022 A 
BRANCH  54  58
ATOM     58  S   UNL A   1      45.068  34.279  25.509  1.00  0.00     0.124 S 
ATOM     59  O   UNL A   1      43.978  34.440  26.463  1.00  0.00    -0.237 OA
ATOM     60  O   UNL A   1      45.971  35.414  25.355  1.00  0.00    -0.237 OA
ATOM     61  O   UNL A   1      44.689  33.629  24.253  1.00  0.00    -0.744 OA
ENDBRANCH  54  58
ENDBRANCH  27  51
BRANCH  39  62
ATOM     62  C   UNL A   1      46.018  26.003  31.554  1.00  0.00     0.023 A 
ATOM     63  C   UNL A   1      45.001  26.542  32.379  1.00  0.00     0.031 A 
ATOM     64  C   UNL A   1      47.255  25.709  32.155  1.00  0.00     0.131 A 
ATOM     65  C   UNL A   1      45.256  26.775  33.749  1.00  0.00     0.055 A 
ATOM     66  C   UNL A   1      47.494  25.921  33.511  1.00  0.00     0.041 A 
ATOM     67  F   UNL A   1      48.250  25.169  31.433  1.00  0.00    -0.206 F 
ATOM     68  C   UNL A   1      46.497  26.461  34.312  1.00  0.00     0.022 A 
BRANCH  65  69
ATOM     69  S   UNL A   1      43.988  27.516  34.832  1.00  0.00     0.124 S 
ATOM     70  O   UNL A   1      44.141  26.788  36.085  1.00  0.00    -0.237 OA
ATOM     71  O   UNL A   1      44.379  28.923  34.857  1.00  0.00    -0.237 OA
ATOM     72  O   UNL A   1      42.736  27.248  34.121  1.00  0.00    -0.744 OA
ENDBRANCH  65  69
ENDBRANCH  39  62
ENDBRANCH  13  14
ENDBRANCH   6   8
ENDBRANCH   5   6
ENDBRANCH   4   5
ENDBRANCH   3   4
ENDBRANCH   2   3
ENDBRANCH   1   2
BRANCH   1  73
ATOM     73  C   UNL A   1      36.373  34.268  33.216  1.00  0.00     0.261 C 
BRANCH  73  74
ATOM     74  O   UNL A   1      35.332  34.982  32.580  1.00  0.00    -0.459 OA
BRANCH  74  75
ATOM     75  C   UNL A   1      34.454  34.142  31.954  1.00  0.00     0.349 C 
ATOM     76  O   UNL A   1      34.083  33.053  32.350  1.00  0.00    -0.245 OA
BRANCH  75  77
ATOM     77  C   UNL A   1      34.070  34.738  30.721  1.00  0.00     0.133 A 
ATOM     78  S   UNL A   1      33.020  36.086  30.817  1.00  0.00    -0.136 S 
ATOM     79  C   UNL A   1      34.378  34.379  29.427  1.00  0.00     0.113 A 
ATOM     80  C   UNL A   1      32.999  36.260  29.123  1.00  0.00     0.067 A 
ATOM     81  C   UNL A   1      33.760  35.294  28.499  1.00  0.00     0.035 A 
BRANCH  79  82
ATOM     82  S   UNL A   1      35.315  33.008  28.868  1.00  0.00     0.263 S 
ATOM     83  O   UNL A   1      35.710  33.395  27.532  1.00  0.00    -0.201 OA
ATOM     84  O   UNL A   1      36.304  32.893  29.923  1.00  0.00    -0.201 OA
BRANCH  82  85
ATOM     85  N   UNL A   1      34.573  31.504  28.843  1.00  0.00    -0.280 N 
ATOM     86  H   UNL A   1      34.481  31.055  29.714  1.00  0.00     0.180 HD
BRANCH  85  87
ATOM     87  C   UNL A   1      34.053  30.787  27.702  1.00  0.00     0.049 A 
ATOM     88  C   UNL A   1      34.772  29.634  27.313  1.00  0.00     0.027 A 
ATOM     89  C   UNL A   1      32.733  30.893  27.285  1.00  0.00     0.027 A 
ATOM     90  C   UNL A   1      34.108  28.498  26.792  1.00  0.00     0.008 A 
ATOM     91  C   UNL A   1      32.075  29.775  26.741  1.00  0.00     0.008 A 
ATOM     92  C   UNL A   1      32.716  28.524  26.625  1.00  0.00    -0.026 A 
BRANCH  92  93
ATOM     93  C   UNL A   1      31.825  27.292  26.785  1.00  0.00     0.181 C 
BRANCH  93  94
ATOM     94  N   UNL A   1      32.159  26.098  26.032  1.00  0.00    -0.249 N 
ATOM     95  C   UNL A   1      32.998  26.003  24.958  1.00  0.00     0.220 A 
ATOM     96  N   UNL A   1      31.981  24.882  26.596  1.00  0.00    -0.160 NA
ATOM     97  N   UNL A   1      33.332  24.747  24.766  1.00  0.00    -0.224 NA
ATOM     98  C   UNL A   1      32.728  24.108  25.807  1.00  0.00     0.246 A 
ENDBRANCH  93  94
ENDBRANCH  92  93
ENDBRANCH  85  87
ENDBRANCH  82  85
ENDBRANCH  79  82
ENDBRANCH  75  77
ENDBRANCH  74  75
ENDBRANCH  73  74
ENDBRANCH   1  73
TORSDOF 22
ENDMDL
MODEL 3
REMARK VINA RESULT:     -11.5      2.101      4.355
REMARK SMILES O=C(OCCOCCOC(=O)c1sccc1S(=O)(=O)Nc1ccc(Cn2cncn2)cc1)c1ccc(-c2c3nc(c(-c4cc(S(=O)(=O)[O-])ccc4F)c4ccc([nH]4)c(-c4cc(S(=O)(=O)[O-])ccc4F)c4nc(c(-c5cc(S(=O)(=O)[O-])ccc5F)c5ccc2[nH]5)C=C4)C=C3)cc1
REMARK SMILES IDX 7 1 6 2 5 3 4 4 3 5 2 6 1 7 33 8 34 9 95 10 35 11 94 12
REMARK SMILES IDX 36 13 37 14 38 15 88 16 39 17 93 18 87 19 89 20 40 21 92 22
REMARK SMILES IDX 86 23 85 24 41 26 73 27 53 28 72 29 54 30 57 31 71 32 90 33
REMARK SMILES IDX 55 34 56 35 70 37 91 38 58 39 42 40 43 41 51 42 44 43 50 44
REMARK SMILES IDX 52 45 49 46 45 47 46 48 47 49 48 50 74 51 75 52 83 53 76 54
REMARK SMILES IDX 82 55 84 56 81 57 77 58 78 59 79 60 80 61 59 62 60 63 68 64
REMARK SMILES IDX 61 65 67 66 69 67 66 68 62 69 63 70 64 71 65 72 8 73 9 74
REMARK SMILES IDX 10 75 11 76 12 77 13 78 16 79 14 80 15 81 17 82 18 83 19 84
REMARK SMILES IDX 20 85 21 87 22 88 32 89 23 90 31 91 24 92 25 93 26 94 27 95
REMARK SMILES IDX 30 96 28 97 29 98
REMARK H PARENT 89 25 57 36 20 86
REMARK Flexibility Score: inf
ROOT
ATOM      1  C   UNL A   1      34.058  30.259  27.266  1.00  0.00     0.202 C 
ENDROOT
BRANCH   1   2
ATOM      2  O   UNL A   1      34.008  31.615  27.658  1.00  0.00    -0.374 OA
BRANCH   2   3
ATOM      3  C   UNL A   1      34.725  32.018  28.815  1.00  0.00     0.202 C 
BRANCH   3   4
ATOM      4  C   UNL A   1      36.255  32.129  28.742  1.00  0.00     0.261 C 
BRANCH   4   5
ATOM      5  O   UNL A   1      36.986  31.299  29.651  1.00  0.00    -0.460 OA
BRANCH   5   6
ATOM      6  C   UNL A   1      36.953  29.953  29.785  1.00  0.00     0.338 C 
ATOM      7  O   UNL A   1      36.077  29.468  30.502  1.00  0.00    -0.246 OA
BRANCH   6   8
ATOM      8  C   UNL A   1      38.014  29.029  29.272  1.00  0.00     0.060 A 
ATOM      9  C   UNL A   1      38.527  27.910  29.930  1.00  0.00     0.016 A 
ATOM     10  C   UNL A   1      38.555  29.384  28.018  1.00  0.00     0.016 A 
ATOM     11  C   UNL A   1      39.719  27.357  29.514  1.00  0.00     0.010 A 
ATOM     12  C   UNL A   1      39.742  28.833  27.590  1.00  0.00     0.010 A 
ATOM     13  C   UNL A   1      40.366  27.923  28.423  1.00  0.00    -0.014 A 
BRANCH  13  14
ATOM     14  C   UNL A   1      41.735  27.534  28.186  1.00  0.00     0.031 A 
ATOM     15  C   UNL A   1      41.840  26.238  27.487  1.00  0.00     0.074 A 
ATOM     16  C   UNL A   1      42.747  28.322  28.601  1.00  0.00     0.049 A 
ATOM     17  N   UNL A   1      42.144  25.100  28.015  1.00  0.00    -0.248 NA
ATOM     18  C   UNL A   1      41.298  26.136  26.123  1.00  0.00     0.031 C 
ATOM     19  C   UNL A   1      42.680  29.677  29.157  1.00  0.00     0.029 A 
ATOM     20  N   UNL A   1      44.085  28.093  28.545  1.00  0.00    -0.354 N 
ATOM     21  C   UNL A   1      42.133  24.196  26.961  1.00  0.00     0.074 A 
ATOM     22  C   UNL A   1      41.364  24.819  25.920  1.00  0.00     0.031 C 
ATOM     23  C   UNL A   1      43.916  30.228  29.159  1.00  0.00     0.029 A 
ATOM     24  C   UNL A   1      44.879  29.228  28.732  1.00  0.00     0.049 A 
ATOM     25  H   UNL A   1      44.465  27.199  28.385  1.00  0.00     0.167 HD
ATOM     26  C   UNL A   1      43.039  23.181  26.929  1.00  0.00     0.034 A 
ATOM     27  C   UNL A   1      46.216  29.324  28.468  1.00  0.00     0.034 A 
ATOM     28  C   UNL A   1      43.577  22.941  28.254  1.00  0.00     0.049 A 
ATOM     29  C   UNL A   1      46.742  27.930  28.513  1.00  0.00     0.074 A 
ATOM     30  C   UNL A   1      43.015  22.618  29.476  1.00  0.00     0.029 A 
ATOM     31  N   UNL A   1      44.831  23.436  28.544  1.00  0.00    -0.354 N 
ATOM     32  N   UNL A   1      46.763  27.227  29.616  1.00  0.00    -0.248 NA
ATOM     33  C   UNL A   1      46.692  27.146  27.285  1.00  0.00     0.031 C 
ATOM     34  C   UNL A   1      43.732  23.404  30.427  1.00  0.00     0.029 A 
ATOM     35  C   UNL A   1      44.765  24.069  29.763  1.00  0.00     0.049 A 
ATOM     36  H   UNL A   1      45.633  23.351  27.978  1.00  0.00     0.167 HD
ATOM     37  C   UNL A   1      46.291  25.972  29.255  1.00  0.00     0.074 A 
ATOM     38  C   UNL A   1      46.324  25.963  27.791  1.00  0.00     0.031 C 
ATOM     39  C   UNL A   1      45.622  25.177  30.146  1.00  0.00     0.034 A 
BRANCH  26  40
ATOM     40  C   UNL A   1      43.766  22.745  25.672  1.00  0.00     0.023 A 
ATOM     41  C   UNL A   1      43.862  21.358  25.458  1.00  0.00     0.031 A 
ATOM     42  C   UNL A   1      44.618  23.546  24.877  1.00  0.00     0.131 A 
ATOM     43  C   UNL A   1      44.861  20.825  24.629  1.00  0.00     0.055 A 
ATOM     44  C   UNL A   1      45.567  23.012  24.003  1.00  0.00     0.041 A 
ATOM     45  F   UNL A   1      44.653  24.880  24.949  1.00  0.00    -0.206 F 
ATOM     46  C   UNL A   1      45.723  21.643  23.905  1.00  0.00     0.022 A 
BRANCH  43  47
ATOM     47  S   UNL A   1      45.140  19.039  24.681  1.00  0.00     0.124 S 
ATOM     48  O   UNL A   1      46.424  18.970  25.369  1.00  0.00    -0.237 OA
ATOM     49  O   UNL A   1      43.979  18.578  25.435  1.00  0.00    -0.237 OA
ATOM     50  O   UNL A   1      45.160  18.658  23.271  1.00  0.00    -0.744 OA
ENDBRANCH  43  47
ENDBRANCH  26  40
BRANCH  27  51
ATOM     51  C   UNL A   1      46.907  30.460  27.774  1.00  0.00     0.023 A 
ATOM     52  C   UNL A   1      46.233  31.560  27.187  1.00  0.00     0.031 A 
ATOM     53  C   UNL A   1      48.312  30.584  27.890  1.00  0.00     0.131 A 
ATOM     54  C   UNL A   1      46.962  32.698  26.748  1.00  0.00     0.055 A 
ATOM     55  C   UNL A   1      49.021  31.708  27.460  1.00  0.00     0.041 A 
ATOM     56  F   UNL A   1      49.047  29.644  28.505  1.00  0.00    -0.206 F 
ATOM     57  C   UNL A   1      48.348  32.775  26.895  1.00  0.00     0.022 A 
BRANCH  54  58
ATOM     58  S   UNL A   1      46.115  34.151  26.028  1.00  0.00     0.124 S 
ATOM     59  O   UNL A   1      47.057  34.585  25.003  1.00  0.00    -0.237 OA
ATOM     60  O   UNL A   1      44.857  33.584  25.557  1.00  0.00    -0.237 OA
ATOM     61  O   UNL A   1      45.983  35.068  27.161  1.00  0.00    -0.744 OA
ENDBRANCH  54  58
ENDBRANCH  27  51
BRANCH  39  62
ATOM     62  C   UNL A   1      45.627  25.563  31.614  1.00  0.00     0.023 A 
ATOM     63  C   UNL A   1      46.667  25.290  32.536  1.00  0.00     0.031 A 
ATOM     64  C   UNL A   1      44.560  26.364  32.058  1.00  0.00     0.131 A 
ATOM     65  C   UNL A   1      46.598  25.808  33.848  1.00  0.00     0.055 A 
ATOM     66  C   UNL A   1      44.509  26.891  33.346  1.00  0.00     0.041 A 
ATOM     67  F   UNL A   1      43.558  26.684  31.223  1.00  0.00    -0.206 F 
ATOM     68  C   UNL A   1      45.524  26.610  34.249  1.00  0.00     0.022 A 
BRANCH  65  69
ATOM     69  S   UNL A   1      47.893  25.435  35.079  1.00  0.00     0.124 S 
ATOM     70  O   UNL A   1      47.138  25.030  36.258  1.00  0.00    -0.237 OA
ATOM     71  O   UNL A   1      48.661  24.383  34.418  1.00  0.00    -0.237 OA
ATOM     72  O   UNL A   1      48.605  26.708  35.219  1.00  0.00    -0.744 OA
ENDBRANCH  65  69
ENDBRANCH  39  62
ENDBRANCH  13  14
ENDBRANCH   6   8
ENDBRANCH   5   6
ENDBRANCH   4   5
ENDBRANCH   3   4
ENDBRANCH   2   3
ENDBRANCH   1   2
BRANCH   1  73
ATOM     73  C   UNL A   1      32.784  29.564  26.873  1.00  0.00     0.261 C 
BRANCH  73  74
ATOM     74  O   UNL A   1      32.281  29.636  25.554  1.00  0.00    -0.459 OA
BRANCH  74  75
ATOM     75  C   UNL A   1      32.611  28.527  24.827  1.00  0.00     0.349 C 
ATOM     76  O   UNL A   1      33.733  28.165  24.524  1.00  0.00    -0.245 OA
BRANCH  75  77
ATOM     77  C   UNL A   1      31.408  27.874  24.438  1.00  0.00     0.133 A 
ATOM     78  S   UNL A   1      30.262  28.823  23.593  1.00  0.00    -0.136 S 
ATOM     79  C   UNL A   1      30.985  26.584  24.667  1.00  0.00     0.113 A 
ATOM     80  C   UNL A   1      29.189  27.507  23.460  1.00  0.00     0.067 A 
ATOM     81  C   UNL A   1      29.689  26.375  24.069  1.00  0.00     0.035 A 
BRANCH  79  82
ATOM     82  S   UNL A   1      31.781  25.319  25.582  1.00  0.00     0.263 S 
ATOM     83  O   UNL A   1      31.115  25.364  26.864  1.00  0.00    -0.201 OA
ATOM     84  O   UNL A   1      31.605  24.181  24.701  1.00  0.00    -0.201 OA
BRANCH  82  85
ATOM     85  N   UNL A   1      33.442  25.421  25.785  1.00  0.00    -0.280 N 
ATOM     86  H   UNL A   1      33.836  26.317  25.677  1.00  0.00     0.180 HD
BRANCH  85  87
ATOM     87  C   UNL A   1      34.368  24.356  26.101  1.00  0.00     0.049 A 
ATOM     88  C   UNL A   1      33.872  23.330  26.936  1.00  0.00     0.027 A 
ATOM     89  C   UNL A   1      35.479  24.070  25.319  1.00  0.00     0.027 A 
ATOM     90  C   UNL A   1      34.281  21.986  26.766  1.00  0.00     0.008 A 
ATOM     91  C   UNL A   1      35.907  22.738  25.167  1.00  0.00     0.008 A 
ATOM     92  C   UNL A   1      35.220  21.667  25.775  1.00  0.00    -0.026 A 
BRANCH  92  93
ATOM     93  C   UNL A   1      35.220  20.344  25.008  1.00  0.00     0.181 C 
BRANCH  93  94
ATOM     94  N   UNL A   1      33.943  19.759  24.644  1.00  0.00    -0.249 N 
ATOM     95  C   UNL A   1      32.982  20.302  23.840  1.00  0.00     0.220 A 
ATOM     96  N   UNL A   1      33.769  18.422  24.745  1.00  0.00    -0.160 NA
ATOM     97  N   UNL A   1      32.145  19.366  23.454  1.00  0.00    -0.224 NA
ATOM     98  C   UNL A   1      32.685  18.235  23.990  1.00  0.00     0.246 A 
ENDBRANCH  93  94
ENDBRANCH  92  93
ENDBRANCH  85  87
ENDBRANCH  82  85
ENDBRANCH  79  82
ENDBRANCH  75  77
ENDBRANCH  74  75
ENDBRANCH  73  74
ENDBRANCH   1  73
TORSDOF 22
ENDMDL
