MODEL 1
REMARK VINA RESULT:     -12.7      0.000      0.000
REMARK SMILES NS(=O)(=O)c1ccc(-n2nc(C(=O)OCCOCCOC(=O)c3ccc(-c4c5nc(c(-c6cc(S(=O)(=O)[O-])ccc6F)c6ccc([nH]6)c(-c6cc(S(=O)(=O)[O-])ccc6F)c6nc(c(-c7cc(S(=O)(=O)[O-])ccc7F)c7ccc4[nH]7)C=C6)C=C5)cc3)cc2-c2cc3ccccc3s2)cc1
REMARK SMILES IDX 17 1 16 2 15 3 14 4 12 5 13 6 11 7 9 8 10 9 87 10 86 11 8 12
REMARK SMILES IDX 5 13 6 14 98 15 7 16 97 17 2 18 3 19 4 20 1 21 88 24 89 25
REMARK SMILES IDX 96 26 90 27 95 28 91 29 94 30 92 31 93 32 18 33 19 34 20 35
REMARK SMILES IDX 21 36 22 37 23 38 24 39 85 40 25 41 84 42 26 43 27 44 28 45
REMARK SMILES IDX 78 46 29 47 83 48 77 49 79 50 30 51 82 52 76 53 75 54 31 56
REMARK SMILES IDX 63 57 43 58 62 59 44 60 47 61 61 62 80 63 45 64 46 65 60 67
REMARK SMILES IDX 81 68 48 69 32 70 33 71 41 72 34 73 40 74 42 75 39 76 35 77
REMARK SMILES IDX 36 78 37 79 38 80 64 81 65 82 73 83 66 84 72 85 74 86 71 87
REMARK SMILES IDX 67 88 68 89 69 90 70 91 49 92 50 93 58 94 51 95 57 96 59 97
REMARK SMILES IDX 56 98 52 99 53 100 54 101 55 102
REMARK H PARENT 1 22 1 23 79 55 47 66
REMARK Flexibility Score: inf
ROOT
ATOM      1  O   UNL A   1      32.250  29.183  26.868  1.00  0.00    -0.374 OA
ENDROOT
BRANCH   1   2
ATOM      2  C   UNL A   1      31.829  27.929  27.401  1.00  0.00     0.202 C 
BRANCH   2   3
ATOM      3  C   UNL A   1      31.029  27.006  26.480  1.00  0.00     0.261 C 
BRANCH   3   4
ATOM      4  O   UNL A   1      31.330  25.631  26.741  1.00  0.00    -0.458 OA
BRANCH   4   5
ATOM      5  C   UNL A   1      30.340  24.736  26.433  1.00  0.00     0.358 C 
ATOM      6  O   UNL A   1      29.197  24.786  26.872  1.00  0.00    -0.244 OA
BRANCH   5   7
ATOM      7  C   UNL A   1      30.815  23.738  25.467  1.00  0.00     0.171 A 
ATOM      8  N   UNL A   1      31.883  22.064  24.703  1.00  0.00    -0.231 N 
ATOM      9  N   UNL A   1      31.209  22.493  25.799  1.00  0.00    -0.160 NA
ATOM     10  C   UNL A   1      31.958  23.042  23.741  1.00  0.00     0.085 A 
ATOM     11  C   UNL A   1      30.947  23.929  24.073  1.00  0.00     0.068 A 
BRANCH   8  12
ATOM     12  C   UNL A   1      32.318  20.735  24.618  1.00  0.00     0.065 A 
ATOM     13  C   UNL A   1      33.136  18.104  24.416  1.00  0.00     0.082 A 
ATOM     14  C   UNL A   1      33.280  18.784  25.633  1.00  0.00     0.024 A 
ATOM     15  C   UNL A   1      32.584  18.735  23.295  1.00  0.00     0.024 A 
ATOM     16  C   UNL A   1      32.882  20.117  25.733  1.00  0.00     0.030 A 
ATOM     17  C   UNL A   1      32.149  20.055  23.403  1.00  0.00     0.030 A 
BRANCH  13  18
ATOM     18  S   UNL A   1      33.672  16.425  24.290  1.00  0.00     0.238 S 
ATOM     19  O   UNL A   1      34.156  16.169  22.960  1.00  0.00    -0.207 OA
ATOM     20  O   UNL A   1      32.698  15.573  24.943  1.00  0.00    -0.207 OA
BRANCH  18  21
ATOM     21  N   UNL A   1      35.035  16.409  25.272  1.00  0.00    -0.225 NA
ATOM     22  H   UNL A   1      35.502  17.314  25.219  1.00  0.00     0.137 HD
ATOM     23  H   UNL A   1      35.673  15.678  24.958  1.00  0.00     0.137 HD
ENDBRANCH  18  21
ENDBRANCH  13  18
ENDBRANCH   8  12
BRANCH  10  24
ATOM     24  C   UNL A   1      33.034  23.339  22.826  1.00  0.00     0.054 A 
ATOM     25  C   UNL A   1      32.981  24.191  21.726  1.00  0.00     0.031 A 
ATOM     26  S   UNL A   1      34.542  23.800  23.613  1.00  0.00    -0.134 S 
ATOM     27  C   UNL A   1      33.271  25.525  22.239  1.00  0.00    -0.007 A 
ATOM     28  C   UNL A   1      33.985  25.443  23.445  1.00  0.00     0.035 A 
ATOM     29  C   UNL A   1      32.812  26.793  21.824  1.00  0.00     0.009 A 
ATOM     30  C   UNL A   1      34.118  26.531  24.321  1.00  0.00     0.019 A 
ATOM     31  C   UNL A   1      32.903  27.875  22.708  1.00  0.00     0.001 A 
ATOM     32  C   UNL A   1      33.508  27.732  23.954  1.00  0.00     0.001 A 
ENDBRANCH  10  24
ENDBRANCH   5   7
ENDBRANCH   4   5
ENDBRANCH   3   4
ENDBRANCH   2   3
ENDBRANCH   1   2
BRANCH   1  33
ATOM     33  C   UNL A   1      33.547  29.686  27.170  1.00  0.00     0.202 C 
BRANCH  33  34
ATOM     34  C   UNL A   1      33.703  31.111  27.676  1.00  0.00     0.261 C 
BRANCH  34  35
ATOM     35  O   UNL A   1      35.045  31.579  27.670  1.00  0.00    -0.460 OA
BRANCH  35  36
ATOM     36  C   UNL A   1      35.614  31.531  28.899  1.00  0.00     0.338 C 
ATOM     37  O   UNL A   1      35.210  32.080  29.910  1.00  0.00    -0.246 OA
BRANCH  36  38
ATOM     38  C   UNL A   1      36.916  30.862  28.800  1.00  0.00     0.060 A 
ATOM     39  C   UNL A   1      36.898  29.505  28.473  1.00  0.00     0.016 A 
ATOM     40  C   UNL A   1      38.078  31.495  29.265  1.00  0.00     0.016 A 
ATOM     41  C   UNL A   1      38.007  28.742  28.775  1.00  0.00     0.010 A 
ATOM     42  C   UNL A   1      39.177  30.728  29.582  1.00  0.00     0.010 A 
ATOM     43  C   UNL A   1      39.106  29.350  29.396  1.00  0.00    -0.014 A 
BRANCH  43  44
ATOM     44  C   UNL A   1      40.291  28.543  29.628  1.00  0.00     0.031 A 
ATOM     45  C   UNL A   1      40.598  28.472  31.073  1.00  0.00     0.074 A 
ATOM     46  C   UNL A   1      40.957  27.867  28.670  1.00  0.00     0.049 A 
ATOM     47  N   UNL A   1      41.536  29.110  31.691  1.00  0.00    -0.248 NA
ATOM     48  C   UNL A   1      39.611  27.851  31.973  1.00  0.00     0.031 C 
ATOM     49  C   UNL A   1      40.595  27.721  27.260  1.00  0.00     0.029 A 
ATOM     50  N   UNL A   1      42.073  27.091  28.775  1.00  0.00    -0.354 N 
ATOM     51  C   UNL A   1      41.440  28.693  33.010  1.00  0.00     0.074 A 
ATOM     52  C   UNL A   1      40.108  28.180  33.166  1.00  0.00     0.031 C 
ATOM     53  C   UNL A   1      41.339  26.734  26.706  1.00  0.00     0.029 A 
ATOM     54  C   UNL A   1      42.307  26.253  27.682  1.00  0.00     0.049 A 
ATOM     55  H   UNL A   1      42.668  27.119  29.559  1.00  0.00     0.167 HD
ATOM     56  C   UNL A   1      42.574  28.466  33.726  1.00  0.00     0.034 A 
ATOM     57  C   UNL A   1      43.191  25.214  27.606  1.00  0.00     0.034 A 
ATOM     58  C   UNL A   1      43.704  29.154  33.131  1.00  0.00     0.049 A 
ATOM     59  C   UNL A   1      44.233  25.465  28.634  1.00  0.00     0.074 A 
ATOM     60  C   UNL A   1      43.950  30.464  32.758  1.00  0.00     0.029 A 
ATOM     61  N   UNL A   1      44.640  28.401  32.455  1.00  0.00    -0.354 N 
ATOM     62  N   UNL A   1      45.068  26.464  28.566  1.00  0.00    -0.248 NA
ATOM     63  C   UNL A   1      44.015  24.934  29.971  1.00  0.00     0.031 C 
ATOM     64  C   UNL A   1      44.662  30.372  31.525  1.00  0.00     0.029 A 
ATOM     65  C   UNL A   1      44.913  29.023  31.262  1.00  0.00     0.049 A 
ATOM     66  H   UNL A   1      45.043  27.560  32.774  1.00  0.00     0.167 HD
ATOM     67  C   UNL A   1      45.101  26.986  29.849  1.00  0.00     0.074 A 
ATOM     68  C   UNL A   1      44.510  25.946  30.692  1.00  0.00     0.031 C 
ATOM     69  C   UNL A   1      45.326  28.319  30.061  1.00  0.00     0.034 A 
BRANCH  56  70
ATOM     70  C   UNL A   1      42.740  27.280  34.656  1.00  0.00     0.023 A 
ATOM     71  C   UNL A   1      43.560  26.234  34.201  1.00  0.00     0.031 A 
ATOM     72  C   UNL A   1      41.929  26.977  35.778  1.00  0.00     0.131 A 
ATOM     73  C   UNL A   1      43.460  24.947  34.756  1.00  0.00     0.055 A 
ATOM     74  C   UNL A   1      41.887  25.714  36.371  1.00  0.00     0.041 A 
ATOM     75  F   UNL A   1      41.064  27.841  36.318  1.00  0.00    -0.206 F 
ATOM     76  C   UNL A   1      42.628  24.679  35.838  1.00  0.00     0.022 A 
BRANCH  73  77
ATOM     77  S   UNL A   1      44.304  23.591  33.909  1.00  0.00     0.124 S 
ATOM     78  O   UNL A   1      45.486  24.271  33.392  1.00  0.00    -0.237 OA
ATOM     79  O   UNL A   1      44.527  22.651  35.002  1.00  0.00    -0.237 OA
ATOM     80  O   UNL A   1      43.332  23.165  32.906  1.00  0.00    -0.744 OA
ENDBRANCH  73  77
ENDBRANCH  56  70
BRANCH  57  81
ATOM     81  C   UNL A   1      42.992  23.874  26.962  1.00  0.00     0.023 A 
ATOM     82  C   UNL A   1      43.835  23.365  25.940  1.00  0.00     0.031 A 
ATOM     83  C   UNL A   1      42.100  22.947  27.548  1.00  0.00     0.131 A 
ATOM     84  C   UNL A   1      43.766  21.998  25.561  1.00  0.00     0.055 A 
ATOM     85  C   UNL A   1      42.040  21.603  27.174  1.00  0.00     0.041 A 
ATOM     86  F   UNL A   1      41.313  23.293  28.578  1.00  0.00    -0.206 F 
ATOM     87  C   UNL A   1      42.881  21.119  26.188  1.00  0.00     0.022 A 
BRANCH  84  88
ATOM     88  S   UNL A   1      44.893  21.299  24.302  1.00  0.00     0.124 S 
ATOM     89  O   UNL A   1      44.500  19.896  24.276  1.00  0.00    -0.237 OA
ATOM     90  O   UNL A   1      44.576  22.088  23.118  1.00  0.00    -0.237 OA
ATOM     91  O   UNL A   1      46.224  21.550  24.860  1.00  0.00    -0.744 OA
ENDBRANCH  84  88
ENDBRANCH  57  81
BRANCH  69  92
ATOM     92  C   UNL A   1      45.885  29.148  28.915  1.00  0.00     0.023 A 
ATOM     93  C   UNL A   1      47.255  29.280  28.583  1.00  0.00     0.031 A 
ATOM     94  C   UNL A   1      44.957  29.794  28.079  1.00  0.00     0.131 A 
ATOM     95  C   UNL A   1      47.645  30.063  27.477  1.00  0.00     0.055 A 
ATOM     96  C   UNL A   1      45.343  30.542  26.969  1.00  0.00     0.041 A 
ATOM     97  F   UNL A   1      43.638  29.695  28.319  1.00  0.00    -0.206 F 
ATOM     98  C   UNL A   1      46.691  30.691  26.671  1.00  0.00     0.022 A 
BRANCH  95  99
ATOM     99  S   UNL A   1      49.408  30.330  27.091  1.00  0.00     0.124 S 
ATOM    100  O   UNL A   1      50.067  30.215  28.386  1.00  0.00    -0.237 OA
ATOM    101  O   UNL A   1      49.685  29.260  26.136  1.00  0.00    -0.237 OA
ATOM    102  O   UNL A   1      49.426  31.676  26.515  1.00  0.00    -0.744 OA
ENDBRANCH  95  99
ENDBRANCH  69  92
ENDBRANCH  43  44
ENDBRANCH  36  38
ENDBRANCH  35  36
ENDBRANCH  34  35
ENDBRANCH  33  34
ENDBRANCH   1  33
TORSDOF 21
ENDMDL
MODEL 2
REMARK VINA RESULT:     -12.5      4.627     10.067
REMARK SMILES NS(=O)(=O)c1ccc(-n2nc(C(=O)OCCOCCOC(=O)c3ccc(-c4c5nc(c(-c6cc(S(=O)(=O)[O-])ccc6F)c6ccc([nH]6)c(-c6cc(S(=O)(=O)[O-])ccc6F)c6nc(c(-c7cc(S(=O)(=O)[O-])ccc7F)c7ccc4[nH]7)C=C6)C=C5)cc3)cc2-c2cc3ccccc3s2)cc1
REMARK SMILES IDX 17 1 16 2 15 3 14 4 12 5 13 6 11 7 9 8 10 9 87 10 86 11 8 12
REMARK SMILES IDX 5 13 6 14 98 15 7 16 97 17 2 18 3 19 4 20 1 21 88 24 89 25
REMARK SMILES IDX 96 26 90 27 95 28 91 29 94 30 92 31 93 32 18 33 19 34 20 35
REMARK SMILES IDX 21 36 22 37 23 38 24 39 85 40 25 41 84 42 26 43 27 44 28 45
REMARK SMILES IDX 78 46 29 47 83 48 77 49 79 50 30 51 82 52 76 53 75 54 31 56
REMARK SMILES IDX 63 57 43 58 62 59 44 60 47 61 61 62 80 63 45 64 46 65 60 67
REMARK SMILES IDX 81 68 48 69 32 70 33 71 41 72 34 73 40 74 42 75 39 76 35 77
REMARK SMILES IDX 36 78 37 79 38 80 64 81 65 82 73 83 66 84 72 85 74 86 71 87
REMARK SMILES IDX 67 88 68 89 69 90 70 91 49 92 50 93 58 94 51 95 57 96 59 97
REMARK SMILES IDX 56 98 52 99 53 100 54 101 55 102
REMARK H PARENT 1 22 1 23 79 55 47 66
REMARK Flexibility Score: inf
ROOT
ATOM      1  O   UNL A   1      36.689  22.310  24.773  1.00  0.00    -0.374 OA
ENDROOT
BRANCH   1   2
ATOM      2  C   UNL A   1      36.237  22.834  23.526  1.00  0.00     0.202 C 
BRANCH   2   3
ATOM      3  C   UNL A   1      34.728  22.862  23.282  1.00  0.00     0.261 C 
BRANCH   3   4
ATOM      4  O   UNL A   1      34.321  24.110  22.712  1.00  0.00    -0.458 OA
BRANCH   4   5
ATOM      5  C   UNL A   1      33.280  24.048  21.824  1.00  0.00     0.358 C 
ATOM      6  O   UNL A   1      33.304  23.429  20.767  1.00  0.00    -0.244 OA
BRANCH   5   7
ATOM      7  C   UNL A   1      32.112  24.781  22.330  1.00  0.00     0.171 A 
ATOM      8  N   UNL A   1      30.891  26.430  22.889  1.00  0.00    -0.231 N 
ATOM      9  N   UNL A   1      31.775  26.025  21.943  1.00  0.00    -0.160 NA
ATOM     10  C   UNL A   1      30.733  25.483  23.871  1.00  0.00     0.085 A 
ATOM     11  C   UNL A   1      31.192  24.310  23.294  1.00  0.00     0.068 A 
BRANCH   8  12
ATOM     12  C   UNL A   1      30.199  27.639  22.736  1.00  0.00     0.065 A 
ATOM     13  C   UNL A   1      28.881  30.050  22.448  1.00  0.00     0.082 A 
ATOM     14  C   UNL A   1      28.187  28.933  22.934  1.00  0.00     0.024 A 
ATOM     15  C   UNL A   1      30.236  29.967  22.104  1.00  0.00     0.024 A 
ATOM     16  C   UNL A   1      28.847  27.711  23.066  1.00  0.00     0.030 A 
ATOM     17  C   UNL A   1      30.907  28.758  22.272  1.00  0.00     0.030 A 
BRANCH  13  18
ATOM     18  S   UNL A   1      28.029  31.586  22.256  1.00  0.00     0.238 S 
ATOM     19  O   UNL A   1      27.222  31.841  23.419  1.00  0.00    -0.207 OA
ATOM     20  O   UNL A   1      27.502  31.663  20.908  1.00  0.00    -0.207 OA
BRANCH  18  21
ATOM     21  N   UNL A   1      29.282  32.703  22.329  1.00  0.00    -0.225 NA
ATOM     22  H   UNL A   1      30.176  32.213  22.305  1.00  0.00     0.137 HD
ATOM     23  H   UNL A   1      29.211  33.239  23.194  1.00  0.00     0.137 HD
ENDBRANCH  18  21
ENDBRANCH  13  18
ENDBRANCH   8  12
BRANCH  10  24
ATOM     24  C   UNL A   1      30.520  25.666  25.286  1.00  0.00     0.054 A 
ATOM     25  C   UNL A   1      30.170  24.684  26.210  1.00  0.00     0.031 A 
ATOM     26  S   UNL A   1      31.818  26.535  26.104  1.00  0.00    -0.134 S 
ATOM     27  C   UNL A   1      31.424  24.079  26.645  1.00  0.00    -0.007 A 
ATOM     28  C   UNL A   1      32.495  24.964  26.438  1.00  0.00     0.035 A 
ATOM     29  C   UNL A   1      31.722  22.759  27.045  1.00  0.00     0.009 A 
ATOM     30  C   UNL A   1      33.834  24.548  26.456  1.00  0.00     0.019 A 
ATOM     31  C   UNL A   1      33.052  22.323  27.026  1.00  0.00     0.001 A 
ATOM     32  C   UNL A   1      34.086  23.194  26.693  1.00  0.00     0.001 A 
ENDBRANCH  10  24
ENDBRANCH   5   7
ENDBRANCH   4   5
ENDBRANCH   3   4
ENDBRANCH   2   3
ENDBRANCH   1   2
BRANCH   1  33
ATOM     33  C   UNL A   1      38.003  21.771  24.885  1.00  0.00     0.202 C 
BRANCH  33  34
ATOM     34  C   UNL A   1      38.791  21.968  26.170  1.00  0.00     0.261 C 
BRANCH  34  35
ATOM     35  O   UNL A   1      39.292  23.287  26.341  1.00  0.00    -0.460 OA
BRANCH  35  36
ATOM     36  C   UNL A   1      40.410  23.320  27.106  1.00  0.00     0.338 C 
ATOM     37  O   UNL A   1      41.207  22.412  27.270  1.00  0.00    -0.246 OA
BRANCH  36  38
ATOM     38  C   UNL A   1      40.430  24.569  27.875  1.00  0.00     0.060 A 
ATOM     39  C   UNL A   1      39.255  25.322  27.875  1.00  0.00     0.016 A 
ATOM     40  C   UNL A   1      41.641  25.089  28.356  1.00  0.00     0.016 A 
ATOM     41  C   UNL A   1      39.332  26.660  28.201  1.00  0.00     0.010 A 
ATOM     42  C   UNL A   1      41.719  26.429  28.664  1.00  0.00     0.010 A 
ATOM     43  C   UNL A   1      40.579  27.215  28.519  1.00  0.00    -0.014 A 
BRANCH  43  44
ATOM     44  C   UNL A   1      40.619  28.605  28.938  1.00  0.00     0.031 A 
ATOM     45  C   UNL A   1      41.806  29.285  28.374  1.00  0.00     0.074 A 
ATOM     46  C   UNL A   1      39.656  29.217  29.657  1.00  0.00     0.049 A 
ATOM     47  N   UNL A   1      42.888  29.594  29.006  1.00  0.00    -0.248 NA
ATOM     48  C   UNL A   1      41.924  29.393  26.908  1.00  0.00     0.031 C 
ATOM     49  C   UNL A   1      38.365  28.670  30.073  1.00  0.00     0.029 A 
ATOM     50  N   UNL A   1      39.595  30.503  30.106  1.00  0.00    -0.354 N 
ATOM     51  C   UNL A   1      43.679  30.236  28.066  1.00  0.00     0.074 A 
ATOM     52  C   UNL A   1      43.178  29.826  26.784  1.00  0.00     0.031 C 
ATOM     53  C   UNL A   1      37.569  29.678  30.506  1.00  0.00     0.029 A 
ATOM     54  C   UNL A   1      38.326  30.922  30.508  1.00  0.00     0.049 A 
ATOM     55  H   UNL A   1      40.386  31.090  30.143  1.00  0.00     0.167 HD
ATOM     56  C   UNL A   1      44.412  31.321  28.432  1.00  0.00     0.034 A 
ATOM     57  C   UNL A   1      37.917  32.199  30.770  1.00  0.00     0.034 A 
ATOM     58  C   UNL A   1      44.609  31.347  29.870  1.00  0.00     0.049 A 
ATOM     59  C   UNL A   1      39.138  32.977  31.104  1.00  0.00     0.074 A 
ATOM     60  C   UNL A   1      45.100  30.440  30.793  1.00  0.00     0.029 A 
ATOM     61  N   UNL A   1      43.895  32.267  30.606  1.00  0.00    -0.354 N 
ATOM     62  N   UNL A   1      39.850  32.754  32.173  1.00  0.00    -0.248 NA
ATOM     63  C   UNL A   1      39.849  33.630  30.015  1.00  0.00     0.031 C 
ATOM     64  C   UNL A   1      44.252  30.575  31.933  1.00  0.00     0.029 A 
ATOM     65  C   UNL A   1      43.363  31.626  31.698  1.00  0.00     0.049 A 
ATOM     66  H   UNL A   1      43.786  33.221  30.388  1.00  0.00     0.167 HD
ATOM     67  C   UNL A   1      41.165  32.786  31.737  1.00  0.00     0.074 A 
ATOM     68  C   UNL A   1      41.107  33.425  30.421  1.00  0.00     0.031 C 
ATOM     69  C   UNL A   1      42.126  32.027  32.345  1.00  0.00     0.034 A 
BRANCH  56  70
ATOM     70  C   UNL A   1      44.536  32.563  27.571  1.00  0.00     0.023 A 
ATOM     71  C   UNL A   1      43.847  33.706  28.012  1.00  0.00     0.031 A 
ATOM     72  C   UNL A   1      45.008  32.610  26.236  1.00  0.00     0.131 A 
ATOM     73  C   UNL A   1      43.545  34.751  27.124  1.00  0.00     0.055 A 
ATOM     74  C   UNL A   1      44.765  33.685  25.378  1.00  0.00     0.041 A 
ATOM     75  F   UNL A   1      45.650  31.599  25.644  1.00  0.00    -0.206 F 
ATOM     76  C   UNL A   1      43.998  34.749  25.809  1.00  0.00     0.022 A 
BRANCH  73  77
ATOM     77  S   UNL A   1      42.387  36.024  27.676  1.00  0.00     0.124 S 
ATOM     78  O   UNL A   1      42.776  37.148  26.831  1.00  0.00    -0.237 OA
ATOM     79  O   UNL A   1      41.100  35.406  27.376  1.00  0.00    -0.237 OA
ATOM     80  O   UNL A   1      42.696  36.167  29.096  1.00  0.00    -0.744 OA
ENDBRANCH  73  77
ENDBRANCH  56  70
BRANCH  57  81
ATOM     81  C   UNL A   1      36.615  32.849  30.406  1.00  0.00     0.023 A 
ATOM     82  C   UNL A   1      35.725  33.406  31.362  1.00  0.00     0.031 A 
ATOM     83  C   UNL A   1      36.352  33.167  29.055  1.00  0.00     0.131 A 
ATOM     84  C   UNL A   1      34.652  34.238  30.949  1.00  0.00     0.055 A 
ATOM     85  C   UNL A   1      35.296  33.990  28.655  1.00  0.00     0.041 A 
ATOM     86  F   UNL A   1      37.171  32.765  28.071  1.00  0.00    -0.206 F 
ATOM     87  C   UNL A   1      34.448  34.540  29.600  1.00  0.00     0.022 A 
BRANCH  84  88
ATOM     88  S   UNL A   1      33.538  35.032  32.163  1.00  0.00     0.124 S 
ATOM     89  O   UNL A   1      33.353  33.978  33.152  1.00  0.00    -0.237 OA
ATOM     90  O   UNL A   1      34.307  36.196  32.585  1.00  0.00    -0.237 OA
ATOM     91  O   UNL A   1      32.344  35.347  31.376  1.00  0.00    -0.744 OA
ENDBRANCH  84  88
ENDBRANCH  57  81
BRANCH  69  92
ATOM     92  C   UNL A   1      41.818  31.429  33.709  1.00  0.00     0.023 A 
ATOM     93  C   UNL A   1      41.997  32.078  34.955  1.00  0.00     0.031 A 
ATOM     94  C   UNL A   1      41.255  30.140  33.731  1.00  0.00     0.131 A 
ATOM     95  C   UNL A   1      41.649  31.420  36.153  1.00  0.00     0.055 A 
ATOM     96  C   UNL A   1      40.885  29.505  34.915  1.00  0.00     0.041 A 
ATOM     97  F   UNL A   1      41.036  29.472  32.585  1.00  0.00    -0.206 F 
ATOM     98  C   UNL A   1      41.094  30.138  36.132  1.00  0.00     0.022 A 
BRANCH  95  99
ATOM     99  S   UNL A   1      41.964  32.196  37.774  1.00  0.00     0.124 S 
ATOM    100  O   UNL A   1      40.628  32.470  38.291  1.00  0.00    -0.237 OA
ATOM    101  O   UNL A   1      42.720  31.160  38.475  1.00  0.00    -0.237 OA
ATOM    102  O   UNL A   1      42.742  33.388  37.432  1.00  0.00    -0.744 OA
ENDBRANCH  95  99
ENDBRANCH  69  92
ENDBRANCH  43  44
ENDBRANCH  36  38
ENDBRANCH  35  36
ENDBRANCH  34  35
ENDBRANCH  33  34
ENDBRANCH   1  33
TORSDOF 21
ENDMDL
MODEL 3
REMARK VINA RESULT:     -12.0      5.925     12.351
REMARK SMILES NS(=O)(=O)c1ccc(-n2nc(C(=O)OCCOCCOC(=O)c3ccc(-c4c5nc(c(-c6cc(S(=O)(=O)[O-])ccc6F)c6ccc([nH]6)c(-c6cc(S(=O)(=O)[O-])ccc6F)c6nc(c(-c7cc(S(=O)(=O)[O-])ccc7F)c7ccc4[nH]7)C=C6)C=C5)cc3)cc2-c2cc3ccccc3s2)cc1
REMARK SMILES IDX 17 1 16 2 15 3 14 4 12 5 13 6 11 7 9 8 10 9 87 10 86 11 8 12
REMARK SMILES IDX 5 13 6 14 98 15 7 16 97 17 2 18 3 19 4 20 1 21 88 24 89 25
REMARK SMILES IDX 96 26 90 27 95 28 91 29 94 30 92 31 93 32 18 33 19 34 20 35
REMARK SMILES IDX 21 36 22 37 23 38 24 39 85 40 25 41 84 42 26 43 27 44 28 45
REMARK SMILES IDX 78 46 29 47 83 48 77 49 79 50 30 51 82 52 76 53 75 54 31 56
REMARK SMILES IDX 63 57 43 58 62 59 44 60 47 61 61 62 80 63 45 64 46 65 60 67
REMARK SMILES IDX 81 68 48 69 32 70 33 71 41 72 34 73 40 74 42 75 39 76 35 77
REMARK SMILES IDX 36 78 37 79 38 80 64 81 65 82 73 83 66 84 72 85 74 86 71 87
REMARK SMILES IDX 67 88 68 89 69 90 70 91 49 92 50 93 58 94 51 95 57 96 59 97
REMARK SMILES IDX 56 98 52 99 53 100 54 101 55 102
REMARK H PARENT 1 22 1 23 79 55 47 66
REMARK Flexibility Score: inf
ROOT
ATOM      1  O   UNL A   1      42.243  19.093  27.385  1.00  0.00    -0.374 OA
ENDROOT
BRANCH   1   2
ATOM      2  C   UNL A   1      42.295  18.647  26.031  1.00  0.00     0.202 C 
BRANCH   2   3
ATOM      3  C   UNL A   1      43.629  18.787  25.297  1.00  0.00     0.261 C 
BRANCH   3   4
ATOM      4  O   UNL A   1      43.851  20.139  24.883  1.00  0.00    -0.458 OA
BRANCH   4   5
ATOM      5  C   UNL A   1      45.131  20.443  24.503  1.00  0.00     0.358 C 
ATOM      6  O   UNL A   1      45.910  19.650  23.988  1.00  0.00    -0.244 OA
BRANCH   5   7
ATOM      7  C   UNL A   1      45.430  21.860  24.748  1.00  0.00     0.171 A 
ATOM      8  N   UNL A   1      46.279  23.581  25.665  1.00  0.00    -0.231 N 
ATOM      9  N   UNL A   1      46.570  22.305  25.308  1.00  0.00    -0.160 NA
ATOM     10  C   UNL A   1      44.971  23.896  25.388  1.00  0.00     0.085 A 
ATOM     11  C   UNL A   1      44.579  22.949  24.456  1.00  0.00     0.068 A 
BRANCH   8  12
ATOM     12  C   UNL A   1      47.287  24.425  26.150  1.00  0.00     0.065 A 
ATOM     13  C   UNL A   1      49.300  26.084  27.060  1.00  0.00     0.082 A 
ATOM     14  C   UNL A   1      48.643  25.231  27.959  1.00  0.00     0.024 A 
ATOM     15  C   UNL A   1      48.953  26.111  25.705  1.00  0.00     0.024 A 
ATOM     16  C   UNL A   1      47.616  24.404  27.505  1.00  0.00     0.030 A 
ATOM     17  C   UNL A   1      47.955  25.258  25.241  1.00  0.00     0.030 A 
BRANCH  13  18
ATOM     18  S   UNL A   1      50.579  27.150  27.652  1.00  0.00     0.238 S 
ATOM     19  O   UNL A   1      51.748  27.009  26.825  1.00  0.00    -0.207 OA
ATOM     20  O   UNL A   1      50.631  27.062  29.097  1.00  0.00    -0.207 OA
BRANCH  18  21
ATOM     21  N   UNL A   1      49.965  28.674  27.301  1.00  0.00    -0.225 NA
ATOM     22  H   UNL A   1      50.458  29.375  27.854  1.00  0.00     0.137 HD
ATOM     23  H   UNL A   1      48.971  28.701  27.526  1.00  0.00     0.137 HD
ENDBRANCH  18  21
ENDBRANCH  13  18
ENDBRANCH   8  12
BRANCH  10  24
ATOM     24  C   UNL A   1      44.061  24.736  26.129  1.00  0.00     0.054 A 
ATOM     25  C   UNL A   1      44.332  25.416  27.313  1.00  0.00     0.031 A 
ATOM     26  S   UNL A   1      43.246  25.954  25.149  1.00  0.00    -0.134 S 
ATOM     27  C   UNL A   1      44.923  26.690  26.918  1.00  0.00    -0.007 A 
ATOM     28  C   UNL A   1      44.551  27.017  25.604  1.00  0.00     0.035 A 
ATOM     29  C   UNL A   1      45.894  27.493  27.553  1.00  0.00     0.009 A 
ATOM     30  C   UNL A   1      45.214  27.998  24.853  1.00  0.00     0.019 A 
ATOM     31  C   UNL A   1      46.589  28.446  26.800  1.00  0.00     0.001 A 
ATOM     32  C   UNL A   1      46.282  28.663  25.459  1.00  0.00     0.001 A 
ENDBRANCH  10  24
ENDBRANCH   5   7
ENDBRANCH   4   5
ENDBRANCH   3   4
ENDBRANCH   2   3
ENDBRANCH   1   2
BRANCH   1  33
ATOM     33  C   UNL A   1      41.443  20.218  27.733  1.00  0.00     0.202 C 
BRANCH  33  34
ATOM     34  C   UNL A   1      41.917  21.619  27.377  1.00  0.00     0.261 C 
BRANCH  34  35
ATOM     35  O   UNL A   1      41.372  22.638  28.204  1.00  0.00    -0.460 OA
BRANCH  35  36
ATOM     36  C   UNL A   1      40.379  23.326  27.588  1.00  0.00     0.338 C 
ATOM     37  O   UNL A   1      39.484  22.857  26.905  1.00  0.00    -0.246 OA
BRANCH  36  38
ATOM     38  C   UNL A   1      40.644  24.763  27.709  1.00  0.00     0.060 A 
ATOM     39  C   UNL A   1      41.479  25.159  28.755  1.00  0.00     0.016 A 
ATOM     40  C   UNL A   1      39.889  25.689  26.974  1.00  0.00     0.016 A 
ATOM     41  C   UNL A   1      41.425  26.471  29.177  1.00  0.00     0.010 A 
ATOM     42  C   UNL A   1      39.826  26.995  27.408  1.00  0.00     0.010 A 
ATOM     43  C   UNL A   1      40.543  27.357  28.545  1.00  0.00    -0.014 A 
BRANCH  43  44
ATOM     44  C   UNL A   1      40.566  28.751  28.953  1.00  0.00     0.031 A 
ATOM     45  C   UNL A   1      41.741  29.442  28.379  1.00  0.00     0.074 A 
ATOM     46  C   UNL A   1      39.598  29.355  29.671  1.00  0.00     0.049 A 
ATOM     47  N   UNL A   1      42.822  29.770  29.004  1.00  0.00    -0.248 NA
ATOM     48  C   UNL A   1      41.852  29.540  26.912  1.00  0.00     0.031 C 
ATOM     49  C   UNL A   1      38.316  28.795  30.097  1.00  0.00     0.029 A 
ATOM     50  N   UNL A   1      39.522  30.644  30.110  1.00  0.00    -0.354 N 
ATOM     51  C   UNL A   1      43.601  30.415  28.056  1.00  0.00     0.074 A 
ATOM     52  C   UNL A   1      43.101  29.988  26.779  1.00  0.00     0.031 C 
ATOM     53  C   UNL A   1      37.509  29.795  30.525  1.00  0.00     0.029 A 
ATOM     54  C   UNL A   1      38.249  31.049  30.514  1.00  0.00     0.049 A 
ATOM     55  H   UNL A   1      40.305  31.241  30.140  1.00  0.00     0.167 HD
ATOM     56  C   UNL A   1      44.321  31.512  28.411  1.00  0.00     0.034 A 
ATOM     57  C   UNL A   1      37.824  32.323  30.769  1.00  0.00     0.034 A 
ATOM     58  C   UNL A   1      44.523  31.551  29.847  1.00  0.00     0.049 A 
ATOM     59  C   UNL A   1      39.036  33.119  31.092  1.00  0.00     0.074 A 
ATOM     60  C   UNL A   1      45.030  30.659  30.776  1.00  0.00     0.029 A 
ATOM     61  N   UNL A   1      43.801  32.468  30.580  1.00  0.00    -0.354 N 
ATOM     62  N   UNL A   1      39.755  32.914  32.160  1.00  0.00    -0.248 NA
ATOM     63  C   UNL A   1      39.735  33.773  29.995  1.00  0.00     0.031 C 
ATOM     64  C   UNL A   1      44.185  30.791  31.918  1.00  0.00     0.029 A 
ATOM     65  C   UNL A   1      43.281  31.828  31.678  1.00  0.00     0.049 A 
ATOM     66  H   UNL A   1      43.678  33.419  30.355  1.00  0.00     0.167 HD
ATOM     67  C   UNL A   1      41.068  32.960  31.718  1.00  0.00     0.074 A 
ATOM     68  C   UNL A   1      40.997  33.588  30.398  1.00  0.00     0.031 C 
ATOM     69  C   UNL A   1      42.042  32.218  32.328  1.00  0.00     0.034 A 
BRANCH  56  70
ATOM     70  C   UNL A   1      44.426  32.749  27.540  1.00  0.00     0.023 A 
ATOM     71  C   UNL A   1      43.732  33.889  27.981  1.00  0.00     0.031 A 
ATOM     72  C   UNL A   1      44.882  32.791  26.199  1.00  0.00     0.131 A 
ATOM     73  C   UNL A   1      43.412  34.926  27.089  1.00  0.00     0.055 A 
ATOM     74  C   UNL A   1      44.621  33.858  25.337  1.00  0.00     0.041 A 
ATOM     75  F   UNL A   1      45.525  31.780  25.607  1.00  0.00    -0.206 F 
ATOM     76  C   UNL A   1      43.850  34.918  25.769  1.00  0.00     0.022 A 
BRANCH  73  77
ATOM     77  S   UNL A   1      42.249  36.193  27.645  1.00  0.00     0.124 S 
ATOM     78  O   UNL A   1      42.608  37.309  26.776  1.00  0.00    -0.237 OA
ATOM     79  O   UNL A   1      40.964  35.555  27.380  1.00  0.00    -0.237 OA
ATOM     80  O   UNL A   1      42.585  36.361  29.056  1.00  0.00    -0.744 OA
ENDBRANCH  73  77
ENDBRANCH  56  70
BRANCH  57  81
ATOM     81  C   UNL A   1      36.513  32.953  30.405  1.00  0.00     0.023 A 
ATOM     82  C   UNL A   1      35.637  33.539  31.356  1.00  0.00     0.031 A 
ATOM     83  C   UNL A   1      36.224  33.222  29.048  1.00  0.00     0.131 A 
ATOM     84  C   UNL A   1      34.551  34.351  30.933  1.00  0.00     0.055 A 
ATOM     85  C   UNL A   1      35.157  34.024  28.639  1.00  0.00     0.041 A 
ATOM     86  F   UNL A   1      37.028  32.789  28.065  1.00  0.00    -0.206 F 
ATOM     87  C   UNL A   1      34.323  34.603  29.579  1.00  0.00     0.022 A 
BRANCH  84  88
ATOM     88  S   UNL A   1      33.455  35.181  32.138  1.00  0.00     0.124 S 
ATOM     89  O   UNL A   1      33.093  34.091  33.034  1.00  0.00    -0.237 OA
ATOM     90  O   UNL A   1      34.317  36.220  32.688  1.00  0.00    -0.237 OA
ATOM     91  O   UNL A   1      32.355  35.681  31.310  1.00  0.00    -0.744 OA
ENDBRANCH  84  88
ENDBRANCH  57  81
BRANCH  69  92
ATOM     92  C   UNL A   1      41.747  31.626  33.697  1.00  0.00     0.023 A 
ATOM     93  C   UNL A   1      41.875  32.304  34.934  1.00  0.00     0.031 A 
ATOM     94  C   UNL A   1      41.252  30.311  33.734  1.00  0.00     0.131 A 
ATOM     95  C   UNL A   1      41.546  31.648  36.139  1.00  0.00     0.055 A 
ATOM     96  C   UNL A   1      40.899  29.676  34.923  1.00  0.00     0.041 A 
ATOM     97  F   UNL A   1      41.083  29.614  32.596  1.00  0.00    -0.206 F 
ATOM     98  C   UNL A   1      41.058  30.338  36.133  1.00  0.00     0.022 A 
BRANCH  95  99
ATOM     99  S   UNL A   1      41.798  32.464  37.751  1.00  0.00     0.124 S 
ATOM    100  O   UNL A   1      42.746  33.532  37.453  1.00  0.00    -0.237 OA
ATOM    101  O   UNL A   1      40.445  32.890  38.101  1.00  0.00    -0.237 OA
ATOM    102  O   UNL A   1      42.333  31.391  38.592  1.00  0.00    -0.744 OA
ENDBRANCH  95  99
ENDBRANCH  69  92
ENDBRANCH  43  44
ENDBRANCH  36  38
ENDBRANCH  35  36
ENDBRANCH  34  35
ENDBRANCH  33  34
ENDBRANCH   1  33
TORSDOF 21
ENDMDL
