MODEL 1
REMARK VINA RESULT:     -10.9      0.000      0.000
REMARK SMILES CC[C@@](C)(NC(=O)c1cccc(Br)c1C)C(=O)OCCOCCOC(=O)c1ccc(-c2c3nc(c(-c4cc(S(=O)(=O)[O-])ccc4F)c4ccc([nH]4)c(-c4cc(S(=O)(=O)[O-])ccc4F)c4nc(c(-c5cc(S(=O)(=O)[O-])ccc5F)c5ccc2[nH]5)C=C4)C=C3)cc1
REMARK SMILES IDX 22 1 21 2 20 3 19 4 18 5 16 6 17 7 3 8 4 9 2 10 1 11 5 12
REMARK SMILES IDX 6 13 7 15 8 16 9 17 14 18 10 19 12 20 15 21 11 22 13 23
REMARK SMILES IDX 23 24 24 25 25 26 26 27 27 28 28 29 89 30 29 31 88 32 30 33
REMARK SMILES IDX 31 34 32 35 82 36 33 37 87 38 81 39 83 40 34 41 86 42 80 43
REMARK SMILES IDX 79 44 35 46 67 47 47 48 66 49 48 50 51 51 65 52 84 53 49 54
REMARK SMILES IDX 50 55 64 57 85 58 52 59 36 60 37 61 45 62 38 63 44 64 46 65
REMARK SMILES IDX 43 66 39 67 40 68 41 69 42 70 68 71 69 72 77 73 70 74 76 75
REMARK SMILES IDX 78 76 75 77 71 78 72 79 73 80 74 81 53 82 54 83 62 84 55 85
REMARK SMILES IDX 61 86 63 87 60 88 56 89 57 90 58 91 59 92
REMARK H PARENT 5 14 83 45 51 56
REMARK Flexibility Score: inf
ROOT
ATOM      1  C   UNL A   1      38.063  19.873  24.627  1.00  0.00     0.202 C 
ENDROOT
BRANCH   1   2
ATOM      2  O   UNL A   1      36.717  20.263  24.969  1.00  0.00    -0.374 OA
BRANCH   2   3
ATOM      3  C   UNL A   1      36.540  21.443  25.782  1.00  0.00     0.202 C 
BRANCH   3   4
ATOM      4  C   UNL A   1      35.115  22.034  25.973  1.00  0.00     0.261 C 
BRANCH   4   5
ATOM      5  O   UNL A   1      34.747  22.993  24.985  1.00  0.00    -0.462 OA
BRANCH   5   6
ATOM      6  C   UNL A   1      33.467  22.967  24.589  1.00  0.00     0.331 C 
ATOM      7  O   UNL A   1      32.862  21.918  24.375  1.00  0.00    -0.249 OA
BRANCH   6   8
ATOM      8  C   UNL A   1      32.890  24.397  24.451  1.00  0.00     0.135 C 
ATOM      9  C   UNL A   1      33.965  25.485  24.468  1.00  0.00     0.047 C 
BRANCH   8  10
ATOM     10  C   UNL A   1      32.180  24.420  23.038  1.00  0.00     0.037 C 
ATOM     11  C   UNL A   1      32.456  25.650  22.151  1.00  0.00     0.007 C 
ENDBRANCH   8  10
BRANCH   8  12
ATOM     12  N   UNL A   1      31.868  24.750  25.516  1.00  0.00    -0.336 N 
ATOM     13  C   UNL A   1      30.928  25.752  25.741  1.00  0.00     0.252 C 
ATOM     14  H   UNL A   1      31.872  24.092  26.248  1.00  0.00     0.165 HD
ATOM     15  O   UNL A   1      29.994  25.450  26.489  1.00  0.00    -0.269 OA
BRANCH  13  16
ATOM     16  C   UNL A   1      30.978  27.172  25.250  1.00  0.00     0.043 A 
ATOM     17  C   UNL A   1      31.722  28.108  25.975  1.00  0.00     0.014 A 
ATOM     18  C   UNL A   1      30.167  27.693  24.243  1.00  0.00    -0.024 A 
ATOM     19  C   UNL A   1      31.829  29.467  25.685  1.00  0.00     0.002 A 
ATOM     20  C   UNL A   1      30.277  29.078  23.920  1.00  0.00     0.021 A 
ATOM     21  C   UNL A   1      29.198  26.804  23.533  1.00  0.00     0.046 C 
ATOM     22  C   UNL A   1      31.103  29.957  24.634  1.00  0.00     0.016 A 
ATOM     23  Br  UNL A   1      29.313  29.859  22.482  1.00  0.00    -0.051 Br
ENDBRANCH  13  16
ENDBRANCH   8  12
ENDBRANCH   6   8
ENDBRANCH   5   6
ENDBRANCH   4   5
ENDBRANCH   3   4
ENDBRANCH   2   3
ENDBRANCH   1   2
BRANCH   1  24
ATOM     24  C   UNL A   1      39.000  19.608  25.881  1.00  0.00     0.261 C 
BRANCH  24  25
ATOM     25  O   UNL A   1      40.413  19.285  25.589  1.00  0.00    -0.460 OA
BRANCH  25  26
ATOM     26  C   UNL A   1      41.364  19.528  26.549  1.00  0.00     0.338 C 
ATOM     27  O   UNL A   1      42.185  18.700  26.917  1.00  0.00    -0.246 OA
BRANCH  26  28
ATOM     28  C   UNL A   1      41.487  20.980  26.981  1.00  0.00     0.060 A 
ATOM     29  C   UNL A   1      40.981  21.962  26.111  1.00  0.00     0.016 A 
ATOM     30  C   UNL A   1      42.171  21.435  28.114  1.00  0.00     0.016 A 
ATOM     31  C   UNL A   1      41.065  23.345  26.396  1.00  0.00     0.010 A 
ATOM     32  C   UNL A   1      42.319  22.837  28.366  1.00  0.00     0.010 A 
ATOM     33  C   UNL A   1      41.758  23.816  27.518  1.00  0.00    -0.014 A 
BRANCH  33  34
ATOM     34  C   UNL A   1      42.025  25.300  27.677  1.00  0.00     0.031 A 
ATOM     35  C   UNL A   1      43.290  25.889  27.084  1.00  0.00     0.074 A 
ATOM     36  C   UNL A   1      41.152  26.165  28.249  1.00  0.00     0.049 A 
ATOM     37  N   UNL A   1      43.780  27.103  27.176  1.00  0.00    -0.248 NA
ATOM     38  C   UNL A   1      44.097  24.983  26.256  1.00  0.00     0.031 C 
ATOM     39  C   UNL A   1      39.822  25.817  28.737  1.00  0.00     0.029 A 
ATOM     40  N   UNL A   1      41.246  27.523  28.506  1.00  0.00    -0.354 N 
ATOM     41  C   UNL A   1      44.961  27.103  26.435  1.00  0.00     0.074 A 
ATOM     42  C   UNL A   1      45.103  25.767  25.893  1.00  0.00     0.031 C 
ATOM     43  C   UNL A   1      39.232  26.919  29.242  1.00  0.00     0.029 A 
ATOM     44  C   UNL A   1      40.161  28.050  29.181  1.00  0.00     0.049 A 
ATOM     45  H   UNL A   1      42.020  28.066  28.232  1.00  0.00     0.167 HD
ATOM     46  C   UNL A   1      45.856  28.105  26.237  1.00  0.00     0.034 A 
ATOM     47  C   UNL A   1      39.950  29.275  29.729  1.00  0.00     0.034 A 
ATOM     48  C   UNL A   1      45.736  29.435  26.788  1.00  0.00     0.049 A 
ATOM     49  C   UNL A   1      41.037  30.334  29.628  1.00  0.00     0.074 A 
ATOM     50  C   UNL A   1      46.620  30.498  26.677  1.00  0.00     0.029 A 
ATOM     51  N   UNL A   1      44.675  29.889  27.558  1.00  0.00    -0.354 N 
ATOM     52  N   UNL A   1      42.182  30.290  28.988  1.00  0.00    -0.248 NA
ATOM     53  C   UNL A   1      40.807  31.605  30.339  1.00  0.00     0.031 C 
ATOM     54  C   UNL A   1      46.134  31.561  27.445  1.00  0.00     0.029 A 
ATOM     55  C   UNL A   1      44.903  31.198  27.962  1.00  0.00     0.049 A 
ATOM     56  H   UNL A   1      43.876  29.359  27.785  1.00  0.00     0.167 HD
ATOM     57  C   UNL A   1      42.789  31.530  29.198  1.00  0.00     0.074 A 
ATOM     58  C   UNL A   1      41.876  32.311  30.002  1.00  0.00     0.031 C 
ATOM     59  C   UNL A   1      43.995  31.980  28.767  1.00  0.00     0.034 A 
BRANCH  46  60
ATOM     60  C   UNL A   1      47.113  27.768  25.467  1.00  0.00     0.023 A 
ATOM     61  C   UNL A   1      47.242  28.017  24.089  1.00  0.00     0.031 A 
ATOM     62  C   UNL A   1      48.200  27.169  26.132  1.00  0.00     0.131 A 
ATOM     63  C   UNL A   1      48.405  27.612  23.413  1.00  0.00     0.055 A 
ATOM     64  C   UNL A   1      49.381  26.837  25.467  1.00  0.00     0.041 A 
ATOM     65  F   UNL A   1      48.128  26.892  27.444  1.00  0.00    -0.206 F 
ATOM     66  C   UNL A   1      49.483  27.046  24.097  1.00  0.00     0.022 A 
BRANCH  63  67
ATOM     67  S   UNL A   1      48.442  27.717  21.601  1.00  0.00     0.124 S 
ATOM     68  O   UNL A   1      49.534  28.661  21.382  1.00  0.00    -0.237 OA
ATOM     69  O   UNL A   1      48.702  26.336  21.209  1.00  0.00    -0.237 OA
ATOM     70  O   UNL A   1      47.113  28.221  21.259  1.00  0.00    -0.744 OA
ENDBRANCH  63  67
ENDBRANCH  46  60
BRANCH  47  71
ATOM     71  C   UNL A   1      38.718  29.572  30.543  1.00  0.00     0.023 A 
ATOM     72  C   UNL A   1      37.710  30.447  30.088  1.00  0.00     0.031 A 
ATOM     73  C   UNL A   1      38.602  29.089  31.860  1.00  0.00     0.131 A 
ATOM     74  C   UNL A   1      36.676  30.848  30.955  1.00  0.00     0.055 A 
ATOM     75  C   UNL A   1      37.536  29.437  32.694  1.00  0.00     0.041 A 
ATOM     76  F   UNL A   1      39.544  28.281  32.373  1.00  0.00    -0.206 F 
ATOM     77  C   UNL A   1      36.573  30.334  32.249  1.00  0.00     0.022 A 
BRANCH  74  78
ATOM     78  S   UNL A   1      35.529  32.157  30.423  1.00  0.00     0.124 S 
ATOM     79  O   UNL A   1      36.429  33.294  30.264  1.00  0.00    -0.237 OA
ATOM     80  O   UNL A   1      34.978  31.597  29.193  1.00  0.00    -0.237 OA
ATOM     81  O   UNL A   1      34.587  32.259  31.535  1.00  0.00    -0.744 OA
ENDBRANCH  74  78
ENDBRANCH  47  71
BRANCH  59  82
ATOM     82  C   UNL A   1      44.381  33.403  29.112  1.00  0.00     0.023 A 
ATOM     83  C   UNL A   1      43.964  34.499  28.333  1.00  0.00     0.031 A 
ATOM     84  C   UNL A   1      45.180  33.667  30.240  1.00  0.00     0.131 A 
ATOM     85  C   UNL A   1      44.389  35.797  28.662  1.00  0.00     0.055 A 
ATOM     86  C   UNL A   1      45.548  34.965  30.597  1.00  0.00     0.041 A 
ATOM     87  F   UNL A   1      45.611  32.664  31.021  1.00  0.00    -0.206 F 
ATOM     88  C   UNL A   1      45.164  36.039  29.799  1.00  0.00     0.022 A 
BRANCH  85  89
ATOM     89  S   UNL A   1      43.991  37.162  27.534  1.00  0.00     0.124 S 
ATOM     90  O   UNL A   1      43.050  36.532  26.614  1.00  0.00    -0.237 OA
ATOM     91  O   UNL A   1      43.428  38.160  28.436  1.00  0.00    -0.237 OA
ATOM     92  O   UNL A   1      45.285  37.515  26.952  1.00  0.00    -0.744 OA
ENDBRANCH  85  89
ENDBRANCH  59  82
ENDBRANCH  33  34
ENDBRANCH  26  28
ENDBRANCH  25  26
ENDBRANCH  24  25
ENDBRANCH   1  24
TORSDOF 20
ENDMDL
MODEL 2
REMARK VINA RESULT:     -10.8      1.708      2.258
REMARK SMILES CC[C@@](C)(NC(=O)c1cccc(Br)c1C)C(=O)OCCOCCOC(=O)c1ccc(-c2c3nc(c(-c4cc(S(=O)(=O)[O-])ccc4F)c4ccc([nH]4)c(-c4cc(S(=O)(=O)[O-])ccc4F)c4nc(c(-c5cc(S(=O)(=O)[O-])ccc5F)c5ccc2[nH]5)C=C4)C=C3)cc1
REMARK SMILES IDX 22 1 21 2 20 3 19 4 18 5 16 6 17 7 3 8 4 9 2 10 1 11 5 12
REMARK SMILES IDX 6 13 7 15 8 16 9 17 14 18 10 19 12 20 15 21 11 22 13 23
REMARK SMILES IDX 23 24 24 25 25 26 26 27 27 28 28 29 89 30 29 31 88 32 30 33
REMARK SMILES IDX 31 34 32 35 82 36 33 37 87 38 81 39 83 40 34 41 86 42 80 43
REMARK SMILES IDX 79 44 35 46 67 47 47 48 66 49 48 50 51 51 65 52 84 53 49 54
REMARK SMILES IDX 50 55 64 57 85 58 52 59 36 60 37 61 45 62 38 63 44 64 46 65
REMARK SMILES IDX 43 66 39 67 40 68 41 69 42 70 68 71 69 72 77 73 70 74 76 75
REMARK SMILES IDX 78 76 75 77 71 78 72 79 73 80 74 81 53 82 54 83 62 84 55 85
REMARK SMILES IDX 61 86 63 87 60 88 56 89 57 90 58 91 59 92
REMARK H PARENT 5 14 83 45 51 56
REMARK Flexibility Score: inf
ROOT
ATOM      1  C   UNL A   1      37.710  20.076  24.968  1.00  0.00     0.202 C 
ENDROOT
BRANCH   1   2
ATOM      2  O   UNL A   1      37.313  21.270  25.674  1.00  0.00    -0.374 OA
BRANCH   2   3
ATOM      3  C   UNL A   1      37.161  22.488  24.915  1.00  0.00     0.202 C 
BRANCH   3   4
ATOM      4  C   UNL A   1      36.180  23.585  25.416  1.00  0.00     0.261 C 
BRANCH   4   5
ATOM      5  O   UNL A   1      34.831  23.144  25.539  1.00  0.00    -0.462 OA
BRANCH   5   6
ATOM      6  C   UNL A   1      33.887  24.062  25.289  1.00  0.00     0.331 C 
ATOM      7  O   UNL A   1      33.719  25.049  26.004  1.00  0.00    -0.249 OA
BRANCH   6   8
ATOM      8  C   UNL A   1      33.078  23.709  24.017  1.00  0.00     0.135 C 
ATOM      9  C   UNL A   1      33.274  22.261  23.562  1.00  0.00     0.047 C 
BRANCH   8  10
ATOM     10  C   UNL A   1      31.563  23.903  24.426  1.00  0.00     0.037 C 
ATOM     11  C   UNL A   1      30.994  22.897  25.446  1.00  0.00     0.007 C 
ENDBRANCH   8  10
BRANCH   8  12
ATOM     12  N   UNL A   1      33.383  24.604  22.831  1.00  0.00    -0.336 N 
ATOM     13  C   UNL A   1      33.270  25.955  22.512  1.00  0.00     0.252 C 
ATOM     14  H   UNL A   1      33.764  24.090  22.082  1.00  0.00     0.165 HD
ATOM     15  O   UNL A   1      34.028  26.361  21.627  1.00  0.00    -0.269 OA
BRANCH  13  16
ATOM     16  C   UNL A   1      32.270  26.937  23.058  1.00  0.00     0.043 A 
ATOM     17  C   UNL A   1      31.018  27.034  22.444  1.00  0.00     0.014 A 
ATOM     18  C   UNL A   1      32.559  27.922  24.001  1.00  0.00    -0.024 A 
ATOM     19  C   UNL A   1      30.004  27.923  22.793  1.00  0.00     0.002 A 
ATOM     20  C   UNL A   1      31.528  28.829  24.384  1.00  0.00     0.021 A 
ATOM     21  C   UNL A   1      33.934  28.017  24.580  1.00  0.00     0.046 C 
ATOM     22  C   UNL A   1      30.260  28.828  23.787  1.00  0.00     0.016 A 
ATOM     23  Br  UNL A   1      31.780  30.124  25.751  1.00  0.00    -0.051 Br
ENDBRANCH  13  16
ENDBRANCH   8  12
ENDBRANCH   6   8
ENDBRANCH   5   6
ENDBRANCH   4   5
ENDBRANCH   3   4
ENDBRANCH   2   3
ENDBRANCH   1   2
BRANCH   1  24
ATOM     24  C   UNL A   1      38.795  19.202  25.729  1.00  0.00     0.261 C 
BRANCH  24  25
ATOM     25  O   UNL A   1      40.211  19.527  25.455  1.00  0.00    -0.460 OA
BRANCH  25  26
ATOM     26  C   UNL A   1      41.070  19.707  26.512  1.00  0.00     0.338 C 
ATOM     27  O   UNL A   1      41.784  18.824  26.966  1.00  0.00    -0.246 OA
BRANCH  26  28
ATOM     28  C   UNL A   1      41.252  21.150  26.955  1.00  0.00     0.060 A 
ATOM     29  C   UNL A   1      40.725  22.156  26.126  1.00  0.00     0.016 A 
ATOM     30  C   UNL A   1      42.007  21.571  28.055  1.00  0.00     0.016 A 
ATOM     31  C   UNL A   1      40.859  23.532  26.425  1.00  0.00     0.010 A 
ATOM     32  C   UNL A   1      42.203  22.966  28.317  1.00  0.00     0.010 A 
ATOM     33  C   UNL A   1      41.623  23.971  27.513  1.00  0.00    -0.014 A 
BRANCH  33  34
ATOM     34  C   UNL A   1      41.934  25.445  27.677  1.00  0.00     0.031 A 
ATOM     35  C   UNL A   1      43.214  25.998  27.080  1.00  0.00     0.074 A 
ATOM     36  C   UNL A   1      41.091  26.333  28.257  1.00  0.00     0.049 A 
ATOM     37  N   UNL A   1      43.741  27.197  27.174  1.00  0.00    -0.248 NA
ATOM     38  C   UNL A   1      43.989  25.072  26.245  1.00  0.00     0.031 C 
ATOM     39  C   UNL A   1      39.753  26.024  28.750  1.00  0.00     0.029 A 
ATOM     40  N   UNL A   1      41.228  27.687  28.519  1.00  0.00    -0.354 N 
ATOM     41  C   UNL A   1      44.918  27.164  26.428  1.00  0.00     0.074 A 
ATOM     42  C   UNL A   1      45.016  25.826  25.879  1.00  0.00     0.031 C 
ATOM     43  C   UNL A   1      39.199  27.141  29.262  1.00  0.00     0.029 A 
ATOM     44  C   UNL A   1      40.161  28.244  29.201  1.00  0.00     0.049 A 
ATOM     45  H   UNL A   1      42.016  28.208  28.243  1.00  0.00     0.167 HD
ATOM     46  C   UNL A   1      45.842  28.139  26.229  1.00  0.00     0.034 A 
ATOM     47  C   UNL A   1      39.991  29.472  29.755  1.00  0.00     0.034 A 
ATOM     48  C   UNL A   1      45.764  29.470  26.785  1.00  0.00     0.049 A 
ATOM     49  C   UNL A   1      41.108  30.499  29.653  1.00  0.00     0.074 A 
ATOM     50  C   UNL A   1      46.679  30.506  26.674  1.00  0.00     0.029 A 
ATOM     51  N   UNL A   1      44.721  29.953  27.562  1.00  0.00    -0.354 N 
ATOM     52  N   UNL A   1      42.248  30.423  29.007  1.00  0.00    -0.248 NA
ATOM     53  C   UNL A   1      40.920  31.773  30.370  1.00  0.00     0.031 C 
ATOM     54  C   UNL A   1      46.229  31.581  27.449  1.00  0.00     0.029 A 
ATOM     55  C   UNL A   1      44.990  31.252  27.971  1.00  0.00     0.049 A 
ATOM     56  H   UNL A   1      43.908  29.446  27.792  1.00  0.00     0.167 HD
ATOM     57  C   UNL A   1      42.893  31.643  29.219  1.00  0.00     0.074 A 
ATOM     58  C   UNL A   1      42.009  32.448  30.030  1.00  0.00     0.031 C 
ATOM     59  C   UNL A   1      44.110  32.058  28.783  1.00  0.00     0.034 A 
BRANCH  46  60
ATOM     60  C   UNL A   1      47.084  27.768  25.451  1.00  0.00     0.023 A 
ATOM     61  C   UNL A   1      47.216  28.025  24.075  1.00  0.00     0.031 A 
ATOM     62  C   UNL A   1      48.152  27.127  26.107  1.00  0.00     0.131 A 
ATOM     63  C   UNL A   1      48.362  27.587  23.391  1.00  0.00     0.055 A 
ATOM     64  C   UNL A   1      49.320  26.762  25.435  1.00  0.00     0.041 A 
ATOM     65  F   UNL A   1      48.076  26.840  27.417  1.00  0.00    -0.206 F 
ATOM     66  C   UNL A   1      49.424  26.980  24.066  1.00  0.00     0.022 A 
BRANCH  63  67
ATOM     67  S   UNL A   1      48.397  27.707  21.580  1.00  0.00     0.124 S 
ATOM     68  O   UNL A   1      47.054  28.203  21.291  1.00  0.00    -0.237 OA
ATOM     69  O   UNL A   1      49.489  28.645  21.346  1.00  0.00    -0.237 OA
ATOM     70  O   UNL A   1      48.652  26.334  21.150  1.00  0.00    -0.744 OA
ENDBRANCH  63  67
ENDBRANCH  46  60
BRANCH  47  71
ATOM     71  C   UNL A   1      38.772  29.803  30.576  1.00  0.00     0.023 A 
ATOM     72  C   UNL A   1      37.727  30.607  30.078  1.00  0.00     0.031 A 
ATOM     73  C   UNL A   1      38.706  29.430  31.933  1.00  0.00     0.131 A 
ATOM     74  C   UNL A   1      36.704  31.052  30.939  1.00  0.00     0.055 A 
ATOM     75  C   UNL A   1      37.652  29.818  32.765  1.00  0.00     0.041 A 
ATOM     76  F   UNL A   1      39.685  28.695  32.485  1.00  0.00    -0.206 F 
ATOM     77  C   UNL A   1      36.651  30.647  32.273  1.00  0.00     0.022 A 
BRANCH  74  78
ATOM     78  S   UNL A   1      35.505  32.279  30.331  1.00  0.00     0.124 S 
ATOM     79  O   UNL A   1      34.547  32.328  31.429  1.00  0.00    -0.237 OA
ATOM     80  O   UNL A   1      36.342  33.461  30.155  1.00  0.00    -0.237 OA
ATOM     81  O   UNL A   1      35.004  31.683  29.093  1.00  0.00    -0.744 OA
ENDBRANCH  74  78
ENDBRANCH  47  71
BRANCH  59  82
ATOM     82  C   UNL A   1      44.541  33.467  29.132  1.00  0.00     0.023 A 
ATOM     83  C   UNL A   1      45.316  33.750  30.272  1.00  0.00     0.031 A 
ATOM     84  C   UNL A   1      44.170  34.546  28.307  1.00  0.00     0.131 A 
ATOM     85  C   UNL A   1      45.649  35.079  30.584  1.00  0.00     0.055 A 
ATOM     86  C   UNL A   1      44.556  35.858  28.588  1.00  0.00     0.041 A 
ATOM     87  F   UNL A   1      43.430  34.341  27.206  1.00  0.00    -0.206 F 
ATOM     88  C   UNL A   1      45.289  36.133  29.739  1.00  0.00     0.022 A 
BRANCH  85  89
ATOM     89  S   UNL A   1      46.485  35.429  32.157  1.00  0.00     0.124 S 
ATOM     90  O   UNL A   1      46.994  34.113  32.529  1.00  0.00    -0.237 OA
ATOM     91  O   UNL A   1      47.488  36.413  31.766  1.00  0.00    -0.237 OA
ATOM     92  O   UNL A   1      45.414  35.942  33.008  1.00  0.00    -0.744 OA
ENDBRANCH  85  89
ENDBRANCH  59  82
ENDBRANCH  33  34
ENDBRANCH  26  28
ENDBRANCH  25  26
ENDBRANCH  24  25
ENDBRANCH   1  24
TORSDOF 20
ENDMDL
MODEL 3
REMARK VINA RESULT:     -10.6      2.024      2.570
REMARK SMILES CC[C@@](C)(NC(=O)c1cccc(Br)c1C)C(=O)OCCOCCOC(=O)c1ccc(-c2c3nc(c(-c4cc(S(=O)(=O)[O-])ccc4F)c4ccc([nH]4)c(-c4cc(S(=O)(=O)[O-])ccc4F)c4nc(c(-c5cc(S(=O)(=O)[O-])ccc5F)c5ccc2[nH]5)C=C4)C=C3)cc1
REMARK SMILES IDX 22 1 21 2 20 3 19 4 18 5 16 6 17 7 3 8 4 9 2 10 1 11 5 12
REMARK SMILES IDX 6 13 7 15 8 16 9 17 14 18 10 19 12 20 15 21 11 22 13 23
REMARK SMILES IDX 23 24 24 25 25 26 26 27 27 28 28 29 89 30 29 31 88 32 30 33
REMARK SMILES IDX 31 34 32 35 82 36 33 37 87 38 81 39 83 40 34 41 86 42 80 43
REMARK SMILES IDX 79 44 35 46 67 47 47 48 66 49 48 50 51 51 65 52 84 53 49 54
REMARK SMILES IDX 50 55 64 57 85 58 52 59 36 60 37 61 45 62 38 63 44 64 46 65
REMARK SMILES IDX 43 66 39 67 40 68 41 69 42 70 68 71 69 72 77 73 70 74 76 75
REMARK SMILES IDX 78 76 75 77 71 78 72 79 73 80 74 81 53 82 54 83 62 84 55 85
REMARK SMILES IDX 61 86 63 87 60 88 56 89 57 90 58 91 59 92
REMARK H PARENT 5 14 83 45 51 56
REMARK Flexibility Score: inf
ROOT
ATOM      1  C   UNL A   1      37.478  20.813  25.246  1.00  0.00     0.202 C 
ENDROOT
BRANCH   1   2
ATOM      2  O   UNL A   1      36.174  20.432  24.761  1.00  0.00    -0.374 OA
BRANCH   2   3
ATOM      3  C   UNL A   1      35.835  19.029  24.759  1.00  0.00     0.202 C 
BRANCH   3   4
ATOM      4  C   UNL A   1      34.360  18.598  24.526  1.00  0.00     0.261 C 
BRANCH   4   5
ATOM      5  O   UNL A   1      33.399  19.527  25.019  1.00  0.00    -0.462 OA
BRANCH   5   6
ATOM      6  C   UNL A   1      32.745  20.244  24.095  1.00  0.00     0.331 C 
ATOM      7  O   UNL A   1      32.113  19.721  23.178  1.00  0.00    -0.249 OA
BRANCH   6   8
ATOM      8  C   UNL A   1      32.896  21.764  24.348  1.00  0.00     0.135 C 
ATOM      9  C   UNL A   1      31.634  22.559  24.011  1.00  0.00     0.047 C 
BRANCH   8  10
ATOM     10  C   UNL A   1      33.171  21.897  25.900  1.00  0.00     0.037 C 
ATOM     11  C   UNL A   1      32.181  22.768  26.699  1.00  0.00     0.007 C 
ENDBRANCH   8  10
BRANCH   8  12
ATOM     12  N   UNL A   1      34.049  22.398  23.592  1.00  0.00    -0.336 N 
ATOM     13  C   UNL A   1      34.743  23.604  23.608  1.00  0.00     0.252 C 
ATOM     14  H   UNL A   1      34.402  21.791  22.902  1.00  0.00     0.165 HD
ATOM     15  O   UNL A   1      35.888  23.569  23.149  1.00  0.00    -0.269 OA
BRANCH  13  16
ATOM     16  C   UNL A   1      34.219  24.949  24.033  1.00  0.00     0.043 A 
ATOM     17  C   UNL A   1      34.375  25.340  25.366  1.00  0.00     0.014 A 
ATOM     18  C   UNL A   1      33.392  25.759  23.257  1.00  0.00    -0.024 A 
ATOM     19  C   UNL A   1      33.904  26.524  25.929  1.00  0.00     0.002 A 
ATOM     20  C   UNL A   1      32.916  26.984  23.810  1.00  0.00     0.021 A 
ATOM     21  C   UNL A   1      33.014  25.331  21.876  1.00  0.00     0.046 C 
ATOM     22  C   UNL A   1      33.172  27.364  25.134  1.00  0.00     0.016 A 
ATOM     23  Br  UNL A   1      31.891  28.219  22.795  1.00  0.00    -0.051 Br
ENDBRANCH  13  16
ENDBRANCH   8  12
ENDBRANCH   6   8
ENDBRANCH   5   6
ENDBRANCH   4   5
ENDBRANCH   3   4
ENDBRANCH   2   3
ENDBRANCH   1   2
BRANCH   1  24
ATOM     24  C   UNL A   1      38.605  19.721  25.005  1.00  0.00     0.261 C 
BRANCH  24  25
ATOM     25  O   UNL A   1      39.407  19.333  26.185  1.00  0.00    -0.460 OA
BRANCH  25  26
ATOM     26  C   UNL A   1      40.729  19.701  26.241  1.00  0.00     0.338 C 
ATOM     27  O   UNL A   1      41.638  19.049  25.745  1.00  0.00    -0.246 OA
BRANCH  26  28
ATOM     28  C   UNL A   1      40.986  21.102  26.771  1.00  0.00     0.060 A 
ATOM     29  C   UNL A   1      40.437  22.179  26.053  1.00  0.00     0.016 A 
ATOM     30  C   UNL A   1      41.825  21.423  27.843  1.00  0.00     0.016 A 
ATOM     31  C   UNL A   1      40.633  23.527  26.438  1.00  0.00     0.010 A 
ATOM     32  C   UNL A   1      42.082  22.789  28.189  1.00  0.00     0.010 A 
ATOM     33  C   UNL A   1      41.481  23.865  27.499  1.00  0.00    -0.014 A 
BRANCH  33  34
ATOM     34  C   UNL A   1      41.849  25.315  27.745  1.00  0.00     0.031 A 
ATOM     35  C   UNL A   1      43.195  25.824  27.265  1.00  0.00     0.074 A 
ATOM     36  C   UNL A   1      41.008  26.222  28.297  1.00  0.00     0.049 A 
ATOM     37  N   UNL A   1      43.770  26.990  27.446  1.00  0.00    -0.248 NA
ATOM     38  C   UNL A   1      43.986  24.891  26.452  1.00  0.00     0.031 C 
ATOM     39  C   UNL A   1      39.624  25.962  28.679  1.00  0.00     0.029 A 
ATOM     40  N   UNL A   1      41.189  27.557  28.622  1.00  0.00    -0.354 N 
ATOM     41  C   UNL A   1      44.996  26.926  26.787  1.00  0.00     0.074 A 
ATOM     42  C   UNL A   1      45.071  25.606  26.193  1.00  0.00     0.031 C 
ATOM     43  C   UNL A   1      39.087  27.086  29.193  1.00  0.00     0.029 A 
ATOM     44  C   UNL A   1      40.102  28.141  29.247  1.00  0.00     0.049 A 
ATOM     45  H   UNL A   1      42.019  28.047  28.426  1.00  0.00     0.167 HD
ATOM     46  C   UNL A   1      45.977  27.860  26.695  1.00  0.00     0.034 A 
ATOM     47  C   UNL A   1      39.949  29.355  29.836  1.00  0.00     0.034 A 
ATOM     48  C   UNL A   1      45.921  29.172  27.298  1.00  0.00     0.049 A 
ATOM     49  C   UNL A   1      41.118  30.328  29.857  1.00  0.00     0.074 A 
ATOM     50  C   UNL A   1      46.890  30.164  27.296  1.00  0.00     0.029 A 
ATOM     51  N   UNL A   1      44.847  29.677  28.015  1.00  0.00    -0.354 N 
ATOM     52  N   UNL A   1      42.298  30.218  29.293  1.00  0.00    -0.248 NA
ATOM     53  C   UNL A   1      40.938  31.583  30.609  1.00  0.00     0.031 C 
ATOM     54  C   UNL A   1      46.435  31.231  28.078  1.00  0.00     0.029 A 
ATOM     55  C   UNL A   1      45.147  30.946  28.495  1.00  0.00     0.049 A 
ATOM     56  H   UNL A   1      43.996  29.204  28.164  1.00  0.00     0.167 HD
ATOM     57  C   UNL A   1      42.983  31.396  29.601  1.00  0.00     0.074 A 
ATOM     58  C   UNL A   1      42.079  32.213  30.377  1.00  0.00     0.031 C 
ATOM     59  C   UNL A   1      44.247  31.765  29.272  1.00  0.00     0.034 A 
BRANCH  46  60
ATOM     60  C   UNL A   1      47.255  27.456  25.995  1.00  0.00     0.023 A 
ATOM     61  C   UNL A   1      48.377  26.976  26.694  1.00  0.00     0.031 A 
ATOM     62  C   UNL A   1      47.350  27.571  24.595  1.00  0.00     0.131 A 
ATOM     63  C   UNL A   1      49.563  26.690  25.996  1.00  0.00     0.055 A 
ATOM     64  C   UNL A   1      48.508  27.214  23.902  1.00  0.00     0.041 A 
ATOM     65  F   UNL A   1      46.317  28.039  23.877  1.00  0.00    -0.206 F 
ATOM     66  C   UNL A   1      49.627  26.782  24.604  1.00  0.00     0.022 A 
BRANCH  63  67
ATOM     67  S   UNL A   1      51.064  26.314  26.945  1.00  0.00     0.124 S 
ATOM     68  O   UNL A   1      51.144  24.863  26.809  1.00  0.00    -0.237 OA
ATOM     69  O   UNL A   1      52.084  27.080  26.238  1.00  0.00    -0.237 OA
ATOM     70  O   UNL A   1      50.748  26.791  28.290  1.00  0.00    -0.744 OA
ENDBRANCH  63  67
ENDBRANCH  46  60
BRANCH  47  71
ATOM     71  C   UNL A   1      38.689  29.717  30.579  1.00  0.00     0.023 A 
ATOM     72  C   UNL A   1      37.699  30.549  30.018  1.00  0.00     0.031 A 
ATOM     73  C   UNL A   1      38.526  29.343  31.927  1.00  0.00     0.131 A 
ATOM     74  C   UNL A   1      36.635  31.019  30.813  1.00  0.00     0.055 A 
ATOM     75  C   UNL A   1      37.431  29.757  32.691  1.00  0.00     0.041 A 
ATOM     76  F   UNL A   1      39.448  28.581  32.537  1.00  0.00    -0.206 F 
ATOM     77  C   UNL A   1      36.486  30.613  32.140  1.00  0.00     0.022 A 
BRANCH  74  78
ATOM     78  S   UNL A   1      35.511  32.279  30.135  1.00  0.00     0.124 S 
ATOM     79  O   UNL A   1      34.466  32.324  31.151  1.00  0.00    -0.237 OA
ATOM     80  O   UNL A   1      36.378  33.448  30.052  1.00  0.00    -0.237 OA
ATOM     81  O   UNL A   1      35.104  31.716  28.848  1.00  0.00    -0.744 OA
ENDBRANCH  74  78
ENDBRANCH  47  71
BRANCH  59  82
ATOM     82  C   UNL A   1      44.717  33.137  29.708  1.00  0.00     0.023 A 
ATOM     83  C   UNL A   1      44.527  34.279  28.908  1.00  0.00     0.031 A 
ATOM     84  C   UNL A   1      45.365  33.304  30.946  1.00  0.00     0.131 A 
ATOM     85  C   UNL A   1      45.025  35.523  29.329  1.00  0.00     0.055 A 
ATOM     86  C   UNL A   1      45.803  34.554  31.388  1.00  0.00     0.041 A 
ATOM     87  F   UNL A   1      45.577  32.253  31.753  1.00  0.00    -0.206 F 
ATOM     88  C   UNL A   1      45.646  35.671  30.573  1.00  0.00     0.022 A 
BRANCH  85  89
ATOM     89  S   UNL A   1      44.932  36.936  28.194  1.00  0.00     0.124 S 
ATOM     90  O   UNL A   1      43.747  36.614  27.404  1.00  0.00    -0.237 OA
ATOM     91  O   UNL A   1      44.799  38.065  29.108  1.00  0.00    -0.237 OA
ATOM     92  O   UNL A   1      46.197  36.876  27.465  1.00  0.00    -0.744 OA
ENDBRANCH  85  89
ENDBRANCH  59  82
ENDBRANCH  33  34
ENDBRANCH  26  28
ENDBRANCH  25  26
ENDBRANCH  24  25
ENDBRANCH   1  24
TORSDOF 20
ENDMDL
