MODEL 1
REMARK VINA RESULT:     -11.4      0.000      0.000
REMARK SMILES C[C@H]([C@@H](C)C(=O)OCCOCCOC(=O)c1ccc(-c2c3nc(c(-c4cc(S(=O)(=O)[O-])ccc4F)c4ccc([nH]4)c(-c4cc(S(=O)(=O)[O-])ccc4F)c4nc(c(-c5cc(S(=O)(=O)[O-])ccc5F)c5ccc2[nH]5)C=C4)C=C3)cc1)[S@@](=O)c1ccc2ccccc2c1
REMARK SMILES IDX 10 1 9 2 8 3 7 4 5 5 6 6 3 7 4 8 2 9 1 10 79 11 80 12 81 13
REMARK SMILES IDX 82 14 90 15 83 16 89 17 84 18 88 19 85 20 87 21 86 22 11 23
REMARK SMILES IDX 12 24 13 25 14 26 15 27 16 28 17 29 78 30 18 31 77 32 19 33
REMARK SMILES IDX 20 34 21 35 71 36 22 37 76 38 70 39 72 40 23 41 75 42 69 43
REMARK SMILES IDX 68 44 24 46 56 47 36 48 55 49 37 50 40 51 54 52 73 53 38 54
REMARK SMILES IDX 39 55 53 57 74 58 41 59 25 60 26 61 34 62 27 63 33 64 35 65
REMARK SMILES IDX 32 66 28 67 29 68 30 69 31 70 57 71 58 72 66 73 59 74 65 75
REMARK SMILES IDX 67 76 64 77 60 78 61 79 62 80 63 81 42 82 43 83 51 84 44 85
REMARK SMILES IDX 50 86 52 87 49 88 45 89 46 90 47 91 48 92
REMARK H PARENT 72 45 40 56
REMARK Flexibility Score: inf
ROOT
ATOM      1  O   UNL A   1      34.718  19.844  25.017  1.00  0.00    -0.374 OA
ENDROOT
BRANCH   1   2
ATOM      2  C   UNL A   1      33.420  20.361  24.728  1.00  0.00     0.202 C 
BRANCH   2   3
ATOM      3  C   UNL A   1      33.351  21.664  23.924  1.00  0.00     0.261 C 
BRANCH   3   4
ATOM      4  O   UNL A   1      32.522  22.657  24.555  1.00  0.00    -0.463 OA
BRANCH   4   5
ATOM      5  C   UNL A   1      33.147  23.465  25.449  1.00  0.00     0.309 C 
ATOM      6  O   UNL A   1      33.032  23.388  26.667  1.00  0.00    -0.252 OA
BRANCH   5   7
ATOM      7  C   UNL A   1      34.019  24.526  24.796  1.00  0.00     0.112 C 
ATOM      8  C   UNL A   1      35.437  24.358  25.337  1.00  0.00     0.021 C 
BRANCH   7   9
ATOM      9  C   UNL A   1      33.443  25.962  24.870  1.00  0.00     0.095 C 
ATOM     10  C   UNL A   1      34.045  26.882  25.927  1.00  0.00     0.023 C 
BRANCH   9  11
ATOM     11  S   UNL A   1      33.376  26.735  23.182  1.00  0.00     0.057 S 
ATOM     12  O   UNL A   1      33.472  25.629  22.173  1.00  0.00    -0.254 OA
BRANCH  11  13
ATOM     13  C   UNL A   1      31.670  27.304  23.129  1.00  0.00     0.040 A 
ATOM     14  C   UNL A   1      30.644  26.555  23.703  1.00  0.00     0.018 A 
ATOM     15  C   UNL A   1      31.363  28.494  22.459  1.00  0.00     0.026 A 
ATOM     16  C   UNL A   1      29.336  27.038  23.705  1.00  0.00     0.010 A 
ATOM     17  C   UNL A   1      30.041  28.970  22.409  1.00  0.00    -0.017 A 
ATOM     18  C   UNL A   1      29.021  28.247  23.070  1.00  0.00    -0.018 A 
ATOM     19  C   UNL A   1      29.704  30.145  21.714  1.00  0.00     0.009 A 
ATOM     20  C   UNL A   1      27.708  28.742  23.064  1.00  0.00     0.009 A 
ATOM     21  C   UNL A   1      28.387  30.610  21.696  1.00  0.00     0.001 A 
ATOM     22  C   UNL A   1      27.394  29.917  22.381  1.00  0.00     0.001 A 
ENDBRANCH  11  13
ENDBRANCH   9  11
ENDBRANCH   7   9
ENDBRANCH   5   7
ENDBRANCH   4   5
ENDBRANCH   3   4
ENDBRANCH   2   3
ENDBRANCH   1   2
BRANCH   1  23
ATOM     23  C   UNL A   1      35.791  20.773  25.152  1.00  0.00     0.202 C 
BRANCH  23  24
ATOM     24  C   UNL A   1      37.219  20.266  24.898  1.00  0.00     0.261 C 
BRANCH  24  25
ATOM     25  O   UNL A   1      38.220  21.290  25.041  1.00  0.00    -0.460 OA
BRANCH  25  26
ATOM     26  C   UNL A   1      39.195  20.996  25.941  1.00  0.00     0.338 C 
ATOM     27  O   UNL A   1      39.732  19.914  26.110  1.00  0.00    -0.246 OA
BRANCH  26  28
ATOM     28  C   UNL A   1      39.688  22.228  26.590  1.00  0.00     0.060 A 
ATOM     29  C   UNL A   1      39.143  23.443  26.156  1.00  0.00     0.016 A 
ATOM     30  C   UNL A   1      40.722  22.212  27.529  1.00  0.00     0.016 A 
ATOM     31  C   UNL A   1      39.660  24.650  26.623  1.00  0.00     0.010 A 
ATOM     32  C   UNL A   1      41.246  23.427  27.990  1.00  0.00     0.010 A 
ATOM     33  C   UNL A   1      40.742  24.651  27.512  1.00  0.00    -0.014 A 
BRANCH  33  34
ATOM     34  C   UNL A   1      41.433  25.931  27.815  1.00  0.00     0.031 A 
ATOM     35  C   UNL A   1      40.693  26.999  28.576  1.00  0.00     0.074 A 
ATOM     36  C   UNL A   1      42.718  26.123  27.462  1.00  0.00     0.049 A 
ATOM     37  N   UNL A   1      41.088  28.196  28.929  1.00  0.00    -0.248 NA
ATOM     38  C   UNL A   1      39.320  26.670  28.989  1.00  0.00     0.031 C 
ATOM     39  C   UNL A   1      43.556  25.146  26.770  1.00  0.00     0.029 A 
ATOM     40  N   UNL A   1      43.541  27.207  27.638  1.00  0.00    -0.354 N 
ATOM     41  C   UNL A   1      40.014  28.764  29.608  1.00  0.00     0.074 A 
ATOM     42  C   UNL A   1      38.939  27.794  29.576  1.00  0.00     0.031 C 
ATOM     43  C   UNL A   1      44.773  25.680  26.571  1.00  0.00     0.029 A 
ATOM     44  C   UNL A   1      44.790  27.048  27.086  1.00  0.00     0.049 A 
ATOM     45  H   UNL A   1      43.264  28.023  28.115  1.00  0.00     0.167 HD
ATOM     46  C   UNL A   1      39.936  29.976  30.210  1.00  0.00     0.034 A 
ATOM     47  C   UNL A   1      45.819  27.914  26.984  1.00  0.00     0.034 A 
ATOM     48  C   UNL A   1      41.011  30.940  30.220  1.00  0.00     0.049 A 
ATOM     49  C   UNL A   1      45.678  29.295  27.579  1.00  0.00     0.074 A 
ATOM     50  C   UNL A   1      41.040  32.194  30.806  1.00  0.00     0.029 A 
ATOM     51  N   UNL A   1      42.243  30.763  29.603  1.00  0.00    -0.354 N 
ATOM     52  N   UNL A   1      44.659  29.820  28.221  1.00  0.00    -0.248 NA
ATOM     53  C   UNL A   1      46.831  30.196  27.443  1.00  0.00     0.031 C 
ATOM     54  C   UNL A   1      42.258  32.802  30.483  1.00  0.00     0.029 A 
ATOM     55  C   UNL A   1      43.025  31.898  29.764  1.00  0.00     0.049 A 
ATOM     56  H   UNL A   1      42.521  29.951  29.122  1.00  0.00     0.167 HD
ATOM     57  C   UNL A   1      45.061  31.102  28.589  1.00  0.00     0.074 A 
ATOM     58  C   UNL A   1      46.418  31.264  28.110  1.00  0.00     0.031 C 
ATOM     59  C   UNL A   1      44.373  32.056  29.268  1.00  0.00     0.034 A 
BRANCH  46  60
ATOM     60  C   UNL A   1      38.621  30.343  30.858  1.00  0.00     0.023 A 
ATOM     61  C   UNL A   1      37.596  30.988  30.142  1.00  0.00     0.031 A 
ATOM     62  C   UNL A   1      38.401  30.073  32.221  1.00  0.00     0.131 A 
ATOM     63  C   UNL A   1      36.436  31.410  30.809  1.00  0.00     0.055 A 
ATOM     64  C   UNL A   1      37.211  30.424  32.859  1.00  0.00     0.041 A 
ATOM     65  F   UNL A   1      39.350  29.480  32.961  1.00  0.00    -0.206 F 
ATOM     66  C   UNL A   1      36.225  31.111  32.156  1.00  0.00     0.022 A 
BRANCH  63  67
ATOM     67  S   UNL A   1      35.271  32.485  29.925  1.00  0.00     0.124 S 
ATOM     68  O   UNL A   1      36.147  33.568  29.483  1.00  0.00    -0.237 OA
ATOM     69  O   UNL A   1      34.761  31.606  28.879  1.00  0.00    -0.237 OA
ATOM     70  O   UNL A   1      34.302  32.859  30.954  1.00  0.00    -0.744 OA
ENDBRANCH  63  67
ENDBRANCH  46  60
BRANCH  47  71
ATOM     71  C   UNL A   1      47.058  27.527  26.251  1.00  0.00     0.023 A 
ATOM     72  C   UNL A   1      47.222  27.815  24.887  1.00  0.00     0.031 A 
ATOM     73  C   UNL A   1      48.081  26.812  26.902  1.00  0.00     0.131 A 
ATOM     74  C   UNL A   1      48.362  27.354  24.207  1.00  0.00     0.055 A 
ATOM     75  C   UNL A   1      49.236  26.401  26.234  1.00  0.00     0.041 A 
ATOM     76  F   UNL A   1      47.975  26.509  28.206  1.00  0.00    -0.206 F 
ATOM     77  C   UNL A   1      49.376  26.663  24.875  1.00  0.00     0.022 A 
BRANCH  74  78
ATOM     78  S   UNL A   1      48.466  27.605  22.414  1.00  0.00     0.124 S 
ATOM     79  O   UNL A   1      48.554  26.235  21.927  1.00  0.00    -0.237 OA
ATOM     80  O   UNL A   1      47.218  28.309  22.135  1.00  0.00    -0.237 OA
ATOM     81  O   UNL A   1      49.678  28.406  22.253  1.00  0.00    -0.744 OA
ENDBRANCH  74  78
ENDBRANCH  47  71
BRANCH  59  82
ATOM     82  C   UNL A   1      45.100  33.345  29.572  1.00  0.00     0.023 A 
ATOM     83  C   UNL A   1      45.013  34.465  28.726  1.00  0.00     0.031 A 
ATOM     84  C   UNL A   1      45.900  33.449  30.725  1.00  0.00     0.131 A 
ATOM     85  C   UNL A   1      45.755  35.619  29.015  1.00  0.00     0.055 A 
ATOM     86  C   UNL A   1      46.588  34.622  31.039  1.00  0.00     0.041 A 
ATOM     87  F   UNL A   1      46.023  32.412  31.567  1.00  0.00    -0.206 F 
ATOM     88  C   UNL A   1      46.529  35.712  30.176  1.00  0.00     0.022 A 
BRANCH  85  89
ATOM     89  S   UNL A   1      45.770  36.973  27.807  1.00  0.00     0.124 S 
ATOM     90  O   UNL A   1      47.154  36.952  27.344  1.00  0.00    -0.237 OA
ATOM     91  O   UNL A   1      44.767  36.540  26.840  1.00  0.00    -0.237 OA
ATOM     92  O   UNL A   1      45.400  38.145  28.599  1.00  0.00    -0.744 OA
ENDBRANCH  85  89
ENDBRANCH  59  82
ENDBRANCH  33  34
ENDBRANCH  26  28
ENDBRANCH  25  26
ENDBRANCH  24  25
ENDBRANCH  23  24
ENDBRANCH   1  23
TORSDOF 20
ENDMDL
MODEL 2
REMARK VINA RESULT:     -11.3      5.655     10.079
REMARK SMILES C[C@H]([C@@H](C)C(=O)OCCOCCOC(=O)c1ccc(-c2c3nc(c(-c4cc(S(=O)(=O)[O-])ccc4F)c4ccc([nH]4)c(-c4cc(S(=O)(=O)[O-])ccc4F)c4nc(c(-c5cc(S(=O)(=O)[O-])ccc5F)c5ccc2[nH]5)C=C4)C=C3)cc1)[S@@](=O)c1ccc2ccccc2c1
REMARK SMILES IDX 10 1 9 2 8 3 7 4 5 5 6 6 3 7 4 8 2 9 1 10 79 11 80 12 81 13
REMARK SMILES IDX 82 14 90 15 83 16 89 17 84 18 88 19 85 20 87 21 86 22 11 23
REMARK SMILES IDX 12 24 13 25 14 26 15 27 16 28 17 29 78 30 18 31 77 32 19 33
REMARK SMILES IDX 20 34 21 35 71 36 22 37 76 38 70 39 72 40 23 41 75 42 69 43
REMARK SMILES IDX 68 44 24 46 56 47 36 48 55 49 37 50 40 51 54 52 73 53 38 54
REMARK SMILES IDX 39 55 53 57 74 58 41 59 25 60 26 61 34 62 27 63 33 64 35 65
REMARK SMILES IDX 32 66 28 67 29 68 30 69 31 70 57 71 58 72 66 73 59 74 65 75
REMARK SMILES IDX 67 76 64 77 60 78 61 79 62 80 63 81 42 82 43 83 51 84 44 85
REMARK SMILES IDX 50 86 52 87 49 88 45 89 46 90 47 91 48 92
REMARK H PARENT 72 45 40 56
REMARK Flexibility Score: inf
ROOT
ATOM      1  O   UNL A   1      34.075  33.887  27.955  1.00  0.00    -0.374 OA
ENDROOT
BRANCH   1   2
ATOM      2  C   UNL A   1      34.113  35.271  28.303  1.00  0.00     0.202 C 
BRANCH   2   3
ATOM      3  C   UNL A   1      32.954  35.810  29.148  1.00  0.00     0.261 C 
BRANCH   3   4
ATOM      4  O   UNL A   1      33.291  37.033  29.829  1.00  0.00    -0.463 OA
BRANCH   4   5
ATOM      5  C   UNL A   1      33.117  37.026  31.175  1.00  0.00     0.309 C 
ATOM      6  O   UNL A   1      32.983  38.025  31.873  1.00  0.00    -0.252 OA
BRANCH   5   7
ATOM      7  C   UNL A   1      33.120  35.629  31.776  1.00  0.00     0.112 C 
ATOM      8  C   UNL A   1      31.853  35.483  32.615  1.00  0.00     0.021 C 
BRANCH   7   9
ATOM      9  C   UNL A   1      34.439  35.241  32.488  1.00  0.00     0.095 C 
ATOM     10  C   UNL A   1      34.549  35.612  33.963  1.00  0.00     0.023 C 
BRANCH   9  11
ATOM     11  S   UNL A   1      34.879  33.469  32.145  1.00  0.00     0.057 S 
ATOM     12  O   UNL A   1      34.018  33.000  31.010  1.00  0.00    -0.254 OA
BRANCH  11  13
ATOM     13  C   UNL A   1      36.535  33.649  31.466  1.00  0.00     0.040 A 
ATOM     14  C   UNL A   1      36.788  33.415  30.116  1.00  0.00     0.018 A 
ATOM     15  C   UNL A   1      37.595  33.982  32.318  1.00  0.00     0.026 A 
ATOM     16  C   UNL A   1      38.065  33.615  29.593  1.00  0.00     0.010 A 
ATOM     17  C   UNL A   1      38.898  34.139  31.815  1.00  0.00    -0.017 A 
ATOM     18  C   UNL A   1      39.127  33.985  30.429  1.00  0.00    -0.018 A 
ATOM     19  C   UNL A   1      39.984  34.442  32.656  1.00  0.00     0.009 A 
ATOM     20  C   UNL A   1      40.417  34.188  29.914  1.00  0.00     0.009 A 
ATOM     21  C   UNL A   1      41.267  34.614  32.132  1.00  0.00     0.001 A 
ATOM     22  C   UNL A   1      41.479  34.501  30.761  1.00  0.00     0.001 A 
ENDBRANCH  11  13
ENDBRANCH   9  11
ENDBRANCH   7   9
ENDBRANCH   5   7
ENDBRANCH   4   5
ENDBRANCH   3   4
ENDBRANCH   2   3
ENDBRANCH   1   2
BRANCH   1  23
ATOM     23  C   UNL A   1      32.863  33.369  27.415  1.00  0.00     0.202 C 
BRANCH  23  24
ATOM     24  C   UNL A   1      32.684  31.843  27.377  1.00  0.00     0.261 C 
BRANCH  24  25
ATOM     25  O   UNL A   1      33.656  31.137  28.169  1.00  0.00    -0.460 OA
BRANCH  25  26
ATOM     26  C   UNL A   1      34.402  30.241  27.470  1.00  0.00     0.338 C 
ATOM     27  O   UNL A   1      34.145  29.775  26.373  1.00  0.00    -0.246 OA
BRANCH  26  28
ATOM     28  C   UNL A   1      35.707  30.030  28.129  1.00  0.00     0.060 A 
ATOM     29  C   UNL A   1      36.853  30.132  27.329  1.00  0.00     0.016 A 
ATOM     30  C   UNL A   1      35.811  29.651  29.469  1.00  0.00     0.016 A 
ATOM     31  C   UNL A   1      38.103  29.808  27.851  1.00  0.00     0.010 A 
ATOM     32  C   UNL A   1      37.069  29.318  29.989  1.00  0.00     0.010 A 
ATOM     33  C   UNL A   1      38.216  29.360  29.173  1.00  0.00    -0.014 A 
BRANCH  33  34
ATOM     34  C   UNL A   1      39.508  28.796  29.643  1.00  0.00     0.031 A 
ATOM     35  C   UNL A   1      40.219  29.457  30.794  1.00  0.00     0.074 A 
ATOM     36  C   UNL A   1      40.018  27.682  29.086  1.00  0.00     0.049 A 
ATOM     37  N   UNL A   1      41.362  29.152  31.352  1.00  0.00    -0.248 NA
ATOM     38  C   UNL A   1      39.547  30.621  31.390  1.00  0.00     0.031 C 
ATOM     39  C   UNL A   1      39.398  26.922  28.002  1.00  0.00     0.029 A 
ATOM     40  N   UNL A   1      41.176  26.997  29.357  1.00  0.00    -0.354 N 
ATOM     41  C   UNL A   1      41.548  30.085  32.368  1.00  0.00     0.074 A 
ATOM     42  C   UNL A   1      40.419  30.991  32.316  1.00  0.00     0.031 C 
ATOM     43  C   UNL A   1      40.188  25.880  27.693  1.00  0.00     0.029 A 
ATOM     44  C   UNL A   1      41.387  25.919  28.529  1.00  0.00     0.049 A 
ATOM     45  H   UNL A   1      41.798  27.252  30.077  1.00  0.00     0.167 HD
ATOM     46  C   UNL A   1      42.560  30.172  33.266  1.00  0.00     0.034 A 
ATOM     47  C   UNL A   1      42.438  25.078  28.438  1.00  0.00     0.034 A 
ATOM     48  C   UNL A   1      43.688  29.272  33.296  1.00  0.00     0.049 A 
ATOM     49  C   UNL A   1      43.600  25.250  29.386  1.00  0.00     0.074 A 
ATOM     50  C   UNL A   1      44.765  29.265  34.166  1.00  0.00     0.029 A 
ATOM     51  N   UNL A   1      43.894  28.225  32.406  1.00  0.00    -0.354 N 
ATOM     52  N   UNL A   1      43.764  26.134  30.344  1.00  0.00    -0.248 NA
ATOM     53  C   UNL A   1      44.716  24.304  29.247  1.00  0.00     0.031 C 
ATOM     54  C   UNL A   1      45.654  28.264  33.760  1.00  0.00     0.029 A 
ATOM     55  C   UNL A   1      45.095  27.590  32.685  1.00  0.00     0.049 A 
ATOM     56  H   UNL A   1      43.276  27.969  31.683  1.00  0.00     0.167 HD
ATOM     57  C   UNL A   1      44.987  25.830  30.938  1.00  0.00     0.074 A 
ATOM     58  C   UNL A   1      45.510  24.675  30.239  1.00  0.00     0.031 C 
ATOM     59  C   UNL A   1      45.617  26.447  31.972  1.00  0.00     0.034 A 
BRANCH  46  60
ATOM     60  C   UNL A   1      42.513  31.317  34.252  1.00  0.00     0.023 A 
ATOM     61  C   UNL A   1      41.610  31.329  35.330  1.00  0.00     0.031 A 
ATOM     62  C   UNL A   1      43.359  32.428  34.090  1.00  0.00     0.131 A 
ATOM     63  C   UNL A   1      41.523  32.460  36.156  1.00  0.00     0.055 A 
ATOM     64  C   UNL A   1      43.323  33.516  34.964  1.00  0.00     0.041 A 
ATOM     65  F   UNL A   1      44.226  32.483  33.066  1.00  0.00    -0.206 F 
ATOM     66  C   UNL A   1      42.389  33.543  35.996  1.00  0.00     0.022 A 
BRANCH  63  67
ATOM     67  S   UNL A   1      40.160  32.558  37.351  1.00  0.00     0.124 S 
ATOM     68  O   UNL A   1      39.631  33.894  37.086  1.00  0.00    -0.237 OA
ATOM     69  O   UNL A   1      39.310  31.443  36.952  1.00  0.00    -0.237 OA
ATOM     70  O   UNL A   1      40.826  32.405  38.643  1.00  0.00    -0.744 OA
ENDBRANCH  63  67
ENDBRANCH  46  60
BRANCH  47  71
ATOM     71  C   UNL A   1      42.469  24.025  27.383  1.00  0.00     0.023 A 
ATOM     72  C   UNL A   1      41.863  22.775  27.578  1.00  0.00     0.031 A 
ATOM     73  C   UNL A   1      43.158  24.242  26.175  1.00  0.00     0.131 A 
ATOM     74  C   UNL A   1      41.991  21.775  26.600  1.00  0.00     0.055 A 
ATOM     75  C   UNL A   1      43.239  23.263  25.184  1.00  0.00     0.041 A 
ATOM     76  F   UNL A   1      43.758  25.420  25.937  1.00  0.00    -0.206 F 
ATOM     77  C   UNL A   1      42.663  22.016  25.399  1.00  0.00     0.022 A 
BRANCH  74  78
ATOM     78  S   UNL A   1      41.332  20.122  26.954  1.00  0.00     0.124 S 
ATOM     79  O   UNL A   1      40.910  20.262  28.342  1.00  0.00    -0.237 OA
ATOM     80  O   UNL A   1      40.264  20.005  25.966  1.00  0.00    -0.237 OA
ATOM     81  O   UNL A   1      42.479  19.244  26.734  1.00  0.00    -0.744 OA
ENDBRANCH  74  78
ENDBRANCH  47  71
BRANCH  59  82
ATOM     82  C   UNL A   1      46.924  25.848  32.436  1.00  0.00     0.023 A 
ATOM     83  C   UNL A   1      46.981  24.903  33.475  1.00  0.00     0.031 A 
ATOM     84  C   UNL A   1      48.133  26.238  31.831  1.00  0.00     0.131 A 
ATOM     85  C   UNL A   1      48.224  24.421  33.914  1.00  0.00     0.055 A 
ATOM     86  C   UNL A   1      49.361  25.710  32.231  1.00  0.00     0.041 A 
ATOM     87  F   UNL A   1      48.139  27.139  30.835  1.00  0.00    -0.206 F 
ATOM     88  C   UNL A   1      49.413  24.805  33.288  1.00  0.00     0.022 A 
BRANCH  85  89
ATOM     89  S   UNL A   1      48.277  23.351  35.379  1.00  0.00     0.124 S 
ATOM     90  O   UNL A   1      46.903  23.430  35.863  1.00  0.00    -0.237 OA
ATOM     91  O   UNL A   1      48.682  22.068  34.814  1.00  0.00    -0.237 OA
ATOM     92  O   UNL A   1      49.274  23.991  36.236  1.00  0.00    -0.744 OA
ENDBRANCH  85  89
ENDBRANCH  59  82
ENDBRANCH  33  34
ENDBRANCH  26  28
ENDBRANCH  25  26
ENDBRANCH  24  25
ENDBRANCH  23  24
ENDBRANCH   1  23
TORSDOF 20
ENDMDL
MODEL 3
REMARK VINA RESULT:     -11.3      5.190      9.969
REMARK SMILES C[C@H]([C@@H](C)C(=O)OCCOCCOC(=O)c1ccc(-c2c3nc(c(-c4cc(S(=O)(=O)[O-])ccc4F)c4ccc([nH]4)c(-c4cc(S(=O)(=O)[O-])ccc4F)c4nc(c(-c5cc(S(=O)(=O)[O-])ccc5F)c5ccc2[nH]5)C=C4)C=C3)cc1)[S@@](=O)c1ccc2ccccc2c1
REMARK SMILES IDX 10 1 9 2 8 3 7 4 5 5 6 6 3 7 4 8 2 9 1 10 79 11 80 12 81 13
REMARK SMILES IDX 82 14 90 15 83 16 89 17 84 18 88 19 85 20 87 21 86 22 11 23
REMARK SMILES IDX 12 24 13 25 14 26 15 27 16 28 17 29 78 30 18 31 77 32 19 33
REMARK SMILES IDX 20 34 21 35 71 36 22 37 76 38 70 39 72 40 23 41 75 42 69 43
REMARK SMILES IDX 68 44 24 46 56 47 36 48 55 49 37 50 40 51 54 52 73 53 38 54
REMARK SMILES IDX 39 55 53 57 74 58 41 59 25 60 26 61 34 62 27 63 33 64 35 65
REMARK SMILES IDX 32 66 28 67 29 68 30 69 31 70 57 71 58 72 66 73 59 74 65 75
REMARK SMILES IDX 67 76 64 77 60 78 61 79 62 80 63 81 42 82 43 83 51 84 44 85
REMARK SMILES IDX 50 86 52 87 49 88 45 89 46 90 47 91 48 92
REMARK H PARENT 72 45 40 56
REMARK Flexibility Score: inf
ROOT
ATOM      1  O   UNL A   1      34.262  34.276  27.883  1.00  0.00    -0.374 OA
ENDROOT
BRANCH   1   2
ATOM      2  C   UNL A   1      34.264  35.647  28.280  1.00  0.00     0.202 C 
BRANCH   2   3
ATOM      3  C   UNL A   1      33.064  36.139  29.097  1.00  0.00     0.261 C 
BRANCH   3   4
ATOM      4  O   UNL A   1      33.367  37.318  29.865  1.00  0.00    -0.463 OA
BRANCH   4   5
ATOM      5  C   UNL A   1      33.144  37.225  31.200  1.00  0.00     0.309 C 
ATOM      6  O   UNL A   1      32.967  38.176  31.953  1.00  0.00    -0.252 OA
BRANCH   5   7
ATOM      7  C   UNL A   1      33.151  35.793  31.714  1.00  0.00     0.112 C 
ATOM      8  C   UNL A   1      31.874  35.585  32.525  1.00  0.00     0.021 C 
BRANCH   7   9
ATOM      9  C   UNL A   1      34.464  35.373  32.420  1.00  0.00     0.095 C 
ATOM     10  C   UNL A   1      34.611  35.783  33.881  1.00  0.00     0.023 C 
BRANCH   9  11
ATOM     11  S   UNL A   1      34.825  33.574  32.127  1.00  0.00     0.057 S 
ATOM     12  O   UNL A   1      33.988  33.127  30.966  1.00  0.00    -0.254 OA
BRANCH  11  13
ATOM     13  C   UNL A   1      36.514  33.656  31.513  1.00  0.00     0.040 A 
ATOM     14  C   UNL A   1      36.821  33.300  30.201  1.00  0.00     0.018 A 
ATOM     15  C   UNL A   1      37.543  34.038  32.382  1.00  0.00     0.026 A 
ATOM     16  C   UNL A   1      38.126  33.425  29.724  1.00  0.00     0.010 A 
ATOM     17  C   UNL A   1      38.872  34.120  31.930  1.00  0.00    -0.017 A 
ATOM     18  C   UNL A   1      39.159  33.842  30.574  1.00  0.00    -0.018 A 
ATOM     19  C   UNL A   1      39.926  34.469  32.793  1.00  0.00     0.009 A 
ATOM     20  C   UNL A   1      40.475  33.969  30.106  1.00  0.00     0.009 A 
ATOM     21  C   UNL A   1      41.236  34.566  32.317  1.00  0.00     0.001 A 
ATOM     22  C   UNL A   1      41.507  34.330  30.972  1.00  0.00     0.001 A 
ENDBRANCH  11  13
ENDBRANCH   9  11
ENDBRANCH   7   9
ENDBRANCH   5   7
ENDBRANCH   4   5
ENDBRANCH   3   4
ENDBRANCH   2   3
ENDBRANCH   1   2
BRANCH   1  23
ATOM     23  C   UNL A   1      33.002  33.635  27.708  1.00  0.00     0.202 C 
BRANCH  23  24
ATOM     24  C   UNL A   1      32.995  32.130  27.395  1.00  0.00     0.261 C 
BRANCH  24  25
ATOM     25  O   UNL A   1      33.856  31.366  28.258  1.00  0.00    -0.460 OA
BRANCH  25  26
ATOM     26  C   UNL A   1      34.542  30.376  27.629  1.00  0.00     0.338 C 
ATOM     27  O   UNL A   1      34.257  29.851  26.566  1.00  0.00    -0.246 OA
BRANCH  26  28
ATOM     28  C   UNL A   1      35.830  30.127  28.310  1.00  0.00     0.060 A 
ATOM     29  C   UNL A   1      36.999  30.387  27.584  1.00  0.00     0.016 A 
ATOM     30  C   UNL A   1      35.899  29.565  29.586  1.00  0.00     0.016 A 
ATOM     31  C   UNL A   1      38.242  30.044  28.111  1.00  0.00     0.010 A 
ATOM     32  C   UNL A   1      37.150  29.213  30.110  1.00  0.00     0.010 A 
ATOM     33  C   UNL A   1      38.324  29.417  29.361  1.00  0.00    -0.014 A 
BRANCH  33  34
ATOM     34  C   UNL A   1      39.622  28.844  29.804  1.00  0.00     0.031 A 
ATOM     35  C   UNL A   1      40.300  29.424  31.018  1.00  0.00     0.074 A 
ATOM     36  C   UNL A   1      40.166  27.792  29.166  1.00  0.00     0.049 A 
ATOM     37  N   UNL A   1      41.441  29.099  31.568  1.00  0.00    -0.248 NA
ATOM     38  C   UNL A   1      39.592  30.520  31.696  1.00  0.00     0.031 C 
ATOM     39  C   UNL A   1      39.580  27.111  28.013  1.00  0.00     0.029 A 
ATOM     40  N   UNL A   1      41.336  27.113  29.400  1.00  0.00    -0.354 N 
ATOM     41  C   UNL A   1      41.590  29.949  32.660  1.00  0.00     0.074 A 
ATOM     42  C   UNL A   1      40.441  30.830  32.664  1.00  0.00     0.031 C 
ATOM     43  C   UNL A   1      40.400  26.116  27.633  1.00  0.00     0.029 A 
ATOM     44  C   UNL A   1      41.585  26.112  28.490  1.00  0.00     0.049 A 
ATOM     45  H   UNL A   1      41.941  27.321  30.148  1.00  0.00     0.167 HD
ATOM     46  C   UNL A   1      42.586  29.984  33.580  1.00  0.00     0.034 A 
ATOM     47  C   UNL A   1      42.656  25.305  28.347  1.00  0.00     0.034 A 
ATOM     48  C   UNL A   1      43.735  29.109  33.554  1.00  0.00     0.049 A 
ATOM     49  C   UNL A   1      43.800  25.424  29.325  1.00  0.00     0.074 A 
ATOM     50  C   UNL A   1      44.799  29.054  34.439  1.00  0.00     0.029 A 
ATOM     51  N   UNL A   1      43.978  28.144  32.585  1.00  0.00    -0.354 N 
ATOM     52  N   UNL A   1      43.928  26.229  30.355  1.00  0.00    -0.248 NA
ATOM     53  C   UNL A   1      44.939  24.517  29.127  1.00  0.00     0.031 C 
ATOM     54  C   UNL A   1      45.716  28.110  33.966  1.00  0.00     0.029 A 
ATOM     55  C   UNL A   1      45.190  27.515  32.831  1.00  0.00     0.049 A 
ATOM     56  H   UNL A   1      43.377  27.936  31.833  1.00  0.00     0.167 HD
ATOM     57  C   UNL A   1      45.149  25.904  30.943  1.00  0.00     0.074 A 
ATOM     58  C   UNL A   1      45.710  24.822  30.160  1.00  0.00     0.031 C 
ATOM     59  C   UNL A   1      45.748  26.446  32.034  1.00  0.00     0.034 A 
BRANCH  46  60
ATOM     60  C   UNL A   1      42.498  31.041  34.655  1.00  0.00     0.023 A 
ATOM     61  C   UNL A   1      43.075  32.314  34.492  1.00  0.00     0.031 A 
ATOM     62  C   UNL A   1      41.857  30.761  35.875  1.00  0.00     0.131 A 
ATOM     63  C   UNL A   1      43.066  33.227  35.557  1.00  0.00     0.055 A 
ATOM     64  C   UNL A   1      41.782  31.704  36.902  1.00  0.00     0.041 A 
ATOM     65  F   UNL A   1      41.308  29.557  36.097  1.00  0.00    -0.206 F 
ATOM     66  C   UNL A   1      42.402  32.941  36.752  1.00  0.00     0.022 A 
BRANCH  63  67
ATOM     67  S   UNL A   1      44.061  34.738  35.413  1.00  0.00     0.124 S 
ATOM     68  O   UNL A   1      43.134  35.750  35.915  1.00  0.00    -0.237 OA
ATOM     69  O   UNL A   1      45.207  34.443  36.264  1.00  0.00    -0.237 OA
ATOM     70  O   UNL A   1      44.349  34.822  33.983  1.00  0.00    -0.744 OA
ENDBRANCH  63  67
ENDBRANCH  46  60
BRANCH  47  71
ATOM     71  C   UNL A   1      42.728  24.344  27.209  1.00  0.00     0.023 A 
ATOM     72  C   UNL A   1      42.147  23.069  27.291  1.00  0.00     0.031 A 
ATOM     73  C   UNL A   1      43.430  24.675  26.035  1.00  0.00     0.131 A 
ATOM     74  C   UNL A   1      42.314  22.156  26.236  1.00  0.00     0.055 A 
ATOM     75  C   UNL A   1      43.549  23.783  24.968  1.00  0.00     0.041 A 
ATOM     76  F   UNL A   1      44.006  25.881  25.906  1.00  0.00    -0.206 F 
ATOM     77  C   UNL A   1      42.998  22.510  25.070  1.00  0.00     0.022 A 
BRANCH  74  78
ATOM     78  S   UNL A   1      41.687  20.466  26.441  1.00  0.00     0.124 S 
ATOM     79  O   UNL A   1      42.419  19.750  25.404  1.00  0.00    -0.237 OA
ATOM     80  O   UNL A   1      42.066  20.169  27.818  1.00  0.00    -0.237 OA
ATOM     81  O   UNL A   1      40.251  20.606  26.209  1.00  0.00    -0.744 OA
ENDBRANCH  74  78
ENDBRANCH  47  71
BRANCH  59  82
ATOM     82  C   UNL A   1      47.063  25.841  32.470  1.00  0.00     0.023 A 
ATOM     83  C   UNL A   1      48.278  26.179  31.850  1.00  0.00     0.031 A 
ATOM     84  C   UNL A   1      47.095  24.905  33.520  1.00  0.00     0.131 A 
ATOM     85  C   UNL A   1      49.466  25.545  32.247  1.00  0.00     0.055 A 
ATOM     86  C   UNL A   1      48.287  24.323  33.951  1.00  0.00     0.041 A 
ATOM     87  F   UNL A   1      45.964  24.542  34.147  1.00  0.00    -0.206 F 
ATOM     88  C   UNL A   1      49.481  24.632  33.305  1.00  0.00     0.022 A 
BRANCH  85  89
ATOM     89  S   UNL A   1      50.982  25.860  31.301  1.00  0.00     0.124 S 
ATOM     90  O   UNL A   1      51.262  27.253  31.633  1.00  0.00    -0.237 OA
ATOM     91  O   UNL A   1      51.905  24.874  31.854  1.00  0.00    -0.237 OA
ATOM     92  O   UNL A   1      50.579  25.622  29.916  1.00  0.00    -0.744 OA
ENDBRANCH  85  89
ENDBRANCH  59  82
ENDBRANCH  33  34
ENDBRANCH  26  28
ENDBRANCH  25  26
ENDBRANCH  24  25
ENDBRANCH  23  24
ENDBRANCH   1  23
TORSDOF 20
ENDMDL
