MODEL 1
REMARK VINA RESULT:     -10.2      0.000      0.000
REMARK SMILES Cc1cc(SC[C@H]([NH3+])C(=O)OCCOCCOC(=O)c2ccc(-c3c4nc(c(-c5cc(S(=O)(=O)[O-])ccc5F)c5ccc([nH]5)c(-c5cc(S(=O)(=O)[O-])ccc5F)c5nc(c(-c6cc(S(=O)(=O)[O-])ccc6F)c6ccc3[nH]6)C=C5)C=C4)cc2)ccc1N
REMARK SMILES IDX 13 1 12 2 11 3 9 4 10 5 7 6 6 7 5 8 4 9 1 10 2 11 3 12 85 13
REMARK SMILES IDX 84 14 83 15 86 16 8 19 14 23 15 24 16 25 17 26 18 27 19 28
REMARK SMILES IDX 20 29 21 30 82 31 22 32 81 33 23 34 24 35 25 36 75 37 26 38
REMARK SMILES IDX 80 39 74 40 76 41 27 42 79 43 73 44 72 45 28 47 60 48 40 49
REMARK SMILES IDX 59 50 41 51 44 52 58 53 77 54 42 55 43 56 57 58 78 59 45 60
REMARK SMILES IDX 29 61 30 62 38 63 31 64 37 65 39 66 36 67 32 68 33 69 34 70
REMARK SMILES IDX 35 71 61 72 62 73 70 74 63 75 69 76 71 77 68 78 64 79 65 80
REMARK SMILES IDX 66 81 67 82 46 83 47 84 55 85 48 86 54 87 56 88 53 89 49 90
REMARK SMILES IDX 50 91 51 92 52 93
REMARK H PARENT 86 17 86 18 8 20 8 21 8 22 76 46 44 57
REMARK Flexibility Score: inf
ROOT
ATOM      1  C   UNL A   1      34.637  24.231  25.262  1.00  0.00     0.202 C 
ENDROOT
BRANCH   1   2
ATOM      2  C   UNL A   1      34.389  24.932  23.927  1.00  0.00     0.261 C 
BRANCH   2   3
ATOM      3  O   UNL A   1      34.011  26.312  23.883  1.00  0.00    -0.459 OA
BRANCH   3   4
ATOM      4  C   UNL A   1      33.417  26.910  22.826  1.00  0.00     0.365 C 
ATOM      5  O   UNL A   1      33.597  26.674  21.642  1.00  0.00    -0.245 OA
BRANCH   4   6
ATOM      6  C   UNL A   1      32.438  27.958  23.347  1.00  0.00     0.302 C 
BRANCH   6   7
ATOM      7  C   UNL A   1      31.103  27.814  22.593  1.00  0.00     0.152 C 
BRANCH   7   8
ATOM      8  S   UNL A   1      29.702  27.135  23.577  1.00  0.00    -0.119 SA
BRANCH   8   9
ATOM      9  C   UNL A   1      30.266  25.549  24.192  1.00  0.00     0.008 A 
ATOM     10  C   UNL A   1      31.701  22.168  23.103  1.00  0.00     0.046 C 
ATOM     11  C   UNL A   1      31.169  23.274  23.980  1.00  0.00    -0.027 A 
ATOM     12  C   UNL A   1      30.733  24.493  23.401  1.00  0.00     0.020 A 
ATOM     13  C   UNL A   1      31.133  23.114  25.376  1.00  0.00     0.034 A 
ATOM     14  C   UNL A   1      30.571  24.131  26.148  1.00  0.00     0.027 A 
ATOM     15  C   UNL A   1      30.157  25.334  25.568  1.00  0.00     0.017 A 
BRANCH  13  16
ATOM     16  N   UNL A   1      31.522  21.932  25.994  1.00  0.00    -0.399 N 
ATOM     17  H   UNL A   1      31.711  21.132  25.451  1.00  0.00     0.156 HD
ATOM     18  H   UNL A   1      31.609  21.894  26.973  1.00  0.00     0.156 HD
ENDBRANCH  13  16
ENDBRANCH   8   9
ENDBRANCH   7   8
ENDBRANCH   6   7
BRANCH   6  19
ATOM     19  N   UNL A   1      33.009  29.324  23.143  1.00  0.00    -0.345 N 
ATOM     20  H   UNL A   1      32.814  29.900  23.961  1.00  0.00     0.345 HD
ATOM     21  H   UNL A   1      32.586  29.749  22.318  1.00  0.00     0.345 HD
ATOM     22  H   UNL A   1      34.018  29.254  23.009  1.00  0.00     0.345 HD
ENDBRANCH   6  19
ENDBRANCH   4   6
ENDBRANCH   3   4
ENDBRANCH   2   3
ENDBRANCH   1   2
BRANCH   1  23
ATOM     23  O   UNL A   1      34.482  22.816  25.363  1.00  0.00    -0.374 OA
BRANCH  23  24
ATOM     24  C   UNL A   1      35.305  21.960  24.588  1.00  0.00     0.202 C 
BRANCH  24  25
ATOM     25  C   UNL A   1      36.378  21.212  25.390  1.00  0.00     0.261 C 
BRANCH  25  26
ATOM     26  O   UNL A   1      37.703  21.347  24.845  1.00  0.00    -0.460 OA
BRANCH  26  27
ATOM     27  C   UNL A   1      38.722  20.990  25.668  1.00  0.00     0.338 C 
ATOM     28  O   UNL A   1      39.209  19.875  25.772  1.00  0.00    -0.246 OA
BRANCH  27  29
ATOM     29  C   UNL A   1      39.293  22.185  26.347  1.00  0.00     0.060 A 
ATOM     30  C   UNL A   1      38.775  23.445  26.015  1.00  0.00     0.016 A 
ATOM     31  C   UNL A   1      40.344  22.089  27.265  1.00  0.00     0.016 A 
ATOM     32  C   UNL A   1      39.353  24.610  26.535  1.00  0.00     0.010 A 
ATOM     33  C   UNL A   1      40.923  23.256  27.783  1.00  0.00     0.010 A 
ATOM     34  C   UNL A   1      40.462  24.525  27.387  1.00  0.00    -0.014 A 
BRANCH  34  35
ATOM     35  C   UNL A   1      41.264  25.738  27.704  1.00  0.00     0.031 A 
ATOM     36  C   UNL A   1      40.602  26.855  28.471  1.00  0.00     0.074 A 
ATOM     37  C   UNL A   1      42.555  25.856  27.338  1.00  0.00     0.049 A 
ATOM     38  N   UNL A   1      41.059  28.041  28.783  1.00  0.00    -0.248 NA
ATOM     39  C   UNL A   1      39.235  26.593  28.947  1.00  0.00     0.031 C 
ATOM     40  C   UNL A   1      43.335  24.828  26.652  1.00  0.00     0.029 A 
ATOM     41  N   UNL A   1      43.436  26.901  27.486  1.00  0.00    -0.354 N 
ATOM     42  C   UNL A   1      40.036  28.669  29.487  1.00  0.00     0.074 A 
ATOM     43  C   UNL A   1      38.922  27.745  29.521  1.00  0.00     0.031 C 
ATOM     44  C   UNL A   1      44.574  25.298  26.429  1.00  0.00     0.029 A 
ATOM     45  C   UNL A   1      44.665  26.677  26.911  1.00  0.00     0.049 A 
ATOM     46  H   UNL A   1      43.206  27.733  27.959  1.00  0.00     0.167 HD
ATOM     47  C   UNL A   1      40.026  29.898  30.061  1.00  0.00     0.034 A 
ATOM     48  C   UNL A   1      45.728  27.498  26.761  1.00  0.00     0.034 A 
ATOM     49  C   UNL A   1      41.135  30.820  30.007  1.00  0.00     0.049 A 
ATOM     50  C   UNL A   1      45.651  28.910  27.303  1.00  0.00     0.074 A 
ATOM     51  C   UNL A   1      41.225  32.092  30.547  1.00  0.00     0.029 A 
ATOM     52  N   UNL A   1      42.341  30.578  29.365  1.00  0.00    -0.354 N 
ATOM     53  N   UNL A   1      44.673  29.496  27.956  1.00  0.00    -0.248 NA
ATOM     54  C   UNL A   1      46.823  29.772  27.086  1.00  0.00     0.031 C 
ATOM     55  C   UNL A   1      42.450  32.647  30.164  1.00  0.00     0.029 A 
ATOM     56  C   UNL A   1      43.165  31.689  29.463  1.00  0.00     0.049 A 
ATOM     57  H   UNL A   1      42.578  29.740  28.906  1.00  0.00     0.167 HD
ATOM     58  C   UNL A   1      45.132  30.777  28.262  1.00  0.00     0.074 A 
ATOM     59  C   UNL A   1      46.474  30.876  27.730  1.00  0.00     0.031 C 
ATOM     60  C   UNL A   1      44.504  31.780  28.929  1.00  0.00     0.034 A 
BRANCH  47  61
ATOM     61  C   UNL A   1      38.752  30.334  30.746  1.00  0.00     0.023 A 
ATOM     62  C   UNL A   1      37.832  31.196  30.122  1.00  0.00     0.031 A 
ATOM     63  C   UNL A   1      38.465  29.902  32.053  1.00  0.00     0.131 A 
ATOM     64  C   UNL A   1      36.712  31.654  30.830  1.00  0.00     0.055 A 
ATOM     65  C   UNL A   1      37.304  30.296  32.721  1.00  0.00     0.041 A 
ATOM     66  F   UNL A   1      39.317  29.099  32.710  1.00  0.00    -0.206 F 
ATOM     67  C   UNL A   1      36.427  31.189  32.116  1.00  0.00     0.022 A 
BRANCH  64  68
ATOM     68  S   UNL A   1      35.712  32.982  30.104  1.00  0.00     0.124 S 
ATOM     69  O   UNL A   1      35.571  33.896  31.235  1.00  0.00    -0.237 OA
ATOM     70  O   UNL A   1      36.553  33.447  29.007  1.00  0.00    -0.237 OA
ATOM     71  O   UNL A   1      34.480  32.305  29.703  1.00  0.00    -0.744 OA
ENDBRANCH  64  68
ENDBRANCH  47  61
BRANCH  48  72
ATOM     72  C   UNL A   1      46.947  27.044  26.026  1.00  0.00     0.023 A 
ATOM     73  C   UNL A   1      47.999  26.393  26.691  1.00  0.00     0.031 A 
ATOM     74  C   UNL A   1      47.115  27.333  24.659  1.00  0.00     0.131 A 
ATOM     75  C   UNL A   1      49.190  26.102  26.005  1.00  0.00     0.055 A 
ATOM     76  C   UNL A   1      48.277  26.985  23.966  1.00  0.00     0.041 A 
ATOM     77  F   UNL A   1      46.149  27.965  23.973  1.00  0.00    -0.206 F 
ATOM     78  C   UNL A   1      49.330  26.379  24.644  1.00  0.00     0.022 A 
BRANCH  75  79
ATOM     79  S   UNL A   1      50.602  25.459  26.947  1.00  0.00     0.124 S 
ATOM     80  O   UNL A   1      51.544  25.134  25.882  1.00  0.00    -0.237 OA
ATOM     81  O   UNL A   1      50.951  26.601  27.786  1.00  0.00    -0.237 OA
ATOM     82  O   UNL A   1      50.043  24.312  27.658  1.00  0.00    -0.744 OA
ENDBRANCH  75  79
ENDBRANCH  48  72
BRANCH  60  83
ATOM     83  C   UNL A   1      45.285  33.050  29.177  1.00  0.00     0.023 A 
ATOM     84  C   UNL A   1      45.340  34.090  28.233  1.00  0.00     0.031 A 
ATOM     85  C   UNL A   1      45.977  33.224  30.390  1.00  0.00     0.131 A 
ATOM     86  C   UNL A   1      46.112  35.234  28.496  1.00  0.00     0.055 A 
ATOM     87  C   UNL A   1      46.692  34.390  30.672  1.00  0.00     0.041 A 
ATOM     88  F   UNL A   1      45.963  32.264  31.329  1.00  0.00    -0.206 F 
ATOM     89  C   UNL A   1      46.772  35.398  29.717  1.00  0.00     0.022 A 
BRANCH  86  90
ATOM     90  S   UNL A   1      46.316  36.471  27.185  1.00  0.00     0.124 S 
ATOM     91  O   UNL A   1      46.482  35.634  26.000  1.00  0.00    -0.237 OA
ATOM     92  O   UNL A   1      45.067  37.221  27.266  1.00  0.00    -0.237 OA
ATOM     93  O   UNL A   1      47.509  37.211  27.593  1.00  0.00    -0.744 OA
ENDBRANCH  86  90
ENDBRANCH  60  83
ENDBRANCH  34  35
ENDBRANCH  27  29
ENDBRANCH  26  27
ENDBRANCH  25  26
ENDBRANCH  24  25
ENDBRANCH  23  24
ENDBRANCH   1  23
TORSDOF 22
ENDMDL
MODEL 2
REMARK VINA RESULT:      -9.7      1.916      8.121
REMARK SMILES Cc1cc(SC[C@H]([NH3+])C(=O)OCCOCCOC(=O)c2ccc(-c3c4nc(c(-c5cc(S(=O)(=O)[O-])ccc5F)c5ccc([nH]5)c(-c5cc(S(=O)(=O)[O-])ccc5F)c5nc(c(-c6cc(S(=O)(=O)[O-])ccc6F)c6ccc3[nH]6)C=C5)C=C4)cc2)ccc1N
REMARK SMILES IDX 13 1 12 2 11 3 9 4 10 5 7 6 6 7 5 8 4 9 1 10 2 11 3 12 85 13
REMARK SMILES IDX 84 14 83 15 86 16 8 19 14 23 15 24 16 25 17 26 18 27 19 28
REMARK SMILES IDX 20 29 21 30 82 31 22 32 81 33 23 34 24 35 25 36 75 37 26 38
REMARK SMILES IDX 80 39 74 40 76 41 27 42 79 43 73 44 72 45 28 47 60 48 40 49
REMARK SMILES IDX 59 50 41 51 44 52 58 53 77 54 42 55 43 56 57 58 78 59 45 60
REMARK SMILES IDX 29 61 30 62 38 63 31 64 37 65 39 66 36 67 32 68 33 69 34 70
REMARK SMILES IDX 35 71 61 72 62 73 70 74 63 75 69 76 71 77 68 78 64 79 65 80
REMARK SMILES IDX 66 81 67 82 46 83 47 84 55 85 48 86 54 87 56 88 53 89 49 90
REMARK SMILES IDX 50 91 51 92 52 93
REMARK H PARENT 86 17 86 18 8 20 8 21 8 22 76 46 44 57
REMARK Flexibility Score: inf
ROOT
ATOM      1  C   UNL A   1      37.001  22.257  24.107  1.00  0.00     0.202 C 
ENDROOT
BRANCH   1   2
ATOM      2  C   UNL A   1      35.957  23.239  24.638  1.00  0.00     0.261 C 
BRANCH   2   3
ATOM      3  O   UNL A   1      34.689  22.775  25.112  1.00  0.00    -0.459 OA
BRANCH   3   4
ATOM      4  C   UNL A   1      33.734  23.568  25.649  1.00  0.00     0.365 C 
ATOM      5  O   UNL A   1      33.892  24.628  26.232  1.00  0.00    -0.245 OA
BRANCH   4   6
ATOM      6  C   UNL A   1      32.372  22.927  25.398  1.00  0.00     0.302 C 
BRANCH   6   7
ATOM      7  C   UNL A   1      32.041  23.026  23.898  1.00  0.00     0.152 C 
BRANCH   7   8
ATOM      8  S   UNL A   1      30.742  24.252  23.448  1.00  0.00    -0.119 SA
BRANCH   8   9
ATOM      9  C   UNL A   1      31.551  25.851  23.487  1.00  0.00     0.008 A 
ATOM     10  C   UNL A   1      31.186  29.447  24.754  1.00  0.00     0.046 C 
ATOM     11  C   UNL A   1      31.755  28.228  24.071  1.00  0.00    -0.027 A 
ATOM     12  C   UNL A   1      31.034  27.007  24.083  1.00  0.00     0.020 A 
ATOM     13  C   UNL A   1      33.013  28.289  23.448  1.00  0.00     0.034 A 
ATOM     14  C   UNL A   1      33.474  27.161  22.769  1.00  0.00     0.027 A 
ATOM     15  C   UNL A   1      32.762  25.957  22.799  1.00  0.00     0.017 A 
BRANCH  13  16
ATOM     16  N   UNL A   1      33.749  29.465  23.384  1.00  0.00    -0.399 N 
ATOM     17  H   UNL A   1      34.518  29.599  23.984  1.00  0.00     0.156 HD
ATOM     18  H   UNL A   1      33.502  30.165  22.738  1.00  0.00     0.156 HD
ENDBRANCH  13  16
ENDBRANCH   8   9
ENDBRANCH   7   8
ENDBRANCH   6   7
BRANCH   6  19
ATOM     19  N   UNL A   1      31.331  23.626  26.211  1.00  0.00    -0.345 N 
ATOM     20  H   UNL A   1      30.905  24.367  25.653  1.00  0.00     0.345 HD
ATOM     21  H   UNL A   1      31.763  24.032  27.041  1.00  0.00     0.345 HD
ATOM     22  H   UNL A   1      30.614  22.958  26.493  1.00  0.00     0.345 HD
ENDBRANCH   6  19
ENDBRANCH   4   6
ENDBRANCH   3   4
ENDBRANCH   2   3
ENDBRANCH   1   2
BRANCH   1  23
ATOM     23  O   UNL A   1      36.731  20.856  24.119  1.00  0.00    -0.374 OA
BRANCH  23  24
ATOM     24  C   UNL A   1      37.241  20.049  25.167  1.00  0.00     0.202 C 
BRANCH  24  25
ATOM     25  C   UNL A   1      38.726  19.690  25.028  1.00  0.00     0.261 C 
BRANCH  25  26
ATOM     26  O   UNL A   1      39.418  19.605  26.288  1.00  0.00    -0.460 OA
BRANCH  26  27
ATOM     27  C   UNL A   1      40.719  19.994  26.276  1.00  0.00     0.338 C 
ATOM     28  O   UNL A   1      41.655  19.370  25.801  1.00  0.00    -0.246 OA
BRANCH  27  29
ATOM     29  C   UNL A   1      40.858  21.380  26.800  1.00  0.00     0.060 A 
ATOM     30  C   UNL A   1      40.055  22.383  26.238  1.00  0.00     0.016 A 
ATOM     31  C   UNL A   1      41.782  21.712  27.796  1.00  0.00     0.016 A 
ATOM     32  C   UNL A   1      40.226  23.722  26.611  1.00  0.00     0.010 A 
ATOM     33  C   UNL A   1      41.955  23.052  28.167  1.00  0.00     0.010 A 
ATOM     34  C   UNL A   1      41.210  24.072  27.544  1.00  0.00    -0.014 A 
BRANCH  34  35
ATOM     35  C   UNL A   1      41.607  25.496  27.726  1.00  0.00     0.031 A 
ATOM     36  C   UNL A   1      42.930  25.949  27.163  1.00  0.00     0.074 A 
ATOM     37  C   UNL A   1      40.816  26.380  28.362  1.00  0.00     0.049 A 
ATOM     38  N   UNL A   1      43.534  27.104  27.274  1.00  0.00    -0.248 NA
ATOM     39  C   UNL A   1      43.672  24.956  26.370  1.00  0.00     0.031 C 
ATOM     40  C   UNL A   1      39.486  26.093  28.896  1.00  0.00     0.029 A 
ATOM     41  N   UNL A   1      41.023  27.703  28.676  1.00  0.00    -0.354 N 
ATOM     42  C   UNL A   1      44.728  26.978  26.569  1.00  0.00     0.074 A 
ATOM     43  C   UNL A   1      44.777  25.620  26.069  1.00  0.00     0.031 C 
ATOM     44  C   UNL A   1      39.002  27.203  29.480  1.00  0.00     0.029 A 
ATOM     45  C   UNL A   1      40.003  28.267  29.407  1.00  0.00     0.049 A 
ATOM     46  H   UNL A   1      41.828  28.199  28.403  1.00  0.00     0.167 HD
ATOM     47  C   UNL A   1      45.691  27.908  26.350  1.00  0.00     0.034 A 
ATOM     48  C   UNL A   1      39.903  29.487  29.979  1.00  0.00     0.034 A 
ATOM     49  C   UNL A   1      45.642  29.254  26.867  1.00  0.00     0.049 A 
ATOM     50  C   UNL A   1      41.045  30.470  29.825  1.00  0.00     0.074 A 
ATOM     51  C   UNL A   1      46.569  30.272  26.712  1.00  0.00     0.029 A 
ATOM     52  N   UNL A   1      44.620  29.769  27.653  1.00  0.00    -0.354 N 
ATOM     53  N   UNL A   1      42.173  30.334  29.166  1.00  0.00    -0.248 NA
ATOM     54  C   UNL A   1      40.898  31.772  30.492  1.00  0.00     0.031 C 
ATOM     55  C   UNL A   1      46.146  31.371  27.467  1.00  0.00     0.029 A 
ATOM     56  C   UNL A   1      44.911  31.074  28.019  1.00  0.00     0.049 A 
ATOM     57  H   UNL A   1      43.806  29.279  27.912  1.00  0.00     0.167 HD
ATOM     58  C   UNL A   1      42.847  31.547  29.308  1.00  0.00     0.074 A 
ATOM     59  C   UNL A   1      41.996  32.404  30.106  1.00  0.00     0.031 C 
ATOM     60  C   UNL A   1      44.056  31.923  28.816  1.00  0.00     0.034 A 
BRANCH  47  61
ATOM     61  C   UNL A   1      46.905  27.477  25.562  1.00  0.00     0.023 A 
ATOM     62  C   UNL A   1      47.117  27.897  24.237  1.00  0.00     0.031 A 
ATOM     63  C   UNL A   1      47.854  26.613  26.136  1.00  0.00     0.131 A 
ATOM     64  C   UNL A   1      48.205  27.395  23.509  1.00  0.00     0.055 A 
ATOM     65  C   UNL A   1      48.981  26.183  25.433  1.00  0.00     0.041 A 
ATOM     66  F   UNL A   1      47.695  26.157  27.389  1.00  0.00    -0.206 F 
ATOM     67  C   UNL A   1      49.154  26.562  24.106  1.00  0.00     0.022 A 
BRANCH  64  68
ATOM     68  S   UNL A   1      48.282  27.724  21.727  1.00  0.00     0.124 S 
ATOM     69  O   UNL A   1      48.531  26.389  21.190  1.00  0.00    -0.237 OA
ATOM     70  O   UNL A   1      46.965  28.288  21.453  1.00  0.00    -0.237 OA
ATOM     71  O   UNL A   1      49.399  28.658  21.598  1.00  0.00    -0.744 OA
ENDBRANCH  64  68
ENDBRANCH  47  61
BRANCH  48  72
ATOM     72  C   UNL A   1      38.708  29.851  30.799  1.00  0.00     0.023 A 
ATOM     73  C   UNL A   1      37.686  30.662  30.277  1.00  0.00     0.031 A 
ATOM     74  C   UNL A   1      38.612  29.464  32.148  1.00  0.00     0.131 A 
ATOM     75  C   UNL A   1      36.645  31.103  31.111  1.00  0.00     0.055 A 
ATOM     76  C   UNL A   1      37.542  29.852  32.956  1.00  0.00     0.041 A 
ATOM     77  F   UNL A   1      39.565  28.699  32.705  1.00  0.00    -0.206 F 
ATOM     78  C   UNL A   1      36.557  30.691  32.442  1.00  0.00     0.022 A 
BRANCH  75  79
ATOM     79  S   UNL A   1      35.465  32.320  30.461  1.00  0.00     0.124 S 
ATOM     80  O   UNL A   1      36.316  33.492  30.289  1.00  0.00    -0.237 OA
ATOM     81  O   UNL A   1      35.008  31.673  29.236  1.00  0.00    -0.237 OA
ATOM     82  O   UNL A   1      34.465  32.423  31.521  1.00  0.00    -0.744 OA
ENDBRANCH  75  79
ENDBRANCH  48  72
BRANCH  60  83
ATOM     83  C   UNL A   1      44.505  33.343  29.074  1.00  0.00     0.023 A 
ATOM     84  C   UNL A   1      43.983  34.434  28.359  1.00  0.00     0.031 A 
ATOM     85  C   UNL A   1      45.469  33.606  30.066  1.00  0.00     0.131 A 
ATOM     86  C   UNL A   1      44.463  35.731  28.610  1.00  0.00     0.055 A 
ATOM     87  C   UNL A   1      45.896  34.903  30.354  1.00  0.00     0.041 A 
ATOM     88  F   UNL A   1      46.006  32.603  30.780  1.00  0.00    -0.206 F 
ATOM     89  C   UNL A   1      45.402  35.973  29.616  1.00  0.00     0.022 A 
BRANCH  86  90
ATOM     90  S   UNL A   1      43.908  37.089  27.544  1.00  0.00     0.124 S 
ATOM     91  O   UNL A   1      45.174  37.670  27.107  1.00  0.00    -0.237 OA
ATOM     92  O   UNL A   1      43.141  36.389  26.519  1.00  0.00    -0.237 OA
ATOM     93  O   UNL A   1      43.118  37.930  28.442  1.00  0.00    -0.744 OA
ENDBRANCH  86  90
ENDBRANCH  60  83
ENDBRANCH  34  35
ENDBRANCH  27  29
ENDBRANCH  26  27
ENDBRANCH  25  26
ENDBRANCH  24  25
ENDBRANCH  23  24
ENDBRANCH   1  23
TORSDOF 22
ENDMDL
MODEL 3
REMARK VINA RESULT:      -9.7      1.804      8.331
REMARK SMILES Cc1cc(SC[C@H]([NH3+])C(=O)OCCOCCOC(=O)c2ccc(-c3c4nc(c(-c5cc(S(=O)(=O)[O-])ccc5F)c5ccc([nH]5)c(-c5cc(S(=O)(=O)[O-])ccc5F)c5nc(c(-c6cc(S(=O)(=O)[O-])ccc6F)c6ccc3[nH]6)C=C5)C=C4)cc2)ccc1N
REMARK SMILES IDX 13 1 12 2 11 3 9 4 10 5 7 6 6 7 5 8 4 9 1 10 2 11 3 12 85 13
REMARK SMILES IDX 84 14 83 15 86 16 8 19 14 23 15 24 16 25 17 26 18 27 19 28
REMARK SMILES IDX 20 29 21 30 82 31 22 32 81 33 23 34 24 35 25 36 75 37 26 38
REMARK SMILES IDX 80 39 74 40 76 41 27 42 79 43 73 44 72 45 28 47 60 48 40 49
REMARK SMILES IDX 59 50 41 51 44 52 58 53 77 54 42 55 43 56 57 58 78 59 45 60
REMARK SMILES IDX 29 61 30 62 38 63 31 64 37 65 39 66 36 67 32 68 33 69 34 70
REMARK SMILES IDX 35 71 61 72 62 73 70 74 63 75 69 76 71 77 68 78 64 79 65 80
REMARK SMILES IDX 66 81 67 82 46 83 47 84 55 85 48 86 54 87 56 88 53 89 49 90
REMARK SMILES IDX 50 91 51 92 52 93
REMARK H PARENT 86 17 86 18 8 20 8 21 8 22 76 46 44 57
REMARK Flexibility Score: inf
ROOT
ATOM      1  C   UNL A   1      36.909  22.432  24.023  1.00  0.00     0.202 C 
ENDROOT
BRANCH   1   2
ATOM      2  C   UNL A   1      35.880  23.562  24.069  1.00  0.00     0.261 C 
BRANCH   2   3
ATOM      3  O   UNL A   1      34.484  23.288  23.910  1.00  0.00    -0.459 OA
BRANCH   3   4
ATOM      4  C   UNL A   1      33.712  23.789  22.920  1.00  0.00     0.365 C 
ATOM      5  O   UNL A   1      33.937  24.771  22.230  1.00  0.00    -0.245 OA
BRANCH   4   6
ATOM      6  C   UNL A   1      32.475  22.909  22.773  1.00  0.00     0.302 C 
BRANCH   6   7
ATOM      7  C   UNL A   1      31.227  23.738  23.126  1.00  0.00     0.152 C 
BRANCH   7   8
ATOM      8  S   UNL A   1      31.007  24.124  24.914  1.00  0.00    -0.119 SA
BRANCH   8   9
ATOM      9  C   UNL A   1      31.160  25.905  25.046  1.00  0.00     0.008 A 
ATOM     10  C   UNL A   1      32.233  28.728  27.403  1.00  0.00     0.046 C 
ATOM     11  C   UNL A   1      31.709  28.013  26.183  1.00  0.00    -0.027 A 
ATOM     12  C   UNL A   1      31.611  26.598  26.175  1.00  0.00     0.020 A 
ATOM     13  C   UNL A   1      31.343  28.742  25.038  1.00  0.00     0.034 A 
ATOM     14  C   UNL A   1      30.798  28.052  23.955  1.00  0.00     0.027 A 
ATOM     15  C   UNL A   1      30.720  26.655  23.953  1.00  0.00     0.017 A 
BRANCH  13  16
ATOM     16  N   UNL A   1      31.392  30.130  25.001  1.00  0.00    -0.399 N 
ATOM     17  H   UNL A   1      30.588  30.657  25.213  1.00  0.00     0.156 HD
ATOM     18  H   UNL A   1      32.230  30.587  24.762  1.00  0.00     0.156 HD
ENDBRANCH  13  16
ENDBRANCH   8   9
ENDBRANCH   7   8
ENDBRANCH   6   7
BRANCH   6  19
ATOM     19  N   UNL A   1      32.590  21.726  23.678  1.00  0.00    -0.345 N 
ATOM     20  H   UNL A   1      33.222  21.041  23.265  1.00  0.00     0.345 HD
ATOM     21  H   UNL A   1      31.670  21.306  23.808  1.00  0.00     0.345 HD
ATOM     22  H   UNL A   1      32.958  22.024  24.582  1.00  0.00     0.345 HD
ENDBRANCH   6  19
ENDBRANCH   4   6
ENDBRANCH   3   4
ENDBRANCH   2   3
ENDBRANCH   1   2
BRANCH   1  23
ATOM     23  O   UNL A   1      36.494  21.082  24.234  1.00  0.00    -0.374 OA
BRANCH  23  24
ATOM     24  C   UNL A   1      37.093  20.315  25.265  1.00  0.00     0.202 C 
BRANCH  24  25
ATOM     25  C   UNL A   1      38.519  19.840  24.958  1.00  0.00     0.261 C 
BRANCH  25  26
ATOM     26  O   UNL A   1      39.257  19.440  26.128  1.00  0.00    -0.460 OA
BRANCH  26  27
ATOM     27  C   UNL A   1      40.568  19.790  26.150  1.00  0.00     0.338 C 
ATOM     28  O   UNL A   1      41.494  19.149  25.678  1.00  0.00    -0.246 OA
BRANCH  27  29
ATOM     29  C   UNL A   1      40.738  21.160  26.707  1.00  0.00     0.060 A 
ATOM     30  C   UNL A   1      39.970  22.197  26.158  1.00  0.00     0.016 A 
ATOM     31  C   UNL A   1      41.658  21.443  27.722  1.00  0.00     0.016 A 
ATOM     32  C   UNL A   1      40.173  23.522  26.564  1.00  0.00     0.010 A 
ATOM     33  C   UNL A   1      41.862  22.769  28.126  1.00  0.00     0.010 A 
ATOM     34  C   UNL A   1      41.154  23.823  27.518  1.00  0.00    -0.014 A 
BRANCH  34  35
ATOM     35  C   UNL A   1      41.586  25.231  27.737  1.00  0.00     0.031 A 
ATOM     36  C   UNL A   1      42.969  25.634  27.291  1.00  0.00     0.074 A 
ATOM     37  C   UNL A   1      40.778  26.145  28.307  1.00  0.00     0.049 A 
ATOM     38  N   UNL A   1      43.605  26.766  27.457  1.00  0.00    -0.248 NA
ATOM     39  C   UNL A   1      43.738  24.614  26.561  1.00  0.00     0.031 C 
ATOM     40  C   UNL A   1      39.397  25.908  28.724  1.00  0.00     0.029 A 
ATOM     41  N   UNL A   1      41.007  27.458  28.642  1.00  0.00    -0.354 N 
ATOM     42  C   UNL A   1      44.848  26.594  26.856  1.00  0.00     0.074 A 
ATOM     43  C   UNL A   1      44.890  25.235  26.358  1.00  0.00     0.031 C 
ATOM     44  C   UNL A   1      38.907  27.035  29.268  1.00  0.00     0.029 A 
ATOM     45  C   UNL A   1      39.950  28.060  29.285  1.00  0.00     0.049 A 
ATOM     46  H   UNL A   1      41.851  27.924  28.440  1.00  0.00     0.167 HD
ATOM     47  C   UNL A   1      45.861  27.487  26.723  1.00  0.00     0.034 A 
ATOM     48  C   UNL A   1      39.848  29.283  29.850  1.00  0.00     0.034 A 
ATOM     49  C   UNL A   1      45.819  28.834  27.239  1.00  0.00     0.049 A 
ATOM     50  C   UNL A   1      41.035  30.222  29.798  1.00  0.00     0.074 A 
ATOM     51  C   UNL A   1      46.793  29.816  27.167  1.00  0.00     0.029 A 
ATOM     52  N   UNL A   1      44.753  29.387  27.936  1.00  0.00    -0.354 N 
ATOM     53  N   UNL A   1      42.209  30.044  29.237  1.00  0.00    -0.248 NA
ATOM     54  C   UNL A   1      40.880  31.529  30.455  1.00  0.00     0.031 C 
ATOM     55  C   UNL A   1      46.349  30.930  27.886  1.00  0.00     0.029 A 
ATOM     56  C   UNL A   1      45.061  30.681  28.330  1.00  0.00     0.049 A 
ATOM     57  H   UNL A   1      43.902  28.928  28.123  1.00  0.00     0.167 HD
ATOM     58  C   UNL A   1      42.913  31.231  29.440  1.00  0.00     0.074 A 
ATOM     59  C   UNL A   1      42.031  32.119  30.165  1.00  0.00     0.031 C 
ATOM     60  C   UNL A   1      44.173  31.561  29.055  1.00  0.00     0.034 A 
BRANCH  47  61
ATOM     61  C   UNL A   1      47.121  27.011  26.041  1.00  0.00     0.023 A 
ATOM     62  C   UNL A   1      48.132  26.329  26.742  1.00  0.00     0.031 A 
ATOM     63  C   UNL A   1      47.327  27.265  24.673  1.00  0.00     0.131 A 
ATOM     64  C   UNL A   1      49.328  25.991  26.093  1.00  0.00     0.055 A 
ATOM     65  C   UNL A   1      48.486  26.851  24.013  1.00  0.00     0.041 A 
ATOM     66  F   UNL A   1      46.411  27.934  23.956  1.00  0.00    -0.206 F 
ATOM     67  C   UNL A   1      49.502  26.224  24.726  1.00  0.00     0.022 A 
BRANCH  64  68
ATOM     68  S   UNL A   1      50.714  25.380  27.091  1.00  0.00     0.124 S 
ATOM     69  O   UNL A   1      50.065  24.349  27.896  1.00  0.00    -0.237 OA
ATOM     70  O   UNL A   1      51.649  24.906  26.077  1.00  0.00    -0.237 OA
ATOM     71  O   UNL A   1      51.146  26.561  27.836  1.00  0.00    -0.744 OA
ENDBRANCH  64  68
ENDBRANCH  47  61
BRANCH  48  72
ATOM     72  C   UNL A   1      38.602  29.692  30.566  1.00  0.00     0.023 A 
ATOM     73  C   UNL A   1      37.617  30.467  29.930  1.00  0.00     0.031 A 
ATOM     74  C   UNL A   1      38.417  29.386  31.927  1.00  0.00     0.131 A 
ATOM     75  C   UNL A   1      36.524  30.954  30.666  1.00  0.00     0.055 A 
ATOM     76  C   UNL A   1      37.296  29.819  32.638  1.00  0.00     0.041 A 
ATOM     77  F   UNL A   1      39.330  28.659  32.591  1.00  0.00    -0.206 F 
ATOM     78  C   UNL A   1      36.348  30.622  32.011  1.00  0.00     0.022 A 
BRANCH  75  79
ATOM     79  S   UNL A   1      35.390  32.125  29.869  1.00  0.00     0.124 S 
ATOM     80  O   UNL A   1      34.543  32.524  30.987  1.00  0.00    -0.237 OA
ATOM     81  O   UNL A   1      36.310  33.141  29.365  1.00  0.00    -0.237 OA
ATOM     82  O   UNL A   1      34.733  31.319  28.844  1.00  0.00    -0.744 OA
ENDBRANCH  75  79
ENDBRANCH  48  72
BRANCH  60  83
ATOM     83  C   UNL A   1      44.652  32.963  29.355  1.00  0.00     0.023 A 
ATOM     84  C   UNL A   1      45.303  33.289  30.557  1.00  0.00     0.031 A 
ATOM     85  C   UNL A   1      44.458  33.989  28.411  1.00  0.00     0.131 A 
ATOM     86  C   UNL A   1      45.693  34.616  30.804  1.00  0.00     0.055 A 
ATOM     87  C   UNL A   1      44.904  35.293  28.636  1.00  0.00     0.041 A 
ATOM     88  F   UNL A   1      43.839  33.737  27.245  1.00  0.00    -0.206 F 
ATOM     89  C   UNL A   1      45.515  35.615  29.843  1.00  0.00     0.022 A 
BRANCH  86  90
ATOM     90  S   UNL A   1      46.360  35.041  32.437  1.00  0.00     0.124 S 
ATOM     91  O   UNL A   1      45.221  34.775  33.310  1.00  0.00    -0.237 OA
ATOM     92  O   UNL A   1      47.488  34.123  32.562  1.00  0.00    -0.237 OA
ATOM     93  O   UNL A   1      46.722  36.451  32.304  1.00  0.00    -0.744 OA
ENDBRANCH  86  90
ENDBRANCH  60  83
ENDBRANCH  34  35
ENDBRANCH  27  29
ENDBRANCH  26  27
ENDBRANCH  25  26
ENDBRANCH  24  25
ENDBRANCH  23  24
ENDBRANCH   1  23
TORSDOF 22
ENDMDL
