MODEL 1
REMARK VINA RESULT:     -13.0      0.000      0.000
REMARK SMILES Cc1cccc(-c2c(C(=O)OCCOCCOC(=O)c3ccc(-c4c5nc(c(-c6cc(S(=O)(=O)[O-])ccc6F)c6ccc([nH]6)c(-c6cc(S(=O)(=O)[O-])ccc6F)c6nc(c(-c7cc(S(=O)(=O)[O-])ccc7F)c7ccc4[nH]7)C=C6)C=C5)cc3)nnn2Cc2cc(F)cc(F)c2)c1
REMARK SMILES IDX 15 1 14 2 13 3 12 4 11 5 9 6 10 7 8 8 7 9 85 10 83 11 84 12
REMARK SMILES IDX 6 13 1 14 2 15 3 16 95 17 4 18 5 19 86 20 87 21 88 22 94 23
REMARK SMILES IDX 89 24 92 25 90 26 91 27 93 28 16 29 17 30 18 31 19 32 20 33
REMARK SMILES IDX 21 34 82 35 22 36 81 37 23 38 24 39 25 40 75 41 26 42 80 43
REMARK SMILES IDX 74 44 76 45 27 46 79 47 73 48 72 49 28 51 60 52 40 53 59 54
REMARK SMILES IDX 41 55 44 56 58 57 77 58 42 59 43 60 57 62 78 63 45 64 29 65
REMARK SMILES IDX 30 66 38 67 31 68 37 69 39 70 36 71 32 72 33 73 34 74 35 75
REMARK SMILES IDX 61 76 62 77 70 78 63 79 69 80 71 81 68 82 64 83 65 84 66 85
REMARK SMILES IDX 67 86 46 87 47 88 55 89 48 90 54 91 56 92 53 93 49 94 50 95
REMARK SMILES IDX 51 96 52 97
REMARK H PARENT 76 50 44 61
REMARK Flexibility Score: inf
ROOT
ATOM      1  C   UNL A   1      33.687  29.427  25.931  1.00  0.00     0.202 C 
ENDROOT
BRANCH   1   2
ATOM      2  O   UNL A   1      32.606  29.493  25.020  1.00  0.00    -0.374 OA
BRANCH   2   3
ATOM      3  C   UNL A   1      32.758  28.705  23.845  1.00  0.00     0.202 C 
BRANCH   3   4
ATOM      4  C   UNL A   1      32.487  27.292  24.255  1.00  0.00     0.261 C 
BRANCH   4   5
ATOM      5  O   UNL A   1      33.586  26.397  24.170  1.00  0.00    -0.458 OA
BRANCH   5   6
ATOM      6  C   UNL A   1      33.597  25.582  23.083  1.00  0.00     0.361 C 
ATOM      7  O   UNL A   1      34.037  25.890  21.990  1.00  0.00    -0.244 OA
BRANCH   6   8
ATOM      8  C   UNL A   1      32.997  24.301  23.415  1.00  0.00     0.198 A 
ATOM      9  C   UNL A   1      33.600  23.208  24.037  1.00  0.00     0.104 A 
ATOM     10  N   UNL A   1      32.512  22.404  24.296  1.00  0.00    -0.239 N 
ATOM     11  N   UNL A   1      31.688  23.998  23.119  1.00  0.00    -0.122 NA
ATOM     12  N   UNL A   1      31.417  22.806  23.626  1.00  0.00    -0.066 NA
BRANCH   9  13
ATOM     13  C   UNL A   1      34.936  22.978  24.603  1.00  0.00     0.003 A 
ATOM     14  C   UNL A   1      37.619  20.265  24.702  1.00  0.00     0.044 C 
ATOM     15  C   UNL A   1      36.846  21.517  24.989  1.00  0.00    -0.050 A 
ATOM     16  C   UNL A   1      37.422  22.498  25.804  1.00  0.00     0.003 A 
ATOM     17  C   UNL A   1      35.604  21.766  24.385  1.00  0.00     0.013 A 
ATOM     18  C   UNL A   1      36.784  23.716  26.002  1.00  0.00     0.001 A 
ATOM     19  C   UNL A   1      35.550  23.953  25.405  1.00  0.00     0.010 A 
ENDBRANCH   9  13
BRANCH  10  20
ATOM     20  C   UNL A   1      32.380  21.386  25.328  1.00  0.00     0.182 C 
BRANCH  20  21
ATOM     21  C   UNL A   1      32.504  19.967  24.802  1.00  0.00    -0.021 A 
ATOM     22  C   UNL A   1      32.307  19.739  23.433  1.00  0.00     0.045 A 
ATOM     23  C   UNL A   1      32.852  18.867  25.608  1.00  0.00     0.045 A 
ATOM     24  C   UNL A   1      32.553  18.480  22.888  1.00  0.00     0.126 A 
ATOM     25  C   UNL A   1      33.151  17.635  25.031  1.00  0.00     0.126 A 
ATOM     26  F   UNL A   1      32.361  18.289  21.576  1.00  0.00    -0.207 F 
ATOM     27  C   UNL A   1      33.008  17.430  23.671  1.00  0.00     0.078 A 
ATOM     28  F   UNL A   1      33.623  16.647  25.803  1.00  0.00    -0.207 F 
ENDBRANCH  20  21
ENDBRANCH  10  20
ENDBRANCH   6   8
ENDBRANCH   5   6
ENDBRANCH   4   5
ENDBRANCH   3   4
ENDBRANCH   2   3
ENDBRANCH   1   2
BRANCH   1  29
ATOM     29  C   UNL A   1      33.473  30.259  27.206  1.00  0.00     0.261 C 
BRANCH  29  30
ATOM     30  O   UNL A   1      34.426  31.346  27.256  1.00  0.00    -0.460 OA
BRANCH  30  31
ATOM     31  C   UNL A   1      35.127  31.485  28.418  1.00  0.00     0.338 C 
ATOM     32  O   UNL A   1      35.058  32.448  29.162  1.00  0.00    -0.246 OA
BRANCH  31  33
ATOM     33  C   UNL A   1      36.087  30.353  28.573  1.00  0.00     0.060 A 
ATOM     34  C   UNL A   1      36.270  29.719  29.818  1.00  0.00     0.016 A 
ATOM     35  C   UNL A   1      36.994  30.126  27.545  1.00  0.00     0.016 A 
ATOM     36  C   UNL A   1      37.455  29.010  30.081  1.00  0.00     0.010 A 
ATOM     37  C   UNL A   1      38.201  29.546  27.851  1.00  0.00     0.010 A 
ATOM     38  C   UNL A   1      38.466  29.020  29.130  1.00  0.00    -0.014 A 
BRANCH  38  39
ATOM     39  C   UNL A   1      39.872  28.633  29.313  1.00  0.00     0.031 A 
ATOM     40  C   UNL A   1      40.192  27.213  29.047  1.00  0.00     0.074 A 
ATOM     41  C   UNL A   1      40.873  29.554  29.357  1.00  0.00     0.049 A 
ATOM     42  N   UNL A   1      41.371  26.723  29.112  1.00  0.00    -0.248 NA
ATOM     43  C   UNL A   1      39.196  26.205  28.683  1.00  0.00     0.031 C 
ATOM     44  C   UNL A   1      42.268  29.407  28.929  1.00  0.00     0.029 A 
ATOM     45  N   UNL A   1      40.854  30.859  29.859  1.00  0.00    -0.354 N 
ATOM     46  C   UNL A   1      41.362  25.470  28.551  1.00  0.00     0.074 A 
ATOM     47  C   UNL A   1      39.971  25.172  28.340  1.00  0.00     0.031 C 
ATOM     48  C   UNL A   1      43.010  30.409  29.434  1.00  0.00     0.029 A 
ATOM     49  C   UNL A   1      42.148  31.174  30.312  1.00  0.00     0.049 A 
ATOM     50  H   UNL A   1      40.070  31.454  29.890  1.00  0.00     0.167 HD
ATOM     51  C   UNL A   1      42.569  24.905  28.278  1.00  0.00     0.034 A 
ATOM     52  C   UNL A   1      42.355  31.524  31.609  1.00  0.00     0.034 A 
ATOM     53  C   UNL A   1      43.643  25.747  28.820  1.00  0.00     0.049 A 
ATOM     54  C   UNL A   1      43.213  30.443  32.234  1.00  0.00     0.074 A 
ATOM     55  C   UNL A   1      44.549  26.642  28.277  1.00  0.00     0.029 A 
ATOM     56  N   UNL A   1      43.655  25.970  30.192  1.00  0.00    -0.354 N 
ATOM     57  N   UNL A   1      43.342  29.248  31.715  1.00  0.00    -0.248 NA
ATOM     58  C   UNL A   1      44.084  30.638  33.385  1.00  0.00     0.031 C 
ATOM     59  C   UNL A   1      45.072  27.431  29.347  1.00  0.00     0.029 A 
ATOM     60  C   UNL A   1      44.511  26.991  30.537  1.00  0.00     0.049 A 
ATOM     61  H   UNL A   1      43.117  25.459  30.840  1.00  0.00     0.167 HD
ATOM     62  C   UNL A   1      44.328  28.557  32.357  1.00  0.00     0.074 A 
ATOM     63  C   UNL A   1      44.741  29.463  33.418  1.00  0.00     0.031 C 
ATOM     64  C   UNL A   1      44.725  27.311  31.945  1.00  0.00     0.034 A 
BRANCH  51  65
ATOM     65  C   UNL A   1      42.841  23.678  27.441  1.00  0.00     0.023 A 
ATOM     66  C   UNL A   1      44.032  23.650  26.685  1.00  0.00     0.031 A 
ATOM     67  C   UNL A   1      42.019  22.541  27.300  1.00  0.00     0.131 A 
ATOM     68  C   UNL A   1      44.346  22.575  25.836  1.00  0.00     0.055 A 
ATOM     69  C   UNL A   1      42.328  21.472  26.449  1.00  0.00     0.041 A 
ATOM     70  F   UNL A   1      40.887  22.378  27.987  1.00  0.00    -0.206 F 
ATOM     71  C   UNL A   1      43.496  21.484  25.708  1.00  0.00     0.022 A 
BRANCH  68  72
ATOM     72  S   UNL A   1      45.894  22.629  24.896  1.00  0.00     0.124 S 
ATOM     73  O   UNL A   1      45.454  23.144  23.605  1.00  0.00    -0.237 OA
ATOM     74  O   UNL A   1      46.717  23.523  25.704  1.00  0.00    -0.237 OA
ATOM     75  O   UNL A   1      46.332  21.233  24.886  1.00  0.00    -0.744 OA
ENDBRANCH  68  72
ENDBRANCH  51  65
BRANCH  52  76
ATOM     76  C   UNL A   1      41.147  32.253  32.145  1.00  0.00     0.023 A 
ATOM     77  C   UNL A   1      40.223  31.491  32.926  1.00  0.00     0.031 A 
ATOM     78  C   UNL A   1      41.223  33.629  32.410  1.00  0.00     0.131 A 
ATOM     79  C   UNL A   1      39.610  32.061  34.061  1.00  0.00     0.055 A 
ATOM     80  C   UNL A   1      40.562  34.196  33.512  1.00  0.00     0.041 A 
ATOM     81  F   UNL A   1      42.067  34.409  31.721  1.00  0.00    -0.206 F 
ATOM     82  C   UNL A   1      39.810  33.403  34.377  1.00  0.00     0.022 A 
BRANCH  79  83
ATOM     83  S   UNL A   1      38.615  31.049  35.211  1.00  0.00     0.124 S 
ATOM     84  O   UNL A   1      38.585  29.745  34.557  1.00  0.00    -0.237 OA
ATOM     85  O   UNL A   1      39.377  31.134  36.453  1.00  0.00    -0.237 OA
ATOM     86  O   UNL A   1      37.332  31.746  35.242  1.00  0.00    -0.744 OA
ENDBRANCH  79  83
ENDBRANCH  52  76
BRANCH  64  87
ATOM     87  C   UNL A   1      45.385  26.274  32.832  1.00  0.00     0.023 A 
ATOM     88  C   UNL A   1      44.661  25.272  33.479  1.00  0.00     0.031 A 
ATOM     89  C   UNL A   1      46.796  26.178  32.967  1.00  0.00     0.131 A 
ATOM     90  C   UNL A   1      45.292  24.296  34.264  1.00  0.00     0.055 A 
ATOM     91  C   UNL A   1      47.431  25.148  33.668  1.00  0.00     0.041 A 
ATOM     92  F   UNL A   1      47.638  27.054  32.405  1.00  0.00    -0.206 F 
ATOM     93  C   UNL A   1      46.676  24.205  34.340  1.00  0.00     0.022 A 
BRANCH  90  94
ATOM     94  S   UNL A   1      44.229  23.206  35.232  1.00  0.00     0.124 S 
ATOM     95  O   UNL A   1      42.898  23.622  34.796  1.00  0.00    -0.237 OA
ATOM     96  O   UNL A   1      44.651  21.881  34.787  1.00  0.00    -0.237 OA
ATOM     97  O   UNL A   1      44.563  23.536  36.615  1.00  0.00    -0.744 OA
ENDBRANCH  90  94
ENDBRANCH  64  87
ENDBRANCH  38  39
ENDBRANCH  31  33
ENDBRANCH  30  31
ENDBRANCH  29  30
ENDBRANCH   1  29
TORSDOF 20
ENDMDL
MODEL 2
REMARK VINA RESULT:     -12.7      4.117      9.726
REMARK SMILES Cc1cccc(-c2c(C(=O)OCCOCCOC(=O)c3ccc(-c4c5nc(c(-c6cc(S(=O)(=O)[O-])ccc6F)c6ccc([nH]6)c(-c6cc(S(=O)(=O)[O-])ccc6F)c6nc(c(-c7cc(S(=O)(=O)[O-])ccc7F)c7ccc4[nH]7)C=C6)C=C5)cc3)nnn2Cc2cc(F)cc(F)c2)c1
REMARK SMILES IDX 15 1 14 2 13 3 12 4 11 5 9 6 10 7 8 8 7 9 85 10 83 11 84 12
REMARK SMILES IDX 6 13 1 14 2 15 3 16 95 17 4 18 5 19 86 20 87 21 88 22 94 23
REMARK SMILES IDX 89 24 92 25 90 26 91 27 93 28 16 29 17 30 18 31 19 32 20 33
REMARK SMILES IDX 21 34 82 35 22 36 81 37 23 38 24 39 25 40 75 41 26 42 80 43
REMARK SMILES IDX 74 44 76 45 27 46 79 47 73 48 72 49 28 51 60 52 40 53 59 54
REMARK SMILES IDX 41 55 44 56 58 57 77 58 42 59 43 60 57 62 78 63 45 64 29 65
REMARK SMILES IDX 30 66 38 67 31 68 37 69 39 70 36 71 32 72 33 73 34 74 35 75
REMARK SMILES IDX 61 76 62 77 70 78 63 79 69 80 71 81 68 82 64 83 65 84 66 85
REMARK SMILES IDX 67 86 46 87 47 88 55 89 48 90 54 91 56 92 53 93 49 94 50 95
REMARK SMILES IDX 51 96 52 97
REMARK H PARENT 76 50 44 61
REMARK Flexibility Score: inf
ROOT
ATOM      1  C   UNL A   1      37.404  20.870  24.951  1.00  0.00     0.202 C 
ENDROOT
BRANCH   1   2
ATOM      2  O   UNL A   1      36.025  20.558  24.958  1.00  0.00    -0.374 OA
BRANCH   2   3
ATOM      3  C   UNL A   1      35.174  21.591  25.441  1.00  0.00     0.202 C 
BRANCH   3   4
ATOM      4  C   UNL A   1      34.501  22.171  24.239  1.00  0.00     0.261 C 
BRANCH   4   5
ATOM      5  O   UNL A   1      33.577  23.221  24.487  1.00  0.00    -0.458 OA
BRANCH   5   6
ATOM      6  C   UNL A   1      34.082  24.480  24.404  1.00  0.00     0.361 C 
ATOM      7  O   UNL A   1      35.125  24.843  24.918  1.00  0.00    -0.244 OA
BRANCH   6   8
ATOM      8  C   UNL A   1      33.191  25.324  23.626  1.00  0.00     0.198 A 
ATOM      9  C   UNL A   1      32.511  26.467  24.045  1.00  0.00     0.104 A 
ATOM     10  N   UNL A   1      32.033  26.957  22.849  1.00  0.00    -0.239 N 
ATOM     11  N   UNL A   1      32.886  25.063  22.310  1.00  0.00    -0.122 NA
ATOM     12  N   UNL A   1      32.133  26.053  21.858  1.00  0.00    -0.066 NA
BRANCH   9  13
ATOM     13  C   UNL A   1      32.489  27.225  25.304  1.00  0.00     0.003 A 
ATOM     14  C   UNL A   1      34.631  29.742  27.213  1.00  0.00     0.044 C 
ATOM     15  C   UNL A   1      33.560  28.750  26.872  1.00  0.00    -0.050 A 
ATOM     16  C   UNL A   1      32.504  28.556  27.770  1.00  0.00     0.003 A 
ATOM     17  C   UNL A   1      33.543  28.086  25.635  1.00  0.00     0.013 A 
ATOM     18  C   UNL A   1      31.438  27.729  27.439  1.00  0.00     0.001 A 
ATOM     19  C   UNL A   1      31.432  27.069  26.214  1.00  0.00     0.010 A 
ENDBRANCH   9  13
BRANCH  10  20
ATOM     20  C   UNL A   1      31.681  28.332  22.526  1.00  0.00     0.182 C 
BRANCH  20  21
ATOM     21  C   UNL A   1      30.186  28.594  22.534  1.00  0.00    -0.021 A 
ATOM     22  C   UNL A   1      29.357  27.733  23.267  1.00  0.00     0.045 A 
ATOM     23  C   UNL A   1      29.586  29.687  21.881  1.00  0.00     0.045 A 
ATOM     24  C   UNL A   1      28.002  28.023  23.417  1.00  0.00     0.126 A 
ATOM     25  C   UNL A   1      28.243  29.989  22.097  1.00  0.00     0.126 A 
ATOM     26  F   UNL A   1      27.232  27.186  24.125  1.00  0.00    -0.207 F 
ATOM     27  C   UNL A   1      27.442  29.165  22.867  1.00  0.00     0.078 A 
ATOM     28  F   UNL A   1      27.734  31.117  21.585  1.00  0.00    -0.207 F 
ENDBRANCH  20  21
ENDBRANCH  10  20
ENDBRANCH   6   8
ENDBRANCH   5   6
ENDBRANCH   4   5
ENDBRANCH   3   4
ENDBRANCH   2   3
ENDBRANCH   1   2
BRANCH   1  29
ATOM     29  C   UNL A   1      37.765  22.102  25.799  1.00  0.00     0.261 C 
BRANCH  29  30
ATOM     30  O   UNL A   1      39.172  22.405  25.661  1.00  0.00    -0.460 OA
BRANCH  30  31
ATOM     31  C   UNL A   1      39.822  22.796  26.795  1.00  0.00     0.338 C 
ATOM     32  O   UNL A   1      40.347  22.039  27.593  1.00  0.00    -0.246 OA
BRANCH  31  33
ATOM     33  C   UNL A   1      39.677  24.269  26.982  1.00  0.00     0.060 A 
ATOM     34  C   UNL A   1      40.482  25.177  26.266  1.00  0.00     0.016 A 
ATOM     35  C   UNL A   1      38.940  24.715  28.073  1.00  0.00     0.016 A 
ATOM     36  C   UNL A   1      40.685  26.479  26.755  1.00  0.00     0.010 A 
ATOM     37  C   UNL A   1      39.245  25.941  28.614  1.00  0.00     0.010 A 
ATOM     38  C   UNL A   1      40.151  26.820  27.990  1.00  0.00    -0.014 A 
BRANCH  38  39
ATOM     39  C   UNL A   1      40.494  27.980  28.824  1.00  0.00     0.031 A 
ATOM     40  C   UNL A   1      39.521  29.095  28.815  1.00  0.00     0.074 A 
ATOM     41  C   UNL A   1      41.426  27.905  29.814  1.00  0.00     0.049 A 
ATOM     42  N   UNL A   1      39.643  30.155  29.519  1.00  0.00    -0.248 NA
ATOM     43  C   UNL A   1      38.310  29.115  27.994  1.00  0.00     0.031 C 
ATOM     44  C   UNL A   1      41.481  28.656  31.073  1.00  0.00     0.029 A 
ATOM     45  N   UNL A   1      42.592  27.137  29.877  1.00  0.00    -0.354 N 
ATOM     46  C   UNL A   1      38.458  30.847  29.486  1.00  0.00     0.074 A 
ATOM     47  C   UNL A   1      37.672  30.182  28.482  1.00  0.00     0.031 C 
ATOM     48  C   UNL A   1      42.706  28.547  31.618  1.00  0.00     0.029 A 
ATOM     49  C   UNL A   1      43.529  27.824  30.669  1.00  0.00     0.049 A 
ATOM     50  H   UNL A   1      42.732  26.265  29.441  1.00  0.00     0.167 HD
ATOM     51  C   UNL A   1      38.302  31.851  30.392  1.00  0.00     0.034 A 
ATOM     52  C   UNL A   1      44.736  28.177  30.153  1.00  0.00     0.034 A 
ATOM     53  C   UNL A   1      39.561  32.063  31.117  1.00  0.00     0.049 A 
ATOM     54  C   UNL A   1      44.782  29.691  30.114  1.00  0.00     0.074 A 
ATOM     55  C   UNL A   1      40.027  31.731  32.378  1.00  0.00     0.029 A 
ATOM     56  N   UNL A   1      40.678  32.424  30.373  1.00  0.00    -0.354 N 
ATOM     57  N   UNL A   1      43.708  30.437  30.175  1.00  0.00    -0.248 NA
ATOM     58  C   UNL A   1      46.003  30.484  30.138  1.00  0.00     0.031 C 
ATOM     59  C   UNL A   1      41.450  31.863  32.361  1.00  0.00     0.029 A 
ATOM     60  C   UNL A   1      41.838  32.306  31.104  1.00  0.00     0.049 A 
ATOM     61  H   UNL A   1      40.645  32.728  29.437  1.00  0.00     0.167 HD
ATOM     62  C   UNL A   1      44.051  31.748  30.335  1.00  0.00     0.074 A 
ATOM     63  C   UNL A   1      45.504  31.728  30.273  1.00  0.00     0.031 C 
ATOM     64  C   UNL A   1      43.108  32.726  30.520  1.00  0.00     0.034 A 
BRANCH  51  65
ATOM     65  C   UNL A   1      37.028  32.583  30.741  1.00  0.00     0.023 A 
ATOM     66  C   UNL A   1      36.252  33.093  29.679  1.00  0.00     0.031 A 
ATOM     67  C   UNL A   1      36.521  32.846  32.030  1.00  0.00     0.131 A 
ATOM     68  C   UNL A   1      35.079  33.834  29.907  1.00  0.00     0.055 A 
ATOM     69  C   UNL A   1      35.356  33.591  32.258  1.00  0.00     0.041 A 
ATOM     70  F   UNL A   1      37.098  32.387  33.142  1.00  0.00    -0.206 F 
ATOM     71  C   UNL A   1      34.627  34.092  31.195  1.00  0.00     0.022 A 
BRANCH  68  72
ATOM     72  S   UNL A   1      34.151  34.457  28.482  1.00  0.00     0.124 S 
ATOM     73  O   UNL A   1      32.770  34.331  28.934  1.00  0.00    -0.237 OA
ATOM     74  O   UNL A   1      34.666  35.815  28.345  1.00  0.00    -0.237 OA
ATOM     75  O   UNL A   1      34.533  33.544  27.404  1.00  0.00    -0.744 OA
ENDBRANCH  68  72
ENDBRANCH  51  65
BRANCH  52  76
ATOM     76  C   UNL A   1      45.182  27.154  29.137  1.00  0.00     0.023 A 
ATOM     77  C   UNL A   1      44.988  27.480  27.759  1.00  0.00     0.031 A 
ATOM     78  C   UNL A   1      46.235  26.279  29.443  1.00  0.00     0.131 A 
ATOM     79  C   UNL A   1      45.962  27.132  26.800  1.00  0.00     0.055 A 
ATOM     80  C   UNL A   1      47.168  25.894  28.467  1.00  0.00     0.041 A 
ATOM     81  F   UNL A   1      46.481  25.928  30.714  1.00  0.00    -0.206 F 
ATOM     82  C   UNL A   1      47.072  26.371  27.161  1.00  0.00     0.022 A 
BRANCH  79  83
ATOM     83  S   UNL A   1      45.862  27.738  25.081  1.00  0.00     0.124 S 
ATOM     84  O   UNL A   1      44.424  27.795  24.837  1.00  0.00    -0.237 OA
ATOM     85  O   UNL A   1      46.557  29.019  25.153  1.00  0.00    -0.237 OA
ATOM     86  O   UNL A   1      46.570  26.710  24.323  1.00  0.00    -0.744 OA
ENDBRANCH  79  83
ENDBRANCH  52  76
BRANCH  64  87
ATOM     87  C   UNL A   1      43.304  34.193  30.188  1.00  0.00     0.023 A 
ATOM     88  C   UNL A   1      43.044  34.714  28.920  1.00  0.00     0.031 A 
ATOM     89  C   UNL A   1      43.646  35.155  31.175  1.00  0.00     0.131 A 
ATOM     90  C   UNL A   1      43.192  36.081  28.642  1.00  0.00     0.055 A 
ATOM     91  C   UNL A   1      43.696  36.529  30.922  1.00  0.00     0.041 A 
ATOM     92  F   UNL A   1      43.920  34.824  32.444  1.00  0.00    -0.206 F 
ATOM     93  C   UNL A   1      43.486  37.001  29.640  1.00  0.00     0.022 A 
BRANCH  90  94
ATOM     94  S   UNL A   1      43.055  36.588  26.915  1.00  0.00     0.124 S 
ATOM     95  O   UNL A   1      41.953  37.545  26.971  1.00  0.00    -0.237 OA
ATOM     96  O   UNL A   1      44.372  37.161  26.652  1.00  0.00    -0.237 OA
ATOM     97  O   UNL A   1      42.763  35.342  26.212  1.00  0.00    -0.744 OA
ENDBRANCH  90  94
ENDBRANCH  64  87
ENDBRANCH  38  39
ENDBRANCH  31  33
ENDBRANCH  30  31
ENDBRANCH  29  30
ENDBRANCH   1  29
TORSDOF 20
ENDMDL
MODEL 3
REMARK VINA RESULT:     -12.7      1.595      2.104
REMARK SMILES Cc1cccc(-c2c(C(=O)OCCOCCOC(=O)c3ccc(-c4c5nc(c(-c6cc(S(=O)(=O)[O-])ccc6F)c6ccc([nH]6)c(-c6cc(S(=O)(=O)[O-])ccc6F)c6nc(c(-c7cc(S(=O)(=O)[O-])ccc7F)c7ccc4[nH]7)C=C6)C=C5)cc3)nnn2Cc2cc(F)cc(F)c2)c1
REMARK SMILES IDX 15 1 14 2 13 3 12 4 11 5 9 6 10 7 8 8 7 9 85 10 83 11 84 12
REMARK SMILES IDX 6 13 1 14 2 15 3 16 95 17 4 18 5 19 86 20 87 21 88 22 94 23
REMARK SMILES IDX 89 24 92 25 90 26 91 27 93 28 16 29 17 30 18 31 19 32 20 33
REMARK SMILES IDX 21 34 82 35 22 36 81 37 23 38 24 39 25 40 75 41 26 42 80 43
REMARK SMILES IDX 74 44 76 45 27 46 79 47 73 48 72 49 28 51 60 52 40 53 59 54
REMARK SMILES IDX 41 55 44 56 58 57 77 58 42 59 43 60 57 62 78 63 45 64 29 65
REMARK SMILES IDX 30 66 38 67 31 68 37 69 39 70 36 71 32 72 33 73 34 74 35 75
REMARK SMILES IDX 61 76 62 77 70 78 63 79 69 80 71 81 68 82 64 83 65 84 66 85
REMARK SMILES IDX 67 86 46 87 47 88 55 89 48 90 54 91 56 92 53 93 49 94 50 95
REMARK SMILES IDX 51 96 52 97
REMARK H PARENT 76 50 44 61
REMARK Flexibility Score: inf
ROOT
ATOM      1  C   UNL A   1      32.299  30.313  26.520  1.00  0.00     0.202 C 
ENDROOT
BRANCH   1   2
ATOM      2  O   UNL A   1      31.528  29.553  27.430  1.00  0.00    -0.374 OA
BRANCH   2   3
ATOM      3  C   UNL A   1      31.857  28.169  27.492  1.00  0.00     0.202 C 
BRANCH   3   4
ATOM      4  C   UNL A   1      31.897  27.687  26.077  1.00  0.00     0.261 C 
BRANCH   4   5
ATOM      5  O   UNL A   1      31.420  26.369  25.854  1.00  0.00    -0.458 OA
BRANCH   5   6
ATOM      6  C   UNL A   1      32.096  25.650  24.919  1.00  0.00     0.361 C 
ATOM      7  O   UNL A   1      32.752  26.134  24.015  1.00  0.00    -0.244 OA
BRANCH   6   8
ATOM      8  C   UNL A   1      31.908  24.229  25.152  1.00  0.00     0.198 A 
ATOM      9  C   UNL A   1      32.839  23.203  24.986  1.00  0.00     0.104 A 
ATOM     10  N   UNL A   1      32.185  22.141  25.572  1.00  0.00    -0.239 N 
ATOM     11  N   UNL A   1      30.710  23.699  25.573  1.00  0.00    -0.122 NA
ATOM     12  N   UNL A   1      30.883  22.404  25.783  1.00  0.00    -0.066 NA
BRANCH   9  13
ATOM     13  C   UNL A   1      34.258  23.178  24.608  1.00  0.00     0.003 A 
ATOM     14  C   UNL A   1      37.690  23.746  26.181  1.00  0.00     0.044 C 
ATOM     15  C   UNL A   1      36.602  23.523  25.174  1.00  0.00    -0.050 A 
ATOM     16  C   UNL A   1      36.952  23.267  23.842  1.00  0.00     0.003 A 
ATOM     17  C   UNL A   1      35.252  23.469  25.552  1.00  0.00     0.013 A 
ATOM     18  C   UNL A   1      35.979  22.947  22.905  1.00  0.00     0.001 A 
ATOM     19  C   UNL A   1      34.642  22.903  23.287  1.00  0.00     0.010 A 
ENDBRANCH   9  13
BRANCH  10  20
ATOM     20  C   UNL A   1      32.773  20.946  26.159  1.00  0.00     0.182 C 
BRANCH  20  21
ATOM     21  C   UNL A   1      32.772  19.748  25.227  1.00  0.00    -0.021 A 
ATOM     22  C   UNL A   1      32.803  18.463  25.786  1.00  0.00     0.045 A 
ATOM     23  C   UNL A   1      32.695  19.854  23.825  1.00  0.00     0.045 A 
ATOM     24  C   UNL A   1      32.658  17.340  24.972  1.00  0.00     0.126 A 
ATOM     25  C   UNL A   1      32.490  18.721  23.041  1.00  0.00     0.126 A 
ATOM     26  F   UNL A   1      32.687  16.123  25.531  1.00  0.00    -0.207 F 
ATOM     27  C   UNL A   1      32.466  17.458  23.605  1.00  0.00     0.078 A 
ATOM     28  F   UNL A   1      32.271  18.864  21.728  1.00  0.00    -0.207 F 
ENDBRANCH  20  21
ENDBRANCH  10  20
ENDBRANCH   6   8
ENDBRANCH   5   6
ENDBRANCH   4   5
ENDBRANCH   3   4
ENDBRANCH   2   3
ENDBRANCH   1   2
BRANCH   1  29
ATOM     29  C   UNL A   1      33.051  31.485  27.173  1.00  0.00     0.261 C 
BRANCH  29  30
ATOM     30  O   UNL A   1      34.006  30.986  28.138  1.00  0.00    -0.460 OA
BRANCH  30  31
ATOM     31  C   UNL A   1      35.289  31.428  28.005  1.00  0.00     0.338 C 
ATOM     32  O   UNL A   1      35.608  32.538  27.616  1.00  0.00    -0.246 OA
BRANCH  31  33
ATOM     33  C   UNL A   1      36.242  30.310  28.272  1.00  0.00     0.060 A 
ATOM     34  C   UNL A   1      36.413  29.795  29.572  1.00  0.00     0.016 A 
ATOM     35  C   UNL A   1      37.155  29.984  27.276  1.00  0.00     0.016 A 
ATOM     36  C   UNL A   1      37.593  29.109  29.909  1.00  0.00     0.010 A 
ATOM     37  C   UNL A   1      38.357  29.429  27.644  1.00  0.00     0.010 A 
ATOM     38  C   UNL A   1      38.610  29.025  28.969  1.00  0.00    -0.014 A 
BRANCH  38  39
ATOM     39  C   UNL A   1      40.013  28.650  29.198  1.00  0.00     0.031 A 
ATOM     40  C   UNL A   1      40.371  27.251  28.871  1.00  0.00     0.074 A 
ATOM     41  C   UNL A   1      40.994  29.583  29.340  1.00  0.00     0.049 A 
ATOM     42  N   UNL A   1      41.554  26.777  28.966  1.00  0.00    -0.248 NA
ATOM     43  C   UNL A   1      39.412  26.250  28.405  1.00  0.00     0.031 C 
ATOM     44  C   UNL A   1      42.410  29.480  28.973  1.00  0.00     0.029 A 
ATOM     45  N   UNL A   1      40.928  30.857  29.911  1.00  0.00    -0.354 N 
ATOM     46  C   UNL A   1      41.594  25.557  28.338  1.00  0.00     0.074 A 
ATOM     47  C   UNL A   1      40.220  25.250  28.045  1.00  0.00     0.031 C 
ATOM     48  C   UNL A   1      43.110  30.464  29.566  1.00  0.00     0.029 A 
ATOM     49  C   UNL A   1      42.193  31.167  30.441  1.00  0.00     0.049 A 
ATOM     50  H   UNL A   1      40.133  31.438  29.937  1.00  0.00     0.167 HD
ATOM     51  C   UNL A   1      42.823  25.027  28.093  1.00  0.00     0.034 A 
ATOM     52  C   UNL A   1      42.333  31.448  31.764  1.00  0.00     0.034 A 
ATOM     53  C   UNL A   1      43.855  25.854  28.731  1.00  0.00     0.049 A 
ATOM     54  C   UNL A   1      43.180  30.348  32.370  1.00  0.00     0.074 A 
ATOM     55  C   UNL A   1      44.769  26.791  28.281  1.00  0.00     0.029 A 
ATOM     56  N   UNL A   1      43.798  26.001  30.112  1.00  0.00    -0.354 N 
ATOM     57  N   UNL A   1      43.355  29.185  31.794  1.00  0.00    -0.248 NA
ATOM     58  C   UNL A   1      43.992  30.493  33.570  1.00  0.00     0.031 C 
ATOM     59  C   UNL A   1      45.227  27.528  29.416  1.00  0.00     0.029 A 
ATOM     60  C   UNL A   1      44.618  27.015  30.552  1.00  0.00     0.049 A 
ATOM     61  H   UNL A   1      43.239  25.447  30.705  1.00  0.00     0.167 HD
ATOM     62  C   UNL A   1      44.322  28.475  32.444  1.00  0.00     0.074 A 
ATOM     63  C   UNL A   1      44.668  29.327  33.571  1.00  0.00     0.031 C 
ATOM     64  C   UNL A   1      44.760  27.261  31.984  1.00  0.00     0.034 A 
BRANCH  51  65
ATOM     65  C   UNL A   1      43.156  23.852  27.205  1.00  0.00     0.023 A 
ATOM     66  C   UNL A   1      42.386  22.679  27.351  1.00  0.00     0.031 A 
ATOM     67  C   UNL A   1      44.182  23.774  26.242  1.00  0.00     0.131 A 
ATOM     68  C   UNL A   1      42.655  21.517  26.606  1.00  0.00     0.055 A 
ATOM     69  C   UNL A   1      44.456  22.615  25.504  1.00  0.00     0.041 A 
ATOM     70  F   UNL A   1      44.966  24.809  25.935  1.00  0.00    -0.206 F 
ATOM     71  C   UNL A   1      43.693  21.476  25.684  1.00  0.00     0.022 A 
BRANCH  68  72
ATOM     72  S   UNL A   1      41.618  20.055  26.867  1.00  0.00     0.124 S 
ATOM     73  O   UNL A   1      40.388  20.637  27.391  1.00  0.00    -0.237 OA
ATOM     74  O   UNL A   1      41.545  19.482  25.527  1.00  0.00    -0.237 OA
ATOM     75  O   UNL A   1      42.386  19.265  27.831  1.00  0.00    -0.744 OA
ENDBRANCH  68  72
ENDBRANCH  51  65
BRANCH  52  76
ATOM     76  C   UNL A   1      41.088  32.128  32.281  1.00  0.00     0.023 A 
ATOM     77  C   UNL A   1      40.233  31.359  33.130  1.00  0.00     0.031 A 
ATOM     78  C   UNL A   1      41.074  33.520  32.454  1.00  0.00     0.131 A 
ATOM     79  C   UNL A   1      39.604  31.959  34.240  1.00  0.00     0.055 A 
ATOM     80  C   UNL A   1      40.397  34.112  33.533  1.00  0.00     0.041 A 
ATOM     81  F   UNL A   1      41.850  34.309  31.697  1.00  0.00    -0.206 F 
ATOM     82  C   UNL A   1      39.717  33.329  34.464  1.00  0.00     0.022 A 
BRANCH  79  83
ATOM     83  S   UNL A   1      38.703  30.960  35.475  1.00  0.00     0.124 S 
ATOM     84  O   UNL A   1      37.608  31.840  35.871  1.00  0.00    -0.237 OA
ATOM     85  O   UNL A   1      38.335  29.769  34.717  1.00  0.00    -0.237 OA
ATOM     86  O   UNL A   1      39.706  30.729  36.512  1.00  0.00    -0.744 OA
ENDBRANCH  79  83
ENDBRANCH  52  76
BRANCH  64  87
ATOM     87  C   UNL A   1      45.396  26.187  32.845  1.00  0.00     0.023 A 
ATOM     88  C   UNL A   1      44.644  25.215  33.506  1.00  0.00     0.031 A 
ATOM     89  C   UNL A   1      46.804  26.023  32.937  1.00  0.00     0.131 A 
ATOM     90  C   UNL A   1      45.252  24.204  34.266  1.00  0.00     0.055 A 
ATOM     91  C   UNL A   1      47.410  24.958  33.611  1.00  0.00     0.041 A 
ATOM     92  F   UNL A   1      47.670  26.863  32.356  1.00  0.00    -0.206 F 
ATOM     93  C   UNL A   1      46.632  24.047  34.300  1.00  0.00     0.022 A 
BRANCH  90  94
ATOM     94  S   UNL A   1      44.167  23.157  35.258  1.00  0.00     0.124 S 
ATOM     95  O   UNL A   1      44.268  21.877  34.561  1.00  0.00    -0.237 OA
ATOM     96  O   UNL A   1      44.800  23.208  36.573  1.00  0.00    -0.237 OA
ATOM     97  O   UNL A   1      42.869  23.818  35.163  1.00  0.00    -0.744 OA
ENDBRANCH  90  94
ENDBRANCH  64  87
ENDBRANCH  38  39
ENDBRANCH  31  33
ENDBRANCH  30  31
ENDBRANCH  29  30
ENDBRANCH   1  29
TORSDOF 20
ENDMDL
