MODEL 1
REMARK VINA RESULT:     -11.1      0.000      0.000
REMARK SMILES Cc1ccc(C)n1-c1ccccc1S[C@H](C)C(=O)OCCOCCOC(=O)c1ccc(-c2c3nc(c(-c4cc(S(=O)(=O)[O-])ccc4F)c4ccc([nH]4)c(-c4cc(S(=O)(=O)[O-])ccc4F)c4nc(c(-c5cc(S(=O)(=O)[O-])ccc5F)c5ccc2[nH]5)C=C4)C=C3)cc1
REMARK SMILES IDX 22 1 21 2 20 3 19 4 17 5 18 6 15 7 16 8 14 9 13 10 8 11 9 12
REMARK SMILES IDX 10 13 12 14 11 15 7 16 1 17 2 18 3 19 4 20 5 21 6 22 23 23
REMARK SMILES IDX 24 24 25 25 26 26 27 27 28 28 29 29 90 30 30 31 89 32 31 33
REMARK SMILES IDX 32 34 33 35 83 36 34 37 88 38 82 39 84 40 35 41 87 42 81 43
REMARK SMILES IDX 80 44 36 46 68 47 48 48 67 49 49 50 52 51 66 52 85 53 50 54
REMARK SMILES IDX 51 55 65 57 86 58 53 59 37 60 38 61 46 62 39 63 45 64 47 65
REMARK SMILES IDX 44 66 40 67 41 68 42 69 43 70 69 71 70 72 78 73 71 74 77 75
REMARK SMILES IDX 79 76 76 77 72 78 73 79 74 80 75 81 54 82 55 83 63 84 56 85
REMARK SMILES IDX 62 86 64 87 61 88 57 89 58 90 59 91 60 92
REMARK H PARENT 84 45 52 56
REMARK Flexibility Score: inf
ROOT
ATOM      1  O   UNL A   1      33.571  34.227  28.874  1.00  0.00    -0.374 OA
ENDROOT
BRANCH   1   2
ATOM      2  C   UNL A   1      33.251  33.576  27.647  1.00  0.00     0.202 C 
BRANCH   2   3
ATOM      3  C   UNL A   1      32.888  32.089  27.768  1.00  0.00     0.261 C 
BRANCH   3   4
ATOM      4  O   UNL A   1      33.748  31.259  26.975  1.00  0.00    -0.462 OA
BRANCH   4   5
ATOM      5  C   UNL A   1      33.161  30.176  26.393  1.00  0.00     0.319 C 
ATOM      6  O   UNL A   1      32.019  30.145  25.945  1.00  0.00    -0.251 OA
BRANCH   5   7
ATOM      7  C   UNL A   1      34.068  28.957  26.422  1.00  0.00     0.158 C 
ATOM      8  C   UNL A   1      35.269  29.008  27.354  1.00  0.00     0.032 C 
BRANCH   7   9
ATOM      9  S   UNL A   1      32.995  27.480  26.443  1.00  0.00    -0.109 SA
BRANCH   9  10
ATOM     10  C   UNL A   1      33.601  26.238  25.303  1.00  0.00     0.032 A 
ATOM     11  C   UNL A   1      33.168  26.274  23.954  1.00  0.00     0.059 A 
ATOM     12  C   UNL A   1      33.586  25.309  23.019  1.00  0.00     0.028 A 
ATOM     13  C   UNL A   1      34.432  24.279  23.414  1.00  0.00     0.002 A 
ATOM     14  C   UNL A   1      34.398  25.149  25.675  1.00  0.00     0.017 A 
ATOM     15  C   UNL A   1      34.825  24.191  24.744  1.00  0.00     0.001 A 
BRANCH  11  16
ATOM     16  N   UNL A   1      32.109  27.141  23.557  1.00  0.00    -0.317 N 
ATOM     17  C   UNL A   1      30.122  25.654  24.158  1.00  0.00     0.065 C 
ATOM     18  C   UNL A   1      30.745  26.866  23.552  1.00  0.00     0.020 A 
ATOM     19  C   UNL A   1      30.110  27.882  22.864  1.00  0.00     0.023 A 
ATOM     20  C   UNL A   1      31.082  28.831  22.497  1.00  0.00     0.023 A 
ATOM     21  C   UNL A   1      32.308  28.378  22.945  1.00  0.00     0.020 A 
ATOM     22  C   UNL A   1      33.642  29.012  22.726  1.00  0.00     0.065 C 
ENDBRANCH  11  16
ENDBRANCH   9  10
ENDBRANCH   7   9
ENDBRANCH   5   7
ENDBRANCH   4   5
ENDBRANCH   3   4
ENDBRANCH   2   3
ENDBRANCH   1   2
BRANCH   1  23
ATOM     23  C   UNL A   1      34.796  33.831  29.511  1.00  0.00     0.202 C 
BRANCH  23  24
ATOM     24  C   UNL A   1      34.702  33.111  30.889  1.00  0.00     0.261 C 
BRANCH  24  25
ATOM     25  O   UNL A   1      35.829  32.244  31.326  1.00  0.00    -0.460 OA
BRANCH  25  26
ATOM     26  C   UNL A   1      37.102  32.742  31.112  1.00  0.00     0.338 C 
ATOM     27  O   UNL A   1      37.472  33.792  31.623  1.00  0.00    -0.246 OA
BRANCH  26  28
ATOM     28  C   UNL A   1      38.093  31.905  30.263  1.00  0.00     0.060 A 
ATOM     29  C   UNL A   1      37.669  30.682  29.747  1.00  0.00     0.016 A 
ATOM     30  C   UNL A   1      39.494  32.085  30.210  1.00  0.00     0.016 A 
ATOM     31  C   UNL A   1      38.592  29.725  29.167  1.00  0.00     0.010 A 
ATOM     32  C   UNL A   1      40.443  31.067  29.678  1.00  0.00     0.010 A 
ATOM     33  C   UNL A   1      40.034  29.832  29.133  1.00  0.00    -0.014 A 
BRANCH  33  34
ATOM     34  C   UNL A   1      40.896  28.412  28.989  1.00  0.00     0.031 A 
ATOM     35  C   UNL A   1      41.871  28.549  30.115  1.00  0.00     0.074 A 
ATOM     36  C   UNL A   1      41.105  27.250  28.209  1.00  0.00     0.049 A 
ATOM     37  N   UNL A   1      42.636  29.605  30.202  1.00  0.00    -0.248 NA
ATOM     38  C   UNL A   1      41.752  27.785  31.359  1.00  0.00     0.031 C 
ATOM     39  C   UNL A   1      40.475  26.895  26.923  1.00  0.00     0.029 A 
ATOM     40  N   UNL A   1      41.947  26.071  28.366  1.00  0.00    -0.354 N 
ATOM     41  C   UNL A   1      43.361  29.451  31.355  1.00  0.00     0.074 A 
ATOM     42  C   UNL A   1      42.591  28.486  32.130  1.00  0.00     0.031 C 
ATOM     43  C   UNL A   1      40.798  25.628  26.509  1.00  0.00     0.029 A 
ATOM     44  C   UNL A   1      41.740  24.970  27.421  1.00  0.00     0.049 A 
ATOM     45  H   UNL A   1      42.625  26.015  29.077  1.00  0.00     0.167 HD
ATOM     46  C   UNL A   1      44.719  29.503  31.213  1.00  0.00     0.034 A 
ATOM     47  C   UNL A   1      42.305  23.682  27.307  1.00  0.00     0.034 A 
ATOM     48  C   UNL A   1      45.309  28.190  31.197  1.00  0.00     0.049 A 
ATOM     49  C   UNL A   1      43.621  23.729  27.943  1.00  0.00     0.074 A 
ATOM     50  C   UNL A   1      45.129  27.065  31.973  1.00  0.00     0.029 A 
ATOM     51  N   UNL A   1      45.870  27.769  30.008  1.00  0.00    -0.354 N 
ATOM     52  N   UNL A   1      44.644  24.255  27.350  1.00  0.00    -0.248 NA
ATOM     53  C   UNL A   1      43.886  23.105  29.234  1.00  0.00     0.031 C 
ATOM     54  C   UNL A   1      45.110  25.995  31.055  1.00  0.00     0.029 A 
ATOM     55  C   UNL A   1      45.652  26.418  29.847  1.00  0.00     0.049 A 
ATOM     56  H   UNL A   1      46.352  28.345  29.373  1.00  0.00     0.167 HD
ATOM     57  C   UNL A   1      45.472  24.531  28.392  1.00  0.00     0.074 A 
ATOM     58  C   UNL A   1      45.123  23.569  29.422  1.00  0.00     0.031 C 
ATOM     59  C   UNL A   1      45.827  25.833  28.531  1.00  0.00     0.034 A 
BRANCH  46  60
ATOM     60  C   UNL A   1      45.222  30.651  30.384  1.00  0.00     0.023 A 
ATOM     61  C   UNL A   1      44.756  30.793  29.073  1.00  0.00     0.031 A 
ATOM     62  C   UNL A   1      46.213  31.551  30.833  1.00  0.00     0.131 A 
ATOM     63  C   UNL A   1      45.329  31.763  28.232  1.00  0.00     0.055 A 
ATOM     64  C   UNL A   1      46.817  32.473  29.981  1.00  0.00     0.041 A 
ATOM     65  F   UNL A   1      46.602  31.558  32.119  1.00  0.00    -0.206 F 
ATOM     66  C   UNL A   1      46.381  32.574  28.666  1.00  0.00     0.022 A 
BRANCH  63  67
ATOM     67  S   UNL A   1      44.655  31.958  26.562  1.00  0.00     0.124 S 
ATOM     68  O   UNL A   1      44.196  33.341  26.565  1.00  0.00    -0.237 OA
ATOM     69  O   UNL A   1      45.814  31.676  25.724  1.00  0.00    -0.237 OA
ATOM     70  O   UNL A   1      43.590  30.951  26.498  1.00  0.00    -0.744 OA
ENDBRANCH  63  67
ENDBRANCH  46  60
BRANCH  47  71
ATOM     71  C   UNL A   1      42.168  22.250  26.641  1.00  0.00     0.023 A 
ATOM     72  C   UNL A   1      43.220  21.644  25.819  1.00  0.00     0.031 A 
ATOM     73  C   UNL A   1      41.248  21.321  27.142  1.00  0.00     0.131 A 
ATOM     74  C   UNL A   1      43.323  20.233  25.590  1.00  0.00     0.055 A 
ATOM     75  C   UNL A   1      41.351  19.924  26.903  1.00  0.00     0.041 A 
ATOM     76  F   UNL A   1      40.277  21.721  27.976  1.00  0.00    -0.206 F 
ATOM     77  C   UNL A   1      42.388  19.375  26.150  1.00  0.00     0.022 A 
BRANCH  74  78
ATOM     78  S   UNL A   1      44.764  19.442  24.724  1.00  0.00     0.124 S 
ATOM     79  O   UNL A   1      44.461  19.658  23.314  1.00  0.00    -0.237 OA
ATOM     80  O   UNL A   1      45.910  20.164  25.267  1.00  0.00    -0.237 OA
ATOM     81  O   UNL A   1      44.693  18.039  25.146  1.00  0.00    -0.744 OA
ENDBRANCH  74  78
ENDBRANCH  47  71
BRANCH  59  82
ATOM     82  C   UNL A   1      46.189  26.596  27.258  1.00  0.00     0.023 A 
ATOM     83  C   UNL A   1      47.428  26.548  26.560  1.00  0.00     0.031 A 
ATOM     84  C   UNL A   1      45.235  27.499  26.765  1.00  0.00     0.131 A 
ATOM     85  C   UNL A   1      47.678  27.394  25.460  1.00  0.00     0.055 A 
ATOM     86  C   UNL A   1      45.465  28.307  25.649  1.00  0.00     0.041 A 
ATOM     87  F   UNL A   1      44.043  27.619  27.373  1.00  0.00    -0.206 F 
ATOM     88  C   UNL A   1      46.694  28.269  25.001  1.00  0.00     0.022 A 
BRANCH  85  89
ATOM     89  S   UNL A   1      49.321  27.428  24.659  1.00  0.00     0.124 S 
ATOM     90  O   UNL A   1      49.864  26.105  24.941  1.00  0.00    -0.237 OA
ATOM     91  O   UNL A   1      48.990  27.695  23.262  1.00  0.00    -0.237 OA
ATOM     92  O   UNL A   1      50.010  28.525  25.342  1.00  0.00    -0.744 OA
ENDBRANCH  85  89
ENDBRANCH  59  82
ENDBRANCH  33  34
ENDBRANCH  26  28
ENDBRANCH  25  26
ENDBRANCH  24  25
ENDBRANCH  23  24
ENDBRANCH   1  23
TORSDOF 20
ENDMDL
MODEL 2
REMARK VINA RESULT:     -11.1      1.739      3.006
REMARK SMILES Cc1ccc(C)n1-c1ccccc1S[C@H](C)C(=O)OCCOCCOC(=O)c1ccc(-c2c3nc(c(-c4cc(S(=O)(=O)[O-])ccc4F)c4ccc([nH]4)c(-c4cc(S(=O)(=O)[O-])ccc4F)c4nc(c(-c5cc(S(=O)(=O)[O-])ccc5F)c5ccc2[nH]5)C=C4)C=C3)cc1
REMARK SMILES IDX 22 1 21 2 20 3 19 4 17 5 18 6 15 7 16 8 14 9 13 10 8 11 9 12
REMARK SMILES IDX 10 13 12 14 11 15 7 16 1 17 2 18 3 19 4 20 5 21 6 22 23 23
REMARK SMILES IDX 24 24 25 25 26 26 27 27 28 28 29 29 90 30 30 31 89 32 31 33
REMARK SMILES IDX 32 34 33 35 83 36 34 37 88 38 82 39 84 40 35 41 87 42 81 43
REMARK SMILES IDX 80 44 36 46 68 47 48 48 67 49 49 50 52 51 66 52 85 53 50 54
REMARK SMILES IDX 51 55 65 57 86 58 53 59 37 60 38 61 46 62 39 63 45 64 47 65
REMARK SMILES IDX 44 66 40 67 41 68 42 69 43 70 69 71 70 72 78 73 71 74 77 75
REMARK SMILES IDX 79 76 76 77 72 78 73 79 74 80 75 81 54 82 55 83 63 84 56 85
REMARK SMILES IDX 62 86 64 87 61 88 57 89 58 90 59 91 60 92
REMARK H PARENT 84 45 52 56
REMARK Flexibility Score: inf
ROOT
ATOM      1  O   UNL A   1      31.528  29.420  25.394  1.00  0.00    -0.374 OA
ENDROOT
BRANCH   1   2
ATOM      2  C   UNL A   1      31.082  29.227  24.054  1.00  0.00     0.202 C 
BRANCH   2   3
ATOM      3  C   UNL A   1      30.575  27.815  23.726  1.00  0.00     0.261 C 
BRANCH   3   4
ATOM      4  O   UNL A   1      31.627  26.842  23.778  1.00  0.00    -0.462 OA
BRANCH   4   5
ATOM      5  C   UNL A   1      31.485  25.859  24.710  1.00  0.00     0.319 C 
ATOM      6  O   UNL A   1      30.518  25.110  24.808  1.00  0.00    -0.251 OA
BRANCH   5   7
ATOM      7  C   UNL A   1      32.649  25.834  25.687  1.00  0.00     0.158 C 
ATOM      8  C   UNL A   1      32.591  26.798  26.861  1.00  0.00     0.032 C 
BRANCH   7   9
ATOM      9  S   UNL A   1      33.057  24.081  26.002  1.00  0.00    -0.109 SA
BRANCH   9  10
ATOM     10  C   UNL A   1      34.686  23.685  25.371  1.00  0.00     0.032 A 
ATOM     11  C   UNL A   1      34.799  22.820  24.254  1.00  0.00     0.059 A 
ATOM     12  C   UNL A   1      36.052  22.449  23.732  1.00  0.00     0.028 A 
ATOM     13  C   UNL A   1      37.219  22.921  24.322  1.00  0.00     0.002 A 
ATOM     14  C   UNL A   1      35.884  24.084  25.976  1.00  0.00     0.017 A 
ATOM     15  C   UNL A   1      37.135  23.725  25.452  1.00  0.00     0.001 A 
BRANCH  11  16
ATOM     16  N   UNL A   1      33.662  22.106  23.775  1.00  0.00    -0.317 N 
ATOM     17  C   UNL A   1      33.784  20.071  25.313  1.00  0.00     0.065 C 
ATOM     18  C   UNL A   1      33.231  20.841  24.161  1.00  0.00     0.020 A 
ATOM     19  C   UNL A   1      32.251  20.438  23.274  1.00  0.00     0.023 A 
ATOM     20  C   UNL A   1      32.025  21.491  22.369  1.00  0.00     0.023 A 
ATOM     21  C   UNL A   1      32.884  22.523  22.695  1.00  0.00     0.020 A 
ATOM     22  C   UNL A   1      33.059  23.817  21.972  1.00  0.00     0.065 C 
ENDBRANCH  11  16
ENDBRANCH   9  10
ENDBRANCH   7   9
ENDBRANCH   5   7
ENDBRANCH   4   5
ENDBRANCH   3   4
ENDBRANCH   2   3
ENDBRANCH   1   2
BRANCH   1  23
ATOM     23  C   UNL A   1      32.790  30.083  25.561  1.00  0.00     0.202 C 
BRANCH  23  24
ATOM     24  C   UNL A   1      33.041  30.852  26.891  1.00  0.00     0.261 C 
BRANCH  24  25
ATOM     25  O   UNL A   1      34.211  30.479  27.730  1.00  0.00    -0.460 OA
BRANCH  25  26
ATOM     26  C   UNL A   1      35.273  31.366  27.727  1.00  0.00     0.338 C 
ATOM     27  O   UNL A   1      35.100  32.571  27.588  1.00  0.00    -0.246 OA
BRANCH  26  28
ATOM     28  C   UNL A   1      36.701  30.815  27.976  1.00  0.00     0.060 A 
ATOM     29  C   UNL A   1      37.356  30.154  26.939  1.00  0.00     0.016 A 
ATOM     30  C   UNL A   1      37.304  30.621  29.240  1.00  0.00     0.016 A 
ATOM     31  C   UNL A   1      38.570  29.390  27.154  1.00  0.00     0.010 A 
ATOM     32  C   UNL A   1      38.510  29.777  29.464  1.00  0.00     0.010 A 
ATOM     33  C   UNL A   1      39.202  29.115  28.427  1.00  0.00    -0.014 A 
BRANCH  33  34
ATOM     34  C   UNL A   1      40.183  27.771  28.512  1.00  0.00     0.031 A 
ATOM     35  C   UNL A   1      40.932  28.037  29.779  1.00  0.00     0.074 A 
ATOM     36  C   UNL A   1      40.615  26.601  27.843  1.00  0.00     0.049 A 
ATOM     37  N   UNL A   1      41.585  29.157  29.937  1.00  0.00    -0.248 NA
ATOM     38  C   UNL A   1      40.657  27.316  31.023  1.00  0.00     0.031 C 
ATOM     39  C   UNL A   1      40.250  26.140  26.490  1.00  0.00     0.029 A 
ATOM     40  N   UNL A   1      41.506  25.505  28.207  1.00  0.00    -0.354 N 
ATOM     41  C   UNL A   1      42.107  29.114  31.204  1.00  0.00     0.074 A 
ATOM     42  C   UNL A   1      41.290  28.117  31.887  1.00  0.00     0.031 C 
ATOM     43  C   UNL A   1      40.739  24.890  26.207  1.00  0.00     0.029 A 
ATOM     44  C   UNL A   1      41.554  24.354  27.302  1.00  0.00     0.049 A 
ATOM     45  H   UNL A   1      42.052  25.537  29.025  1.00  0.00     0.167 HD
ATOM     46  C   UNL A   1      43.460  29.277  31.294  1.00  0.00     0.034 A 
ATOM     47  C   UNL A   1      42.230  23.115  27.358  1.00  0.00     0.034 A 
ATOM     48  C   UNL A   1      44.145  28.020  31.451  1.00  0.00     0.049 A 
ATOM     49  C   UNL A   1      43.406  23.302  28.205  1.00  0.00     0.074 A 
ATOM     50  C   UNL A   1      43.920  26.916  32.246  1.00  0.00     0.029 A 
ATOM     51  N   UNL A   1      44.936  27.601  30.401  1.00  0.00    -0.354 N 
ATOM     52  N   UNL A   1      44.473  23.890  27.769  1.00  0.00    -0.248 NA
ATOM     53  C   UNL A   1      43.489  22.756  29.555  1.00  0.00     0.031 C 
ATOM     54  C   UNL A   1      44.145  25.812  31.398  1.00  0.00     0.029 A 
ATOM     55  C   UNL A   1      44.856  26.231  30.279  1.00  0.00     0.049 A 
ATOM     56  H   UNL A   1      45.476  28.191  29.827  1.00  0.00     0.167 HD
ATOM     57  C   UNL A   1      45.081  24.278  28.921  1.00  0.00     0.074 A 
ATOM     58  C   UNL A   1      44.633  23.332  29.927  1.00  0.00     0.031 C 
ATOM     59  C   UNL A   1      45.304  25.610  29.047  1.00  0.00     0.034 A 
BRANCH  46  60
ATOM     60  C   UNL A   1      44.009  30.430  30.502  1.00  0.00     0.023 A 
ATOM     61  C   UNL A   1      43.841  30.436  29.113  1.00  0.00     0.031 A 
ATOM     62  C   UNL A   1      44.767  31.471  31.080  1.00  0.00     0.131 A 
ATOM     63  C   UNL A   1      44.480  31.421  28.340  1.00  0.00     0.055 A 
ATOM     64  C   UNL A   1      45.444  32.411  30.306  1.00  0.00     0.041 A 
ATOM     65  F   UNL A   1      44.850  31.601  32.414  1.00  0.00    -0.206 F 
ATOM     66  C   UNL A   1      45.311  32.382  28.924  1.00  0.00     0.022 A 
BRANCH  63  67
ATOM     67  S   UNL A   1      44.188  31.433  26.553  1.00  0.00     0.124 S 
ATOM     68  O   UNL A   1      43.668  32.776  26.326  1.00  0.00    -0.237 OA
ATOM     69  O   UNL A   1      45.517  31.169  26.017  1.00  0.00    -0.237 OA
ATOM     70  O   UNL A   1      43.216  30.351  26.353  1.00  0.00    -0.744 OA
ENDBRANCH  63  67
ENDBRANCH  46  60
BRANCH  47  71
ATOM     71  C   UNL A   1      42.324  21.651  26.757  1.00  0.00     0.023 A 
ATOM     72  C   UNL A   1      43.364  21.239  25.810  1.00  0.00     0.031 A 
ATOM     73  C   UNL A   1      41.706  20.578  27.410  1.00  0.00     0.131 A 
ATOM     74  C   UNL A   1      43.744  19.871  25.608  1.00  0.00     0.055 A 
ATOM     75  C   UNL A   1      42.082  19.223  27.197  1.00  0.00     0.041 A 
ATOM     76  F   UNL A   1      40.792  20.807  28.363  1.00  0.00    -0.206 F 
ATOM     77  C   UNL A   1      43.105  18.867  26.318  1.00  0.00     0.022 A 
BRANCH  74  78
ATOM     78  S   UNL A   1      45.195  19.359  24.566  1.00  0.00     0.124 S 
ATOM     79  O   UNL A   1      46.149  20.443  24.773  1.00  0.00    -0.237 OA
ATOM     80  O   UNL A   1      45.552  18.057  25.118  1.00  0.00    -0.237 OA
ATOM     81  O   UNL A   1      44.642  19.298  23.209  1.00  0.00    -0.744 OA
ENDBRANCH  74  78
ENDBRANCH  47  71
BRANCH  59  82
ATOM     82  C   UNL A   1      45.823  26.350  27.815  1.00  0.00     0.023 A 
ATOM     83  C   UNL A   1      47.152  26.330  27.308  1.00  0.00     0.031 A 
ATOM     84  C   UNL A   1      44.921  27.200  27.157  1.00  0.00     0.131 A 
ATOM     85  C   UNL A   1      47.531  27.153  26.227  1.00  0.00     0.055 A 
ATOM     86  C   UNL A   1      45.285  27.983  26.059  1.00  0.00     0.041 A 
ATOM     87  F   UNL A   1      43.650  27.290  27.580  1.00  0.00    -0.206 F 
ATOM     88  C   UNL A   1      46.596  27.975  25.599  1.00  0.00     0.022 A 
BRANCH  85  89
ATOM     89  S   UNL A   1      49.272  27.228  25.674  1.00  0.00     0.124 S 
ATOM     90  O   UNL A   1      49.389  26.096  24.762  1.00  0.00    -0.237 OA
ATOM     91  O   UNL A   1      49.356  28.551  25.061  1.00  0.00    -0.237 OA
ATOM     92  O   UNL A   1      50.031  27.084  26.918  1.00  0.00    -0.744 OA
ENDBRANCH  85  89
ENDBRANCH  59  82
ENDBRANCH  33  34
ENDBRANCH  26  28
ENDBRANCH  25  26
ENDBRANCH  24  25
ENDBRANCH  23  24
ENDBRANCH   1  23
TORSDOF 20
ENDMDL
MODEL 3
REMARK VINA RESULT:     -10.7      4.144     10.294
REMARK SMILES Cc1ccc(C)n1-c1ccccc1S[C@H](C)C(=O)OCCOCCOC(=O)c1ccc(-c2c3nc(c(-c4cc(S(=O)(=O)[O-])ccc4F)c4ccc([nH]4)c(-c4cc(S(=O)(=O)[O-])ccc4F)c4nc(c(-c5cc(S(=O)(=O)[O-])ccc5F)c5ccc2[nH]5)C=C4)C=C3)cc1
REMARK SMILES IDX 22 1 21 2 20 3 19 4 17 5 18 6 15 7 16 8 14 9 13 10 8 11 9 12
REMARK SMILES IDX 10 13 12 14 11 15 7 16 1 17 2 18 3 19 4 20 5 21 6 22 23 23
REMARK SMILES IDX 24 24 25 25 26 26 27 27 28 28 29 29 90 30 30 31 89 32 31 33
REMARK SMILES IDX 32 34 33 35 83 36 34 37 88 38 82 39 84 40 35 41 87 42 81 43
REMARK SMILES IDX 80 44 36 46 68 47 48 48 67 49 49 50 52 51 66 52 85 53 50 54
REMARK SMILES IDX 51 55 65 57 86 58 53 59 37 60 38 61 46 62 39 63 45 64 47 65
REMARK SMILES IDX 44 66 40 67 41 68 42 69 43 70 69 71 70 72 78 73 71 74 77 75
REMARK SMILES IDX 79 76 76 77 72 78 73 79 74 80 75 81 54 82 55 83 63 84 56 85
REMARK SMILES IDX 62 86 64 87 61 88 57 89 58 90 59 91 60 92
REMARK H PARENT 84 45 52 56
REMARK Flexibility Score: inf
ROOT
ATOM      1  O   UNL A   1      40.218  21.249  27.284  1.00  0.00    -0.374 OA
ENDROOT
BRANCH   1   2
ATOM      2  C   UNL A   1      39.660  22.129  26.312  1.00  0.00     0.202 C 
BRANCH   2   3
ATOM      3  C   UNL A   1      38.311  21.691  25.726  1.00  0.00     0.261 C 
BRANCH   3   4
ATOM      4  O   UNL A   1      37.385  22.783  25.634  1.00  0.00    -0.462 OA
BRANCH   4   5
ATOM      5  C   UNL A   1      36.067  22.445  25.576  1.00  0.00     0.319 C 
ATOM      6  O   UNL A   1      35.526  21.584  26.262  1.00  0.00    -0.251 OA
BRANCH   5   7
ATOM      7  C   UNL A   1      35.332  23.216  24.492  1.00  0.00     0.158 C 
ATOM      8  C   UNL A   1      34.305  22.453  23.671  1.00  0.00     0.032 C 
BRANCH   7   9
ATOM      9  S   UNL A   1      34.872  24.838  25.195  1.00  0.00    -0.109 SA
BRANCH   9  10
ATOM     10  C   UNL A   1      33.096  24.967  25.385  1.00  0.00     0.032 A 
ATOM     11  C   UNL A   1      32.391  25.929  24.619  1.00  0.00     0.059 A 
ATOM     12  C   UNL A   1      30.999  26.098  24.746  1.00  0.00     0.028 A 
ATOM     13  C   UNL A   1      30.284  25.322  25.652  1.00  0.00     0.002 A 
ATOM     14  C   UNL A   1      32.350  24.254  26.331  1.00  0.00     0.017 A 
ATOM     15  C   UNL A   1      30.962  24.412  26.454  1.00  0.00     0.001 A 
BRANCH  11  16
ATOM     16  N   UNL A   1      33.096  26.919  23.875  1.00  0.00    -0.317 N 
ATOM     17  C   UNL A   1      33.444  28.644  25.725  1.00  0.00     0.065 C 
ATOM     18  C   UNL A   1      33.504  28.176  24.310  1.00  0.00     0.020 A 
ATOM     19  C   UNL A   1      33.923  28.892  23.205  1.00  0.00     0.023 A 
ATOM     20  C   UNL A   1      33.837  28.048  22.083  1.00  0.00     0.023 A 
ATOM     21  C   UNL A   1      33.345  26.828  22.506  1.00  0.00     0.020 A 
ATOM     22  C   UNL A   1      33.016  25.643  21.660  1.00  0.00     0.065 C 
ENDBRANCH  11  16
ENDBRANCH   9  10
ENDBRANCH   7   9
ENDBRANCH   5   7
ENDBRANCH   4   5
ENDBRANCH   3   4
ENDBRANCH   2   3
ENDBRANCH   1   2
BRANCH   1  23
ATOM     23  C   UNL A   1      41.647  21.112  27.280  1.00  0.00     0.202 C 
BRANCH  23  24
ATOM     24  C   UNL A   1      42.444  21.806  26.136  1.00  0.00     0.261 C 
BRANCH  24  25
ATOM     25  O   UNL A   1      42.888  23.213  26.318  1.00  0.00    -0.460 OA
BRANCH  25  26
ATOM     26  C   UNL A   1      43.443  23.525  27.546  1.00  0.00     0.338 C 
ATOM     27  O   UNL A   1      44.485  23.006  27.928  1.00  0.00    -0.246 OA
BRANCH  26  28
ATOM     28  C   UNL A   1      42.757  24.610  28.416  1.00  0.00     0.060 A 
ATOM     29  C   UNL A   1      41.433  24.948  28.147  1.00  0.00     0.016 A 
ATOM     30  C   UNL A   1      43.416  25.536  29.257  1.00  0.00     0.016 A 
ATOM     31  C   UNL A   1      40.798  26.116  28.729  1.00  0.00     0.010 A 
ATOM     32  C   UNL A   1      42.780  26.770  29.794  1.00  0.00     0.010 A 
ATOM     33  C   UNL A   1      41.435  27.122  29.551  1.00  0.00    -0.014 A 
BRANCH  33  34
ATOM     34  C   UNL A   1      40.720  28.627  29.598  1.00  0.00     0.031 A 
ATOM     35  C   UNL A   1      41.891  29.514  29.318  1.00  0.00     0.074 A 
ATOM     36  C   UNL A   1      39.530  29.342  29.872  1.00  0.00     0.049 A 
ATOM     37  N   UNL A   1      42.968  29.437  30.054  1.00  0.00    -0.248 NA
ATOM     38  C   UNL A   1      42.085  30.181  28.029  1.00  0.00     0.031 C 
ATOM     39  C   UNL A   1      38.249  28.815  30.378  1.00  0.00     0.029 A 
ATOM     40  N   UNL A   1      39.155  30.747  29.769  1.00  0.00    -0.354 N 
ATOM     41  C   UNL A   1      43.859  30.328  29.512  1.00  0.00     0.074 A 
ATOM     42  C   UNL A   1      43.369  30.534  28.154  1.00  0.00     0.031 C 
ATOM     43  C   UNL A   1      37.257  29.763  30.397  1.00  0.00     0.029 A 
ATOM     44  C   UNL A   1      37.742  31.079  29.967  1.00  0.00     0.049 A 
ATOM     45  H   UNL A   1      39.822  31.444  29.574  1.00  0.00     0.167 HD
ATOM     46  C   UNL A   1      44.345  31.275  30.368  1.00  0.00     0.034 A 
ATOM     47  C   UNL A   1      37.016  32.287  29.881  1.00  0.00     0.034 A 
ATOM     48  C   UNL A   1      43.672  32.538  30.212  1.00  0.00     0.049 A 
ATOM     49  C   UNL A   1      37.960  33.376  30.123  1.00  0.00     0.074 A 
ATOM     50  C   UNL A   1      43.309  33.284  29.110  1.00  0.00     0.029 A 
ATOM     51  N   UNL A   1      42.878  32.959  31.259  1.00  0.00    -0.354 N 
ATOM     52  N   UNL A   1      38.361  33.676  31.317  1.00  0.00    -0.248 NA
ATOM     53  C   UNL A   1      38.432  34.251  29.056  1.00  0.00     0.031 C 
ATOM     54  C   UNL A   1      42.008  33.742  29.401  1.00  0.00     0.029 A 
ATOM     55  C   UNL A   1      41.770  33.613  30.765  1.00  0.00     0.049 A 
ATOM     56  H   UNL A   1      43.072  32.816  32.213  1.00  0.00     0.167 HD
ATOM     57  C   UNL A   1      39.517  34.348  31.073  1.00  0.00     0.074 A 
ATOM     58  C   UNL A   1      39.354  34.921  29.749  1.00  0.00     0.031 C 
ATOM     59  C   UNL A   1      40.632  33.823  31.640  1.00  0.00     0.034 A 
BRANCH  46  60
ATOM     60  C   UNL A   1      44.820  30.744  31.691  1.00  0.00     0.023 A 
ATOM     61  C   UNL A   1      44.058  29.765  32.339  1.00  0.00     0.031 A 
ATOM     62  C   UNL A   1      45.956  31.246  32.361  1.00  0.00     0.131 A 
ATOM     63  C   UNL A   1      44.399  29.369  33.643  1.00  0.00     0.055 A 
ATOM     64  C   UNL A   1      46.257  30.893  33.675  1.00  0.00     0.041 A 
ATOM     65  F   UNL A   1      46.805  32.082  31.742  1.00  0.00    -0.206 F 
ATOM     66  C   UNL A   1      45.468  29.955  34.328  1.00  0.00     0.022 A 
BRANCH  63  67
ATOM     67  S   UNL A   1      43.427  28.055  34.423  1.00  0.00     0.124 S 
ATOM     68  O   UNL A   1      43.887  28.098  35.806  1.00  0.00    -0.237 OA
ATOM     69  O   UNL A   1      42.059  28.502  34.197  1.00  0.00    -0.237 OA
ATOM     70  O   UNL A   1      43.813  26.850  33.679  1.00  0.00    -0.744 OA
ENDBRANCH  63  67
ENDBRANCH  46  60
BRANCH  47  71
ATOM     71  C   UNL A   1      35.575  32.940  29.784  1.00  0.00     0.023 A 
ATOM     72  C   UNL A   1      35.001  33.777  30.841  1.00  0.00     0.031 A 
ATOM     73  C   UNL A   1      34.961  33.117  28.538  1.00  0.00     0.131 A 
ATOM     74  C   UNL A   1      33.946  34.720  30.612  1.00  0.00     0.055 A 
ATOM     75  C   UNL A   1      33.909  34.047  28.319  1.00  0.00     0.041 A 
ATOM     76  F   UNL A   1      35.435  32.478  27.459  1.00  0.00    -0.206 F 
ATOM     77  C   UNL A   1      33.412  34.859  29.339  1.00  0.00     0.022 A 
BRANCH  74  78
ATOM     78  S   UNL A   1      33.356  35.925  31.897  1.00  0.00     0.124 S 
ATOM     79  O   UNL A   1      32.022  35.434  32.223  1.00  0.00    -0.237 OA
ATOM     80  O   UNL A   1      34.370  35.813  32.941  1.00  0.00    -0.237 OA
ATOM     81  O   UNL A   1      33.368  37.212  31.194  1.00  0.00    -0.744 OA
ENDBRANCH  74  78
ENDBRANCH  47  71
BRANCH  59  82
ATOM     82  C   UNL A   1      40.515  33.331  33.082  1.00  0.00     0.023 A 
ATOM     83  C   UNL A   1      39.862  32.148  33.526  1.00  0.00     0.031 A 
ATOM     84  C   UNL A   1      41.034  34.167  34.083  1.00  0.00     0.131 A 
ATOM     85  C   UNL A   1      39.722  31.867  34.901  1.00  0.00     0.055 A 
ATOM     86  C   UNL A   1      40.934  33.867  35.443  1.00  0.00     0.041 A 
ATOM     87  F   UNL A   1      41.653  35.311  33.750  1.00  0.00    -0.206 F 
ATOM     88  C   UNL A   1      40.263  32.723  35.859  1.00  0.00     0.022 A 
BRANCH  85  89
ATOM     89  S   UNL A   1      38.759  30.419  35.467  1.00  0.00     0.124 S 
ATOM     90  O   UNL A   1      38.256  29.839  34.227  1.00  0.00    -0.237 OA
ATOM     91  O   UNL A   1      39.758  29.629  36.181  1.00  0.00    -0.237 OA
ATOM     92  O   UNL A   1      37.726  31.011  36.321  1.00  0.00    -0.744 OA
ENDBRANCH  85  89
ENDBRANCH  59  82
ENDBRANCH  33  34
ENDBRANCH  26  28
ENDBRANCH  25  26
ENDBRANCH  24  25
ENDBRANCH  23  24
ENDBRANCH   1  23
TORSDOF 20
ENDMDL
