MODEL 1
REMARK VINA RESULT:      -9.2      0.000      0.000
REMARK SMILES CCN1C(=O)/C(=C/c2cc([N+](=O)[O-])ccc2O)S/C1=[NH+]\c1ccc(C(=O)OCCOCCOC(=O)c2ccc(-c3c4nc(c(-c5cc(S(=O)(=O)[O-])ccc5F)c5ccc([nH]5)c(-c5cc(S(=O)(=O)[O-])ccc5F)c5nc(c(-c6cc(S(=O)(=O)[O-])ccc6F)c6ccc3[nH]6)C=C5)C=C4)cc2)cc1
REMARK SMILES IDX 30 1 29 2 28 3 27 4 25 5 26 6 24 7 21 8 22 9 100 10 23 11
REMARK SMILES IDX 99 12 20 13 3 14 4 15 19 16 5 17 6 18 18 19 7 20 2 22 1 23
REMARK SMILES IDX 8 24 9 25 16 26 10 27 15 28 14 29 17 30 11 32 12 33 13 34
REMARK SMILES IDX 31 35 32 36 33 37 34 38 35 39 36 40 37 41 98 42 38 43 97 44
REMARK SMILES IDX 39 45 40 46 41 47 91 48 42 49 96 50 90 51 92 52 43 53 95 54
REMARK SMILES IDX 89 55 88 56 44 58 76 59 56 60 75 61 57 62 60 63 74 64 93 65
REMARK SMILES IDX 58 66 59 67 73 69 94 70 61 71 45 72 46 73 54 74 47 75 53 76
REMARK SMILES IDX 55 77 52 78 48 79 49 80 50 81 51 82 77 83 78 84 86 85 79 86
REMARK SMILES IDX 85 87 87 88 84 89 80 90 81 91 82 92 83 93 62 94 63 95 71 96
REMARK SMILES IDX 64 97 70 98 72 99 69 100 65 101 66 102 67 103 68 104
REMARK H PARENT 20 21 17 31 92 57 60 68
REMARK Flexibility Score: inf
ROOT
ATOM      1  O   UNL A   1      41.132  23.651  27.200  1.00  0.00    -0.374 OA
ENDROOT
BRANCH   1   2
ATOM      2  C   UNL A   1      40.615  24.980  27.098  1.00  0.00     0.202 C 
BRANCH   2   3
ATOM      3  C   UNL A   1      39.511  25.347  28.094  1.00  0.00     0.261 C 
BRANCH   3   4
ATOM      4  O   UNL A   1      39.288  26.766  28.111  1.00  0.00    -0.460 OA
BRANCH   4   5
ATOM      5  C   UNL A   1      38.933  27.282  29.308  1.00  0.00     0.338 C 
ATOM      6  O   UNL A   1      39.238  26.851  30.413  1.00  0.00    -0.246 OA
BRANCH   5   7
ATOM      7  C   UNL A   1      38.203  28.562  29.129  1.00  0.00     0.060 A 
ATOM      8  C   UNL A   1      36.617  30.856  28.849  1.00  0.00     0.125 A 
ATOM      9  C   UNL A   1      36.576  30.113  30.030  1.00  0.00     0.052 A 
ATOM     10  C   UNL A   1      37.552  30.518  27.860  1.00  0.00     0.052 A 
ATOM     11  C   UNL A   1      37.360  28.969  30.170  1.00  0.00     0.020 A 
ATOM     12  C   UNL A   1      38.330  29.360  27.987  1.00  0.00     0.020 A 
BRANCH   8  13
ATOM     13  N   UNL A   1      35.656  31.866  28.669  1.00  0.00    -0.234 N 
ATOM     14  N   UNL A   1      33.533  32.469  27.853  1.00  0.00    -0.186 N 
ATOM     15  C   UNL A   1      32.464  32.032  27.088  1.00  0.00     0.348 C 
ATOM     16  C   UNL A   1      34.594  31.601  27.974  1.00  0.00     0.324 C 
ATOM     17  O   UNL A   1      31.402  32.617  26.921  1.00  0.00    -0.240 OA
ATOM     18  C   UNL A   1      32.762  30.698  26.501  1.00  0.00     0.110 C 
ATOM     19  S   UNL A   1      34.259  30.122  27.098  1.00  0.00     0.007 SA
ATOM     20  C   UNL A   1      31.950  30.071  25.638  1.00  0.00     0.036 C 
ATOM     21  H   UNL A   1      35.789  32.757  29.064  1.00  0.00     0.313 HD
BRANCH  14  22
ATOM     22  C   UNL A   1      33.444  33.701  28.627  1.00  0.00     0.244 C 
ATOM     23  C   UNL A   1      34.162  34.881  27.990  1.00  0.00     0.055 C 
ENDBRANCH  14  22
BRANCH  20  24
ATOM     24  C   UNL A   1      32.211  28.729  25.092  1.00  0.00     0.024 A 
ATOM     25  C   UNL A   1      31.563  27.621  25.653  1.00  0.00     0.097 A 
ATOM     26  C   UNL A   1      33.064  28.535  23.991  1.00  0.00     0.123 A 
ATOM     27  C   UNL A   1      31.770  26.345  25.106  1.00  0.00     0.270 A 
ATOM     28  C   UNL A   1      33.259  27.267  23.441  1.00  0.00     0.054 A 
ATOM     29  C   UNL A   1      32.611  26.165  23.998  1.00  0.00     0.089 A 
BRANCH  26  30
ATOM     30  O   UNL A   1      33.711  29.614  23.450  1.00  0.00    -0.507 OA
ATOM     31  H   UNL A   1      33.891  29.640  22.531  1.00  0.00     0.293 HD
ENDBRANCH  26  30
BRANCH  27  32
ATOM     32  N   UNL A   1      31.107  25.179  25.707  1.00  0.00     0.062 N 
ATOM     33  O   UNL A   1      31.130  24.115  25.072  1.00  0.00    -0.258 OA
ATOM     34  O   UNL A   1      30.546  25.337  26.800  1.00  0.00    -0.258 OA
ENDBRANCH  27  32
ENDBRANCH  20  24
ENDBRANCH   8  13
ENDBRANCH   5   7
ENDBRANCH   4   5
ENDBRANCH   3   4
ENDBRANCH   2   3
ENDBRANCH   1   2
BRANCH   1  35
ATOM     35  C   UNL A   1      41.836  23.137  26.068  1.00  0.00     0.202 C 
BRANCH  35  36
ATOM     36  C   UNL A   1      42.846  24.073  25.395  1.00  0.00     0.261 C 
BRANCH  36  37
ATOM     37  O   UNL A   1      43.843  24.553  26.314  1.00  0.00    -0.460 OA
BRANCH  37  38
ATOM     38  C   UNL A   1      44.519  25.645  25.883  1.00  0.00     0.338 C 
ATOM     39  O   UNL A   1      45.147  25.750  24.836  1.00  0.00    -0.246 OA
BRANCH  38  40
ATOM     40  C   UNL A   1      44.253  26.797  26.764  1.00  0.00     0.060 A 
ATOM     41  C   UNL A   1      43.720  27.946  26.167  1.00  0.00     0.016 A 
ATOM     42  C   UNL A   1      44.573  26.789  28.124  1.00  0.00     0.016 A 
ATOM     43  C   UNL A   1      43.559  29.109  26.914  1.00  0.00     0.010 A 
ATOM     44  C   UNL A   1      44.411  27.963  28.874  1.00  0.00     0.010 A 
ATOM     45  C   UNL A   1      43.939  29.139  28.263  1.00  0.00    -0.014 A 
BRANCH  45  46
ATOM     46  C   UNL A   1      43.957  30.444  28.970  1.00  0.00     0.031 A 
ATOM     47  C   UNL A   1      42.785  30.831  29.832  1.00  0.00     0.074 A 
ATOM     48  C   UNL A   1      45.041  31.238  28.905  1.00  0.00     0.049 A 
ATOM     49  N   UNL A   1      42.623  31.884  30.591  1.00  0.00    -0.248 NA
ATOM     50  C   UNL A   1      41.645  29.904  29.836  1.00  0.00     0.031 C 
ATOM     51  C   UNL A   1      46.247  30.955  28.127  1.00  0.00     0.029 A 
ATOM     52  N   UNL A   1      45.308  32.437  29.516  1.00  0.00    -0.354 N 
ATOM     53  C   UNL A   1      41.365  31.745  31.171  1.00  0.00     0.074 A 
ATOM     54  C   UNL A   1      40.791  30.530  30.630  1.00  0.00     0.031 C 
ATOM     55  C   UNL A   1      47.131  31.949  28.316  1.00  0.00     0.029 A 
ATOM     56  C   UNL A   1      46.545  32.951  29.206  1.00  0.00     0.049 A 
ATOM     57  H   UNL A   1      44.673  32.889  30.118  1.00  0.00     0.167 HD
ATOM     58  C   UNL A   1      40.755  32.545  32.082  1.00  0.00     0.034 A 
ATOM     59  C   UNL A   1      47.135  34.100  29.590  1.00  0.00     0.034 A 
ATOM     60  C   UNL A   1      41.332  33.765  32.595  1.00  0.00     0.049 A 
ATOM     61  C   UNL A   1      46.407  35.010  30.548  1.00  0.00     0.074 A 
ATOM     62  C   UNL A   1      40.807  34.647  33.524  1.00  0.00     0.029 A 
ATOM     63  N   UNL A   1      42.565  34.286  32.214  1.00  0.00    -0.354 N 
ATOM     64  N   UNL A   1      45.228  34.857  31.105  1.00  0.00    -0.248 NA
ATOM     65  C   UNL A   1      47.103  36.242  30.940  1.00  0.00     0.031 C 
ATOM     66  C   UNL A   1      41.683  35.732  33.647  1.00  0.00     0.029 A 
ATOM     67  C   UNL A   1      42.798  35.491  32.861  1.00  0.00     0.049 A 
ATOM     68  H   UNL A   1      43.183  33.860  31.576  1.00  0.00     0.167 HD
ATOM     69  C   UNL A   1      45.053  35.962  31.935  1.00  0.00     0.074 A 
ATOM     70  C   UNL A   1      46.260  36.755  31.823  1.00  0.00     0.031 C 
ATOM     71  C   UNL A   1      43.993  36.292  32.719  1.00  0.00     0.034 A 
BRANCH  58  72
ATOM     72  C   UNL A   1      39.369  32.143  32.532  1.00  0.00     0.023 A 
ATOM     73  C   UNL A   1      38.212  32.718  31.975  1.00  0.00     0.031 A 
ATOM     74  C   UNL A   1      39.201  31.202  33.564  1.00  0.00     0.131 A 
ATOM     75  C   UNL A   1      36.949  32.409  32.504  1.00  0.00     0.055 A 
ATOM     76  C   UNL A   1      37.935  30.836  34.030  1.00  0.00     0.041 A 
ATOM     77  F   UNL A   1      40.266  30.635  34.152  1.00  0.00    -0.206 F 
ATOM     78  C   UNL A   1      36.801  31.453  33.511  1.00  0.00     0.022 A 
BRANCH  75  79
ATOM     79  S   UNL A   1      35.520  33.389  31.968  1.00  0.00     0.124 S 
ATOM     80  O   UNL A   1      36.076  34.129  30.838  1.00  0.00    -0.237 OA
ATOM     81  O   UNL A   1      34.538  32.362  31.641  1.00  0.00    -0.237 OA
ATOM     82  O   UNL A   1      35.204  34.204  33.141  1.00  0.00    -0.744 OA
ENDBRANCH  75  79
ENDBRANCH  58  72
BRANCH  59  83
ATOM     83  C   UNL A   1      48.478  34.471  29.060  1.00  0.00     0.023 A 
ATOM     84  C   UNL A   1      48.635  34.979  27.760  1.00  0.00     0.031 A 
ATOM     85  C   UNL A   1      49.635  34.274  29.835  1.00  0.00     0.131 A 
ATOM     86  C   UNL A   1      49.922  35.231  27.258  1.00  0.00     0.055 A 
ATOM     87  C   UNL A   1      50.908  34.573  29.349  1.00  0.00     0.041 A 
ATOM     88  F   UNL A   1      49.540  33.793  31.085  1.00  0.00    -0.206 F 
ATOM     89  C   UNL A   1      51.058  35.044  28.048  1.00  0.00     0.022 A 
BRANCH  86  90
ATOM     90  S   UNL A   1      50.095  35.740  25.526  1.00  0.00     0.124 S 
ATOM     91  O   UNL A   1      51.281  34.997  25.114  1.00  0.00    -0.237 OA
ATOM     92  O   UNL A   1      48.830  35.296  24.952  1.00  0.00    -0.237 OA
ATOM     93  O   UNL A   1      50.264  37.189  25.612  1.00  0.00    -0.744 OA
ENDBRANCH  86  90
ENDBRANCH  59  83
BRANCH  71  94
ATOM     94  C   UNL A   1      44.121  37.558  33.537  1.00  0.00     0.023 A 
ATOM     95  C   UNL A   1      43.531  38.767  33.124  1.00  0.00     0.031 A 
ATOM     96  C   UNL A   1      44.887  37.570  34.716  1.00  0.00     0.131 A 
ATOM     97  C   UNL A   1      43.786  39.949  33.834  1.00  0.00     0.055 A 
ATOM     98  C   UNL A   1      45.076  38.736  35.460  1.00  0.00     0.041 A 
ATOM     99  F   UNL A   1      45.477  36.449  35.160  1.00  0.00    -0.206 F 
ATOM    100  C   UNL A   1      44.541  39.940  35.009  1.00  0.00     0.022 A 
BRANCH  97 101
ATOM    101  S   UNL A   1      43.233  41.526  33.123  1.00  0.00     0.124 S 
ATOM    102  O   UNL A   1      41.970  41.746  33.818  1.00  0.00    -0.237 OA
ATOM    103  O   UNL A   1      44.323  42.428  33.481  1.00  0.00    -0.237 OA
ATOM    104  O   UNL A   1      43.114  41.234  31.696  1.00  0.00    -0.744 OA
ENDBRANCH  97 101
ENDBRANCH  71  94
ENDBRANCH  45  46
ENDBRANCH  38  40
ENDBRANCH  37  38
ENDBRANCH  36  37
ENDBRANCH  35  36
ENDBRANCH   1  35
TORSDOF 22
ENDMDL
MODEL 2
REMARK VINA RESULT:      -8.9      5.221     11.391
REMARK SMILES CCN1C(=O)/C(=C/c2cc([N+](=O)[O-])ccc2O)S/C1=[NH+]\c1ccc(C(=O)OCCOCCOC(=O)c2ccc(-c3c4nc(c(-c5cc(S(=O)(=O)[O-])ccc5F)c5ccc([nH]5)c(-c5cc(S(=O)(=O)[O-])ccc5F)c5nc(c(-c6cc(S(=O)(=O)[O-])ccc6F)c6ccc3[nH]6)C=C5)C=C4)cc2)cc1
REMARK SMILES IDX 30 1 29 2 28 3 27 4 25 5 26 6 24 7 21 8 22 9 100 10 23 11
REMARK SMILES IDX 99 12 20 13 3 14 4 15 19 16 5 17 6 18 18 19 7 20 2 22 1 23
REMARK SMILES IDX 8 24 9 25 16 26 10 27 15 28 14 29 17 30 11 32 12 33 13 34
REMARK SMILES IDX 31 35 32 36 33 37 34 38 35 39 36 40 37 41 98 42 38 43 97 44
REMARK SMILES IDX 39 45 40 46 41 47 91 48 42 49 96 50 90 51 92 52 43 53 95 54
REMARK SMILES IDX 89 55 88 56 44 58 76 59 56 60 75 61 57 62 60 63 74 64 93 65
REMARK SMILES IDX 58 66 59 67 73 69 94 70 61 71 45 72 46 73 54 74 47 75 53 76
REMARK SMILES IDX 55 77 52 78 48 79 49 80 50 81 51 82 77 83 78 84 86 85 79 86
REMARK SMILES IDX 85 87 87 88 84 89 80 90 81 91 82 92 83 93 62 94 63 95 71 96
REMARK SMILES IDX 64 97 70 98 72 99 69 100 65 101 66 102 67 103 68 104
REMARK H PARENT 20 21 17 31 92 57 60 68
REMARK Flexibility Score: inf
ROOT
ATOM      1  O   UNL A   1      41.749  36.494  38.685  1.00  0.00    -0.374 OA
ENDROOT
BRANCH   1   2
ATOM      2  C   UNL A   1      40.391  36.091  38.496  1.00  0.00     0.202 C 
BRANCH   2   3
ATOM      3  C   UNL A   1      40.183  34.763  37.762  1.00  0.00     0.261 C 
BRANCH   3   4
ATOM      4  O   UNL A   1      38.903  34.733  37.111  1.00  0.00    -0.460 OA
BRANCH   4   5
ATOM      5  C   UNL A   1      38.920  35.012  35.789  1.00  0.00     0.338 C 
ATOM      6  O   UNL A   1      39.352  36.029  35.259  1.00  0.00    -0.246 OA
BRANCH   5   7
ATOM      7  C   UNL A   1      38.450  33.845  35.003  1.00  0.00     0.060 A 
ATOM      8  C   UNL A   1      37.710  31.718  33.333  1.00  0.00     0.125 A 
ATOM      9  C   UNL A   1      39.057  31.963  33.605  1.00  0.00     0.052 A 
ATOM     10  C   UNL A   1      36.731  32.463  34.005  1.00  0.00     0.052 A 
ATOM     11  C   UNL A   1      39.428  33.023  34.431  1.00  0.00     0.020 A 
ATOM     12  C   UNL A   1      37.096  33.541  34.822  1.00  0.00     0.020 A 
BRANCH   8  13
ATOM     13  N   UNL A   1      37.397  30.785  32.330  1.00  0.00    -0.234 N 
ATOM     14  N   UNL A   1      36.439  30.380  30.219  1.00  0.00    -0.186 N 
ATOM     15  C   UNL A   1      35.673  30.944  29.212  1.00  0.00     0.348 C 
ATOM     16  C   UNL A   1      36.685  31.172  31.317  1.00  0.00     0.324 C 
ATOM     17  O   UNL A   1      35.407  30.437  28.130  1.00  0.00    -0.240 OA
ATOM     18  C   UNL A   1      35.226  32.306  29.607  1.00  0.00     0.110 C 
ATOM     19  S   UNL A   1      35.937  32.741  31.103  1.00  0.00     0.007 SA
ATOM     20  C   UNL A   1      34.391  33.054  28.871  1.00  0.00     0.036 C 
ATOM     21  H   UNL A   1      37.712  29.855  32.397  1.00  0.00     0.313 HD
BRANCH  14  22
ATOM     22  C   UNL A   1      37.090  29.089  30.029  1.00  0.00     0.244 C 
ATOM     23  C   UNL A   1      38.393  29.166  29.248  1.00  0.00     0.055 C 
ENDBRANCH  14  22
BRANCH  20  24
ATOM     24  C   UNL A   1      33.985  34.424  29.228  1.00  0.00     0.024 A 
ATOM     25  C   UNL A   1      33.407  34.665  30.481  1.00  0.00     0.097 A 
ATOM     26  C   UNL A   1      34.201  35.506  28.356  1.00  0.00     0.123 A 
ATOM     27  C   UNL A   1      33.063  35.976  30.846  1.00  0.00     0.270 A 
ATOM     28  C   UNL A   1      33.870  36.810  28.725  1.00  0.00     0.054 A 
ATOM     29  C   UNL A   1      33.298  37.050  29.974  1.00  0.00     0.089 A 
BRANCH  26  30
ATOM     30  O   UNL A   1      34.752  35.270  27.124  1.00  0.00    -0.507 OA
ATOM     31  H   UNL A   1      35.133  34.436  26.933  1.00  0.00     0.293 HD
ENDBRANCH  26  30
BRANCH  27  32
ATOM     32  N   UNL A   1      32.438  36.228  32.151  1.00  0.00     0.062 N 
ATOM     33  O   UNL A   1      31.621  35.395  32.567  1.00  0.00    -0.258 OA
ATOM     34  O   UNL A   1      32.749  37.270  32.746  1.00  0.00    -0.258 OA
ENDBRANCH  27  32
ENDBRANCH  20  24
ENDBRANCH   8  13
ENDBRANCH   5   7
ENDBRANCH   4   5
ENDBRANCH   3   4
ENDBRANCH   2   3
ENDBRANCH   1   2
BRANCH   1  35
ATOM     35  C   UNL A   1      42.248  36.493  40.024  1.00  0.00     0.202 C 
BRANCH  35  36
ATOM     36  C   UNL A   1      43.094  35.288  40.450  1.00  0.00     0.261 C 
BRANCH  36  37
ATOM     37  O   UNL A   1      43.743  34.655  39.334  1.00  0.00    -0.460 OA
BRANCH  37  38
ATOM     38  C   UNL A   1      44.463  33.554  39.658  1.00  0.00     0.338 C 
ATOM     39  O   UNL A   1      45.057  33.353  40.710  1.00  0.00    -0.246 OA
BRANCH  38  40
ATOM     40  C   UNL A   1      44.293  32.507  38.633  1.00  0.00     0.060 A 
ATOM     41  C   UNL A   1      45.395  32.230  37.816  1.00  0.00     0.016 A 
ATOM     42  C   UNL A   1      43.074  31.857  38.423  1.00  0.00     0.016 A 
ATOM     43  C   UNL A   1      45.268  31.343  36.751  1.00  0.00     0.010 A 
ATOM     44  C   UNL A   1      42.948  30.966  37.348  1.00  0.00     0.010 A 
ATOM     45  C   UNL A   1      44.034  30.734  36.485  1.00  0.00    -0.014 A 
BRANCH  45  46
ATOM     46  C   UNL A   1      43.875  29.967  35.224  1.00  0.00     0.031 A 
ATOM     47  C   UNL A   1      43.399  30.677  33.985  1.00  0.00     0.074 A 
ATOM     48  C   UNL A   1      44.225  28.669  35.168  1.00  0.00     0.049 A 
ATOM     49  N   UNL A   1      43.259  30.220  32.767  1.00  0.00    -0.248 NA
ATOM     50  C   UNL A   1      43.035  32.092  34.144  1.00  0.00     0.031 C 
ATOM     51  C   UNL A   1      44.726  27.883  36.295  1.00  0.00     0.029 A 
ATOM     52  N   UNL A   1      44.227  27.788  34.116  1.00  0.00    -0.354 N 
ATOM     53  C   UNL A   1      42.797  31.293  32.009  1.00  0.00     0.074 A 
ATOM     54  C   UNL A   1      42.632  32.406  32.922  1.00  0.00     0.031 C 
ATOM     55  C   UNL A   1      44.997  26.637  35.870  1.00  0.00     0.029 A 
ATOM     56  C   UNL A   1      44.665  26.529  34.451  1.00  0.00     0.049 A 
ATOM     57  H   UNL A   1      43.940  28.034  33.206  1.00  0.00     0.167 HD
ATOM     58  C   UNL A   1      42.549  31.350  30.676  1.00  0.00     0.034 A 
ATOM     59  C   UNL A   1      44.779  25.415  33.701  1.00  0.00     0.034 A 
ATOM     60  C   UNL A   1      42.698  30.225  29.782  1.00  0.00     0.049 A 
ATOM     61  C   UNL A   1      44.430  25.483  32.235  1.00  0.00     0.074 A 
ATOM     62  C   UNL A   1      42.483  30.172  28.415  1.00  0.00     0.029 A 
ATOM     63  N   UNL A   1      43.089  28.947  30.168  1.00  0.00    -0.354 N 
ATOM     64  N   UNL A   1      44.014  26.509  31.527  1.00  0.00    -0.248 NA
ATOM     65  C   UNL A   1      44.584  24.242  31.465  1.00  0.00     0.031 C 
ATOM     66  C   UNL A   1      42.671  28.851  27.990  1.00  0.00     0.029 A 
ATOM     67  C   UNL A   1      43.086  28.093  29.074  1.00  0.00     0.049 A 
ATOM     68  H   UNL A   1      43.332  28.685  31.086  1.00  0.00     0.167 HD
ATOM     69  C   UNL A   1      43.883  26.041  30.221  1.00  0.00     0.074 A 
ATOM     70  C   UNL A   1      44.290  24.651  30.240  1.00  0.00     0.031 C 
ATOM     71  C   UNL A   1      43.465  26.698  29.108  1.00  0.00     0.034 A 
BRANCH  58  72
ATOM     72  C   UNL A   1      42.041  32.662  30.125  1.00  0.00     0.023 A 
ATOM     73  C   UNL A   1      42.914  33.635  29.603  1.00  0.00     0.031 A 
ATOM     74  C   UNL A   1      40.668  32.966  30.160  1.00  0.00     0.131 A 
ATOM     75  C   UNL A   1      42.416  34.888  29.213  1.00  0.00     0.055 A 
ATOM     76  C   UNL A   1      40.169  34.184  29.694  1.00  0.00     0.041 A 
ATOM     77  F   UNL A   1      39.787  32.089  30.668  1.00  0.00    -0.206 F 
ATOM     78  C   UNL A   1      41.047  35.161  29.232  1.00  0.00     0.022 A 
BRANCH  75  79
ATOM     79  S   UNL A   1      43.598  36.212  28.834  1.00  0.00     0.124 S 
ATOM     80  O   UNL A   1      44.241  35.697  27.627  1.00  0.00    -0.237 OA
ATOM     81  O   UNL A   1      42.729  37.368  28.653  1.00  0.00    -0.237 OA
ATOM     82  O   UNL A   1      44.457  36.254  30.017  1.00  0.00    -0.744 OA
ENDBRANCH  75  79
ENDBRANCH  58  72
BRANCH  59  83
ATOM     83  C   UNL A   1      45.225  24.134  34.318  1.00  0.00     0.023 A 
ATOM     84  C   UNL A   1      46.588  23.813  34.427  1.00  0.00     0.031 A 
ATOM     85  C   UNL A   1      44.286  23.185  34.761  1.00  0.00     0.131 A 
ATOM     86  C   UNL A   1      46.973  22.558  34.927  1.00  0.00     0.055 A 
ATOM     87  C   UNL A   1      44.675  21.960  35.304  1.00  0.00     0.041 A 
ATOM     88  F   UNL A   1      42.971  23.444  34.681  1.00  0.00    -0.206 F 
ATOM     89  C   UNL A   1      46.026  21.636  35.379  1.00  0.00     0.022 A 
BRANCH  86  90
ATOM     90  S   UNL A   1      48.733  22.119  34.913  1.00  0.00     0.124 S 
ATOM     91  O   UNL A   1      49.009  21.948  36.335  1.00  0.00    -0.237 OA
ATOM     92  O   UNL A   1      48.734  20.902  34.109  1.00  0.00    -0.237 OA
ATOM     93  O   UNL A   1      49.368  23.276  34.287  1.00  0.00    -0.744 OA
ENDBRANCH  86  90
ENDBRANCH  59  83
BRANCH  71  94
ATOM     94  C   UNL A   1      43.461  25.913  27.815  1.00  0.00     0.023 A 
ATOM     95  C   UNL A   1      42.589  24.827  27.613  1.00  0.00     0.031 A 
ATOM     96  C   UNL A   1      44.378  26.218  26.793  1.00  0.00     0.131 A 
ATOM     97  C   UNL A   1      42.710  24.037  26.459  1.00  0.00     0.055 A 
ATOM     98  C   UNL A   1      44.443  25.473  25.615  1.00  0.00     0.041 A 
ATOM     99  F   UNL A   1      45.238  27.241  26.929  1.00  0.00    -0.206 F 
ATOM    100  C   UNL A   1      43.619  24.362  25.451  1.00  0.00     0.022 A 
BRANCH  97 101
ATOM    101  S   UNL A   1      41.757  22.495  26.359  1.00  0.00     0.124 S 
ATOM    102  O   UNL A   1      40.384  22.987  26.362  1.00  0.00    -0.237 OA
ATOM    103  O   UNL A   1      42.226  21.921  25.103  1.00  0.00    -0.237 OA
ATOM    104  O   UNL A   1      42.158  21.767  27.562  1.00  0.00    -0.744 OA
ENDBRANCH  97 101
ENDBRANCH  71  94
ENDBRANCH  45  46
ENDBRANCH  38  40
ENDBRANCH  37  38
ENDBRANCH  36  37
ENDBRANCH  35  36
ENDBRANCH   1  35
TORSDOF 22
ENDMDL
MODEL 3
REMARK VINA RESULT:      -8.8      2.651      4.917
REMARK SMILES CCN1C(=O)/C(=C/c2cc([N+](=O)[O-])ccc2O)S/C1=[NH+]\c1ccc(C(=O)OCCOCCOC(=O)c2ccc(-c3c4nc(c(-c5cc(S(=O)(=O)[O-])ccc5F)c5ccc([nH]5)c(-c5cc(S(=O)(=O)[O-])ccc5F)c5nc(c(-c6cc(S(=O)(=O)[O-])ccc6F)c6ccc3[nH]6)C=C5)C=C4)cc2)cc1
REMARK SMILES IDX 30 1 29 2 28 3 27 4 25 5 26 6 24 7 21 8 22 9 100 10 23 11
REMARK SMILES IDX 99 12 20 13 3 14 4 15 19 16 5 17 6 18 18 19 7 20 2 22 1 23
REMARK SMILES IDX 8 24 9 25 16 26 10 27 15 28 14 29 17 30 11 32 12 33 13 34
REMARK SMILES IDX 31 35 32 36 33 37 34 38 35 39 36 40 37 41 98 42 38 43 97 44
REMARK SMILES IDX 39 45 40 46 41 47 91 48 42 49 96 50 90 51 92 52 43 53 95 54
REMARK SMILES IDX 89 55 88 56 44 58 76 59 56 60 75 61 57 62 60 63 74 64 93 65
REMARK SMILES IDX 58 66 59 67 73 69 94 70 61 71 45 72 46 73 54 74 47 75 53 76
REMARK SMILES IDX 55 77 52 78 48 79 49 80 50 81 51 82 77 83 78 84 86 85 79 86
REMARK SMILES IDX 85 87 87 88 84 89 80 90 81 91 82 92 83 93 62 94 63 95 71 96
REMARK SMILES IDX 64 97 70 98 72 99 69 100 65 101 66 102 67 103 68 104
REMARK H PARENT 20 21 17 31 92 57 60 68
REMARK Flexibility Score: inf
ROOT
ATOM      1  O   UNL A   1      43.122  20.756  26.664  1.00  0.00    -0.374 OA
ENDROOT
BRANCH   1   2
ATOM      2  C   UNL A   1      42.924  21.788  27.633  1.00  0.00     0.202 C 
BRANCH   2   3
ATOM      3  C   UNL A   1      41.481  22.273  27.809  1.00  0.00     0.261 C 
BRANCH   3   4
ATOM      4  O   UNL A   1      41.090  23.123  26.719  1.00  0.00    -0.460 OA
BRANCH   4   5
ATOM      5  C   UNL A   1      39.966  23.845  26.924  1.00  0.00     0.338 C 
ATOM      6  O   UNL A   1      39.883  24.932  27.482  1.00  0.00    -0.246 OA
BRANCH   5   7
ATOM      7  C   UNL A   1      38.807  23.206  26.254  1.00  0.00     0.060 A 
ATOM      8  C   UNL A   1      36.492  22.024  25.203  1.00  0.00     0.125 A 
ATOM      9  C   UNL A   1      36.430  23.286  25.797  1.00  0.00     0.052 A 
ATOM     10  C   UNL A   1      37.741  21.415  25.021  1.00  0.00     0.052 A 
ATOM     11  C   UNL A   1      37.578  23.873  26.325  1.00  0.00     0.020 A 
ATOM     12  C   UNL A   1      38.896  21.991  25.565  1.00  0.00     0.020 A 
BRANCH   8  13
ATOM     13  N   UNL A   1      35.283  21.383  24.885  1.00  0.00    -0.234 N 
ATOM     14  N   UNL A   1      33.158  21.526  23.883  1.00  0.00    -0.186 N 
ATOM     15  C   UNL A   1      32.239  22.404  23.332  1.00  0.00     0.348 C 
ATOM     16  C   UNL A   1      34.326  22.080  24.356  1.00  0.00     0.324 C 
ATOM     17  O   UNL A   1      31.182  22.106  22.791  1.00  0.00    -0.240 OA
ATOM     18  C   UNL A   1      32.729  23.804  23.450  1.00  0.00     0.110 C 
ATOM     19  S   UNL A   1      34.314  23.812  24.096  1.00  0.00     0.007 SA
ATOM     20  C   UNL A   1      32.007  24.874  23.090  1.00  0.00     0.036 C 
ATOM     21  H   UNL A   1      35.165  20.421  25.061  1.00  0.00     0.313 HD
BRANCH  14  22
ATOM     22  C   UNL A   1      32.962  20.085  23.791  1.00  0.00     0.244 C 
ATOM     23  C   UNL A   1      32.343  19.467  25.036  1.00  0.00     0.055 C 
ENDBRANCH  14  22
BRANCH  20  24
ATOM     24  C   UNL A   1      32.503  26.259  23.154  1.00  0.00     0.024 A 
ATOM     25  C   UNL A   1      32.315  27.003  24.326  1.00  0.00     0.097 A 
ATOM     26  C   UNL A   1      33.200  26.841  22.080  1.00  0.00     0.123 A 
ATOM     27  C   UNL A   1      32.828  28.307  24.410  1.00  0.00     0.270 A 
ATOM     28  C   UNL A   1      33.721  28.133  22.170  1.00  0.00     0.054 A 
ATOM     29  C   UNL A   1      33.536  28.871  23.339  1.00  0.00     0.089 A 
BRANCH  26  30
ATOM     30  O   UNL A   1      33.372  26.121  20.928  1.00  0.00    -0.507 OA
ATOM     31  H   UNL A   1      34.230  25.839  20.676  1.00  0.00     0.293 HD
ENDBRANCH  26  30
BRANCH  27  32
ATOM     32  N   UNL A   1      32.614  29.096  25.631  1.00  0.00     0.062 N 
ATOM     33  O   UNL A   1      32.103  28.523  26.603  1.00  0.00    -0.258 OA
ATOM     34  O   UNL A   1      32.936  30.291  25.606  1.00  0.00    -0.258 OA
ENDBRANCH  27  32
ENDBRANCH  20  24
ENDBRANCH   8  13
ENDBRANCH   5   7
ENDBRANCH   4   5
ENDBRANCH   3   4
ENDBRANCH   2   3
ENDBRANCH   1   2
BRANCH   1  35
ATOM     35  C   UNL A   1      43.775  21.121  25.447  1.00  0.00     0.202 C 
BRANCH  35  36
ATOM     36  C   UNL A   1      45.304  21.014  25.419  1.00  0.00     0.261 C 
BRANCH  36  37
ATOM     37  O   UNL A   1      45.944  22.191  25.941  1.00  0.00    -0.460 OA
BRANCH  37  38
ATOM     38  C   UNL A   1      45.929  23.253  25.100  1.00  0.00     0.338 C 
ATOM     39  O   UNL A   1      46.099  23.228  23.888  1.00  0.00    -0.246 OA
BRANCH  38  40
ATOM     40  C   UNL A   1      45.485  24.466  25.812  1.00  0.00     0.060 A 
ATOM     41  C   UNL A   1      44.964  25.507  25.034  1.00  0.00     0.016 A 
ATOM     42  C   UNL A   1      45.632  24.620  27.194  1.00  0.00     0.016 A 
ATOM     43  C   UNL A   1      44.641  26.725  25.625  1.00  0.00     0.010 A 
ATOM     44  C   UNL A   1      45.308  25.848  27.786  1.00  0.00     0.010 A 
ATOM     45  C   UNL A   1      44.846  26.919  26.998  1.00  0.00    -0.014 A 
BRANCH  45  46
ATOM     46  C   UNL A   1      44.697  28.286  27.555  1.00  0.00     0.031 A 
ATOM     47  C   UNL A   1      43.374  28.705  28.137  1.00  0.00     0.074 A 
ATOM     48  C   UNL A   1      45.754  29.118  27.611  1.00  0.00     0.049 A 
ATOM     49  N   UNL A   1      43.044  29.819  28.738  1.00  0.00    -0.248 NA
ATOM     50  C   UNL A   1      42.277  27.733  28.026  1.00  0.00     0.031 C 
ATOM     51  C   UNL A   1      47.092  28.812  27.106  1.00  0.00     0.029 A 
ATOM     52  N   UNL A   1      45.870  30.382  28.131  1.00  0.00    -0.354 N 
ATOM     53  C   UNL A   1      41.703  29.683  29.085  1.00  0.00     0.074 A 
ATOM     54  C   UNL A   1      41.272  28.397  28.577  1.00  0.00     0.031 C 
ATOM     55  C   UNL A   1      47.899  29.858  27.352  1.00  0.00     0.029 A 
ATOM     56  C   UNL A   1      47.131  30.916  28.006  1.00  0.00     0.049 A 
ATOM     57  H   UNL A   1      45.122  30.862  28.554  1.00  0.00     0.167 HD
ATOM     58  C   UNL A   1      40.911  30.541  29.776  1.00  0.00     0.034 A 
ATOM     59  C   UNL A   1      47.609  32.122  28.370  1.00  0.00     0.034 A 
ATOM     60  C   UNL A   1      41.350  31.830  30.257  1.00  0.00     0.049 A 
ATOM     61  C   UNL A   1      46.690  33.089  29.075  1.00  0.00     0.074 A 
ATOM     62  C   UNL A   1      40.636  32.775  30.974  1.00  0.00     0.029 A 
ATOM     63  N   UNL A   1      42.619  32.364  30.061  1.00  0.00    -0.354 N 
ATOM     64  N   UNL A   1      45.430  32.940  29.415  1.00  0.00    -0.248 NA
ATOM     65  C   UNL A   1      47.268  34.384  29.459  1.00  0.00     0.031 C 
ATOM     66  C   UNL A   1      41.445  33.905  31.144  1.00  0.00     0.029 A 
ATOM     67  C   UNL A   1      42.696  33.636  30.609  1.00  0.00     0.049 A 
ATOM     68  H   UNL A   1      43.358  31.906  29.597  1.00  0.00     0.167 HD
ATOM     69  C   UNL A   1      45.073  34.112  30.077  1.00  0.00     0.074 A 
ATOM     70  C   UNL A   1      46.260  34.943  30.110  1.00  0.00     0.031 C 
ATOM     71  C   UNL A   1      43.876  34.471  30.611  1.00  0.00     0.034 A 
BRANCH  58  72
ATOM     72  C   UNL A   1      39.475  30.125  30.000  1.00  0.00     0.023 A 
ATOM     73  C   UNL A   1      38.418  30.678  29.254  1.00  0.00     0.031 A 
ATOM     74  C   UNL A   1      39.152  29.193  31.002  1.00  0.00     0.131 A 
ATOM     75  C   UNL A   1      37.090  30.357  29.574  1.00  0.00     0.055 A 
ATOM     76  C   UNL A   1      37.832  28.814  31.260  1.00  0.00     0.041 A 
ATOM     77  F   UNL A   1      40.113  28.646  31.763  1.00  0.00    -0.206 F 
ATOM     78  C   UNL A   1      36.790  29.410  30.555  1.00  0.00     0.022 A 
BRANCH  75  79
ATOM     79  S   UNL A   1      35.755  31.312  28.799  1.00  0.00     0.124 S 
ATOM     80  O   UNL A   1      34.920  30.253  28.240  1.00  0.00    -0.237 OA
ATOM     81  O   UNL A   1      35.193  32.042  29.930  1.00  0.00    -0.237 OA
ATOM     82  O   UNL A   1      36.451  32.133  27.810  1.00  0.00    -0.744 OA
ENDBRANCH  75  79
ENDBRANCH  58  72
BRANCH  59  83
ATOM     83  C   UNL A   1      49.019  32.498  28.065  1.00  0.00     0.023 A 
ATOM     84  C   UNL A   1      49.348  33.208  26.898  1.00  0.00     0.031 A 
ATOM     85  C   UNL A   1      50.067  32.105  28.916  1.00  0.00     0.131 A 
ATOM     86  C   UNL A   1      50.694  33.465  26.593  1.00  0.00     0.055 A 
ATOM     87  C   UNL A   1      51.399  32.407  28.633  1.00  0.00     0.041 A 
ATOM     88  F   UNL A   1      49.806  31.427  30.045  1.00  0.00    -0.206 F 
ATOM     89  C   UNL A   1      51.720  33.081  27.459  1.00  0.00     0.022 A 
BRANCH  86  90
ATOM     90  S   UNL A   1      51.092  34.248  25.006  1.00  0.00     0.124 S 
ATOM     91  O   UNL A   1      49.797  34.790  24.609  1.00  0.00    -0.237 OA
ATOM     92  O   UNL A   1      52.103  35.224  25.396  1.00  0.00    -0.237 OA
ATOM     93  O   UNL A   1      51.582  33.138  24.192  1.00  0.00    -0.744 OA
ENDBRANCH  86  90
ENDBRANCH  59  83
BRANCH  71  94
ATOM     94  C   UNL A   1      43.814  35.816  31.300  1.00  0.00     0.023 A 
ATOM     95  C   UNL A   1      43.787  37.019  30.571  1.00  0.00     0.031 A 
ATOM     96  C   UNL A   1      43.838  35.899  32.704  1.00  0.00     0.131 A 
ATOM     97  C   UNL A   1      43.870  38.248  31.244  1.00  0.00     0.055 A 
ATOM     98  C   UNL A   1      43.846  37.125  33.370  1.00  0.00     0.041 A 
ATOM     99  F   UNL A   1      43.868  34.785  33.454  1.00  0.00    -0.206 F 
ATOM    100  C   UNL A   1      43.882  38.310  32.639  1.00  0.00     0.022 A 
BRANCH  97 101
ATOM    101  S   UNL A   1      44.104  39.759  30.266  1.00  0.00     0.124 S 
ATOM    102  O   UNL A   1      42.736  40.078  29.869  1.00  0.00    -0.237 OA
ATOM    103  O   UNL A   1      44.714  40.665  31.234  1.00  0.00    -0.237 OA
ATOM    104  O   UNL A   1      44.981  39.331  29.179  1.00  0.00    -0.744 OA
ENDBRANCH  97 101
ENDBRANCH  71  94
ENDBRANCH  45  46
ENDBRANCH  38  40
ENDBRANCH  37  38
ENDBRANCH  36  37
ENDBRANCH  35  36
ENDBRANCH   1  35
TORSDOF 22
ENDMDL
