MODEL 1
REMARK VINA RESULT:     -11.7      0.000      0.000
REMARK SMILES C[C@H]1[C@H](C(=O)OCCOCCOC(=O)c2ccc(-c3c4nc(c(-c5cc(S(=O)(=O)[O-])ccc5F)c5ccc([nH]5)c(-c5cc(S(=O)(=O)[O-])ccc5F)c5nc(c(-c6cc(S(=O)(=O)[O-])ccc6F)c6ccc3[nH]6)C=C5)C=C4)cc2)CCN1C(=O)[C@H]1CC=CCC1
REMARK SMILES IDX 10 1 9 2 8 3 7 4 6 5 4 6 5 7 3 8 1 9 2 10 80 11 78 12 79 13
REMARK SMILES IDX 81 14 82 15 83 16 84 17 88 18 85 19 87 20 86 21 11 22 12 23
REMARK SMILES IDX 13 24 14 25 15 26 16 27 77 28 17 29 76 30 18 31 19 32 20 33
REMARK SMILES IDX 70 34 21 35 75 36 69 37 71 38 22 39 74 40 68 41 67 42 23 44
REMARK SMILES IDX 55 45 35 46 54 47 36 48 39 49 53 50 72 51 37 52 38 53 52 55
REMARK SMILES IDX 73 56 40 57 24 58 25 59 33 60 26 61 32 62 34 63 31 64 27 65
REMARK SMILES IDX 28 66 29 67 30 68 56 69 57 70 65 71 58 72 64 73 66 74 63 75
REMARK SMILES IDX 59 76 60 77 61 78 62 79 41 80 42 81 50 82 43 83 49 84 51 85
REMARK SMILES IDX 48 86 44 87 45 88 46 89 47 90
REMARK H PARENT 71 43 39 54
REMARK Flexibility Score: inf
ROOT
ATOM      1  C   UNL A   1      36.165  21.000  25.228  1.00  0.00     0.202 C 
ENDROOT
BRANCH   1   2
ATOM      2  O   UNL A   1      35.261  19.927  24.972  1.00  0.00    -0.374 OA
BRANCH   2   3
ATOM      3  C   UNL A   1      33.949  20.284  24.540  1.00  0.00     0.202 C 
BRANCH   3   4
ATOM      4  C   UNL A   1      33.019  20.809  25.635  1.00  0.00     0.261 C 
BRANCH   4   5
ATOM      5  O   UNL A   1      32.738  22.218  25.509  1.00  0.00    -0.463 OA
BRANCH   5   6
ATOM      6  C   UNL A   1      31.424  22.557  25.540  1.00  0.00     0.311 C 
ATOM      7  O   UNL A   1      30.521  21.845  25.964  1.00  0.00    -0.252 OA
BRANCH   6   8
ATOM      8  C   UNL A   1      31.143  23.894  24.903  1.00  0.00     0.123 C 
ATOM      9  C   UNL A   1      32.086  25.928  25.970  1.00  0.00     0.032 C 
ATOM     10  C   UNL A   1      32.305  24.917  24.840  1.00  0.00     0.096 C 
ATOM     11  N   UNL A   1      32.184  25.535  23.504  1.00  0.00    -0.339 N 
ATOM     12  C   UNL A   1      30.683  23.726  23.463  1.00  0.00     0.039 C 
ATOM     13  C   UNL A   1      30.948  25.094  22.872  1.00  0.00     0.121 C 
BRANCH  11  14
ATOM     14  C   UNL A   1      32.990  26.387  22.783  1.00  0.00     0.226 C 
ATOM     15  O   UNL A   1      33.820  25.895  21.998  1.00  0.00    -0.275 OA
BRANCH  14  16
ATOM     16  C   UNL A   1      32.966  27.919  22.874  1.00  0.00     0.083 C 
ATOM     17  C   UNL A   1      31.584  28.568  22.783  1.00  0.00     0.040 C 
ATOM     18  C   UNL A   1      33.942  28.553  23.864  1.00  0.00     0.018 C 
ATOM     19  C   UNL A   1      31.127  29.288  24.014  1.00  0.00    -0.030 C 
ATOM     20  C   UNL A   1      33.340  29.098  25.154  1.00  0.00     0.028 C 
ATOM     21  C   UNL A   1      31.907  29.505  25.078  1.00  0.00    -0.031 C 
ENDBRANCH  14  16
ENDBRANCH  11  14
ENDBRANCH   6   8
ENDBRANCH   5   6
ENDBRANCH   4   5
ENDBRANCH   3   4
ENDBRANCH   2   3
ENDBRANCH   1   2
BRANCH   1  22
ATOM     22  C   UNL A   1      37.645  20.689  24.982  1.00  0.00     0.261 C 
BRANCH  22  23
ATOM     23  O   UNL A   1      38.483  21.821  25.281  1.00  0.00    -0.460 OA
BRANCH  23  24
ATOM     24  C   UNL A   1      39.512  21.555  26.127  1.00  0.00     0.338 C 
ATOM     25  O   UNL A   1      40.185  20.541  26.155  1.00  0.00    -0.246 OA
BRANCH  24  26
ATOM     26  C   UNL A   1      39.839  22.750  26.932  1.00  0.00     0.060 A 
ATOM     27  C   UNL A   1      39.066  23.896  26.727  1.00  0.00     0.016 A 
ATOM     28  C   UNL A   1      40.942  22.793  27.787  1.00  0.00     0.016 A 
ATOM     29  C   UNL A   1      39.441  25.103  27.316  1.00  0.00     0.010 A 
ATOM     30  C   UNL A   1      41.297  23.997  28.408  1.00  0.00     0.010 A 
ATOM     31  C   UNL A   1      40.585  25.175  28.123  1.00  0.00    -0.014 A 
BRANCH  31  32
ATOM     32  C   UNL A   1      41.133  26.511  28.483  1.00  0.00     0.031 A 
ATOM     33  C   UNL A   1      42.545  26.856  28.076  1.00  0.00     0.074 A 
ATOM     34  C   UNL A   1      40.365  27.435  29.091  1.00  0.00     0.049 A 
ATOM     35  N   UNL A   1      43.198  27.983  28.207  1.00  0.00    -0.248 NA
ATOM     36  C   UNL A   1      43.327  25.782  27.445  1.00  0.00     0.031 C 
ATOM     37  C   UNL A   1      38.987  27.229  29.534  1.00  0.00     0.029 A 
ATOM     38  N   UNL A   1      40.634  28.738  29.428  1.00  0.00    -0.354 N 
ATOM     39  C   UNL A   1      44.464  27.752  27.676  1.00  0.00     0.074 A 
ATOM     40  C   UNL A   1      44.505  26.361  27.282  1.00  0.00     0.031 C 
ATOM     41  C   UNL A   1      38.524  28.372  30.069  1.00  0.00     0.029 A 
ATOM     42  C   UNL A   1      39.576  29.386  30.023  1.00  0.00     0.049 A 
ATOM     43  H   UNL A   1      41.503  29.169  29.259  1.00  0.00     0.167 HD
ATOM     44  C   UNL A   1      45.492  28.622  27.505  1.00  0.00     0.034 A 
ATOM     45  C   UNL A   1      39.468  30.652  30.474  1.00  0.00     0.034 A 
ATOM     46  C   UNL A   1      45.443  30.009  27.895  1.00  0.00     0.049 A 
ATOM     47  C   UNL A   1      40.634  31.597  30.301  1.00  0.00     0.074 A 
ATOM     48  C   UNL A   1      46.415  30.983  27.748  1.00  0.00     0.029 A 
ATOM     49  N   UNL A   1      44.361  30.621  28.516  1.00  0.00    -0.354 N 
ATOM     50  N   UNL A   1      41.810  31.372  29.763  1.00  0.00    -0.248 NA
ATOM     51  C   UNL A   1      40.443  32.973  30.778  1.00  0.00     0.031 C 
ATOM     52  C   UNL A   1      45.946  32.166  28.332  1.00  0.00     0.029 A 
ATOM     53  C   UNL A   1      44.653  31.951  28.780  1.00  0.00     0.049 A 
ATOM     54  H   UNL A   1      43.511  30.176  28.737  1.00  0.00     0.167 HD
ATOM     55  C   UNL A   1      42.488  32.589  29.811  1.00  0.00     0.074 A 
ATOM     56  C   UNL A   1      41.580  33.545  30.413  1.00  0.00     0.031 C 
ATOM     57  C   UNL A   1      43.743  32.891  29.392  1.00  0.00     0.034 A 
BRANCH  44  58
ATOM     58  C   UNL A   1      46.763  28.075  26.900  1.00  0.00     0.023 A 
ATOM     59  C   UNL A   1      47.028  28.173  25.522  1.00  0.00     0.031 A 
ATOM     60  C   UNL A   1      47.703  27.406  27.704  1.00  0.00     0.131 A 
ATOM     61  C   UNL A   1      48.157  27.544  24.979  1.00  0.00     0.055 A 
ATOM     62  C   UNL A   1      48.868  26.851  27.168  1.00  0.00     0.041 A 
ATOM     63  F   UNL A   1      47.495  27.261  29.022  1.00  0.00    -0.206 F 
ATOM     64  C   UNL A   1      49.092  26.904  25.795  1.00  0.00     0.022 A 
BRANCH  61  65
ATOM     65  S   UNL A   1      48.308  27.440  23.174  1.00  0.00     0.124 S 
ATOM     66  O   UNL A   1      47.126  28.179  22.737  1.00  0.00    -0.237 OA
ATOM     67  O   UNL A   1      49.593  28.086  22.928  1.00  0.00    -0.237 OA
ATOM     68  O   UNL A   1      48.270  26.004  22.908  1.00  0.00    -0.744 OA
ENDBRANCH  61  65
ENDBRANCH  44  58
BRANCH  45  69
ATOM     69  C   UNL A   1      38.217  31.112  31.142  1.00  0.00     0.023 A 
ATOM     70  C   UNL A   1      37.192  31.740  30.417  1.00  0.00     0.031 A 
ATOM     71  C   UNL A   1      38.057  30.977  32.532  1.00  0.00     0.131 A 
ATOM     72  C   UNL A   1      36.073  32.253  31.092  1.00  0.00     0.055 A 
ATOM     73  C   UNL A   1      36.920  31.447  33.192  1.00  0.00     0.041 A 
ATOM     74  F   UNL A   1      39.006  30.380  33.270  1.00  0.00    -0.206 F 
ATOM     75  C   UNL A   1      35.925  32.102  32.472  1.00  0.00     0.022 A 
BRANCH  72  76
ATOM     76  S   UNL A   1      34.842  33.193  30.146  1.00  0.00     0.124 S 
ATOM     77  O   UNL A   1      34.299  32.168  29.262  1.00  0.00    -0.237 OA
ATOM     78  O   UNL A   1      33.951  33.669  31.199  1.00  0.00    -0.237 OA
ATOM     79  O   UNL A   1      35.636  34.229  29.489  1.00  0.00    -0.744 OA
ENDBRANCH  72  76
ENDBRANCH  45  69
BRANCH  57  80
ATOM     80  C   UNL A   1      44.186  34.328  29.534  1.00  0.00     0.023 A 
ATOM     81  C   UNL A   1      43.792  35.318  28.616  1.00  0.00     0.031 A 
ATOM     82  C   UNL A   1      45.036  34.704  30.588  1.00  0.00     0.131 A 
ATOM     83  C   UNL A   1      44.299  36.621  28.733  1.00  0.00     0.055 A 
ATOM     84  C   UNL A   1      45.489  36.017  30.735  1.00  0.00     0.041 A 
ATOM     85  F   UNL A   1      45.443  33.801  31.494  1.00  0.00    -0.206 F 
ATOM     86  C   UNL A   1      45.134  36.980  29.795  1.00  0.00     0.022 A 
BRANCH  83  87
ATOM     87  S   UNL A   1      43.937  37.818  27.419  1.00  0.00     0.124 S 
ATOM     88  O   UNL A   1      45.255  38.030  26.830  1.00  0.00    -0.237 OA
ATOM     89  O   UNL A   1      42.979  37.092  26.592  1.00  0.00    -0.237 OA
ATOM     90  O   UNL A   1      43.388  38.965  28.141  1.00  0.00    -0.744 OA
ENDBRANCH  83  87
ENDBRANCH  57  80
ENDBRANCH  31  32
ENDBRANCH  24  26
ENDBRANCH  23  24
ENDBRANCH  22  23
ENDBRANCH   1  22
TORSDOF 19
ENDMDL
MODEL 2
REMARK VINA RESULT:     -11.4      4.726     10.153
REMARK SMILES C[C@H]1[C@H](C(=O)OCCOCCOC(=O)c2ccc(-c3c4nc(c(-c5cc(S(=O)(=O)[O-])ccc5F)c5ccc([nH]5)c(-c5cc(S(=O)(=O)[O-])ccc5F)c5nc(c(-c6cc(S(=O)(=O)[O-])ccc6F)c6ccc3[nH]6)C=C5)C=C4)cc2)CCN1C(=O)[C@H]1CC=CCC1
REMARK SMILES IDX 10 1 9 2 8 3 7 4 6 5 4 6 5 7 3 8 1 9 2 10 80 11 78 12 79 13
REMARK SMILES IDX 81 14 82 15 83 16 84 17 88 18 85 19 87 20 86 21 11 22 12 23
REMARK SMILES IDX 13 24 14 25 15 26 16 27 77 28 17 29 76 30 18 31 19 32 20 33
REMARK SMILES IDX 70 34 21 35 75 36 69 37 71 38 22 39 74 40 68 41 67 42 23 44
REMARK SMILES IDX 55 45 35 46 54 47 36 48 39 49 53 50 72 51 37 52 38 53 52 55
REMARK SMILES IDX 73 56 40 57 24 58 25 59 33 60 26 61 32 62 34 63 31 64 27 65
REMARK SMILES IDX 28 66 29 67 30 68 56 69 57 70 65 71 58 72 64 73 66 74 63 75
REMARK SMILES IDX 59 76 60 77 61 78 62 79 41 80 42 81 50 82 43 83 49 84 51 85
REMARK SMILES IDX 48 86 44 87 45 88 46 89 47 90
REMARK H PARENT 71 43 39 54
REMARK Flexibility Score: inf
ROOT
ATOM      1  C   UNL A   1      31.560  29.975  25.391  1.00  0.00     0.202 C 
ENDROOT
BRANCH   1   2
ATOM      2  O   UNL A   1      32.811  29.536  24.864  1.00  0.00    -0.374 OA
BRANCH   2   3
ATOM      3  C   UNL A   1      33.073  28.135  24.920  1.00  0.00     0.202 C 
BRANCH   3   4
ATOM      4  C   UNL A   1      31.982  27.291  25.580  1.00  0.00     0.261 C 
BRANCH   4   5
ATOM      5  O   UNL A   1      31.710  26.066  24.869  1.00  0.00    -0.463 OA
BRANCH   5   6
ATOM      6  C   UNL A   1      30.976  25.147  25.548  1.00  0.00     0.311 C 
ATOM      7  O   UNL A   1      30.149  25.405  26.415  1.00  0.00    -0.252 OA
BRANCH   6   8
ATOM      8  C   UNL A   1      31.340  23.726  25.200  1.00  0.00     0.123 C 
ATOM      9  C   UNL A   1      32.211  23.256  22.923  1.00  0.00     0.032 C 
ATOM     10  C   UNL A   1      32.632  23.497  24.376  1.00  0.00     0.096 C 
ATOM     11  N   UNL A   1      33.254  22.304  24.984  1.00  0.00    -0.339 N 
ATOM     12  C   UNL A   1      31.516  22.886  26.456  1.00  0.00     0.039 C 
ATOM     13  C   UNL A   1      32.342  21.720  25.958  1.00  0.00     0.121 C 
BRANCH  11  14
ATOM     14  C   UNL A   1      34.477  21.691  24.821  1.00  0.00     0.226 C 
ATOM     15  O   UNL A   1      34.566  20.474  25.057  1.00  0.00    -0.275 OA
BRANCH  14  16
ATOM     16  C   UNL A   1      35.768  22.395  24.380  1.00  0.00     0.083 C 
ATOM     17  C   UNL A   1      35.990  23.795  24.955  1.00  0.00     0.040 C 
ATOM     18  C   UNL A   1      37.010  21.514  24.256  1.00  0.00     0.018 C 
ATOM     19  C   UNL A   1      37.173  23.939  25.862  1.00  0.00    -0.030 C 
ATOM     20  C   UNL A   1      38.056  21.660  25.354  1.00  0.00     0.028 C 
ATOM     21  C   UNL A   1      38.081  22.977  26.053  1.00  0.00    -0.031 C 
ENDBRANCH  14  16
ENDBRANCH  11  14
ENDBRANCH   6   8
ENDBRANCH   5   6
ENDBRANCH   4   5
ENDBRANCH   3   4
ENDBRANCH   2   3
ENDBRANCH   1   2
BRANCH   1  22
ATOM     22  C   UNL A   1      31.622  31.208  26.299  1.00  0.00     0.261 C 
BRANCH  22  23
ATOM     23  O   UNL A   1      32.609  31.054  27.336  1.00  0.00    -0.460 OA
BRANCH  23  24
ATOM     24  C   UNL A   1      33.387  32.148  27.543  1.00  0.00     0.338 C 
ATOM     25  O   UNL A   1      33.007  33.299  27.651  1.00  0.00    -0.246 OA
BRANCH  24  26
ATOM     26  C   UNL A   1      34.786  31.746  27.794  1.00  0.00     0.060 A 
ATOM     27  C   UNL A   1      35.048  30.380  27.934  1.00  0.00     0.016 A 
ATOM     28  C   UNL A   1      35.805  32.678  27.998  1.00  0.00     0.016 A 
ATOM     29  C   UNL A   1      36.307  29.951  28.354  1.00  0.00     0.010 A 
ATOM     30  C   UNL A   1      37.079  32.246  28.386  1.00  0.00     0.010 A 
ATOM     31  C   UNL A   1      37.319  30.883  28.629  1.00  0.00    -0.014 A 
BRANCH  31  32
ATOM     32  C   UNL A   1      38.534  30.433  29.360  1.00  0.00     0.031 A 
ATOM     33  C   UNL A   1      38.710  30.839  30.804  1.00  0.00     0.074 A 
ATOM     34  C   UNL A   1      39.430  29.612  28.780  1.00  0.00     0.049 A 
ATOM     35  N   UNL A   1      39.642  30.497  31.657  1.00  0.00    -0.248 NA
ATOM     36  C   UNL A   1      37.707  31.762  31.353  1.00  0.00     0.031 C 
ATOM     37  C   UNL A   1      39.374  29.145  27.395  1.00  0.00     0.029 A 
ATOM     38  N   UNL A   1      40.555  29.014  29.290  1.00  0.00    -0.354 N 
ATOM     39  C   UNL A   1      39.335  31.162  32.841  1.00  0.00     0.074 A 
ATOM     40  C   UNL A   1      38.170  31.977  32.574  1.00  0.00     0.031 C 
ATOM     41  C   UNL A   1      40.410  28.318  27.171  1.00  0.00     0.029 A 
ATOM     42  C   UNL A   1      41.212  28.209  28.388  1.00  0.00     0.049 A 
ATOM     43  H   UNL A   1      40.863  29.148  30.216  1.00  0.00     0.167 HD
ATOM     44  C   UNL A   1      39.948  31.085  34.050  1.00  0.00     0.034 A 
ATOM     45  C   UNL A   1      42.328  27.467  28.530  1.00  0.00     0.034 A 
ATOM     46  C   UNL A   1      41.106  30.266  34.312  1.00  0.00     0.049 A 
ATOM     47  C   UNL A   1      43.013  27.416  29.876  1.00  0.00     0.074 A 
ATOM     48  C   UNL A   1      41.791  30.096  35.502  1.00  0.00     0.029 A 
ATOM     49  N   UNL A   1      41.755  29.484  33.365  1.00  0.00    -0.354 N 
ATOM     50  N   UNL A   1      42.687  28.022  30.994  1.00  0.00    -0.248 NA
ATOM     51  C   UNL A   1      44.202  26.561  29.979  1.00  0.00     0.031 C 
ATOM     52  C   UNL A   1      42.887  29.258  35.262  1.00  0.00     0.029 A 
ATOM     53  C   UNL A   1      42.846  28.849  33.940  1.00  0.00     0.049 A 
ATOM     54  H   UNL A   1      41.481  29.394  32.424  1.00  0.00     0.167 HD
ATOM     55  C   UNL A   1      43.617  27.597  31.941  1.00  0.00     0.074 A 
ATOM     56  C   UNL A   1      44.501  26.669  31.265  1.00  0.00     0.031 C 
ATOM     57  C   UNL A   1      43.728  27.936  33.251  1.00  0.00     0.034 A 
BRANCH  44  58
ATOM     58  C   UNL A   1      39.387  31.940  35.162  1.00  0.00     0.023 A 
ATOM     59  C   UNL A   1      39.814  33.264  35.363  1.00  0.00     0.031 A 
ATOM     60  C   UNL A   1      38.445  31.408  36.061  1.00  0.00     0.131 A 
ATOM     61  C   UNL A   1      39.363  33.983  36.480  1.00  0.00     0.055 A 
ATOM     62  C   UNL A   1      37.938  32.158  37.125  1.00  0.00     0.041 A 
ATOM     63  F   UNL A   1      38.017  30.143  35.934  1.00  0.00    -0.206 F 
ATOM     64  C   UNL A   1      38.410  33.448  37.349  1.00  0.00     0.022 A 
BRANCH  61  65
ATOM     65  S   UNL A   1      40.156  35.569  36.867  1.00  0.00     0.124 S 
ATOM     66  O   UNL A   1      39.695  35.802  38.234  1.00  0.00    -0.237 OA
ATOM     67  O   UNL A   1      41.573  35.259  36.714  1.00  0.00    -0.237 OA
ATOM     68  O   UNL A   1      39.605  36.481  35.868  1.00  0.00    -0.744 OA
ENDBRANCH  61  65
ENDBRANCH  44  58
BRANCH  45  69
ATOM     69  C   UNL A   1      42.885  26.711  27.372  1.00  0.00     0.023 A 
ATOM     70  C   UNL A   1      42.554  25.364  27.153  1.00  0.00     0.031 A 
ATOM     71  C   UNL A   1      43.805  27.316  26.498  1.00  0.00     0.131 A 
ATOM     72  C   UNL A   1      43.176  24.653  26.114  1.00  0.00     0.055 A 
ATOM     73  C   UNL A   1      44.385  26.617  25.438  1.00  0.00     0.041 A 
ATOM     74  F   UNL A   1      44.152  28.603  26.663  1.00  0.00    -0.206 F 
ATOM     75  C   UNL A   1      44.080  25.273  25.250  1.00  0.00     0.022 A 
BRANCH  72  76
ATOM     76  S   UNL A   1      42.841  22.876  25.955  1.00  0.00     0.124 S 
ATOM     77  O   UNL A   1      43.114  22.648  24.541  1.00  0.00    -0.237 OA
ATOM     78  O   UNL A   1      43.800  22.303  26.894  1.00  0.00    -0.237 OA
ATOM     79  O   UNL A   1      41.439  22.757  26.349  1.00  0.00    -0.744 OA
ENDBRANCH  72  76
ENDBRANCH  45  69
BRANCH  57  80
ATOM     80  C   UNL A   1      44.823  27.262  34.043  1.00  0.00     0.023 A 
ATOM     81  C   UNL A   1      44.586  26.092  34.786  1.00  0.00     0.031 A 
ATOM     82  C   UNL A   1      46.114  27.816  34.076  1.00  0.00     0.131 A 
ATOM     83  C   UNL A   1      45.608  25.549  35.580  1.00  0.00     0.055 A 
ATOM     84  C   UNL A   1      47.144  27.238  34.820  1.00  0.00     0.041 A 
ATOM     85  F   UNL A   1      46.397  28.932  33.386  1.00  0.00    -0.206 F 
ATOM     86  C   UNL A   1      46.890  26.107  35.591  1.00  0.00     0.022 A 
BRANCH  83  87
ATOM     87  S   UNL A   1      45.211  24.164  36.683  1.00  0.00     0.124 S 
ATOM     88  O   UNL A   1      46.513  23.861  37.270  1.00  0.00    -0.237 OA
ATOM     89  O   UNL A   1      44.228  24.756  37.584  1.00  0.00    -0.237 OA
ATOM     90  O   UNL A   1      44.687  23.143  35.777  1.00  0.00    -0.744 OA
ENDBRANCH  83  87
ENDBRANCH  57  80
ENDBRANCH  31  32
ENDBRANCH  24  26
ENDBRANCH  23  24
ENDBRANCH  22  23
ENDBRANCH   1  22
TORSDOF 19
ENDMDL
MODEL 3
REMARK VINA RESULT:     -11.3      4.658     10.175
REMARK SMILES C[C@H]1[C@H](C(=O)OCCOCCOC(=O)c2ccc(-c3c4nc(c(-c5cc(S(=O)(=O)[O-])ccc5F)c5ccc([nH]5)c(-c5cc(S(=O)(=O)[O-])ccc5F)c5nc(c(-c6cc(S(=O)(=O)[O-])ccc6F)c6ccc3[nH]6)C=C5)C=C4)cc2)CCN1C(=O)[C@H]1CC=CCC1
REMARK SMILES IDX 10 1 9 2 8 3 7 4 6 5 4 6 5 7 3 8 1 9 2 10 80 11 78 12 79 13
REMARK SMILES IDX 81 14 82 15 83 16 84 17 88 18 85 19 87 20 86 21 11 22 12 23
REMARK SMILES IDX 13 24 14 25 15 26 16 27 77 28 17 29 76 30 18 31 19 32 20 33
REMARK SMILES IDX 70 34 21 35 75 36 69 37 71 38 22 39 74 40 68 41 67 42 23 44
REMARK SMILES IDX 55 45 35 46 54 47 36 48 39 49 53 50 72 51 37 52 38 53 52 55
REMARK SMILES IDX 73 56 40 57 24 58 25 59 33 60 26 61 32 62 34 63 31 64 27 65
REMARK SMILES IDX 28 66 29 67 30 68 56 69 57 70 65 71 58 72 64 73 66 74 63 75
REMARK SMILES IDX 59 76 60 77 61 78 62 79 41 80 42 81 50 82 43 83 49 84 51 85
REMARK SMILES IDX 48 86 44 87 45 88 46 89 47 90
REMARK H PARENT 71 43 39 54
REMARK Flexibility Score: inf
ROOT
ATOM      1  C   UNL A   1      31.678  30.421  25.718  1.00  0.00     0.202 C 
ENDROOT
BRANCH   1   2
ATOM      2  O   UNL A   1      32.787  29.706  25.177  1.00  0.00    -0.374 OA
BRANCH   2   3
ATOM      3  C   UNL A   1      32.725  28.282  25.244  1.00  0.00     0.202 C 
BRANCH   3   4
ATOM      4  C   UNL A   1      31.472  27.712  25.912  1.00  0.00     0.261 C 
BRANCH   4   5
ATOM      5  O   UNL A   1      30.626  26.987  24.996  1.00  0.00    -0.463 OA
BRANCH   5   6
ATOM      6  C   UNL A   1      30.288  25.731  25.385  1.00  0.00     0.311 C 
ATOM      7  O   UNL A   1      29.758  25.440  26.451  1.00  0.00    -0.252 OA
BRANCH   6   8
ATOM      8  C   UNL A   1      30.713  24.673  24.398  1.00  0.00     0.123 C 
ATOM      9  C   UNL A   1      31.609  25.402  22.200  1.00  0.00     0.032 C 
ATOM     10  C   UNL A   1      32.016  24.921  23.597  1.00  0.00     0.096 C 
ATOM     11  N   UNL A   1      32.687  23.606  23.563  1.00  0.00    -0.339 N 
ATOM     12  C   UNL A   1      30.922  23.335  25.091  1.00  0.00     0.039 C 
ATOM     13  C   UNL A   1      31.798  22.590  24.108  1.00  0.00     0.121 C 
BRANCH  11  14
ATOM     14  C   UNL A   1      33.935  23.195  23.151  1.00  0.00     0.226 C 
ATOM     15  O   UNL A   1      34.280  23.430  21.980  1.00  0.00    -0.275 OA
BRANCH  14  16
ATOM     16  C   UNL A   1      34.952  22.444  24.021  1.00  0.00     0.083 C 
ATOM     17  C   UNL A   1      36.415  22.576  23.598  1.00  0.00     0.040 C 
ATOM     18  C   UNL A   1      34.685  22.444  25.526  1.00  0.00     0.018 C 
ATOM     19  C   UNL A   1      37.307  23.280  24.573  1.00  0.00    -0.030 C 
ATOM     20  C   UNL A   1      35.577  23.343  26.372  1.00  0.00     0.028 C 
ATOM     21  C   UNL A   1      36.924  23.638  25.803  1.00  0.00    -0.031 C 
ENDBRANCH  14  16
ENDBRANCH  11  14
ENDBRANCH   6   8
ENDBRANCH   5   6
ENDBRANCH   4   5
ENDBRANCH   3   4
ENDBRANCH   2   3
ENDBRANCH   1   2
BRANCH   1  22
ATOM     22  C   UNL A   1      32.010  31.388  26.860  1.00  0.00     0.261 C 
BRANCH  22  23
ATOM     23  O   UNL A   1      33.171  30.961  27.596  1.00  0.00    -0.460 OA
BRANCH  23  24
ATOM     24  C   UNL A   1      34.004  31.966  27.971  1.00  0.00     0.338 C 
ATOM     25  O   UNL A   1      33.683  33.097  28.287  1.00  0.00    -0.246 OA
BRANCH  24  26
ATOM     26  C   UNL A   1      35.386  31.464  28.113  1.00  0.00     0.060 A 
ATOM     27  C   UNL A   1      35.564  30.079  28.180  1.00  0.00     0.016 A 
ATOM     28  C   UNL A   1      36.476  32.318  28.289  1.00  0.00     0.016 A 
ATOM     29  C   UNL A   1      36.815  29.551  28.499  1.00  0.00     0.010 A 
ATOM     30  C   UNL A   1      37.740  31.788  28.574  1.00  0.00     0.010 A 
ATOM     31  C   UNL A   1      37.903  30.402  28.745  1.00  0.00    -0.014 A 
BRANCH  31  32
ATOM     32  C   UNL A   1      39.129  29.843  29.376  1.00  0.00     0.031 A 
ATOM     33  C   UNL A   1      39.504  30.293  30.768  1.00  0.00     0.074 A 
ATOM     34  C   UNL A   1      39.855  28.892  28.760  1.00  0.00     0.049 A 
ATOM     35  N   UNL A   1      40.476  29.881  31.543  1.00  0.00    -0.248 NA
ATOM     36  C   UNL A   1      38.680  31.357  31.358  1.00  0.00     0.031 C 
ATOM     37  C   UNL A   1      39.597  28.369  27.419  1.00  0.00     0.029 A 
ATOM     38  N   UNL A   1      40.950  28.185  29.190  1.00  0.00    -0.354 N 
ATOM     39  C   UNL A   1      40.377  30.634  32.709  1.00  0.00     0.074 A 
ATOM     40  C   UNL A   1      39.293  31.571  32.511  1.00  0.00     0.031 C 
ATOM     41  C   UNL A   1      40.499  27.411  27.142  1.00  0.00     0.029 A 
ATOM     42  C   UNL A   1      41.408  27.264  28.277  1.00  0.00     0.049 A 
ATOM     43  H   UNL A   1      41.369  28.324  30.070  1.00  0.00     0.167 HD
ATOM     44  C   UNL A   1      41.102  30.540  33.852  1.00  0.00     0.034 A 
ATOM     45  C   UNL A   1      42.439  26.398  28.350  1.00  0.00     0.034 A 
ATOM     46  C   UNL A   1      42.178  29.600  34.046  1.00  0.00     0.049 A 
ATOM     47  C   UNL A   1      43.253  26.328  29.621  1.00  0.00     0.074 A 
ATOM     48  C   UNL A   1      42.962  29.404  35.169  1.00  0.00     0.029 A 
ATOM     49  N   UNL A   1      42.626  28.699  33.088  1.00  0.00    -0.354 N 
ATOM     50  N   UNL A   1      43.122  27.023  30.728  1.00  0.00    -0.248 NA
ATOM     51  C   UNL A   1      44.339  25.339  29.656  1.00  0.00     0.031 C 
ATOM     52  C   UNL A   1      43.921  28.427  34.872  1.00  0.00     0.029 A 
ATOM     53  C   UNL A   1      43.691  27.964  33.587  1.00  0.00     0.049 A 
ATOM     54  H   UNL A   1      42.244  28.598  32.186  1.00  0.00     0.167 HD
ATOM     55  C   UNL A   1      44.091  26.532  31.600  1.00  0.00     0.074 A 
ATOM     56  C   UNL A   1      44.784  25.472  30.896  1.00  0.00     0.031 C 
ATOM     57  C   UNL A   1      44.381  26.917  32.870  1.00  0.00     0.034 A 
BRANCH  44  58
ATOM     58  C   UNL A   1      40.767  31.510  34.962  1.00  0.00     0.023 A 
ATOM     59  C   UNL A   1      39.708  31.271  35.856  1.00  0.00     0.031 A 
ATOM     60  C   UNL A   1      41.487  32.710  35.099  1.00  0.00     0.131 A 
ATOM     61  C   UNL A   1      39.348  32.252  36.792  1.00  0.00     0.055 A 
ATOM     62  C   UNL A   1      41.175  33.646  36.087  1.00  0.00     0.041 A 
ATOM     63  F   UNL A   1      42.494  33.002  34.261  1.00  0.00    -0.206 F 
ATOM     64  C   UNL A   1      40.089  33.428  36.930  1.00  0.00     0.022 A 
BRANCH  61  65
ATOM     65  S   UNL A   1      37.805  32.038  37.722  1.00  0.00     0.124 S 
ATOM     66  O   UNL A   1      36.965  33.085  37.145  1.00  0.00    -0.237 OA
ATOM     67  O   UNL A   1      37.430  30.666  37.399  1.00  0.00    -0.237 OA
ATOM     68  O   UNL A   1      38.205  32.266  39.109  1.00  0.00    -0.744 OA
ENDBRANCH  61  65
ENDBRANCH  44  58
BRANCH  45  69
ATOM     69  C   UNL A   1      42.777  25.525  27.190  1.00  0.00     0.023 A 
ATOM     70  C   UNL A   1      42.351  24.188  27.134  1.00  0.00     0.031 A 
ATOM     71  C   UNL A   1      43.583  26.006  26.143  1.00  0.00     0.131 A 
ATOM     72  C   UNL A   1      42.772  23.364  26.078  1.00  0.00     0.055 A 
ATOM     73  C   UNL A   1      43.961  25.195  25.071  1.00  0.00     0.041 A 
ATOM     74  F   UNL A   1      44.013  27.277  26.148  1.00  0.00    -0.206 F 
ATOM     75  C   UNL A   1      43.565  23.862  25.042  1.00  0.00     0.022 A 
BRANCH  72  76
ATOM     76  S   UNL A   1      42.330  21.604  26.118  1.00  0.00     0.124 S 
ATOM     77  O   UNL A   1      43.336  21.026  25.235  1.00  0.00    -0.237 OA
ATOM     78  O   UNL A   1      42.465  21.291  27.537  1.00  0.00    -0.237 OA
ATOM     79  O   UNL A   1      40.962  21.586  25.606  1.00  0.00    -0.744 OA
ENDBRANCH  72  76
ENDBRANCH  45  69
BRANCH  57  80
ATOM     80  C   UNL A   1      45.468  26.154  33.587  1.00  0.00     0.023 A 
ATOM     81  C   UNL A   1      45.202  24.953  34.270  1.00  0.00     0.031 A 
ATOM     82  C   UNL A   1      46.783  26.649  33.610  1.00  0.00     0.131 A 
ATOM     83  C   UNL A   1      46.222  24.323  34.999  1.00  0.00     0.055 A 
ATOM     84  C   UNL A   1      47.808  25.986  34.287  1.00  0.00     0.041 A 
ATOM     85  F   UNL A   1      47.094  27.791  32.975  1.00  0.00    -0.206 F 
ATOM     86  C   UNL A   1      47.527  24.824  35.000  1.00  0.00     0.022 A 
BRANCH  83  87
ATOM     87  S   UNL A   1      45.798  22.894  36.034  1.00  0.00     0.124 S 
ATOM     88  O   UNL A   1      47.113  22.419  36.450  1.00  0.00    -0.237 OA
ATOM     89  O   UNL A   1      44.979  23.500  37.079  1.00  0.00    -0.237 OA
ATOM     90  O   UNL A   1      45.079  22.009  35.119  1.00  0.00    -0.744 OA
ENDBRANCH  83  87
ENDBRANCH  57  80
ENDBRANCH  31  32
ENDBRANCH  24  26
ENDBRANCH  23  24
ENDBRANCH  22  23
ENDBRANCH   1  22
TORSDOF 19
ENDMDL
