MODEL 1
REMARK VINA RESULT:     -12.5      0.000      0.000
REMARK SMILES CC[C@H](C)[C@H](NC(=O)CN1C(=O)/C(=C/c2ccc(C)cc2)SC1=S)C(=O)OCCOCCOC(=O)c1ccc(-c2c3nc(c(-c4cc(S(=O)(=O)[O-])ccc4F)c4ccc([nH]4)c(-c4cc(S(=O)(=O)[O-])ccc4F)c4nc(c(-c5cc(S(=O)(=O)[O-])ccc5F)c5ccc2[nH]5)C=C4)C=C3)cc1
REMARK SMILES IDX 29 1 28 2 27 3 25 4 26 5 5 6 3 7 4 8 2 9 1 10 6 11 7 12 8 14
REMARK SMILES IDX 9 15 10 16 11 17 23 18 12 19 13 20 22 21 24 22 14 23 15 24
REMARK SMILES IDX 16 25 21 26 17 27 20 28 18 29 19 30 30 31 31 32 32 33 33 34
REMARK SMILES IDX 34 35 35 36 36 37 37 38 98 39 38 40 97 41 39 42 40 43 41 44
REMARK SMILES IDX 91 45 42 46 96 47 90 48 92 49 43 50 95 51 89 52 88 53 44 55
REMARK SMILES IDX 76 56 56 57 75 58 57 59 60 60 74 61 93 62 58 63 59 64 73 66
REMARK SMILES IDX 94 67 61 68 45 69 46 70 54 71 47 72 53 73 55 74 52 75 48 76
REMARK SMILES IDX 49 77 50 78 51 79 77 80 78 81 86 82 79 83 85 84 87 85 84 86
REMARK SMILES IDX 80 87 81 88 82 89 83 90 62 91 63 92 71 93 64 94 70 95 72 96
REMARK SMILES IDX 69 97 65 98 66 99 67 100 68 101
REMARK H PARENT 6 13 92 54 60 65
REMARK Flexibility Score: inf
ROOT
ATOM      1  C   UNL A   1      37.934  22.204  25.240  1.00  0.00     0.202 C 
ENDROOT
BRANCH   1   2
ATOM      2  C   UNL A   1      36.621  22.262  24.401  1.00  0.00     0.261 C 
BRANCH   2   3
ATOM      3  O   UNL A   1      35.413  22.694  25.018  1.00  0.00    -0.462 OA
BRANCH   3   4
ATOM      4  C   UNL A   1      34.663  21.799  25.669  1.00  0.00     0.328 C 
ATOM      5  O   UNL A   1      34.644  21.771  26.887  1.00  0.00    -0.250 OA
BRANCH   4   6
ATOM      6  C   UNL A   1      33.679  21.104  24.694  1.00  0.00     0.195 C 
BRANCH   6   7
ATOM      7  C   UNL A   1      33.737  19.567  24.499  1.00  0.00     0.019 C 
ATOM      8  C   UNL A   1      35.101  18.950  24.801  1.00  0.00     0.010 C 
BRANCH   7   9
ATOM      9  C   UNL A   1      32.526  18.715  24.972  1.00  0.00     0.002 C 
ATOM     10  C   UNL A   1      32.712  17.424  25.744  1.00  0.00     0.004 C 
ENDBRANCH   7   9
ENDBRANCH   6   7
BRANCH   6  11
ATOM     11  N   UNL A   1      33.437  21.793  23.381  1.00  0.00    -0.341 N 
ATOM     12  C   UNL A   1      32.223  22.020  22.787  1.00  0.00     0.240 C 
ATOM     13  H   UNL A   1      34.233  22.114  22.898  1.00  0.00     0.164 HD
ATOM     14  O   UNL A   1      31.917  21.363  21.783  1.00  0.00    -0.273 OA
BRANCH  12  15
ATOM     15  C   UNL A   1      31.215  23.022  23.355  1.00  0.00     0.227 C 
BRANCH  15  16
ATOM     16  N   UNL A   1      31.781  24.360  23.786  1.00  0.00    -0.283 N 
ATOM     17  C   UNL A   1      32.344  24.871  25.501  1.00  0.00     0.266 C 
ATOM     18  C   UNL A   1      32.326  25.451  22.454  1.00  0.00     0.148 C 
ATOM     19  O   UNL A   1      32.341  24.479  26.651  1.00  0.00    -0.268 OA
ATOM     20  C   UNL A   1      33.598  26.380  25.343  1.00  0.00     0.081 C 
ATOM     21  S   UNL A   1      33.803  27.002  23.247  1.00  0.00    -0.054 SA
ATOM     22  S   UNL A   1      31.849  25.869  20.901  1.00  0.00    -0.052 S 
ATOM     23  C   UNL A   1      33.858  27.104  26.433  1.00  0.00     0.029 C 
BRANCH  23  24
ATOM     24  C   UNL A   1      33.439  28.492  26.667  1.00  0.00    -0.024 A 
ATOM     25  C   UNL A   1      34.402  29.255  27.353  1.00  0.00     0.008 A 
ATOM     26  C   UNL A   1      32.221  29.091  26.354  1.00  0.00     0.008 A 
ATOM     27  C   UNL A   1      34.203  30.597  27.637  1.00  0.00     0.004 A 
ATOM     28  C   UNL A   1      32.013  30.449  26.646  1.00  0.00     0.004 A 
ATOM     29  C   UNL A   1      33.023  31.219  27.243  1.00  0.00    -0.051 A 
ATOM     30  C   UNL A   1      32.874  32.698  27.423  1.00  0.00     0.044 C 
ENDBRANCH  23  24
ENDBRANCH  15  16
ENDBRANCH  12  15
ENDBRANCH   6  11
ENDBRANCH   4   6
ENDBRANCH   3   4
ENDBRANCH   2   3
ENDBRANCH   1   2
BRANCH   1  31
ATOM     31  O   UNL A   1      38.678  20.883  25.773  1.00  0.00    -0.374 OA
BRANCH  31  32
ATOM     32  C   UNL A   1      40.535  20.176  26.233  1.00  0.00     0.202 C 
BRANCH  32  33
ATOM     33  C   UNL A   1      41.809  21.118  27.257  1.00  0.00     0.261 C 
BRANCH  33  34
ATOM     34  O   UNL A   1      41.434  22.552  27.897  1.00  0.00    -0.460 OA
BRANCH  34  35
ATOM     35  C   UNL A   1      41.945  23.861  27.746  1.00  0.00     0.338 C 
ATOM     36  O   UNL A   1      43.139  24.127  27.840  1.00  0.00    -0.246 OA
BRANCH  35  37
ATOM     37  C   UNL A   1      40.892  25.054  27.728  1.00  0.00     0.060 A 
ATOM     38  C   UNL A   1      41.014  26.107  26.838  1.00  0.00     0.016 A 
ATOM     39  C   UNL A   1      39.715  25.146  28.518  1.00  0.00     0.016 A 
ATOM     40  C   UNL A   1      40.240  27.294  27.006  1.00  0.00     0.010 A 
ATOM     41  C   UNL A   1      39.082  26.389  28.812  1.00  0.00     0.010 A 
ATOM     42  C   UNL A   1      39.516  27.549  28.188  1.00  0.00    -0.014 A 
BRANCH  42  43
ATOM     43  C   UNL A   1      39.585  28.914  28.876  1.00  0.00     0.031 A 
ATOM     44  C   UNL A   1      38.464  29.885  29.267  1.00  0.00     0.074 A 
ATOM     45  C   UNL A   1      40.698  29.161  29.635  1.00  0.00     0.049 A 
ATOM     46  N   UNL A   1      38.613  31.187  29.371  1.00  0.00    -0.248 NA
ATOM     47  C   UNL A   1      37.169  29.444  29.796  1.00  0.00     0.031 C 
ATOM     48  C   UNL A   1      40.823  30.166  30.697  1.00  0.00     0.029 A 
ATOM     49  N   UNL A   1      41.940  28.536  29.701  1.00  0.00    -0.354 N 
ATOM     50  C   UNL A   1      37.612  31.669  30.215  1.00  0.00     0.074 A 
ATOM     51  C   UNL A   1      36.682  30.565  30.347  1.00  0.00     0.031 C 
ATOM     52  C   UNL A   1      42.093  30.251  31.101  1.00  0.00     0.029 A 
ATOM     53  C   UNL A   1      42.873  29.398  30.245  1.00  0.00     0.049 A 
ATOM     54  H   UNL A   1      42.127  27.616  29.406  1.00  0.00     0.167 HD
ATOM     55  C   UNL A   1      37.700  32.809  30.985  1.00  0.00     0.034 A 
ATOM     56  C   UNL A   1      44.067  29.713  29.682  1.00  0.00     0.034 A 
ATOM     57  C   UNL A   1      39.081  33.272  31.189  1.00  0.00     0.049 A 
ATOM     58  C   UNL A   1      44.103  31.198  29.449  1.00  0.00     0.074 A 
ATOM     59  C   UNL A   1      39.840  33.413  32.344  1.00  0.00     0.029 A 
ATOM     60  N   UNL A   1      39.962  33.476  30.127  1.00  0.00    -0.354 N 
ATOM     61  N   UNL A   1      43.001  31.902  29.428  1.00  0.00    -0.248 NA
ATOM     62  C   UNL A   1      45.290  32.037  29.337  1.00  0.00     0.031 C 
ATOM     63  C   UNL A   1      41.175  33.704  31.971  1.00  0.00     0.029 A 
ATOM     64  C   UNL A   1      41.238  33.756  30.589  1.00  0.00     0.049 A 
ATOM     65  H   UNL A   1      39.711  33.427  29.175  1.00  0.00     0.167 HD
ATOM     66  C   UNL A   1      43.296  33.225  29.481  1.00  0.00     0.074 A 
ATOM     67  C   UNL A   1      44.742  33.270  29.333  1.00  0.00     0.031 C 
ATOM     68  C   UNL A   1      42.331  34.161  29.708  1.00  0.00     0.034 A 
BRANCH  55  69
ATOM     69  C   UNL A   1      36.528  33.381  31.829  1.00  0.00     0.023 A 
ATOM     70  C   UNL A   1      35.540  34.259  31.299  1.00  0.00     0.031 A 
ATOM     71  C   UNL A   1      36.284  32.979  33.161  1.00  0.00     0.131 A 
ATOM     72  C   UNL A   1      34.474  34.763  32.091  1.00  0.00     0.055 A 
ATOM     73  C   UNL A   1      35.254  33.510  33.959  1.00  0.00     0.041 A 
ATOM     74  F   UNL A   1      37.006  32.005  33.736  1.00  0.00    -0.206 F 
ATOM     75  C   UNL A   1      34.351  34.417  33.431  1.00  0.00     0.022 A 
BRANCH  72  76
ATOM     76  S   UNL A   1      33.190  35.831  31.350  1.00  0.00     0.124 S 
ATOM     77  O   UNL A   1      33.630  37.166  31.739  1.00  0.00    -0.237 OA
ATOM     78  O   UNL A   1      33.288  35.504  29.931  1.00  0.00    -0.237 OA
ATOM     79  O   UNL A   1      31.955  35.380  31.994  1.00  0.00    -0.744 OA
ENDBRANCH  72  76
ENDBRANCH  55  69
BRANCH  56  80
ATOM     80  C   UNL A   1      44.715  28.570  28.997  1.00  0.00     0.023 A 
ATOM     81  C   UNL A   1      44.973  28.791  27.623  1.00  0.00     0.031 A 
ATOM     82  C   UNL A   1      45.522  27.640  29.670  1.00  0.00     0.131 A 
ATOM     83  C   UNL A   1      46.108  28.244  27.014  1.00  0.00     0.055 A 
ATOM     84  C   UNL A   1      46.630  27.050  29.037  1.00  0.00     0.041 A 
ATOM     85  F   UNL A   1      45.380  27.443  30.988  1.00  0.00    -0.206 F 
ATOM     86  C   UNL A   1      46.951  27.385  27.720  1.00  0.00     0.022 A 
BRANCH  83  87
ATOM     87  S   UNL A   1      46.645  28.855  25.384  1.00  0.00     0.124 S 
ATOM     88  O   UNL A   1      48.076  28.577  25.416  1.00  0.00    -0.237 OA
ATOM     89  O   UNL A   1      45.868  28.055  24.441  1.00  0.00    -0.237 OA
ATOM     90  O   UNL A   1      46.264  30.265  25.443  1.00  0.00    -0.744 OA
ENDBRANCH  83  87
ENDBRANCH  56  80
BRANCH  68  91
ATOM     91  C   UNL A   1      42.417  35.589  29.252  1.00  0.00     0.023 A 
ATOM     92  C   UNL A   1      43.316  36.492  29.829  1.00  0.00     0.031 A 
ATOM     93  C   UNL A   1      41.731  36.043  28.100  1.00  0.00     0.131 A 
ATOM     94  C   UNL A   1      43.474  37.786  29.317  1.00  0.00     0.055 A 
ATOM     95  C   UNL A   1      41.938  37.310  27.551  1.00  0.00     0.041 A 
ATOM     96  F   UNL A   1      40.866  35.265  27.433  1.00  0.00    -0.206 F 
ATOM     97  C   UNL A   1      42.811  38.196  28.164  1.00  0.00     0.022 A 
BRANCH  94  98
ATOM     98  S   UNL A   1      44.556  38.915  30.222  1.00  0.00     0.124 S 
ATOM     99  O   UNL A   1      44.924  39.873  29.183  1.00  0.00    -0.237 OA
ATOM    100  O   UNL A   1      43.675  39.425  31.267  1.00  0.00    -0.237 OA
ATOM    101  O   UNL A   1      45.640  38.053  30.688  1.00  0.00    -0.744 OA
ENDBRANCH  94  98
ENDBRANCH  68  91
ENDBRANCH  42  43
ENDBRANCH  35  37
ENDBRANCH  34  35
ENDBRANCH  33  34
ENDBRANCH  32  33
ENDBRANCH  31  32
ENDBRANCH   1  31
TORSDOF 23
ENDMDL
MODEL 2
REMARK VINA RESULT:     -11.3      1.980      4.498
REMARK SMILES CC[C@H](C)[C@H](NC(=O)CN1C(=O)/C(=C/c2ccc(C)cc2)SC1=S)C(=O)OCCOCCOC(=O)c1ccc(-c2c3nc(c(-c4cc(S(=O)(=O)[O-])ccc4F)c4ccc([nH]4)c(-c4cc(S(=O)(=O)[O-])ccc4F)c4nc(c(-c5cc(S(=O)(=O)[O-])ccc5F)c5ccc2[nH]5)C=C4)C=C3)cc1
REMARK SMILES IDX 29 1 28 2 27 3 25 4 26 5 5 6 3 7 4 8 2 9 1 10 6 11 7 12 8 14
REMARK SMILES IDX 9 15 10 16 11 17 23 18 12 19 13 20 22 21 24 22 14 23 15 24
REMARK SMILES IDX 16 25 21 26 17 27 20 28 18 29 19 30 30 31 31 32 32 33 33 34
REMARK SMILES IDX 34 35 35 36 36 37 37 38 98 39 38 40 97 41 39 42 40 43 41 44
REMARK SMILES IDX 91 45 42 46 96 47 90 48 92 49 43 50 95 51 89 52 88 53 44 55
REMARK SMILES IDX 76 56 56 57 75 58 57 59 60 60 74 61 93 62 58 63 59 64 73 66
REMARK SMILES IDX 94 67 61 68 45 69 46 70 54 71 47 72 53 73 55 74 52 75 48 76
REMARK SMILES IDX 49 77 50 78 51 79 77 80 78 81 86 82 79 83 85 84 87 85 84 86
REMARK SMILES IDX 80 87 81 88 82 89 83 90 62 91 63 92 71 93 64 94 70 95 72 96
REMARK SMILES IDX 69 97 65 98 66 99 67 100 68 101
REMARK H PARENT 6 13 92 54 60 65
REMARK Flexibility Score: inf
ROOT
ATOM      1  C   UNL A   1      37.053  23.278  24.938  1.00  0.00     0.202 C 
ENDROOT
BRANCH   1   2
ATOM      2  C   UNL A   1      36.051  23.548  23.775  1.00  0.00     0.261 C 
BRANCH   2   3
ATOM      3  O   UNL A   1      35.143  24.640  23.870  1.00  0.00    -0.462 OA
BRANCH   3   4
ATOM      4  C   UNL A   1      34.129  24.716  23.002  1.00  0.00     0.328 C 
ATOM      5  O   UNL A   1      33.820  23.754  22.320  1.00  0.00    -0.250 OA
BRANCH   4   6
ATOM      6  C   UNL A   1      33.304  26.006  23.243  1.00  0.00     0.195 C 
BRANCH   6   7
ATOM      7  C   UNL A   1      32.589  26.702  22.056  1.00  0.00     0.019 C 
ATOM      8  C   UNL A   1      32.688  25.942  20.735  1.00  0.00     0.010 C 
BRANCH   7   9
ATOM      9  C   UNL A   1      31.210  27.371  22.312  1.00  0.00     0.002 C 
ATOM     10  C   UNL A   1      31.060  28.876  22.410  1.00  0.00     0.004 C 
ENDBRANCH   7   9
ENDBRANCH   6   7
BRANCH   6  11
ATOM     11  N   UNL A   1      33.908  27.026  24.166  1.00  0.00    -0.341 N 
ATOM     12  C   UNL A   1      33.319  27.580  25.272  1.00  0.00     0.240 C 
ATOM     13  H   UNL A   1      34.821  27.327  23.953  1.00  0.00     0.164 HD
ATOM     14  O   UNL A   1      32.951  28.762  25.225  1.00  0.00    -0.273 OA
BRANCH  12  15
ATOM     15  C   UNL A   1      33.055  26.770  26.544  1.00  0.00     0.227 C 
BRANCH  15  16
ATOM     16  N   UNL A   1      32.683  25.315  26.338  1.00  0.00    -0.283 N 
ATOM     17  C   UNL A   1      33.731  23.800  26.691  1.00  0.00     0.266 C 
ATOM     18  C   UNL A   1      30.927  24.979  26.084  1.00  0.00     0.148 C 
ATOM     19  O   UNL A   1      34.863  23.488  27.005  1.00  0.00    -0.268 OA
ATOM     20  C   UNL A   1      32.552  22.240  26.914  1.00  0.00     0.081 C 
ATOM     21  S   UNL A   1      30.457  22.795  26.558  1.00  0.00    -0.054 SA
ATOM     22  S   UNL A   1      29.613  25.684  25.317  1.00  0.00    -0.052 S 
ATOM     23  C   UNL A   1      33.092  21.023  26.842  1.00  0.00     0.029 C 
BRANCH  23  24
ATOM     24  C   UNL A   1      32.880  20.047  25.765  1.00  0.00    -0.024 A 
ATOM     25  C   UNL A   1      32.671  20.643  24.508  1.00  0.00     0.008 A 
ATOM     26  C   UNL A   1      32.805  18.659  25.861  1.00  0.00     0.008 A 
ATOM     27  C   UNL A   1      32.485  19.883  23.362  1.00  0.00     0.004 A 
ATOM     28  C   UNL A   1      32.611  17.887  24.703  1.00  0.00     0.004 A 
ATOM     29  C   UNL A   1      32.501  18.495  23.443  1.00  0.00    -0.051 A 
ATOM     30  C   UNL A   1      32.446  17.683  22.187  1.00  0.00     0.044 C 
ENDBRANCH  23  24
ENDBRANCH  15  16
ENDBRANCH  12  15
ENDBRANCH   6  11
ENDBRANCH   4   6
ENDBRANCH   3   4
ENDBRANCH   2   3
ENDBRANCH   1   2
BRANCH   1  31
ATOM     31  O   UNL A   1      37.706  21.865  25.337  1.00  0.00    -0.374 OA
BRANCH  31  32
ATOM     32  C   UNL A   1      39.517  20.970  25.622  1.00  0.00     0.202 C 
BRANCH  32  33
ATOM     33  C   UNL A   1      40.503  21.051  27.228  1.00  0.00     0.261 C 
BRANCH  33  34
ATOM     34  O   UNL A   1      41.337  22.382  27.600  1.00  0.00    -0.460 OA
BRANCH  34  35
ATOM     35  C   UNL A   1      41.741  23.525  26.873  1.00  0.00     0.338 C 
ATOM     36  O   UNL A   1      42.848  23.630  26.354  1.00  0.00    -0.246 OA
BRANCH  35  37
ATOM     37  C   UNL A   1      40.817  24.816  26.978  1.00  0.00     0.060 A 
ATOM     38  C   UNL A   1      41.110  25.969  26.270  1.00  0.00     0.016 A 
ATOM     39  C   UNL A   1      39.601  24.920  27.703  1.00  0.00     0.016 A 
ATOM     40  C   UNL A   1      40.449  27.196  26.573  1.00  0.00     0.010 A 
ATOM     41  C   UNL A   1      39.076  26.169  28.148  1.00  0.00     0.010 A 
ATOM     42  C   UNL A   1      39.669  27.353  27.736  1.00  0.00    -0.014 A 
BRANCH  42  43
ATOM     43  C   UNL A   1      39.823  28.587  28.629  1.00  0.00     0.031 A 
ATOM     44  C   UNL A   1      38.787  29.628  29.070  1.00  0.00     0.074 A 
ATOM     45  C   UNL A   1      40.873  28.577  29.508  1.00  0.00     0.049 A 
ATOM     46  N   UNL A   1      39.073  30.871  29.384  1.00  0.00    -0.248 NA
ATOM     47  C   UNL A   1      37.403  29.286  29.414  1.00  0.00     0.031 C 
ATOM     48  C   UNL A   1      41.004  29.396  30.719  1.00  0.00     0.029 A 
ATOM     49  N   UNL A   1      42.022  27.795  29.582  1.00  0.00    -0.354 N 
ATOM     50  C   UNL A   1      38.052  31.353  30.206  1.00  0.00     0.074 A 
ATOM     51  C   UNL A   1      36.993  30.371  30.087  1.00  0.00     0.031 C 
ATOM     52  C   UNL A   1      42.227  29.259  31.236  1.00  0.00     0.029 A 
ATOM     53  C   UNL A   1      42.988  28.443  30.329  1.00  0.00     0.049 A 
ATOM     54  H   UNL A   1      42.131  26.910  29.165  1.00  0.00     0.167 HD
ATOM     55  C   UNL A   1      38.192  32.351  31.147  1.00  0.00     0.034 A 
ATOM     56  C   UNL A   1      44.261  28.679  29.923  1.00  0.00     0.034 A 
ATOM     57  C   UNL A   1      39.588  32.599  31.534  1.00  0.00     0.049 A 
ATOM     58  C   UNL A   1      44.491  30.165  29.925  1.00  0.00     0.074 A 
ATOM     59  C   UNL A   1      40.236  32.475  32.757  1.00  0.00     0.029 A 
ATOM     60  N   UNL A   1      40.591  32.836  30.594  1.00  0.00    -0.354 N 
ATOM     61  N   UNL A   1      43.484  31.000  29.919  1.00  0.00    -0.248 NA
ATOM     62  C   UNL A   1      45.771  30.851  30.044  1.00  0.00     0.031 C 
ATOM     63  C   UNL A   1      41.627  32.642  32.547  1.00  0.00     0.029 A 
ATOM     64  C   UNL A   1      41.836  32.881  31.199  1.00  0.00     0.049 A 
ATOM     65  H   UNL A   1      40.435  32.957  29.629  1.00  0.00     0.167 HD
ATOM     66  C   UNL A   1      43.923  32.254  30.200  1.00  0.00     0.074 A 
ATOM     67  C   UNL A   1      45.372  32.133  30.183  1.00  0.00     0.031 C 
ATOM     68  C   UNL A   1      43.053  33.264  30.487  1.00  0.00     0.034 A 
BRANCH  55  69
ATOM     69  C   UNL A   1      37.013  32.943  31.967  1.00  0.00     0.023 A 
ATOM     70  C   UNL A   1      36.057  33.845  31.420  1.00  0.00     0.031 A 
ATOM     71  C   UNL A   1      36.729  32.538  33.290  1.00  0.00     0.131 A 
ATOM     72  C   UNL A   1      34.984  34.367  32.190  1.00  0.00     0.055 A 
ATOM     73  C   UNL A   1      35.692  33.086  34.067  1.00  0.00     0.041 A 
ATOM     74  F   UNL A   1      37.416  31.545  33.875  1.00  0.00    -0.206 F 
ATOM     75  C   UNL A   1      34.822  34.016  33.525  1.00  0.00     0.022 A 
BRANCH  72  76
ATOM     76  S   UNL A   1      33.741  35.468  31.426  1.00  0.00     0.124 S 
ATOM     77  O   UNL A   1      34.121  36.777  31.945  1.00  0.00    -0.237 OA
ATOM     78  O   UNL A   1      33.958  35.248  30.001  1.00  0.00    -0.237 OA
ATOM     79  O   UNL A   1      32.468  34.953  31.934  1.00  0.00    -0.744 OA
ENDBRANCH  72  76
ENDBRANCH  55  69
BRANCH  56  80
ATOM     80  C   UNL A   1      44.840  27.571  29.127  1.00  0.00     0.023 A 
ATOM     81  C   UNL A   1      44.937  27.845  27.742  1.00  0.00     0.031 A 
ATOM     82  C   UNL A   1      45.730  26.631  29.669  1.00  0.00     0.131 A 
ATOM     83  C   UNL A   1      46.002  27.338  26.988  1.00  0.00     0.055 A 
ATOM     84  C   UNL A   1      46.765  26.082  28.894  1.00  0.00     0.041 A 
ATOM     85  F   UNL A   1      45.742  26.385  30.987  1.00  0.00    -0.206 F 
ATOM     86  C   UNL A   1      46.930  26.468  27.562  1.00  0.00     0.022 A 
BRANCH  83  87
ATOM     87  S   UNL A   1      46.342  28.015  25.331  1.00  0.00     0.124 S 
ATOM     88  O   UNL A   1      45.038  27.901  24.688  1.00  0.00    -0.237 OA
ATOM     89  O   UNL A   1      46.796  29.375  25.599  1.00  0.00    -0.237 OA
ATOM     90  O   UNL A   1      47.381  27.113  24.837  1.00  0.00    -0.744 OA
ENDBRANCH  83  87
ENDBRANCH  56  80
BRANCH  68  91
ATOM     91  C   UNL A   1      43.349  34.719  30.264  1.00  0.00     0.023 A 
ATOM     92  C   UNL A   1      43.075  35.346  29.043  1.00  0.00     0.031 A 
ATOM     93  C   UNL A   1      43.746  35.568  31.325  1.00  0.00     0.131 A 
ATOM     94  C   UNL A   1      43.242  36.728  28.884  1.00  0.00     0.055 A 
ATOM     95  C   UNL A   1      43.849  36.953  31.183  1.00  0.00     0.041 A 
ATOM     96  F   UNL A   1      44.007  35.097  32.553  1.00  0.00    -0.206 F 
ATOM     97  C   UNL A   1      43.601  37.543  29.953  1.00  0.00     0.022 A 
BRANCH  94  98
ATOM     98  S   UNL A   1      42.994  37.412  27.231  1.00  0.00     0.124 S 
ATOM     99  O   UNL A   1      42.005  38.457  27.485  1.00  0.00    -0.237 OA
ATOM    100  O   UNL A   1      44.331  37.881  26.880  1.00  0.00    -0.237 OA
ATOM    101  O   UNL A   1      42.511  36.272  26.455  1.00  0.00    -0.744 OA
ENDBRANCH  94  98
ENDBRANCH  68  91
ENDBRANCH  42  43
ENDBRANCH  35  37
ENDBRANCH  34  35
ENDBRANCH  33  34
ENDBRANCH  32  33
ENDBRANCH  31  32
ENDBRANCH   1  31
TORSDOF 23
ENDMDL
MODEL 3
REMARK VINA RESULT:     -10.3      2.154      4.588
REMARK SMILES CC[C@H](C)[C@H](NC(=O)CN1C(=O)/C(=C/c2ccc(C)cc2)SC1=S)C(=O)OCCOCCOC(=O)c1ccc(-c2c3nc(c(-c4cc(S(=O)(=O)[O-])ccc4F)c4ccc([nH]4)c(-c4cc(S(=O)(=O)[O-])ccc4F)c4nc(c(-c5cc(S(=O)(=O)[O-])ccc5F)c5ccc2[nH]5)C=C4)C=C3)cc1
REMARK SMILES IDX 29 1 28 2 27 3 25 4 26 5 5 6 3 7 4 8 2 9 1 10 6 11 7 12 8 14
REMARK SMILES IDX 9 15 10 16 11 17 23 18 12 19 13 20 22 21 24 22 14 23 15 24
REMARK SMILES IDX 16 25 21 26 17 27 20 28 18 29 19 30 30 31 31 32 32 33 33 34
REMARK SMILES IDX 34 35 35 36 36 37 37 38 98 39 38 40 97 41 39 42 40 43 41 44
REMARK SMILES IDX 91 45 42 46 96 47 90 48 92 49 43 50 95 51 89 52 88 53 44 55
REMARK SMILES IDX 76 56 56 57 75 58 57 59 60 60 74 61 93 62 58 63 59 64 73 66
REMARK SMILES IDX 94 67 61 68 45 69 46 70 54 71 47 72 53 73 55 74 52 75 48 76
REMARK SMILES IDX 49 77 50 78 51 79 77 80 78 81 86 82 79 83 85 84 87 85 84 86
REMARK SMILES IDX 80 87 81 88 82 89 83 90 62 91 63 92 71 93 64 94 70 95 72 96
REMARK SMILES IDX 69 97 65 98 66 99 67 100 68 101
REMARK H PARENT 6 13 92 54 60 65
REMARK Flexibility Score: inf
ROOT
ATOM      1  C   UNL A   1      37.038  22.478  25.454  1.00  0.00     0.202 C 
ENDROOT
BRANCH   1   2
ATOM      2  C   UNL A   1      36.793  23.684  24.497  1.00  0.00     0.261 C 
BRANCH   2   3
ATOM      3  O   UNL A   1      35.593  24.442  24.616  1.00  0.00    -0.462 OA
BRANCH   3   4
ATOM      4  C   UNL A   1      34.794  24.558  23.551  1.00  0.00     0.328 C 
ATOM      5  O   UNL A   1      34.711  23.659  22.733  1.00  0.00    -0.250 OA
BRANCH   4   6
ATOM      6  C   UNL A   1      33.848  25.776  23.714  1.00  0.00     0.195 C 
BRANCH   6   7
ATOM      7  C   UNL A   1      33.282  26.490  22.459  1.00  0.00     0.019 C 
ATOM      8  C   UNL A   1      31.758  26.581  22.426  1.00  0.00     0.010 C 
BRANCH   7   9
ATOM      9  C   UNL A   1      34.015  27.757  21.936  1.00  0.00     0.002 C 
ATOM     10  C   UNL A   1      33.873  29.101  22.622  1.00  0.00     0.004 C 
ENDBRANCH   7   9
ENDBRANCH   6   7
BRANCH   6  11
ATOM     11  N   UNL A   1      34.221  26.778  24.769  1.00  0.00    -0.341 N 
ATOM     12  C   UNL A   1      33.380  27.353  25.685  1.00  0.00     0.240 C 
ATOM     13  H   UNL A   1      35.167  27.050  24.804  1.00  0.00     0.164 HD
ATOM     14  O   UNL A   1      33.074  28.545  25.551  1.00  0.00    -0.273 OA
BRANCH  12  15
ATOM     15  C   UNL A   1      32.768  26.553  26.839  1.00  0.00     0.227 C 
BRANCH  15  16
ATOM     16  N   UNL A   1      32.423  25.110  26.536  1.00  0.00    -0.283 N 
ATOM     17  C   UNL A   1      33.460  23.584  26.879  1.00  0.00     0.266 C 
ATOM     18  C   UNL A   1      30.691  24.777  26.151  1.00  0.00     0.148 C 
ATOM     19  O   UNL A   1      34.572  23.263  27.250  1.00  0.00    -0.268 OA
ATOM     20  C   UNL A   1      32.283  22.008  26.945  1.00  0.00     0.081 C 
ATOM     21  S   UNL A   1      30.210  22.568  26.482  1.00  0.00    -0.054 SA
ATOM     22  S   UNL A   1      29.423  25.513  25.337  1.00  0.00    -0.052 S 
ATOM     23  C   UNL A   1      32.837  20.799  26.846  1.00  0.00     0.029 C 
BRANCH  23  24
ATOM     24  C   UNL A   1      32.704  19.879  25.710  1.00  0.00    -0.024 A 
ATOM     25  C   UNL A   1      32.481  20.535  24.486  1.00  0.00     0.008 A 
ATOM     26  C   UNL A   1      32.713  18.486  25.723  1.00  0.00     0.008 A 
ATOM     27  C   UNL A   1      32.362  19.836  23.294  1.00  0.00     0.004 A 
ATOM     28  C   UNL A   1      32.587  17.774  24.518  1.00  0.00     0.004 A 
ATOM     29  C   UNL A   1      32.462  18.449  23.294  1.00  0.00    -0.051 A 
ATOM     30  C   UNL A   1      32.478  17.712  21.991  1.00  0.00     0.044 C 
ENDBRANCH  23  24
ENDBRANCH  15  16
ENDBRANCH  12  15
ENDBRANCH   6  11
ENDBRANCH   4   6
ENDBRANCH   3   4
ENDBRANCH   2   3
ENDBRANCH   1   2
BRANCH   1  31
ATOM     31  O   UNL A   1      38.299  21.482  25.444  1.00  0.00    -0.374 OA
BRANCH  31  32
ATOM     32  C   UNL A   1      40.228  21.347  26.091  1.00  0.00     0.202 C 
BRANCH  32  33
ATOM     33  C   UNL A   1      40.813  21.859  27.809  1.00  0.00     0.261 C 
BRANCH  33  34
ATOM     34  O   UNL A   1      40.954  23.423  28.185  1.00  0.00    -0.460 OA
BRANCH  34  35
ATOM     35  C   UNL A   1      41.497  24.548  27.524  1.00  0.00     0.338 C 
ATOM     36  O   UNL A   1      42.673  24.617  27.179  1.00  0.00    -0.246 OA
BRANCH  35  37
ATOM     37  C   UNL A   1      40.606  25.865  27.483  1.00  0.00     0.060 A 
ATOM     38  C   UNL A   1      40.948  26.940  26.678  1.00  0.00     0.016 A 
ATOM     39  C   UNL A   1      39.374  26.067  28.160  1.00  0.00     0.016 A 
ATOM     40  C   UNL A   1      40.312  28.206  26.848  1.00  0.00     0.010 A 
ATOM     41  C   UNL A   1      38.872  27.364  28.472  1.00  0.00     0.010 A 
ATOM     42  C   UNL A   1      39.507  28.490  27.969  1.00  0.00    -0.014 A 
BRANCH  42  43
ATOM     43  C   UNL A   1      39.671  29.797  28.747  1.00  0.00     0.031 A 
ATOM     44  C   UNL A   1      38.616  30.736  29.342  1.00  0.00     0.074 A 
ATOM     45  C   UNL A   1      40.869  29.981  29.387  1.00  0.00     0.049 A 
ATOM     46  N   UNL A   1      38.791  32.026  29.528  1.00  0.00    -0.248 NA
ATOM     47  C   UNL A   1      37.387  30.258  29.985  1.00  0.00     0.031 C 
ATOM     48  C   UNL A   1      41.130  30.900  30.501  1.00  0.00     0.029 A 
ATOM     49  N   UNL A   1      42.103  29.350  29.258  1.00  0.00    -0.354 N 
ATOM     50  C   UNL A   1      37.901  32.443  30.519  1.00  0.00     0.074 A 
ATOM     51  C   UNL A   1      36.981  31.334  30.674  1.00  0.00     0.031 C 
ATOM     52  C   UNL A   1      42.439  30.950  30.757  1.00  0.00     0.029 A 
ATOM     53  C   UNL A   1      43.104  30.165  29.753  1.00  0.00     0.049 A 
ATOM     54  H   UNL A   1      42.243  28.456  28.872  1.00  0.00     0.167 HD
ATOM     55  C   UNL A   1      38.092  33.519  31.359  1.00  0.00     0.034 A 
ATOM     56  C   UNL A   1      44.227  30.521  29.079  1.00  0.00     0.034 A 
ATOM     57  C   UNL A   1      39.492  33.962  31.434  1.00  0.00     0.049 A 
ATOM     58  C   UNL A   1      44.252  32.019  28.959  1.00  0.00     0.074 A 
ATOM     59  C   UNL A   1      40.384  34.011  32.498  1.00  0.00     0.029 A 
ATOM     60  N   UNL A   1      40.245  34.246  30.294  1.00  0.00    -0.354 N 
ATOM     61  N   UNL A   1      43.162  32.725  29.122  1.00  0.00    -0.248 NA
ATOM     62  C   UNL A   1      45.427  32.861  28.773  1.00  0.00     0.031 C 
ATOM     63  C   UNL A   1      41.669  34.327  31.995  1.00  0.00     0.029 A 
ATOM     64  C   UNL A   1      41.569  34.486  30.622  1.00  0.00     0.049 A 
ATOM     65  H   UNL A   1      39.884  34.273  29.378  1.00  0.00     0.167 HD
ATOM     66  C   UNL A   1      43.477  34.039  29.242  1.00  0.00     0.074 A 
ATOM     67  C   UNL A   1      44.896  34.093  28.928  1.00  0.00     0.031 C 
ATOM     68  C   UNL A   1      42.556  34.957  29.653  1.00  0.00     0.034 A 
BRANCH  55  69
ATOM     69  C   UNL A   1      37.034  34.026  32.377  1.00  0.00     0.023 A 
ATOM     70  C   UNL A   1      35.919  34.831  32.009  1.00  0.00     0.031 A 
ATOM     71  C   UNL A   1      37.031  33.627  33.732  1.00  0.00     0.131 A 
ATOM     72  C   UNL A   1      34.962  35.276  32.958  1.00  0.00     0.055 A 
ATOM     73  C   UNL A   1      36.108  34.101  34.682  1.00  0.00     0.041 A 
ATOM     74  F   UNL A   1      37.897  32.709  34.187  1.00  0.00    -0.206 F 
ATOM     75  C   UNL A   1      35.076  34.941  34.302  1.00  0.00     0.022 A 
BRANCH  72  76
ATOM     76  S   UNL A   1      33.509  36.250  32.427  1.00  0.00     0.124 S 
ATOM     77  O   UNL A   1      34.124  37.378  31.736  1.00  0.00    -0.237 OA
ATOM     78  O   UNL A   1      32.779  35.300  31.597  1.00  0.00    -0.237 OA
ATOM     79  O   UNL A   1      32.847  36.592  33.688  1.00  0.00    -0.744 OA
ENDBRANCH  72  76
ENDBRANCH  55  69
BRANCH  56  80
ATOM     80  C   UNL A   1      44.776  29.433  28.235  1.00  0.00     0.023 A 
ATOM     81  C   UNL A   1      45.539  28.478  28.949  1.00  0.00     0.031 A 
ATOM     82  C   UNL A   1      44.169  29.019  27.040  1.00  0.00     0.131 A 
ATOM     83  C   UNL A   1      45.528  27.130  28.572  1.00  0.00     0.055 A 
ATOM     84  C   UNL A   1      44.207  27.674  26.635  1.00  0.00     0.041 A 
ATOM     85  F   UNL A   1      43.370  29.852  26.358  1.00  0.00    -0.206 F 
ATOM     86  C   UNL A   1      44.849  26.718  27.425  1.00  0.00     0.022 A 
BRANCH  83  87
ATOM     87  S   UNL A   1      46.169  25.865  29.714  1.00  0.00     0.124 S 
ATOM     88  O   UNL A   1      46.581  26.673  30.856  1.00  0.00    -0.237 OA
ATOM     89  O   UNL A   1      45.023  24.990  29.941  1.00  0.00    -0.237 OA
ATOM     90  O   UNL A   1      47.248  25.263  28.933  1.00  0.00    -0.744 OA
ENDBRANCH  83  87
ENDBRANCH  56  80
BRANCH  68  91
ATOM     91  C   UNL A   1      42.604  36.416  29.301  1.00  0.00     0.023 A 
ATOM     92  C   UNL A   1      43.324  37.334  30.072  1.00  0.00     0.031 A 
ATOM     93  C   UNL A   1      42.080  36.903  28.080  1.00  0.00     0.131 A 
ATOM     94  C   UNL A   1      43.463  38.669  29.669  1.00  0.00     0.055 A 
ATOM     95  C   UNL A   1      42.274  38.216  27.648  1.00  0.00     0.041 A 
ATOM     96  F   UNL A   1      41.397  36.117  27.234  1.00  0.00    -0.206 F 
ATOM     97  C   UNL A   1      42.966  39.113  28.448  1.00  0.00     0.022 A 
BRANCH  94  98
ATOM     98  S   UNL A   1      44.294  39.801  30.806  1.00  0.00     0.124 S 
ATOM     99  O   UNL A   1      43.320  39.903  31.890  1.00  0.00    -0.237 OA
ATOM    100  O   UNL A   1      45.521  39.080  31.127  1.00  0.00    -0.237 OA
ATOM    101  O   UNL A   1      44.473  41.015  30.013  1.00  0.00    -0.744 OA
ENDBRANCH  94  98
ENDBRANCH  68  91
ENDBRANCH  42  43
ENDBRANCH  35  37
ENDBRANCH  34  35
ENDBRANCH  33  34
ENDBRANCH  32  33
ENDBRANCH  31  32
ENDBRANCH   1  31
TORSDOF 23
ENDMDL
