MODEL 1
REMARK VINA RESULT:     -11.1      0.000      0.000
REMARK SMILES O=C(OCCOCCOC(=O)C1([C@H]2CS(=O)(=O)C[C@H]2O)CCCC1)c1ccc(-c2c3nc(c(-c4cc(S(=O)(=O)[O-])ccc4F)c4ccc([nH]4)c(-c4cc(S(=O)(=O)[O-])ccc4F)c4nc(c(-c5cc(S(=O)(=O)[O-])ccc5F)c5ccc2[nH]5)C=C4)C=C3)cc1
REMARK SMILES IDX 5 1 4 2 3 3 2 4 1 5 25 6 26 7 87 8 27 9 86 10 28 11 29 12
REMARK SMILES IDX 30 13 80 14 31 15 85 16 79 17 81 18 32 19 84 20 78 21 77 22
REMARK SMILES IDX 33 24 65 25 45 26 64 27 46 28 49 29 63 30 82 31 47 32 48 33
REMARK SMILES IDX 62 35 83 36 50 37 34 38 35 39 43 40 36 41 42 42 44 43 41 44
REMARK SMILES IDX 37 45 38 46 39 47 40 48 66 49 67 50 75 51 68 52 74 53 76 54
REMARK SMILES IDX 73 55 69 56 70 57 71 58 72 59 51 60 52 61 60 62 53 63 59 64
REMARK SMILES IDX 61 65 58 66 54 67 55 68 56 69 57 70 6 71 7 72 8 73 9 74
REMARK SMILES IDX 10 75 11 76 12 77 21 78 24 79 22 80 23 81 13 82 14 83 19 84
REMARK SMILES IDX 15 85 18 86 16 87 17 88 20 89
REMARK H PARENT 81 23 49 34 20 90
REMARK Flexibility Score: inf
ROOT
ATOM      1  C   UNL A   1      31.051  28.809  24.416  1.00  0.00     0.202 C 
ENDROOT
BRANCH   1   2
ATOM      2  C   UNL A   1      31.596  29.122  25.806  1.00  0.00     0.261 C 
BRANCH   2   3
ATOM      3  O   UNL A   1      32.764  29.956  25.761  1.00  0.00    -0.460 OA
BRANCH   3   4
ATOM      4  C   UNL A   1      33.069  30.896  26.700  1.00  0.00     0.338 C 
ATOM      5  O   UNL A   1      32.301  31.824  26.922  1.00  0.00    -0.246 OA
BRANCH   4   6
ATOM      6  C   UNL A   1      34.339  30.792  27.465  1.00  0.00     0.060 A 
ATOM      7  C   UNL A   1      34.793  29.561  27.905  1.00  0.00     0.016 A 
ATOM      8  C   UNL A   1      35.141  31.900  27.715  1.00  0.00     0.016 A 
ATOM      9  C   UNL A   1      35.819  29.417  28.791  1.00  0.00     0.010 A 
ATOM     10  C   UNL A   1      36.350  31.728  28.409  1.00  0.00     0.010 A 
ATOM     11  C   UNL A   1      36.683  30.477  28.957  1.00  0.00    -0.014 A 
BRANCH  11  12
ATOM     12  C   UNL A   1      37.895  30.181  29.738  1.00  0.00     0.031 A 
ATOM     13  C   UNL A   1      38.964  29.376  29.087  1.00  0.00     0.074 A 
ATOM     14  C   UNL A   1      38.079  30.797  30.928  1.00  0.00     0.049 A 
ATOM     15  N   UNL A   1      40.061  28.902  29.602  1.00  0.00    -0.248 NA
ATOM     16  C   UNL A   1      38.773  29.060  27.661  1.00  0.00     0.031 C 
ATOM     17  C   UNL A   1      37.139  31.745  31.552  1.00  0.00     0.029 A 
ATOM     18  N   UNL A   1      39.130  30.776  31.802  1.00  0.00    -0.354 N 
ATOM     19  C   UNL A   1      40.671  28.193  28.578  1.00  0.00     0.074 A 
ATOM     20  C   UNL A   1      39.813  28.281  27.419  1.00  0.00     0.031 C 
ATOM     21  C   UNL A   1      37.683  32.249  32.668  1.00  0.00     0.029 A 
ATOM     22  C   UNL A   1      38.937  31.560  32.919  1.00  0.00     0.049 A 
ATOM     23  H   UNL A   1      39.949  30.252  31.648  1.00  0.00     0.167 HD
ATOM     24  C   UNL A   1      41.847  27.527  28.625  1.00  0.00     0.034 A 
ATOM     25  C   UNL A   1      39.660  31.650  34.050  1.00  0.00     0.034 A 
ATOM     26  C   UNL A   1      42.655  27.478  29.815  1.00  0.00     0.049 A 
ATOM     27  C   UNL A   1      40.895  30.790  34.123  1.00  0.00     0.074 A 
ATOM     28  C   UNL A   1      43.806  26.755  30.055  1.00  0.00     0.029 A 
ATOM     29  N   UNL A   1      42.386  28.203  30.975  1.00  0.00    -0.354 N 
ATOM     30  N   UNL A   1      41.404  30.002  33.200  1.00  0.00    -0.248 NA
ATOM     31  C   UNL A   1      41.644  30.814  35.380  1.00  0.00     0.031 C 
ATOM     32  C   UNL A   1      44.198  26.995  31.377  1.00  0.00     0.029 A 
ATOM     33  C   UNL A   1      43.342  27.932  31.938  1.00  0.00     0.049 A 
ATOM     34  H   UNL A   1      41.627  28.817  31.092  1.00  0.00     0.167 HD
ATOM     35  C   UNL A   1      42.546  29.448  33.763  1.00  0.00     0.074 A 
ATOM     36  C   UNL A   1      42.667  30.027  35.089  1.00  0.00     0.031 C 
ATOM     37  C   UNL A   1      43.412  28.536  33.249  1.00  0.00     0.034 A 
BRANCH  24  38
ATOM     38  C   UNL A   1      42.231  26.744  27.399  1.00  0.00     0.023 A 
ATOM     39  C   UNL A   1      41.901  25.384  27.253  1.00  0.00     0.031 A 
ATOM     40  C   UNL A   1      43.038  27.337  26.412  1.00  0.00     0.131 A 
ATOM     41  C   UNL A   1      42.442  24.645  26.191  1.00  0.00     0.055 A 
ATOM     42  C   UNL A   1      43.503  26.616  25.311  1.00  0.00     0.041 A 
ATOM     43  F   UNL A   1      43.421  28.618  26.523  1.00  0.00    -0.206 F 
ATOM     44  C   UNL A   1      43.218  25.258  25.204  1.00  0.00     0.022 A 
BRANCH  41  45
ATOM     45  S   UNL A   1      42.255  22.841  26.204  1.00  0.00     0.124 S 
ATOM     46  O   UNL A   1      43.086  22.470  27.348  1.00  0.00    -0.237 OA
ATOM     47  O   UNL A   1      40.817  22.673  26.377  1.00  0.00    -0.237 OA
ATOM     48  O   UNL A   1      42.779  22.432  24.903  1.00  0.00    -0.744 OA
ENDBRANCH  41  45
ENDBRANCH  24  38
BRANCH  25  49
ATOM     49  C   UNL A   1      39.192  32.459  35.219  1.00  0.00     0.023 A 
ATOM     50  C   UNL A   1      39.625  33.780  35.422  1.00  0.00     0.031 A 
ATOM     51  C   UNL A   1      38.365  31.891  36.210  1.00  0.00     0.131 A 
ATOM     52  C   UNL A   1      39.286  34.458  36.606  1.00  0.00     0.055 A 
ATOM     53  C   UNL A   1      37.969  32.596  37.348  1.00  0.00     0.041 A 
ATOM     54  F   UNL A   1      37.923  30.628  36.089  1.00  0.00    -0.206 F 
ATOM     55  C   UNL A   1      38.449  33.881  37.562  1.00  0.00     0.022 A 
BRANCH  52  56
ATOM     56  S   UNL A   1      40.071  36.059  36.946  1.00  0.00     0.124 S 
ATOM     57  O   UNL A   1      39.820  36.782  35.704  1.00  0.00    -0.237 OA
ATOM     58  O   UNL A   1      39.330  36.517  38.115  1.00  0.00    -0.237 OA
ATOM     59  O   UNL A   1      41.468  35.708  37.192  1.00  0.00    -0.744 OA
ENDBRANCH  52  56
ENDBRANCH  25  49
BRANCH  37  60
ATOM     60  C   UNL A   1      44.577  28.164  34.126  1.00  0.00     0.023 A 
ATOM     61  C   UNL A   1      44.501  27.093  35.031  1.00  0.00     0.031 A 
ATOM     62  C   UNL A   1      45.765  28.912  34.073  1.00  0.00     0.131 A 
ATOM     63  C   UNL A   1      45.566  26.851  35.908  1.00  0.00     0.055 A 
ATOM     64  C   UNL A   1      46.853  28.612  34.891  1.00  0.00     0.041 A 
ATOM     65  F   UNL A   1      45.886  29.948  33.227  1.00  0.00    -0.206 F 
ATOM     66  C   UNL A   1      46.750  27.589  35.828  1.00  0.00     0.022 A 
BRANCH  63  67
ATOM     67  S   UNL A   1      45.327  25.646  37.241  1.00  0.00     0.124 S 
ATOM     68  O   UNL A   1      45.720  26.415  38.416  1.00  0.00    -0.237 OA
ATOM     69  O   UNL A   1      43.906  25.334  37.128  1.00  0.00    -0.237 OA
ATOM     70  O   UNL A   1      46.232  24.556  36.880  1.00  0.00    -0.744 OA
ENDBRANCH  63  67
ENDBRANCH  37  60
ENDBRANCH  11  12
ENDBRANCH   4   6
ENDBRANCH   3   4
ENDBRANCH   2   3
ENDBRANCH   1   2
BRANCH   1  71
ATOM     71  O   UNL A   1      31.921  28.819  23.298  1.00  0.00    -0.374 OA
BRANCH  71  72
ATOM     72  C   UNL A   1      31.993  27.679  22.464  1.00  0.00     0.202 C 
BRANCH  72  73
ATOM     73  C   UNL A   1      33.443  27.206  22.496  1.00  0.00     0.261 C 
BRANCH  73  74
ATOM     74  O   UNL A   1      33.457  25.838  22.945  1.00  0.00    -0.463 OA
BRANCH  74  75
ATOM     75  C   UNL A   1      33.837  25.591  24.239  1.00  0.00     0.312 C 
ATOM     76  O   UNL A   1      33.859  26.411  25.143  1.00  0.00    -0.252 OA
BRANCH  75  77
ATOM     77  C   UNL A   1      34.280  24.114  24.388  1.00  0.00     0.074 C 
ATOM     78  C   UNL A   1      34.965  23.629  23.090  1.00  0.00     0.019 C 
ATOM     79  C   UNL A   1      35.431  24.205  25.424  1.00  0.00     0.019 C 
ATOM     80  C   UNL A   1      36.238  22.920  23.498  1.00  0.00     0.001 C 
ATOM     81  C   UNL A   1      36.657  23.538  24.816  1.00  0.00     0.001 C 
BRANCH  77  82
ATOM     82  C   UNL A   1      33.074  23.207  24.901  1.00  0.00     0.051 C 
ATOM     83  C   UNL A   1      32.659  23.326  26.385  1.00  0.00     0.144 C 
ATOM     84  C   UNL A   1      31.702  23.262  24.185  1.00  0.00     0.134 C 
ATOM     85  S   UNL A   1      31.203  24.356  26.495  1.00  0.00     0.153 S 
ATOM     86  C   UNL A   1      30.868  24.398  24.760  1.00  0.00     0.169 C 
ATOM     87  O   UNL A   1      30.134  23.615  27.136  1.00  0.00    -0.229 OA
ATOM     88  O   UNL A   1      31.585  25.682  26.925  1.00  0.00    -0.229 OA
BRANCH  84  89
ATOM     89  O   UNL A   1      31.778  23.303  22.776  1.00  0.00    -0.392 OA
ATOM     90  H   UNL A   1      30.900  23.495  22.410  1.00  0.00     0.211 HD
ENDBRANCH  84  89
ENDBRANCH  77  82
ENDBRANCH  75  77
ENDBRANCH  74  75
ENDBRANCH  73  74
ENDBRANCH  72  73
ENDBRANCH  71  72
ENDBRANCH   1  71
TORSDOF 19
ENDMDL
MODEL 2
REMARK VINA RESULT:     -10.9      1.573      1.953
REMARK SMILES O=C(OCCOCCOC(=O)C1([C@H]2CS(=O)(=O)C[C@H]2O)CCCC1)c1ccc(-c2c3nc(c(-c4cc(S(=O)(=O)[O-])ccc4F)c4ccc([nH]4)c(-c4cc(S(=O)(=O)[O-])ccc4F)c4nc(c(-c5cc(S(=O)(=O)[O-])ccc5F)c5ccc2[nH]5)C=C4)C=C3)cc1
REMARK SMILES IDX 5 1 4 2 3 3 2 4 1 5 25 6 26 7 87 8 27 9 86 10 28 11 29 12
REMARK SMILES IDX 30 13 80 14 31 15 85 16 79 17 81 18 32 19 84 20 78 21 77 22
REMARK SMILES IDX 33 24 65 25 45 26 64 27 46 28 49 29 63 30 82 31 47 32 48 33
REMARK SMILES IDX 62 35 83 36 50 37 34 38 35 39 43 40 36 41 42 42 44 43 41 44
REMARK SMILES IDX 37 45 38 46 39 47 40 48 66 49 67 50 75 51 68 52 74 53 76 54
REMARK SMILES IDX 73 55 69 56 70 57 71 58 72 59 51 60 52 61 60 62 53 63 59 64
REMARK SMILES IDX 61 65 58 66 54 67 55 68 56 69 57 70 6 71 7 72 8 73 9 74
REMARK SMILES IDX 10 75 11 76 12 77 21 78 24 79 22 80 23 81 13 82 14 83 19 84
REMARK SMILES IDX 15 85 18 86 16 87 17 88 20 89
REMARK H PARENT 81 23 49 34 20 90
REMARK Flexibility Score: inf
ROOT
ATOM      1  C   UNL A   1      31.445  29.175  24.838  1.00  0.00     0.202 C 
ENDROOT
BRANCH   1   2
ATOM      2  C   UNL A   1      31.688  30.333  25.800  1.00  0.00     0.261 C 
BRANCH   2   3
ATOM      3  O   UNL A   1      33.018  30.324  26.342  1.00  0.00    -0.460 OA
BRANCH   3   4
ATOM      4  C   UNL A   1      33.522  31.300  27.149  1.00  0.00     0.338 C 
ATOM      5  O   UNL A   1      32.920  32.356  27.295  1.00  0.00    -0.246 OA
BRANCH   4   6
ATOM      6  C   UNL A   1      34.808  31.080  27.861  1.00  0.00     0.060 A 
ATOM      7  C   UNL A   1      35.130  29.829  28.355  1.00  0.00     0.016 A 
ATOM      8  C   UNL A   1      35.750  32.092  28.007  1.00  0.00     0.016 A 
ATOM      9  C   UNL A   1      36.177  29.606  29.201  1.00  0.00     0.010 A 
ATOM     10  C   UNL A   1      36.964  31.809  28.655  1.00  0.00     0.010 A 
ATOM     11  C   UNL A   1      37.170  30.558  29.263  1.00  0.00    -0.014 A 
BRANCH  11  12
ATOM     12  C   UNL A   1      38.376  30.157  30.005  1.00  0.00     0.031 A 
ATOM     13  C   UNL A   1      39.370  29.296  29.308  1.00  0.00     0.074 A 
ATOM     14  C   UNL A   1      38.631  30.726  31.206  1.00  0.00     0.049 A 
ATOM     15  N   UNL A   1      40.442  28.732  29.783  1.00  0.00    -0.248 NA
ATOM     16  C   UNL A   1      39.123  29.033  27.880  1.00  0.00     0.031 C 
ATOM     17  C   UNL A   1      37.776  31.721  31.877  1.00  0.00     0.029 A 
ATOM     18  N   UNL A   1      39.699  30.608  32.052  1.00  0.00    -0.354 N 
ATOM     19  C   UNL A   1      40.976  28.009  28.726  1.00  0.00     0.074 A 
ATOM     20  C   UNL A   1      40.099  28.188  27.592  1.00  0.00     0.031 C 
ATOM     21  C   UNL A   1      38.380  32.155  32.991  1.00  0.00     0.029 A 
ATOM     22  C   UNL A   1      39.588  31.373  33.193  1.00  0.00     0.049 A 
ATOM     23  H   UNL A   1      40.474  30.031  31.864  1.00  0.00     0.167 HD
ATOM     24  C   UNL A   1      42.102  27.261  28.727  1.00  0.00     0.034 A 
ATOM     25  C   UNL A   1      40.342  31.382  34.308  1.00  0.00     0.034 A 
ATOM     26  C   UNL A   1      42.933  27.124  29.895  1.00  0.00     0.049 A 
ATOM     27  C   UNL A   1      41.514  30.435  34.328  1.00  0.00     0.074 A 
ATOM     28  C   UNL A   1      44.034  26.316  30.087  1.00  0.00     0.029 A 
ATOM     29  N   UNL A   1      42.743  27.834  31.079  1.00  0.00    -0.354 N 
ATOM     30  N   UNL A   1      41.943  29.638  33.373  1.00  0.00    -0.248 NA
ATOM     31  C   UNL A   1      42.292  30.373  35.566  1.00  0.00     0.031 C 
ATOM     32  C   UNL A   1      44.473  26.491  31.404  1.00  0.00     0.029 A 
ATOM     33  C   UNL A   1      43.700  27.471  32.011  1.00  0.00     0.049 A 
ATOM     34  H   UNL A   1      42.032  28.497  31.231  1.00  0.00     0.167 HD
ATOM     35  C   UNL A   1      43.056  28.989  33.893  1.00  0.00     0.074 A 
ATOM     36  C   UNL A   1      43.249  29.523  35.229  1.00  0.00     0.031 C 
ATOM     37  C   UNL A   1      43.842  28.033  33.335  1.00  0.00     0.034 A 
BRANCH  24  38
ATOM     38  C   UNL A   1      42.401  26.486  27.473  1.00  0.00     0.023 A 
ATOM     39  C   UNL A   1      41.983  25.153  27.307  1.00  0.00     0.031 A 
ATOM     40  C   UNL A   1      43.213  27.053  26.475  1.00  0.00     0.131 A 
ATOM     41  C   UNL A   1      42.446  24.409  26.212  1.00  0.00     0.055 A 
ATOM     42  C   UNL A   1      43.600  26.332  25.344  1.00  0.00     0.041 A 
ATOM     43  F   UNL A   1      43.678  28.305  26.602  1.00  0.00    -0.206 F 
ATOM     44  C   UNL A   1      43.229  24.997  25.215  1.00  0.00     0.022 A 
BRANCH  41  45
ATOM     45  S   UNL A   1      42.148  22.620  26.190  1.00  0.00     0.124 S 
ATOM     46  O   UNL A   1      42.890  22.185  27.373  1.00  0.00    -0.237 OA
ATOM     47  O   UNL A   1      40.695  22.539  26.283  1.00  0.00    -0.237 OA
ATOM     48  O   UNL A   1      42.717  22.192  24.914  1.00  0.00    -0.744 OA
ENDBRANCH  41  45
ENDBRANCH  24  38
BRANCH  25  49
ATOM     49  C   UNL A   1      39.960  32.190  35.507  1.00  0.00     0.023 A 
ATOM     50  C   UNL A   1      39.121  31.674  36.508  1.00  0.00     0.031 A 
ATOM     51  C   UNL A   1      40.362  33.537  35.632  1.00  0.00     0.131 A 
ATOM     52  C   UNL A   1      38.662  32.508  37.542  1.00  0.00     0.055 A 
ATOM     53  C   UNL A   1      39.964  34.340  36.703  1.00  0.00     0.041 A 
ATOM     54  F   UNL A   1      41.155  34.102  34.706  1.00  0.00    -0.206 F 
ATOM     55  C   UNL A   1      39.089  33.832  37.655  1.00  0.00     0.022 A 
BRANCH  52  56
ATOM     56  S   UNL A   1      37.383  31.878  38.665  1.00  0.00     0.124 S 
ATOM     57  O   UNL A   1      38.046  31.985  39.960  1.00  0.00    -0.237 OA
ATOM     58  O   UNL A   1      36.286  32.809  38.428  1.00  0.00    -0.237 OA
ATOM     59  O   UNL A   1      37.156  30.514  38.191  1.00  0.00    -0.744 OA
ENDBRANCH  52  56
ENDBRANCH  25  49
BRANCH  37  60
ATOM     60  C   UNL A   1      44.999  27.557  34.172  1.00  0.00     0.023 A 
ATOM     61  C   UNL A   1      44.868  26.470  35.052  1.00  0.00     0.031 A 
ATOM     62  C   UNL A   1      46.236  28.219  34.108  1.00  0.00     0.131 A 
ATOM     63  C   UNL A   1      45.933  26.130  35.895  1.00  0.00     0.055 A 
ATOM     64  C   UNL A   1      47.319  27.822  34.890  1.00  0.00     0.041 A 
ATOM     65  F   UNL A   1      46.410  29.266  33.284  1.00  0.00    -0.206 F 
ATOM     66  C   UNL A   1      47.164  26.784  35.804  1.00  0.00     0.022 A 
BRANCH  63  67
ATOM     67  S   UNL A   1      45.640  24.910  37.203  1.00  0.00     0.124 S 
ATOM     68  O   UNL A   1      46.683  25.245  38.167  1.00  0.00    -0.237 OA
ATOM     69  O   UNL A   1      44.273  25.214  37.613  1.00  0.00    -0.237 OA
ATOM     70  O   UNL A   1      45.813  23.630  36.520  1.00  0.00    -0.744 OA
ENDBRANCH  63  67
ENDBRANCH  37  60
ENDBRANCH  11  12
ENDBRANCH   4   6
ENDBRANCH   3   4
ENDBRANCH   2   3
ENDBRANCH   1   2
BRANCH   1  71
ATOM     71  O   UNL A   1      32.520  28.644  24.085  1.00  0.00    -0.374 OA
BRANCH  71  72
ATOM     72  C   UNL A   1      32.676  29.025  22.732  1.00  0.00     0.202 C 
BRANCH  72  73
ATOM     73  C   UNL A   1      33.708  28.077  22.128  1.00  0.00     0.261 C 
BRANCH  73  74
ATOM     74  O   UNL A   1      33.732  26.877  22.924  1.00  0.00    -0.463 OA
BRANCH  74  75
ATOM     75  C   UNL A   1      33.419  25.693  22.307  1.00  0.00     0.312 C 
ATOM     76  O   UNL A   1      33.354  25.514  21.101  1.00  0.00    -0.252 OA
BRANCH  75  77
ATOM     77  C   UNL A   1      33.119  24.607  23.370  1.00  0.00     0.074 C 
ATOM     78  C   UNL A   1      32.807  23.259  22.680  1.00  0.00     0.019 C 
ATOM     79  C   UNL A   1      34.501  24.390  24.038  1.00  0.00     0.019 C 
ATOM     80  C   UNL A   1      33.613  22.197  23.396  1.00  0.00     0.001 C 
ATOM     81  C   UNL A   1      34.827  22.905  23.964  1.00  0.00     0.001 C 
BRANCH  77  82
ATOM     82  C   UNL A   1      32.018  25.112  24.405  1.00  0.00     0.051 C 
ATOM     83  C   UNL A   1      30.824  24.179  24.706  1.00  0.00     0.144 C 
ATOM     84  C   UNL A   1      32.437  25.558  25.829  1.00  0.00     0.134 C 
ATOM     85  S   UNL A   1      31.116  23.357  26.266  1.00  0.00     0.153 S 
ATOM     86  C   UNL A   1      32.500  24.346  26.748  1.00  0.00     0.169 C 
ATOM     87  O   UNL A   1      30.025  23.646  27.177  1.00  0.00    -0.229 OA
ATOM     88  O   UNL A   1      31.574  22.008  26.020  1.00  0.00    -0.229 OA
BRANCH  84  89
ATOM     89  O   UNL A   1      33.613  26.337  25.876  1.00  0.00    -0.392 OA
ATOM     90  H   UNL A   1      33.377  27.274  25.953  1.00  0.00     0.211 HD
ENDBRANCH  84  89
ENDBRANCH  77  82
ENDBRANCH  75  77
ENDBRANCH  74  75
ENDBRANCH  73  74
ENDBRANCH  72  73
ENDBRANCH  71  72
ENDBRANCH   1  71
TORSDOF 19
ENDMDL
MODEL 3
REMARK VINA RESULT:     -10.8      1.145      1.666
REMARK SMILES O=C(OCCOCCOC(=O)C1([C@H]2CS(=O)(=O)C[C@H]2O)CCCC1)c1ccc(-c2c3nc(c(-c4cc(S(=O)(=O)[O-])ccc4F)c4ccc([nH]4)c(-c4cc(S(=O)(=O)[O-])ccc4F)c4nc(c(-c5cc(S(=O)(=O)[O-])ccc5F)c5ccc2[nH]5)C=C4)C=C3)cc1
REMARK SMILES IDX 5 1 4 2 3 3 2 4 1 5 25 6 26 7 87 8 27 9 86 10 28 11 29 12
REMARK SMILES IDX 30 13 80 14 31 15 85 16 79 17 81 18 32 19 84 20 78 21 77 22
REMARK SMILES IDX 33 24 65 25 45 26 64 27 46 28 49 29 63 30 82 31 47 32 48 33
REMARK SMILES IDX 62 35 83 36 50 37 34 38 35 39 43 40 36 41 42 42 44 43 41 44
REMARK SMILES IDX 37 45 38 46 39 47 40 48 66 49 67 50 75 51 68 52 74 53 76 54
REMARK SMILES IDX 73 55 69 56 70 57 71 58 72 59 51 60 52 61 60 62 53 63 59 64
REMARK SMILES IDX 61 65 58 66 54 67 55 68 56 69 57 70 6 71 7 72 8 73 9 74
REMARK SMILES IDX 10 75 11 76 12 77 21 78 24 79 22 80 23 81 13 82 14 83 19 84
REMARK SMILES IDX 15 85 18 86 16 87 17 88 20 89
REMARK H PARENT 81 23 49 34 20 90
REMARK Flexibility Score: inf
ROOT
ATOM      1  C   UNL A   1      31.013  29.412  24.241  1.00  0.00     0.202 C 
ENDROOT
BRANCH   1   2
ATOM      2  C   UNL A   1      31.715  29.262  25.588  1.00  0.00     0.261 C 
BRANCH   2   3
ATOM      3  O   UNL A   1      32.896  30.074  25.682  1.00  0.00    -0.460 OA
BRANCH   3   4
ATOM      4  C   UNL A   1      33.153  30.933  26.709  1.00  0.00     0.338 C 
ATOM      5  O   UNL A   1      32.350  31.810  27.000  1.00  0.00    -0.246 OA
BRANCH   4   6
ATOM      6  C   UNL A   1      34.413  30.801  27.485  1.00  0.00     0.060 A 
ATOM      7  C   UNL A   1      34.851  29.558  27.906  1.00  0.00     0.016 A 
ATOM      8  C   UNL A   1      35.223  31.896  27.764  1.00  0.00     0.016 A 
ATOM      9  C   UNL A   1      35.867  29.386  28.799  1.00  0.00     0.010 A 
ATOM     10  C   UNL A   1      36.423  31.699  28.467  1.00  0.00     0.010 A 
ATOM     11  C   UNL A   1      36.738  30.434  28.994  1.00  0.00    -0.014 A 
BRANCH  11  12
ATOM     12  C   UNL A   1      37.939  30.112  29.782  1.00  0.00     0.031 A 
ATOM     13  C   UNL A   1      38.997  29.288  29.135  1.00  0.00     0.074 A 
ATOM     14  C   UNL A   1      38.127  30.719  30.976  1.00  0.00     0.049 A 
ATOM     15  N   UNL A   1      40.081  28.790  29.655  1.00  0.00    -0.248 NA
ATOM     16  C   UNL A   1      38.809  28.982  27.707  1.00  0.00     0.031 C 
ATOM     17  C   UNL A   1      37.202  31.682  31.598  1.00  0.00     0.029 A 
ATOM     18  N   UNL A   1      39.172  30.674  31.857  1.00  0.00    -0.354 N 
ATOM     19  C   UNL A   1      40.683  28.074  28.632  1.00  0.00     0.074 A 
ATOM     20  C   UNL A   1      39.835  28.184  27.467  1.00  0.00     0.031 C 
ATOM     21  C   UNL A   1      37.748  32.171  32.720  1.00  0.00     0.029 A 
ATOM     22  C   UNL A   1      38.987  31.457  32.977  1.00  0.00     0.049 A 
ATOM     23  H   UNL A   1      39.981  30.134  31.706  1.00  0.00     0.167 HD
ATOM     24  C   UNL A   1      41.846  27.385  28.684  1.00  0.00     0.034 A 
ATOM     25  C   UNL A   1      39.704  31.528  34.113  1.00  0.00     0.034 A 
ATOM     26  C   UNL A   1      42.645  27.316  29.880  1.00  0.00     0.049 A 
ATOM     27  C   UNL A   1      40.921  30.643  34.190  1.00  0.00     0.074 A 
ATOM     28  C   UNL A   1      43.780  26.569  30.124  1.00  0.00     0.029 A 
ATOM     29  N   UNL A   1      42.383  28.040  31.041  1.00  0.00    -0.354 N 
ATOM     30  N   UNL A   1      41.421  29.849  33.267  1.00  0.00    -0.248 NA
ATOM     31  C   UNL A   1      41.662  30.647  35.452  1.00  0.00     0.031 C 
ATOM     32  C   UNL A   1      44.168  26.796  31.449  1.00  0.00     0.029 A 
ATOM     33  C   UNL A   1      43.327  27.747  32.009  1.00  0.00     0.049 A 
ATOM     34  H   UNL A   1      41.635  28.669  31.155  1.00  0.00     0.167 HD
ATOM     35  C   UNL A   1      42.548  29.270  33.835  1.00  0.00     0.074 A 
ATOM     36  C   UNL A   1      42.672  29.841  35.164  1.00  0.00     0.031 C 
ATOM     37  C   UNL A   1      43.399  28.344  33.323  1.00  0.00     0.034 A 
BRANCH  24  38
ATOM     38  C   UNL A   1      42.223  26.600  27.457  1.00  0.00     0.023 A 
ATOM     39  C   UNL A   1      41.880  25.243  27.310  1.00  0.00     0.031 A 
ATOM     40  C   UNL A   1      43.035  27.187  26.471  1.00  0.00     0.131 A 
ATOM     41  C   UNL A   1      42.414  24.501  26.247  1.00  0.00     0.055 A 
ATOM     42  C   UNL A   1      43.494  26.462  25.369  1.00  0.00     0.041 A 
ATOM     43  F   UNL A   1      43.430  28.464  26.583  1.00  0.00    -0.206 F 
ATOM     44  C   UNL A   1      43.197  25.107  25.261  1.00  0.00     0.022 A 
BRANCH  41  45
ATOM     45  S   UNL A   1      42.211  22.699  26.258  1.00  0.00     0.124 S 
ATOM     46  O   UNL A   1      42.913  22.317  25.034  1.00  0.00    -0.237 OA
ATOM     47  O   UNL A   1      42.854  22.315  27.510  1.00  0.00    -0.237 OA
ATOM     48  O   UNL A   1      40.761  22.517  26.221  1.00  0.00    -0.744 OA
ENDBRANCH  41  45
ENDBRANCH  24  38
BRANCH  25  49
ATOM     49  C   UNL A   1      39.244  32.341  35.282  1.00  0.00     0.023 A 
ATOM     50  C   UNL A   1      39.633  33.680  35.446  1.00  0.00     0.031 A 
ATOM     51  C   UNL A   1      38.472  31.761  36.309  1.00  0.00     0.131 A 
ATOM     52  C   UNL A   1      39.308  34.368  36.629  1.00  0.00     0.055 A 
ATOM     53  C   UNL A   1      38.087  32.472  37.448  1.00  0.00     0.041 A 
ATOM     54  F   UNL A   1      38.074  30.481  36.226  1.00  0.00    -0.206 F 
ATOM     55  C   UNL A   1      38.525  33.779  37.623  1.00  0.00     0.022 A 
BRANCH  52  56
ATOM     56  S   UNL A   1      40.042  36.003  36.914  1.00  0.00     0.124 S 
ATOM     57  O   UNL A   1      39.284  36.471  38.069  1.00  0.00    -0.237 OA
ATOM     58  O   UNL A   1      41.440  35.669  37.156  1.00  0.00    -0.237 OA
ATOM     59  O   UNL A   1      39.779  36.716  35.665  1.00  0.00    -0.744 OA
ENDBRANCH  52  56
ENDBRANCH  25  49
BRANCH  37  60
ATOM     60  C   UNL A   1      44.551  27.946  34.206  1.00  0.00     0.023 A 
ATOM     61  C   UNL A   1      44.458  26.855  35.086  1.00  0.00     0.031 A 
ATOM     62  C   UNL A   1      45.744  28.687  34.185  1.00  0.00     0.131 A 
ATOM     63  C   UNL A   1      45.509  26.587  35.970  1.00  0.00     0.055 A 
ATOM     64  C   UNL A   1      46.820  28.363  35.009  1.00  0.00     0.041 A 
ATOM     65  F   UNL A   1      45.881  29.741  33.364  1.00  0.00    -0.206 F 
ATOM     66  C   UNL A   1      46.698  27.319  35.922  1.00  0.00     0.022 A 
BRANCH  63  67
ATOM     67  S   UNL A   1      45.246  25.354  37.273  1.00  0.00     0.124 S 
ATOM     68  O   UNL A   1      45.041  24.135  36.497  1.00  0.00    -0.237 OA
ATOM     69  O   UNL A   1      46.493  25.427  38.028  1.00  0.00    -0.237 OA
ATOM     70  O   UNL A   1      44.065  25.849  37.976  1.00  0.00    -0.744 OA
ENDBRANCH  63  67
ENDBRANCH  37  60
ENDBRANCH  11  12
ENDBRANCH   4   6
ENDBRANCH   3   4
ENDBRANCH   2   3
ENDBRANCH   1   2
BRANCH   1  71
ATOM     71  O   UNL A   1      30.314  28.314  23.683  1.00  0.00    -0.374 OA
BRANCH  71  72
ATOM     72  C   UNL A   1      30.532  27.016  24.201  1.00  0.00     0.202 C 
BRANCH  72  73
ATOM     73  C   UNL A   1      31.333  26.257  23.148  1.00  0.00     0.261 C 
BRANCH  73  74
ATOM     74  O   UNL A   1      32.203  25.333  23.828  1.00  0.00    -0.463 OA
BRANCH  74  75
ATOM     75  C   UNL A   1      33.344  24.931  23.181  1.00  0.00     0.312 C 
ATOM     76  O   UNL A   1      33.839  25.475  22.207  1.00  0.00    -0.252 OA
BRANCH  75  77
ATOM     77  C   UNL A   1      33.905  23.648  23.844  1.00  0.00     0.074 C 
ATOM     78  C   UNL A   1      34.989  23.014  22.944  1.00  0.00     0.019 C 
ATOM     79  C   UNL A   1      34.687  24.206  25.060  1.00  0.00     0.019 C 
ATOM     80  C   UNL A   1      36.168  22.686  23.834  1.00  0.00     0.001 C 
ATOM     81  C   UNL A   1      36.110  23.669  24.985  1.00  0.00     0.001 C 
BRANCH  77  82
ATOM     82  C   UNL A   1      32.724  22.670  24.281  1.00  0.00     0.051 C 
ATOM     83  C   UNL A   1      32.764  21.213  23.769  1.00  0.00     0.144 C 
ATOM     84  C   UNL A   1      32.398  22.469  25.782  1.00  0.00     0.134 C 
ATOM     85  S   UNL A   1      33.375  20.160  25.077  1.00  0.00     0.153 S 
ATOM     86  C   UNL A   1      33.288  21.375  26.357  1.00  0.00     0.169 C 
ATOM     87  O   UNL A   1      32.395  19.133  25.370  1.00  0.00    -0.229 OA
ATOM     88  O   UNL A   1      34.765  19.847  24.830  1.00  0.00    -0.229 OA
BRANCH  84  89
ATOM     89  O   UNL A   1      32.424  23.651  26.551  1.00  0.00    -0.392 OA
ATOM     90  H   UNL A   1      33.006  24.301  26.125  1.00  0.00     0.211 HD
ENDBRANCH  84  89
ENDBRANCH  77  82
ENDBRANCH  75  77
ENDBRANCH  74  75
ENDBRANCH  73  74
ENDBRANCH  72  73
ENDBRANCH  71  72
ENDBRANCH   1  71
TORSDOF 19
ENDMDL
