MODEL 1
REMARK VINA RESULT:     -10.0      0.000      0.000
REMARK SMILES CCC(CC)(CC)NC(=O)NC[C@@H]1CC[C@H](C(=O)OCCOCCOC(=O)c2ccc(-c3c4nc(c(-c5cc(S(=O)(=O)[O-])ccc5F)c5ccc([nH]5)c(-c5cc(S(=O)(=O)[O-])ccc5F)c5nc(c(-c6cc(S(=O)(=O)[O-])ccc6F)c6ccc3[nH]6)C=C5)C=C4)cc2)O1
REMARK SMILES IDX 21 1 20 2 19 3 17 4 18 5 16 6 13 7 14 8 91 9 15 10 12 11
REMARK SMILES IDX 11 12 8 13 9 14 10 16 3 18 2 19 1 20 4 21 5 22 6 23 7 24
REMARK SMILES IDX 22 25 23 26 24 27 25 28 26 29 27 30 28 31 29 32 90 33 30 34
REMARK SMILES IDX 89 35 31 36 32 37 33 38 83 39 34 40 88 41 82 42 84 43 35 44
REMARK SMILES IDX 87 45 81 46 80 47 36 49 68 50 48 51 67 52 49 53 52 54 66 55
REMARK SMILES IDX 85 56 50 57 51 58 65 60 86 61 53 62 37 63 38 64 46 65 39 66
REMARK SMILES IDX 45 67 47 68 44 69 40 70 41 71 42 72 43 73 69 74 70 75 78 76
REMARK SMILES IDX 71 77 77 78 79 79 76 80 72 81 73 82 74 83 75 84 54 85 55 86
REMARK SMILES IDX 63 87 56 88 62 89 64 90 61 91 57 92 58 93 59 94 60 95
REMARK H PARENT 8 15 11 17 84 48 52 59
REMARK Flexibility Score: inf
ROOT
ATOM      1  C   UNL A   1      36.406  21.977  25.551  1.00  0.00     0.202 C 
ENDROOT
BRANCH   1   2
ATOM      2  C   UNL A   1      35.618  21.560  24.307  1.00  0.00     0.261 C 
BRANCH   2   3
ATOM      3  O   UNL A   1      34.394  20.906  24.651  1.00  0.00    -0.461 OA
BRANCH   3   4
ATOM      4  C   UNL A   1      33.250  21.578  24.348  1.00  0.00     0.335 C 
ATOM      5  O   UNL A   1      32.971  22.047  23.251  1.00  0.00    -0.249 OA
BRANCH   4   6
ATOM      6  C   UNL A   1      32.348  21.706  25.571  1.00  0.00     0.228 C 
ATOM      7  C   UNL A   1      32.146  23.820  26.509  1.00  0.00     0.138 C 
ATOM      8  C   UNL A   1      33.336  23.148  27.176  1.00  0.00     0.037 C 
ATOM      9  O   UNL A   1      31.698  22.974  25.441  1.00  0.00    -0.361 OA
ATOM     10  C   UNL A   1      33.040  21.691  26.929  1.00  0.00     0.047 C 
BRANCH   7  11
ATOM     11  C   UNL A   1      32.459  25.228  26.003  1.00  0.00     0.149 C 
BRANCH  11  12
ATOM     12  N   UNL A   1      33.027  25.227  24.668  1.00  0.00    -0.336 N 
ATOM     13  N   UNL A   1      32.049  26.899  23.271  1.00  0.00    -0.333 N 
ATOM     14  C   UNL A   1      32.939  25.954  23.561  1.00  0.00     0.315 C 
ATOM     15  H   UNL A   1      32.276  27.288  22.395  1.00  0.00     0.165 HD
ATOM     16  O   UNL A   1      33.770  25.705  22.678  1.00  0.00    -0.249 OA
ATOM     17  H   UNL A   1      33.654  24.477  24.551  1.00  0.00     0.165 HD
BRANCH  13  18
ATOM     18  C   UNL A   1      30.834  27.580  23.795  1.00  0.00     0.041 C 
BRANCH  18  19
ATOM     19  C   UNL A   1      29.870  26.626  24.535  1.00  0.00     0.025 C 
ATOM     20  C   UNL A   1      28.463  26.565  23.930  1.00  0.00     0.006 C 
ENDBRANCH  18  19
BRANCH  18  21
ATOM     21  C   UNL A   1      30.054  28.111  22.524  1.00  0.00     0.025 C 
ATOM     22  C   UNL A   1      29.744  29.610  22.512  1.00  0.00     0.006 C 
ENDBRANCH  18  21
BRANCH  18  23
ATOM     23  C   UNL A   1      31.204  28.845  24.638  1.00  0.00     0.025 C 
ATOM     24  C   UNL A   1      31.753  28.661  26.047  1.00  0.00     0.006 C 
ENDBRANCH  18  23
ENDBRANCH  13  18
ENDBRANCH  11  12
ENDBRANCH   7  11
ENDBRANCH   4   6
ENDBRANCH   3   4
ENDBRANCH   2   3
ENDBRANCH   1   2
BRANCH   1  25
ATOM     25  O   UNL A   1      37.646  21.314  25.784  1.00  0.00    -0.374 OA
BRANCH  25  26
ATOM     26  C   UNL A   1      37.945  20.147  25.022  1.00  0.00     0.202 C 
BRANCH  26  27
ATOM     27  C   UNL A   1      39.174  19.321  25.422  1.00  0.00     0.261 C 
BRANCH  27  28
ATOM     28  O   UNL A   1      39.730  19.711  26.692  1.00  0.00    -0.460 OA
BRANCH  28  29
ATOM     29  C   UNL A   1      40.983  20.227  26.614  1.00  0.00     0.338 C 
ATOM     30  O   UNL A   1      41.957  19.705  26.103  1.00  0.00    -0.246 OA
BRANCH  29  31
ATOM     31  C   UNL A   1      41.001  21.621  27.093  1.00  0.00     0.060 A 
ATOM     32  C   UNL A   1      40.314  22.578  26.334  1.00  0.00     0.016 A 
ATOM     33  C   UNL A   1      41.793  22.007  28.176  1.00  0.00     0.016 A 
ATOM     34  C   UNL A   1      40.461  23.935  26.619  1.00  0.00     0.010 A 
ATOM     35  C   UNL A   1      41.949  23.369  28.452  1.00  0.00     0.010 A 
ATOM     36  C   UNL A   1      41.317  24.339  27.651  1.00  0.00    -0.014 A 
BRANCH  36  37
ATOM     37  C   UNL A   1      41.707  25.766  27.779  1.00  0.00     0.031 A 
ATOM     38  C   UNL A   1      43.034  26.202  27.220  1.00  0.00     0.074 A 
ATOM     39  C   UNL A   1      40.899  26.658  28.381  1.00  0.00     0.049 A 
ATOM     40  N   UNL A   1      43.657  27.344  27.347  1.00  0.00    -0.248 NA
ATOM     41  C   UNL A   1      43.754  25.207  26.410  1.00  0.00     0.031 C 
ATOM     42  C   UNL A   1      39.558  26.373  28.887  1.00  0.00     0.029 A 
ATOM     43  N   UNL A   1      41.101  27.981  28.684  1.00  0.00    -0.354 N 
ATOM     44  C   UNL A   1      44.854  27.201  26.651  1.00  0.00     0.074 A 
ATOM     45  C   UNL A   1      44.875  25.852  26.126  1.00  0.00     0.031 C 
ATOM     46  C   UNL A   1      39.066  27.485  29.461  1.00  0.00     0.029 A 
ATOM     47  C   UNL A   1      40.077  28.540  29.412  1.00  0.00     0.049 A 
ATOM     48  H   UNL A   1      41.903  28.481  28.407  1.00  0.00     0.167 HD
ATOM     49  C   UNL A   1      45.842  28.112  26.471  1.00  0.00     0.034 A 
ATOM     50  C   UNL A   1      39.988  29.747  30.008  1.00  0.00     0.034 A 
ATOM     51  C   UNL A   1      45.803  29.449  27.011  1.00  0.00     0.049 A 
ATOM     52  C   UNL A   1      41.145  30.713  29.886  1.00  0.00     0.074 A 
ATOM     53  C   UNL A   1      46.749  30.454  26.898  1.00  0.00     0.029 A 
ATOM     54  N   UNL A   1      44.765  29.968  27.773  1.00  0.00    -0.354 N 
ATOM     55  N   UNL A   1      42.288  30.558  29.257  1.00  0.00    -0.248 NA
ATOM     56  C   UNL A   1      40.999  32.016  30.550  1.00  0.00     0.031 C 
ATOM     57  C   UNL A   1      46.316  31.550  27.649  1.00  0.00     0.029 A 
ATOM     58  C   UNL A   1      45.060  31.265  28.160  1.00  0.00     0.049 A 
ATOM     59  H   UNL A   1      43.938  29.485  28.004  1.00  0.00     0.167 HD
ATOM     60  C   UNL A   1      42.974  31.761  29.412  1.00  0.00     0.074 A 
ATOM     61  C   UNL A   1      42.122  32.627  30.198  1.00  0.00     0.031 C 
ATOM     62  C   UNL A   1      44.194  32.121  28.935  1.00  0.00     0.034 A 
BRANCH  49  63
ATOM     63  C   UNL A   1      47.070  27.666  25.716  1.00  0.00     0.023 A 
ATOM     64  C   UNL A   1      47.268  27.989  24.361  1.00  0.00     0.031 A 
ATOM     65  C   UNL A   1      48.045  26.878  26.353  1.00  0.00     0.131 A 
ATOM     66  C   UNL A   1      48.374  27.466  23.673  1.00  0.00     0.055 A 
ATOM     67  C   UNL A   1      49.186  26.431  25.684  1.00  0.00     0.041 A 
ATOM     68  F   UNL A   1      47.897  26.516  27.638  1.00  0.00    -0.206 F 
ATOM     69  C   UNL A   1      49.348  26.712  24.332  1.00  0.00     0.022 A 
BRANCH  66  70
ATOM     70  S   UNL A   1      48.446  27.665  21.872  1.00  0.00     0.124 S 
ATOM     71  O   UNL A   1      48.701  26.292  21.436  1.00  0.00    -0.237 OA
ATOM     72  O   UNL A   1      47.127  28.200  21.560  1.00  0.00    -0.237 OA
ATOM     73  O   UNL A   1      49.561  28.589  21.672  1.00  0.00    -0.744 OA
ENDBRANCH  66  70
ENDBRANCH  49  63
BRANCH  50  74
ATOM     74  C   UNL A   1      38.789  30.099  30.822  1.00  0.00     0.023 A 
ATOM     75  C   UNL A   1      37.736  30.847  30.275  1.00  0.00     0.031 A 
ATOM     76  C   UNL A   1      38.702  29.733  32.178  1.00  0.00     0.131 A 
ATOM     77  C   UNL A   1      36.666  31.248  31.089  1.00  0.00     0.055 A 
ATOM     78  C   UNL A   1      37.607  30.085  32.969  1.00  0.00     0.041 A 
ATOM     79  F   UNL A   1      39.682  29.018  32.754  1.00  0.00    -0.206 F 
ATOM     80  C   UNL A   1      36.588  30.860  32.429  1.00  0.00     0.022 A 
BRANCH  77  81
ATOM     81  S   UNL A   1      35.420  32.368  30.394  1.00  0.00     0.124 S 
ATOM     82  O   UNL A   1      36.214  33.561  30.123  1.00  0.00    -0.237 OA
ATOM     83  O   UNL A   1      34.963  31.622  29.227  1.00  0.00    -0.237 OA
ATOM     84  O   UNL A   1      34.442  32.499  31.472  1.00  0.00    -0.744 OA
ENDBRANCH  77  81
ENDBRANCH  50  74
BRANCH  62  85
ATOM     85  C   UNL A   1      44.645  33.541  29.175  1.00  0.00     0.023 A 
ATOM     86  C   UNL A   1      45.380  33.913  30.313  1.00  0.00     0.031 A 
ATOM     87  C   UNL A   1      44.358  34.531  28.217  1.00  0.00     0.131 A 
ATOM     88  C   UNL A   1      45.775  35.251  30.480  1.00  0.00     0.055 A 
ATOM     89  C   UNL A   1      44.798  35.847  28.364  1.00  0.00     0.041 A 
ATOM     90  F   UNL A   1      43.659  34.229  27.110  1.00  0.00    -0.206 F 
ATOM     91  C   UNL A   1      45.504  36.215  29.504  1.00  0.00     0.022 A 
BRANCH  88  92
ATOM     92  S   UNL A   1      46.606  35.732  32.019  1.00  0.00     0.124 S 
ATOM     93  O   UNL A   1      45.846  34.987  33.019  1.00  0.00    -0.237 OA
ATOM     94  O   UNL A   1      47.974  35.280  31.792  1.00  0.00    -0.237 OA
ATOM     95  O   UNL A   1      46.434  37.183  32.063  1.00  0.00    -0.744 OA
ENDBRANCH  88  92
ENDBRANCH  62  85
ENDBRANCH  36  37
ENDBRANCH  29  31
ENDBRANCH  28  29
ENDBRANCH  27  28
ENDBRANCH  26  27
ENDBRANCH  25  26
ENDBRANCH   1  25
TORSDOF 23
ENDMDL
MODEL 2
REMARK VINA RESULT:      -9.9      1.752      2.267
REMARK SMILES CCC(CC)(CC)NC(=O)NC[C@@H]1CC[C@H](C(=O)OCCOCCOC(=O)c2ccc(-c3c4nc(c(-c5cc(S(=O)(=O)[O-])ccc5F)c5ccc([nH]5)c(-c5cc(S(=O)(=O)[O-])ccc5F)c5nc(c(-c6cc(S(=O)(=O)[O-])ccc6F)c6ccc3[nH]6)C=C5)C=C4)cc2)O1
REMARK SMILES IDX 21 1 20 2 19 3 17 4 18 5 16 6 13 7 14 8 91 9 15 10 12 11
REMARK SMILES IDX 11 12 8 13 9 14 10 16 3 18 2 19 1 20 4 21 5 22 6 23 7 24
REMARK SMILES IDX 22 25 23 26 24 27 25 28 26 29 27 30 28 31 29 32 90 33 30 34
REMARK SMILES IDX 89 35 31 36 32 37 33 38 83 39 34 40 88 41 82 42 84 43 35 44
REMARK SMILES IDX 87 45 81 46 80 47 36 49 68 50 48 51 67 52 49 53 52 54 66 55
REMARK SMILES IDX 85 56 50 57 51 58 65 60 86 61 53 62 37 63 38 64 46 65 39 66
REMARK SMILES IDX 45 67 47 68 44 69 40 70 41 71 42 72 43 73 69 74 70 75 78 76
REMARK SMILES IDX 71 77 77 78 79 79 76 80 72 81 73 82 74 83 75 84 54 85 55 86
REMARK SMILES IDX 63 87 56 88 62 89 64 90 61 91 57 92 58 93 59 94 60 95
REMARK H PARENT 8 15 11 17 84 48 52 59
REMARK Flexibility Score: inf
ROOT
ATOM      1  C   UNL A   1      37.815  21.913  25.320  1.00  0.00     0.202 C 
ENDROOT
BRANCH   1   2
ATOM      2  C   UNL A   1      36.861  22.963  24.748  1.00  0.00     0.261 C 
BRANCH   2   3
ATOM      3  O   UNL A   1      36.272  22.527  23.520  1.00  0.00    -0.461 OA
BRANCH   3   4
ATOM      4  C   UNL A   1      35.006  22.964  23.274  1.00  0.00     0.335 C 
ATOM      5  O   UNL A   1      34.701  24.100  22.930  1.00  0.00    -0.249 OA
BRANCH   4   6
ATOM      6  C   UNL A   1      33.987  21.856  23.513  1.00  0.00     0.228 C 
ATOM      7  C   UNL A   1      31.824  22.515  24.043  1.00  0.00     0.138 C 
ATOM      8  C   UNL A   1      32.589  22.402  25.351  1.00  0.00     0.037 C 
ATOM      9  O   UNL A   1      32.756  22.339  22.965  1.00  0.00    -0.361 OA
ATOM     10  C   UNL A   1      33.718  21.481  24.966  1.00  0.00     0.047 C 
BRANCH   7  11
ATOM     11  C   UNL A   1      31.064  23.834  23.904  1.00  0.00     0.149 C 
BRANCH  11  12
ATOM     12  N   UNL A   1      30.391  24.221  25.130  1.00  0.00    -0.336 N 
ATOM     13  N   UNL A   1      30.674  26.541  25.619  1.00  0.00    -0.333 N 
ATOM     14  C   UNL A   1      30.144  25.335  25.807  1.00  0.00     0.315 C 
ATOM     15  H   UNL A   1      30.253  27.172  26.248  1.00  0.00     0.165 HD
ATOM     16  O   UNL A   1      29.343  25.238  26.745  1.00  0.00    -0.249 OA
ATOM     17  H   UNL A   1      30.011  23.437  25.587  1.00  0.00     0.165 HD
BRANCH  13  18
ATOM     18  C   UNL A   1      31.674  27.279  24.801  1.00  0.00     0.041 C 
BRANCH  18  19
ATOM     19  C   UNL A   1      31.993  28.688  25.349  1.00  0.00     0.025 C 
ATOM     20  C   UNL A   1      31.771  28.838  26.859  1.00  0.00     0.006 C 
ENDBRANCH  18  19
BRANCH  18  21
ATOM     21  C   UNL A   1      31.003  27.489  23.382  1.00  0.00     0.025 C 
ATOM     22  C   UNL A   1      29.585  28.062  23.395  1.00  0.00     0.006 C 
ENDBRANCH  18  21
BRANCH  18  23
ATOM     23  C   UNL A   1      32.958  26.420  24.553  1.00  0.00     0.025 C 
ATOM     24  C   UNL A   1      33.765  25.931  25.749  1.00  0.00     0.006 C 
ENDBRANCH  18  23
ENDBRANCH  13  18
ENDBRANCH  11  12
ENDBRANCH   7  11
ENDBRANCH   4   6
ENDBRANCH   3   4
ENDBRANCH   2   3
ENDBRANCH   1   2
BRANCH   1  25
ATOM     25  O   UNL A   1      37.483  20.545  25.097  1.00  0.00    -0.374 OA
BRANCH  25  26
ATOM     26  C   UNL A   1      38.540  19.591  25.039  1.00  0.00     0.202 C 
BRANCH  26  27
ATOM     27  C   UNL A   1      39.621  19.648  26.126  1.00  0.00     0.261 C 
BRANCH  27  28
ATOM     28  O   UNL A   1      40.898  19.153  25.680  1.00  0.00    -0.460 OA
BRANCH  28  29
ATOM     29  C   UNL A   1      41.949  19.576  26.430  1.00  0.00     0.338 C 
ATOM     30  O   UNL A   1      42.960  18.949  26.688  1.00  0.00    -0.246 OA
BRANCH  29  31
ATOM     31  C   UNL A   1      41.798  21.000  26.778  1.00  0.00     0.060 A 
ATOM     32  C   UNL A   1      41.461  21.889  25.748  1.00  0.00     0.016 A 
ATOM     33  C   UNL A   1      42.122  21.476  28.050  1.00  0.00     0.016 A 
ATOM     34  C   UNL A   1      41.504  23.266  25.969  1.00  0.00     0.010 A 
ATOM     35  C   UNL A   1      42.174  22.856  28.266  1.00  0.00     0.010 A 
ATOM     36  C   UNL A   1      41.906  23.756  27.217  1.00  0.00    -0.014 A 
BRANCH  36  37
ATOM     37  C   UNL A   1      42.232  25.195  27.381  1.00  0.00     0.031 A 
ATOM     38  C   UNL A   1      43.569  25.689  26.899  1.00  0.00     0.074 A 
ATOM     39  C   UNL A   1      41.359  26.048  27.948  1.00  0.00     0.049 A 
ATOM     40  N   UNL A   1      44.140  26.852  27.072  1.00  0.00    -0.248 NA
ATOM     41  C   UNL A   1      44.370  24.733  26.119  1.00  0.00     0.031 C 
ATOM     42  C   UNL A   1      40.005  25.705  28.378  1.00  0.00     0.029 A 
ATOM     43  N   UNL A   1      41.494  27.374  28.275  1.00  0.00    -0.354 N 
ATOM     44  C   UNL A   1      45.377  26.763  26.441  1.00  0.00     0.074 A 
ATOM     45  C   UNL A   1      45.479  25.423  25.903  1.00  0.00     0.031 C 
ATOM     46  C   UNL A   1      39.440  26.790  28.936  1.00  0.00     0.029 A 
ATOM     47  C   UNL A   1      40.411  27.884  28.953  1.00  0.00     0.049 A 
ATOM     48  H   UNL A   1      42.289  27.908  28.047  1.00  0.00     0.167 HD
ATOM     49  C   UNL A   1      46.337  27.714  26.323  1.00  0.00     0.034 A 
ATOM     50  C   UNL A   1      40.243  29.079  29.556  1.00  0.00     0.034 A 
ATOM     51  C   UNL A   1      46.217  29.042  26.875  1.00  0.00     0.049 A 
ATOM     52  C   UNL A   1      41.366  30.090  29.506  1.00  0.00     0.074 A 
ATOM     53  C   UNL A   1      47.128  30.083  26.824  1.00  0.00     0.029 A 
ATOM     54  N   UNL A   1      45.120  29.511  27.585  1.00  0.00    -0.354 N 
ATOM     55  N   UNL A   1      42.547  29.987  28.939  1.00  0.00    -0.248 NA
ATOM     56  C   UNL A   1      41.134  31.378  30.176  1.00  0.00     0.031 C 
ATOM     57  C   UNL A   1      46.613  31.153  27.562  1.00  0.00     0.029 A 
ATOM     58  C   UNL A   1      45.344  30.814  28.001  1.00  0.00     0.049 A 
ATOM     59  H   UNL A   1      44.302  28.994  27.766  1.00  0.00     0.167 HD
ATOM     60  C   UNL A   1      43.176  31.213  29.144  1.00  0.00     0.074 A 
ATOM     61  C   UNL A   1      42.250  32.036  29.891  1.00  0.00     0.031 C 
ATOM     62  C   UNL A   1      44.404  31.625  28.737  1.00  0.00     0.034 A 
BRANCH  49  63
ATOM     63  C   UNL A   1      47.621  27.325  25.631  1.00  0.00     0.023 A 
ATOM     64  C   UNL A   1      48.738  26.858  26.346  1.00  0.00     0.031 A 
ATOM     65  C   UNL A   1      47.739  27.452  24.235  1.00  0.00     0.131 A 
ATOM     66  C   UNL A   1      49.943  26.605  25.672  1.00  0.00     0.055 A 
ATOM     67  C   UNL A   1      48.915  27.118  23.560  1.00  0.00     0.041 A 
ATOM     68  F   UNL A   1      46.714  27.917  23.503  1.00  0.00    -0.206 F 
ATOM     69  C   UNL A   1      50.031  26.707  24.281  1.00  0.00     0.022 A 
BRANCH  66  70
ATOM     70  S   UNL A   1      51.434  26.282  26.653  1.00  0.00     0.124 S 
ATOM     71  O   UNL A   1      51.537  24.827  26.559  1.00  0.00    -0.237 OA
ATOM     72  O   UNL A   1      52.452  27.043  25.939  1.00  0.00    -0.237 OA
ATOM     73  O   UNL A   1      51.088  26.789  27.979  1.00  0.00    -0.744 OA
ENDBRANCH  66  70
ENDBRANCH  49  63
BRANCH  50  74
ATOM     74  C   UNL A   1      38.989  29.374  30.307  1.00  0.00     0.023 A 
ATOM     75  C   UNL A   1      38.021  30.246  29.787  1.00  0.00     0.031 A 
ATOM     76  C   UNL A   1      38.764  28.825  31.584  1.00  0.00     0.131 A 
ATOM     77  C   UNL A   1      36.897  30.583  30.557  1.00  0.00     0.055 A 
ATOM     78  C   UNL A   1      37.616  29.119  32.322  1.00  0.00     0.041 A 
ATOM     79  F   UNL A   1      39.658  27.986  32.131  1.00  0.00    -0.206 F 
ATOM     80  C   UNL A   1      36.682  30.014  31.815  1.00  0.00     0.022 A 
BRANCH  77  81
ATOM     81  S   UNL A   1      35.765  31.852  29.929  1.00  0.00     0.124 S 
ATOM     82  O   UNL A   1      36.688  32.931  29.592  1.00  0.00    -0.237 OA
ATOM     83  O   UNL A   1      35.139  31.167  28.804  1.00  0.00    -0.237 OA
ATOM     84  O   UNL A   1      34.885  32.116  31.066  1.00  0.00    -0.744 OA
ENDBRANCH  77  81
ENDBRANCH  50  74
BRANCH  62  85
ATOM     85  C   UNL A   1      44.787  33.059  29.016  1.00  0.00     0.023 A 
ATOM     86  C   UNL A   1      45.496  33.436  30.168  1.00  0.00     0.031 A 
ATOM     87  C   UNL A   1      44.459  34.059  28.081  1.00  0.00     0.131 A 
ATOM     88  C   UNL A   1      45.826  34.786  30.372  1.00  0.00     0.055 A 
ATOM     89  C   UNL A   1      44.835  35.389  28.264  1.00  0.00     0.041 A 
ATOM     90  F   UNL A   1      43.782  33.752  26.962  1.00  0.00    -0.206 F 
ATOM     91  C   UNL A   1      45.516  35.761  29.419  1.00  0.00     0.022 A 
BRANCH  88  92
ATOM     92  S   UNL A   1      46.623  35.266  31.929  1.00  0.00     0.124 S 
ATOM     93  O   UNL A   1      47.974  35.601  31.488  1.00  0.00    -0.237 OA
ATOM     94  O   UNL A   1      45.801  36.388  32.369  1.00  0.00    -0.237 OA
ATOM     95  O   UNL A   1      46.520  34.064  32.753  1.00  0.00    -0.744 OA
ENDBRANCH  88  92
ENDBRANCH  62  85
ENDBRANCH  36  37
ENDBRANCH  29  31
ENDBRANCH  28  29
ENDBRANCH  27  28
ENDBRANCH  26  27
ENDBRANCH  25  26
ENDBRANCH   1  25
TORSDOF 23
ENDMDL
MODEL 3
REMARK VINA RESULT:      -9.8      4.879     10.735
REMARK SMILES CCC(CC)(CC)NC(=O)NC[C@@H]1CC[C@H](C(=O)OCCOCCOC(=O)c2ccc(-c3c4nc(c(-c5cc(S(=O)(=O)[O-])ccc5F)c5ccc([nH]5)c(-c5cc(S(=O)(=O)[O-])ccc5F)c5nc(c(-c6cc(S(=O)(=O)[O-])ccc6F)c6ccc3[nH]6)C=C5)C=C4)cc2)O1
REMARK SMILES IDX 21 1 20 2 19 3 17 4 18 5 16 6 13 7 14 8 91 9 15 10 12 11
REMARK SMILES IDX 11 12 8 13 9 14 10 16 3 18 2 19 1 20 4 21 5 22 6 23 7 24
REMARK SMILES IDX 22 25 23 26 24 27 25 28 26 29 27 30 28 31 29 32 90 33 30 34
REMARK SMILES IDX 89 35 31 36 32 37 33 38 83 39 34 40 88 41 82 42 84 43 35 44
REMARK SMILES IDX 87 45 81 46 80 47 36 49 68 50 48 51 67 52 49 53 52 54 66 55
REMARK SMILES IDX 85 56 50 57 51 58 65 60 86 61 53 62 37 63 38 64 46 65 39 66
REMARK SMILES IDX 45 67 47 68 44 69 40 70 41 71 42 72 43 73 69 74 70 75 78 76
REMARK SMILES IDX 71 77 77 78 79 79 76 80 72 81 73 82 74 83 75 84 54 85 55 86
REMARK SMILES IDX 63 87 56 88 62 89 64 90 61 91 57 92 58 93 59 94 60 95
REMARK H PARENT 8 15 11 17 84 48 52 59
REMARK Flexibility Score: inf
ROOT
ATOM      1  C   UNL A   1      33.659  30.163  27.164  1.00  0.00     0.202 C 
ENDROOT
BRANCH   1   2
ATOM      2  C   UNL A   1      33.671  28.637  27.275  1.00  0.00     0.261 C 
BRANCH   2   3
ATOM      3  O   UNL A   1      32.401  28.072  26.935  1.00  0.00    -0.461 OA
BRANCH   3   4
ATOM      4  C   UNL A   1      32.411  27.116  25.967  1.00  0.00     0.335 C 
ATOM      5  O   UNL A   1      33.142  26.134  25.946  1.00  0.00    -0.249 OA
BRANCH   4   6
ATOM      6  C   UNL A   1      31.401  27.435  24.870  1.00  0.00     0.228 C 
ATOM      7  C   UNL A   1      30.582  25.642  23.643  1.00  0.00     0.138 C 
ATOM      8  C   UNL A   1      31.839  26.126  22.940  1.00  0.00     0.037 C 
ATOM      9  O   UNL A   1      30.462  26.355  24.883  1.00  0.00    -0.361 OA
ATOM     10  C   UNL A   1      31.949  27.539  23.451  1.00  0.00     0.047 C 
BRANCH   7  11
ATOM     11  C   UNL A   1      30.568  24.131  23.873  1.00  0.00     0.149 C 
BRANCH  11  12
ATOM     12  N   UNL A   1      30.427  23.782  25.275  1.00  0.00    -0.336 N 
ATOM     13  N   UNL A   1      32.307  22.556  26.092  1.00  0.00    -0.333 N 
ATOM     14  C   UNL A   1      31.158  23.215  26.226  1.00  0.00     0.315 C 
ATOM     15  H   UNL A   1      32.628  22.298  26.987  1.00  0.00     0.165 HD
ATOM     16  O   UNL A   1      30.706  23.284  27.376  1.00  0.00    -0.249 OA
ATOM     17  H   UNL A   1      29.540  24.038  25.615  1.00  0.00     0.165 HD
BRANCH  13  18
ATOM     18  C   UNL A   1      33.279  22.069  25.077  1.00  0.00     0.041 C 
BRANCH  18  19
ATOM     19  C   UNL A   1      33.906  23.203  24.236  1.00  0.00     0.025 C 
ATOM     20  C   UNL A   1      33.802  22.990  22.721  1.00  0.00     0.006 C 
ENDBRANCH  18  19
BRANCH  18  21
ATOM     21  C   UNL A   1      32.444  21.173  24.073  1.00  0.00     0.025 C 
ATOM     22  C   UNL A   1      32.533  19.662  24.298  1.00  0.00     0.006 C 
ENDBRANCH  18  21
BRANCH  18  23
ATOM     23  C   UNL A   1      34.350  21.124  25.716  1.00  0.00     0.025 C 
ATOM     24  C   UNL A   1      35.791  21.604  25.823  1.00  0.00     0.006 C 
ENDBRANCH  18  23
ENDBRANCH  13  18
ENDBRANCH  11  12
ENDBRANCH   7  11
ENDBRANCH   4   6
ENDBRANCH   3   4
ENDBRANCH   2   3
ENDBRANCH   1   2
BRANCH   1  25
ATOM     25  O   UNL A   1      32.661  30.744  26.328  1.00  0.00    -0.374 OA
BRANCH  25  26
ATOM     26  C   UNL A   1      31.694  31.603  26.924  1.00  0.00     0.202 C 
BRANCH  26  27
ATOM     27  C   UNL A   1      32.011  33.103  26.997  1.00  0.00     0.261 C 
BRANCH  27  28
ATOM     28  O   UNL A   1      33.346  33.377  27.462  1.00  0.00    -0.460 OA
BRANCH  28  29
ATOM     29  C   UNL A   1      33.402  34.245  28.505  1.00  0.00     0.338 C 
ATOM     30  O   UNL A   1      32.632  35.159  28.736  1.00  0.00    -0.246 OA
BRANCH  29  31
ATOM     31  C   UNL A   1      34.450  33.842  29.460  1.00  0.00     0.060 A 
ATOM     32  C   UNL A   1      35.776  34.171  29.147  1.00  0.00     0.016 A 
ATOM     33  C   UNL A   1      34.159  33.033  30.560  1.00  0.00     0.016 A 
ATOM     34  C   UNL A   1      36.825  33.644  29.900  1.00  0.00     0.010 A 
ATOM     35  C   UNL A   1      35.213  32.497  31.307  1.00  0.00     0.010 A 
ATOM     36  C   UNL A   1      36.550  32.766  30.956  1.00  0.00    -0.014 A 
BRANCH  36  37
ATOM     37  C   UNL A   1      37.645  31.979  31.575  1.00  0.00     0.031 A 
ATOM     38  C   UNL A   1      38.122  32.367  32.948  1.00  0.00     0.074 A 
ATOM     39  C   UNL A   1      38.208  30.940  30.930  1.00  0.00     0.049 A 
ATOM     40  N   UNL A   1      39.156  31.939  33.623  1.00  0.00    -0.248 NA
ATOM     41  C   UNL A   1      37.320  33.381  33.650  1.00  0.00     0.031 C 
ATOM     42  C   UNL A   1      37.777  30.419  29.635  1.00  0.00     0.029 A 
ATOM     43  N   UNL A   1      39.276  30.151  31.275  1.00  0.00    -0.354 N 
ATOM     44  C   UNL A   1      39.143  32.645  34.823  1.00  0.00     0.074 A 
ATOM     45  C   UNL A   1      38.011  33.545  34.768  1.00  0.00     0.031 C 
ATOM     46  C   UNL A   1      38.591  29.409  29.281  1.00  0.00     0.029 A 
ATOM     47  C   UNL A   1      39.631  29.251  30.297  1.00  0.00     0.049 A 
ATOM     48  H   UNL A   1      39.743  30.222  32.139  1.00  0.00     0.167 HD
ATOM     49  C   UNL A   1      40.000  32.549  35.870  1.00  0.00     0.034 A 
ATOM     50  C   UNL A   1      40.698  28.429  30.214  1.00  0.00     0.034 A 
ATOM     51  C   UNL A   1      41.127  31.650  35.899  1.00  0.00     0.049 A 
ATOM     52  C   UNL A   1      41.701  28.412  31.344  1.00  0.00     0.074 A 
ATOM     53  C   UNL A   1      42.065  31.473  36.903  1.00  0.00     0.029 A 
ATOM     54  N   UNL A   1      41.475  30.778  34.876  1.00  0.00    -0.354 N 
ATOM     55  N   UNL A   1      41.703  29.108  32.459  1.00  0.00    -0.248 NA
ATOM     56  C   UNL A   1      42.845  27.498  31.208  1.00  0.00     0.031 C 
ATOM     57  C   UNL A   1      43.016  30.552  36.457  1.00  0.00     0.029 A 
ATOM     58  C   UNL A   1      42.627  30.085  35.211  1.00  0.00     0.049 A 
ATOM     59  H   UNL A   1      40.976  30.669  34.034  1.00  0.00     0.167 HD
ATOM     60  C   UNL A   1      42.820  28.680  33.173  1.00  0.00     0.074 A 
ATOM     61  C   UNL A   1      43.471  27.674  32.364  1.00  0.00     0.031 C 
ATOM     62  C   UNL A   1      43.258  29.075  34.397  1.00  0.00     0.034 A 
BRANCH  49  63
ATOM     63  C   UNL A   1      39.784  33.487  37.032  1.00  0.00     0.023 A 
ATOM     64  C   UNL A   1      39.168  33.066  38.224  1.00  0.00     0.031 A 
ATOM     65  C   UNL A   1      40.175  34.835  36.935  1.00  0.00     0.131 A 
ATOM     66  C   UNL A   1      38.897  33.997  39.238  1.00  0.00     0.055 A 
ATOM     67  C   UNL A   1      39.977  35.738  37.981  1.00  0.00     0.041 A 
ATOM     68  F   UNL A   1      40.745  35.302  35.812  1.00  0.00    -0.206 F 
ATOM     69  C   UNL A   1      39.320  35.324  39.136  1.00  0.00     0.022 A 
BRANCH  66  70
ATOM     70  S   UNL A   1      37.852  33.484  40.629  1.00  0.00     0.124 S 
ATOM     71  O   UNL A   1      37.672  34.748  41.342  1.00  0.00    -0.237 OA
ATOM     72  O   UNL A   1      36.671  32.954  39.959  1.00  0.00    -0.237 OA
ATOM     73  O   UNL A   1      38.672  32.496  41.328  1.00  0.00    -0.744 OA
ENDBRANCH  66  70
ENDBRANCH  49  63
BRANCH  50  74
ATOM     74  C   UNL A   1      40.910  27.592  28.998  1.00  0.00     0.023 A 
ATOM     75  C   UNL A   1      41.904  27.914  28.061  1.00  0.00     0.031 A 
ATOM     76  C   UNL A   1      40.085  26.485  28.728  1.00  0.00     0.131 A 
ATOM     77  C   UNL A   1      42.017  27.169  26.877  1.00  0.00     0.055 A 
ATOM     78  C   UNL A   1      40.239  25.711  27.576  1.00  0.00     0.041 A 
ATOM     79  F   UNL A   1      39.116  26.133  29.589  1.00  0.00    -0.206 F 
ATOM     80  C   UNL A   1      41.201  26.061  26.636  1.00  0.00     0.022 A 
BRANCH  77  81
ATOM     81  S   UNL A   1      43.189  27.727  25.611  1.00  0.00     0.124 S 
ATOM     82  O   UNL A   1      42.289  28.189  24.560  1.00  0.00    -0.237 OA
ATOM     83  O   UNL A   1      43.931  28.762  26.322  1.00  0.00    -0.237 OA
ATOM     84  O   UNL A   1      43.950  26.520  25.296  1.00  0.00    -0.744 OA
ENDBRANCH  77  81
ENDBRANCH  50  74
BRANCH  62  85
ATOM     85  C   UNL A   1      44.453  28.356  34.974  1.00  0.00     0.023 A 
ATOM     86  C   UNL A   1      45.767  28.826  34.804  1.00  0.00     0.031 A 
ATOM     87  C   UNL A   1      44.259  27.193  35.742  1.00  0.00     0.131 A 
ATOM     88  C   UNL A   1      46.839  28.115  35.368  1.00  0.00     0.055 A 
ATOM     89  C   UNL A   1      45.323  26.521  36.343  1.00  0.00     0.041 A 
ATOM     90  F   UNL A   1      43.024  26.702  35.936  1.00  0.00    -0.206 F 
ATOM     91  C   UNL A   1      46.624  26.977  36.151  1.00  0.00     0.022 A 
BRANCH  88  92
ATOM     92  S   UNL A   1      48.532  28.666  35.023  1.00  0.00     0.124 S 
ATOM     93  O   UNL A   1      49.239  27.398  34.867  1.00  0.00    -0.237 OA
ATOM     94  O   UNL A   1      48.363  29.454  33.806  1.00  0.00    -0.237 OA
ATOM     95  O   UNL A   1      48.893  29.436  36.212  1.00  0.00    -0.744 OA
ENDBRANCH  88  92
ENDBRANCH  62  85
ENDBRANCH  36  37
ENDBRANCH  29  31
ENDBRANCH  28  29
ENDBRANCH  27  28
ENDBRANCH  26  27
ENDBRANCH  25  26
ENDBRANCH   1  25
TORSDOF 23
ENDMDL
