MODEL 1
REMARK VINA RESULT:     -10.5      0.000      0.000
REMARK SMILES CC[C@H](C)CN(CC)c1ccc(/C=C/C(=O)OCCOCCOC(=O)c2ccc(-c3c4nc(c(-c5cc(S(=O)(=O)[O-])ccc5F)c5ccc([nH]5)c(-c5cc(S(=O)(=O)[O-])ccc5F)c5nc(c(-c6cc(S(=O)(=O)[O-])ccc6F)c6ccc3[nH]6)C=C5)C=C4)cc2)cc1F
REMARK SMILES IDX 19 1 18 2 17 3 15 4 16 5 14 6 13 7 12 8 9 9 10 10 90 11
REMARK SMILES IDX 11 12 89 13 91 14 6 15 5 16 3 17 4 18 2 19 1 20 7 21 8 22
REMARK SMILES IDX 20 23 21 24 22 25 23 26 24 27 25 28 26 29 27 30 88 31 28 32
REMARK SMILES IDX 87 33 29 34 30 35 31 36 81 37 32 38 86 39 80 40 82 41 33 42
REMARK SMILES IDX 85 43 79 44 78 45 34 47 66 48 46 49 65 50 47 51 50 52 64 53
REMARK SMILES IDX 83 54 48 55 49 56 63 58 84 59 51 60 35 61 36 62 44 63 37 64
REMARK SMILES IDX 43 65 45 66 42 67 38 68 39 69 40 70 41 71 67 72 68 73 76 74
REMARK SMILES IDX 69 75 75 76 77 77 74 78 70 79 71 80 72 81 73 82 52 83 53 84
REMARK SMILES IDX 61 85 54 86 60 87 62 88 59 89 55 90 56 91 57 92 58 93
REMARK H PARENT 82 46 50 57
REMARK Flexibility Score: inf
ROOT
ATOM      1  C   UNL A   1      32.388  29.769  25.630  1.00  0.00     0.202 C 
ENDROOT
BRANCH   1   2
ATOM      2  C   UNL A   1      32.254  28.813  24.441  1.00  0.00     0.261 C 
BRANCH   2   3
ATOM      3  O   UNL A   1      31.163  29.195  23.587  1.00  0.00    -0.460 OA
BRANCH   3   4
ATOM      4  C   UNL A   1      30.603  28.181  22.892  1.00  0.00     0.330 C 
ATOM      5  O   UNL A   1      29.793  28.273  21.982  1.00  0.00    -0.247 OA
BRANCH   4   6
ATOM      6  C   UNL A   1      31.152  26.864  23.275  1.00  0.00     0.094 C 
ATOM      7  C   UNL A   1      31.221  25.762  22.512  1.00  0.00     0.016 C 
BRANCH   7   8
ATOM      8  C   UNL A   1      31.799  24.478  22.964  1.00  0.00    -0.022 A 
ATOM      9  C   UNL A   1      32.696  21.877  23.713  1.00  0.00     0.073 A 
ATOM     10  C   UNL A   1      33.285  22.566  22.653  1.00  0.00     0.029 A 
ATOM     11  C   UNL A   1      31.703  22.553  24.441  1.00  0.00     0.147 A 
ATOM     12  C   UNL A   1      32.857  23.848  22.294  1.00  0.00     0.010 A 
ATOM     13  C   UNL A   1      31.245  23.821  24.067  1.00  0.00     0.049 A 
ATOM     14  F   UNL A   1      31.110  21.949  25.484  1.00  0.00    -0.205 F 
BRANCH   9  15
ATOM     15  N   UNL A   1      33.017  20.548  23.953  1.00  0.00    -0.369 N 
BRANCH  15  16
ATOM     16  C   UNL A   1      34.063  20.256  24.946  1.00  0.00     0.120 C 
BRANCH  16  17
ATOM     17  C   UNL A   1      34.897  21.516  25.295  1.00  0.00     0.005 C 
ATOM     18  C   UNL A   1      34.815  21.829  26.798  1.00  0.00     0.009 C 
BRANCH  17  19
ATOM     19  C   UNL A   1      36.376  21.345  24.885  1.00  0.00     0.002 C 
ATOM     20  C   UNL A   1      36.931  22.579  24.181  1.00  0.00     0.004 C 
ENDBRANCH  17  19
ENDBRANCH  16  17
ENDBRANCH  15  16
BRANCH  15  21
ATOM     21  C   UNL A   1      32.110  19.495  23.507  1.00  0.00     0.113 C 
ATOM     22  C   UNL A   1      32.841  18.279  22.953  1.00  0.00     0.027 C 
ENDBRANCH  15  21
ENDBRANCH   9  15
ENDBRANCH   7   8
ENDBRANCH   4   6
ENDBRANCH   3   4
ENDBRANCH   2   3
ENDBRANCH   1   2
BRANCH   1  23
ATOM     23  O   UNL A   1      31.493  30.882  25.643  1.00  0.00    -0.374 OA
BRANCH  23  24
ATOM     24  C   UNL A   1      31.401  31.632  26.857  1.00  0.00     0.202 C 
BRANCH  24  25
ATOM     25  C   UNL A   1      32.011  33.039  26.848  1.00  0.00     0.261 C 
BRANCH  25  26
ATOM     26  O   UNL A   1      32.240  33.540  28.178  1.00  0.00    -0.460 OA
BRANCH  26  27
ATOM     27  C   UNL A   1      33.343  34.316  28.305  1.00  0.00     0.338 C 
ATOM     28  O   UNL A   1      33.375  35.541  28.354  1.00  0.00    -0.246 OA
BRANCH  27  29
ATOM     29  C   UNL A   1      34.531  33.486  28.571  1.00  0.00     0.060 A 
ATOM     30  C   UNL A   1      34.347  32.339  29.353  1.00  0.00     0.016 A 
ATOM     31  C   UNL A   1      35.809  33.858  28.146  1.00  0.00     0.016 A 
ATOM     32  C   UNL A   1      35.448  31.592  29.764  1.00  0.00     0.010 A 
ATOM     33  C   UNL A   1      36.916  33.109  28.568  1.00  0.00     0.010 A 
ATOM     34  C   UNL A   1      36.742  31.998  29.412  1.00  0.00    -0.014 A 
BRANCH  34  35
ATOM     35  C   UNL A   1      37.899  31.345  30.075  1.00  0.00     0.031 A 
ATOM     36  C   UNL A   1      38.211  31.697  31.506  1.00  0.00     0.074 A 
ATOM     37  C   UNL A   1      38.604  30.388  29.445  1.00  0.00     0.049 A 
ATOM     38  N   UNL A   1      39.139  31.220  32.293  1.00  0.00    -0.248 NA
ATOM     39  C   UNL A   1      37.357  32.720  32.134  1.00  0.00     0.031 C 
ATOM     40  C   UNL A   1      38.360  29.923  28.081  1.00  0.00     0.029 A 
ATOM     41  N   UNL A   1      39.658  29.622  29.878  1.00  0.00    -0.354 N 
ATOM     42  C   UNL A   1      38.980  31.875  33.509  1.00  0.00     0.074 A 
ATOM     43  C   UNL A   1      37.890  32.811  33.345  1.00  0.00     0.031 C 
ATOM     44  C   UNL A   1      39.229  28.940  27.793  1.00  0.00     0.029 A 
ATOM     45  C   UNL A   1      40.112  28.726  28.939  1.00  0.00     0.049 A 
ATOM     46  H   UNL A   1      40.050  29.706  30.776  1.00  0.00     0.167 HD
ATOM     47  C   UNL A   1      39.669  31.700  34.662  1.00  0.00     0.034 A 
ATOM     48  C   UNL A   1      41.130  27.843  28.993  1.00  0.00     0.034 A 
ATOM     49  C   UNL A   1      40.748  30.761  34.819  1.00  0.00     0.049 A 
ATOM     50  C   UNL A   1      41.946  27.733  30.257  1.00  0.00     0.074 A 
ATOM     51  C   UNL A   1      41.497  30.495  35.953  1.00  0.00     0.029 A 
ATOM     52  N   UNL A   1      41.240  29.940  33.815  1.00  0.00    -0.354 N 
ATOM     53  N   UNL A   1      41.793  28.374  31.391  1.00  0.00    -0.248 NA
ATOM     54  C   UNL A   1      43.072  26.789  30.246  1.00  0.00     0.031 C 
ATOM     55  C   UNL A   1      42.482  29.562  35.616  1.00  0.00     0.029 A 
ATOM     56  C   UNL A   1      42.306  29.196  34.292  1.00  0.00     0.049 A 
ATOM     57  H   UNL A   1      40.884  29.894  32.898  1.00  0.00     0.167 HD
ATOM     58  C   UNL A   1      42.793  27.897  32.235  1.00  0.00     0.074 A 
ATOM     59  C   UNL A   1      43.544  26.915  31.480  1.00  0.00     0.031 C 
ATOM     60  C   UNL A   1      43.057  28.237  33.521  1.00  0.00     0.034 A 
BRANCH  47  61
ATOM     61  C   UNL A   1      39.298  32.566  35.836  1.00  0.00     0.023 A 
ATOM     62  C   UNL A   1      39.767  33.884  35.957  1.00  0.00     0.031 A 
ATOM     63  C   UNL A   1      38.445  32.068  36.837  1.00  0.00     0.131 A 
ATOM     64  C   UNL A   1      39.409  34.650  37.076  1.00  0.00     0.055 A 
ATOM     65  C   UNL A   1      38.045  32.855  37.917  1.00  0.00     0.041 A 
ATOM     66  F   UNL A   1      37.985  30.808  36.777  1.00  0.00    -0.206 F 
ATOM     67  C   UNL A   1      38.533  34.153  38.045  1.00  0.00     0.022 A 
BRANCH  64  68
ATOM     68  S   UNL A   1      40.161  36.286  37.288  1.00  0.00     0.124 S 
ATOM     69  O   UNL A   1      39.293  36.878  38.304  1.00  0.00    -0.237 OA
ATOM     70  O   UNL A   1      41.516  35.962  37.716  1.00  0.00    -0.237 OA
ATOM     71  O   UNL A   1      40.054  36.886  35.960  1.00  0.00    -0.744 OA
ENDBRANCH  64  68
ENDBRANCH  47  61
BRANCH  48  72
ATOM     72  C   UNL A   1      41.457  27.015  27.800  1.00  0.00     0.023 A 
ATOM     73  C   UNL A   1      41.210  25.633  27.781  1.00  0.00     0.031 A 
ATOM     74  C   UNL A   1      42.028  27.603  26.657  1.00  0.00     0.131 A 
ATOM     75  C   UNL A   1      41.549  24.882  26.644  1.00  0.00     0.055 A 
ATOM     76  C   UNL A   1      42.330  26.858  25.517  1.00  0.00     0.041 A 
ATOM     77  F   UNL A   1      42.280  28.922  26.627  1.00  0.00    -0.206 F 
ATOM     78  C   UNL A   1      42.095  25.486  25.508  1.00  0.00     0.022 A 
BRANCH  75  79
ATOM     79  S   UNL A   1      41.283  23.088  26.671  1.00  0.00     0.124 S 
ATOM     80  O   UNL A   1      39.888  22.988  26.257  1.00  0.00    -0.237 OA
ATOM     81  O   UNL A   1      42.275  22.617  25.710  1.00  0.00    -0.237 OA
ATOM     82  O   UNL A   1      41.549  22.727  28.063  1.00  0.00    -0.744 OA
ENDBRANCH  75  79
ENDBRANCH  48  72
BRANCH  60  83
ATOM     83  C   UNL A   1      44.193  27.534  34.212  1.00  0.00     0.023 A 
ATOM     84  C   UNL A   1      44.000  26.315  34.882  1.00  0.00     0.031 A 
ATOM     85  C   UNL A   1      45.499  28.051  34.128  1.00  0.00     0.131 A 
ATOM     86  C   UNL A   1      45.097  25.656  35.455  1.00  0.00     0.055 A 
ATOM     87  C   UNL A   1      46.592  27.371  34.665  1.00  0.00     0.041 A 
ATOM     88  F   UNL A   1      45.733  29.209  33.490  1.00  0.00    -0.206 F 
ATOM     89  C   UNL A   1      46.393  26.166  35.334  1.00  0.00     0.022 A 
BRANCH  86  90
ATOM     90  S   UNL A   1      44.816  24.112  36.365  1.00  0.00     0.124 S 
ATOM     91  O   UNL A   1      46.130  23.479  36.298  1.00  0.00    -0.237 OA
ATOM     92  O   UNL A   1      44.405  24.588  37.682  1.00  0.00    -0.237 OA
ATOM     93  O   UNL A   1      43.767  23.446  35.595  1.00  0.00    -0.744 OA
ENDBRANCH  86  90
ENDBRANCH  60  83
ENDBRANCH  34  35
ENDBRANCH  27  29
ENDBRANCH  26  27
ENDBRANCH  25  26
ENDBRANCH  24  25
ENDBRANCH  23  24
ENDBRANCH   1  23
TORSDOF 23
ENDMDL
MODEL 2
REMARK VINA RESULT:     -10.2      1.991      2.335
REMARK SMILES CC[C@H](C)CN(CC)c1ccc(/C=C/C(=O)OCCOCCOC(=O)c2ccc(-c3c4nc(c(-c5cc(S(=O)(=O)[O-])ccc5F)c5ccc([nH]5)c(-c5cc(S(=O)(=O)[O-])ccc5F)c5nc(c(-c6cc(S(=O)(=O)[O-])ccc6F)c6ccc3[nH]6)C=C5)C=C4)cc2)cc1F
REMARK SMILES IDX 19 1 18 2 17 3 15 4 16 5 14 6 13 7 12 8 9 9 10 10 90 11
REMARK SMILES IDX 11 12 89 13 91 14 6 15 5 16 3 17 4 18 2 19 1 20 7 21 8 22
REMARK SMILES IDX 20 23 21 24 22 25 23 26 24 27 25 28 26 29 27 30 88 31 28 32
REMARK SMILES IDX 87 33 29 34 30 35 31 36 81 37 32 38 86 39 80 40 82 41 33 42
REMARK SMILES IDX 85 43 79 44 78 45 34 47 66 48 46 49 65 50 47 51 50 52 64 53
REMARK SMILES IDX 83 54 48 55 49 56 63 58 84 59 51 60 35 61 36 62 44 63 37 64
REMARK SMILES IDX 43 65 45 66 42 67 38 68 39 69 40 70 41 71 67 72 68 73 76 74
REMARK SMILES IDX 69 75 75 76 77 77 74 78 70 79 71 80 72 81 73 82 52 83 53 84
REMARK SMILES IDX 61 85 54 86 60 87 62 88 59 89 55 90 56 91 57 92 58 93
REMARK H PARENT 82 46 50 57
REMARK Flexibility Score: inf
ROOT
ATOM      1  C   UNL A   1      31.808  29.664  26.127  1.00  0.00     0.202 C 
ENDROOT
BRANCH   1   2
ATOM      2  C   UNL A   1      31.381  28.576  25.139  1.00  0.00     0.261 C 
BRANCH   2   3
ATOM      3  O   UNL A   1      30.547  29.116  24.100  1.00  0.00    -0.460 OA
BRANCH   3   4
ATOM      4  C   UNL A   1      30.339  28.290  23.051  1.00  0.00     0.330 C 
ATOM      5  O   UNL A   1      29.885  28.591  21.957  1.00  0.00    -0.247 OA
BRANCH   4   6
ATOM      6  C   UNL A   1      30.824  26.919  23.308  1.00  0.00     0.094 C 
ATOM      7  C   UNL A   1      31.309  26.048  22.408  1.00  0.00     0.016 C 
BRANCH   7   8
ATOM      8  C   UNL A   1      31.789  24.691  22.746  1.00  0.00    -0.022 A 
ATOM      9  C   UNL A   1      32.866  22.194  23.602  1.00  0.00     0.073 A 
ATOM     10  C   UNL A   1      31.564  22.569  23.931  1.00  0.00     0.029 A 
ATOM     11  C   UNL A   1      33.589  23.062  22.767  1.00  0.00     0.147 A 
ATOM     12  C   UNL A   1      31.029  23.786  23.499  1.00  0.00     0.010 A 
ATOM     13  C   UNL A   1      33.074  24.297  22.359  1.00  0.00     0.049 A 
ATOM     14  F   UNL A   1      34.843  22.748  22.401  1.00  0.00    -0.205 F 
BRANCH   9  15
ATOM     15  N   UNL A   1      33.437  21.064  24.171  1.00  0.00    -0.369 N 
BRANCH  15  16
ATOM     16  C   UNL A   1      34.616  21.244  25.034  1.00  0.00     0.120 C 
BRANCH  16  17
ATOM     17  C   UNL A   1      34.432  22.421  26.026  1.00  0.00     0.005 C 
ATOM     18  C   UNL A   1      33.722  21.953  27.308  1.00  0.00     0.009 C 
BRANCH  17  19
ATOM     19  C   UNL A   1      35.786  23.065  26.394  1.00  0.00     0.002 C 
ATOM     20  C   UNL A   1      36.479  23.690  25.187  1.00  0.00     0.004 C 
ENDBRANCH  17  19
ENDBRANCH  16  17
ENDBRANCH  15  16
BRANCH  15  21
ATOM     21  C   UNL A   1      32.686  19.812  24.201  1.00  0.00     0.113 C 
ATOM     22  C   UNL A   1      33.122  18.887  25.330  1.00  0.00     0.027 C 
ENDBRANCH  15  21
ENDBRANCH   9  15
ENDBRANCH   7   8
ENDBRANCH   4   6
ENDBRANCH   3   4
ENDBRANCH   2   3
ENDBRANCH   1   2
BRANCH   1  23
ATOM     23  O   UNL A   1      31.508  31.008  25.749  1.00  0.00    -0.374 OA
BRANCH  23  24
ATOM     24  C   UNL A   1      31.228  31.936  26.800  1.00  0.00     0.202 C 
BRANCH  24  25
ATOM     25  C   UNL A   1      32.081  33.209  26.845  1.00  0.00     0.261 C 
BRANCH  25  26
ATOM     26  O   UNL A   1      32.366  33.626  28.193  1.00  0.00    -0.460 OA
BRANCH  26  27
ATOM     27  C   UNL A   1      33.484  34.379  28.324  1.00  0.00     0.338 C 
ATOM     28  O   UNL A   1      33.542  35.603  28.369  1.00  0.00    -0.246 OA
BRANCH  27  29
ATOM     29  C   UNL A   1      34.653  33.525  28.602  1.00  0.00     0.060 A 
ATOM     30  C   UNL A   1      34.430  32.358  29.343  1.00  0.00     0.016 A 
ATOM     31  C   UNL A   1      35.948  33.892  28.226  1.00  0.00     0.016 A 
ATOM     32  C   UNL A   1      35.509  31.584  29.765  1.00  0.00     0.010 A 
ATOM     33  C   UNL A   1      37.031  33.115  28.660  1.00  0.00     0.010 A 
ATOM     34  C   UNL A   1      36.818  31.983  29.465  1.00  0.00    -0.014 A 
BRANCH  34  35
ATOM     35  C   UNL A   1      37.946  31.295  30.144  1.00  0.00     0.031 A 
ATOM     36  C   UNL A   1      38.191  31.568  31.604  1.00  0.00     0.074 A 
ATOM     37  C   UNL A   1      38.681  30.374  29.494  1.00  0.00     0.049 A 
ATOM     38  N   UNL A   1      39.084  31.049  32.405  1.00  0.00    -0.248 NA
ATOM     39  C   UNL A   1      37.308  32.555  32.247  1.00  0.00     0.031 C 
ATOM     40  C   UNL A   1      38.500  29.983  28.097  1.00  0.00     0.029 A 
ATOM     41  N   UNL A   1      39.716  29.586  29.932  1.00  0.00    -0.354 N 
ATOM     42  C   UNL A   1      38.868  31.637  33.646  1.00  0.00     0.074 A 
ATOM     43  C   UNL A   1      37.784  32.581  33.484  1.00  0.00     0.031 C 
ATOM     44  C   UNL A   1      39.384  29.018  27.796  1.00  0.00     0.029 A 
ATOM     45  C   UNL A   1      40.214  28.743  28.968  1.00  0.00     0.049 A 
ATOM     46  H   UNL A   1      40.067  29.621  30.851  1.00  0.00     0.167 HD
ATOM     47  C   UNL A   1      39.505  31.399  34.818  1.00  0.00     0.034 A 
ATOM     48  C   UNL A   1      41.231  27.857  29.020  1.00  0.00     0.034 A 
ATOM     49  C   UNL A   1      40.579  30.454  34.973  1.00  0.00     0.049 A 
ATOM     50  C   UNL A   1      41.990  27.679  30.311  1.00  0.00     0.074 A 
ATOM     51  C   UNL A   1      41.277  30.127  36.123  1.00  0.00     0.029 A 
ATOM     52  N   UNL A   1      41.118  29.689  33.948  1.00  0.00    -0.354 N 
ATOM     53  N   UNL A   1      41.784  28.257  31.471  1.00  0.00    -0.248 NA
ATOM     54  C   UNL A   1      43.118  26.737  30.299  1.00  0.00     0.031 C 
ATOM     55  C   UNL A   1      42.278  29.213  35.781  1.00  0.00     0.029 A 
ATOM     56  C   UNL A   1      42.163  28.920  34.432  1.00  0.00     0.049 A 
ATOM     57  H   UNL A   1      40.804  29.693  33.015  1.00  0.00     0.167 HD
ATOM     58  C   UNL A   1      42.746  27.735  32.331  1.00  0.00     0.074 A 
ATOM     59  C   UNL A   1      43.533  26.796  31.559  1.00  0.00     0.031 C 
ATOM     60  C   UNL A   1      42.951  28.004  33.645  1.00  0.00     0.034 A 
BRANCH  47  61
ATOM     61  C   UNL A   1      39.079  32.200  36.019  1.00  0.00     0.023 A 
ATOM     62  C   UNL A   1      38.241  31.657  37.007  1.00  0.00     0.031 A 
ATOM     63  C   UNL A   1      39.538  33.518  36.186  1.00  0.00     0.131 A 
ATOM     64  C   UNL A   1      37.857  32.445  38.103  1.00  0.00     0.055 A 
ATOM     65  C   UNL A   1      39.200  34.276  37.307  1.00  0.00     0.041 A 
ATOM     66  F   UNL A   1      40.326  34.089  35.260  1.00  0.00    -0.206 F 
ATOM     67  C   UNL A   1      38.349  33.742  38.271  1.00  0.00     0.022 A 
BRANCH  64  68
ATOM     68  S   UNL A   1      36.645  31.776  39.274  1.00  0.00     0.124 S 
ATOM     69  O   UNL A   1      35.529  32.701  39.102  1.00  0.00    -0.237 OA
ATOM     70  O   UNL A   1      36.435  30.421  38.777  1.00  0.00    -0.237 OA
ATOM     71  O   UNL A   1      37.329  31.867  40.563  1.00  0.00    -0.744 OA
ENDBRANCH  64  68
ENDBRANCH  47  61
BRANCH  48  72
ATOM     72  C   UNL A   1      41.614  27.096  27.799  1.00  0.00     0.023 A 
ATOM     73  C   UNL A   1      41.423  25.708  27.715  1.00  0.00     0.031 A 
ATOM     74  C   UNL A   1      42.184  27.756  26.695  1.00  0.00     0.131 A 
ATOM     75  C   UNL A   1      41.813  25.021  26.554  1.00  0.00     0.055 A 
ATOM     76  C   UNL A   1      42.538  27.073  25.531  1.00  0.00     0.041 A 
ATOM     77  F   UNL A   1      42.384  29.083  26.728  1.00  0.00    -0.206 F 
ATOM     78  C   UNL A   1      42.357  25.695  25.458  1.00  0.00     0.022 A 
BRANCH  75  79
ATOM     79  S   UNL A   1      41.617  23.218  26.499  1.00  0.00     0.124 S 
ATOM     80  O   UNL A   1      42.269  22.811  27.738  1.00  0.00    -0.237 OA
ATOM     81  O   UNL A   1      40.166  23.069  26.455  1.00  0.00    -0.237 OA
ATOM     82  O   UNL A   1      42.316  22.839  25.272  1.00  0.00    -0.744 OA
ENDBRANCH  75  79
ENDBRANCH  48  72
BRANCH  60  83
ATOM     83  C   UNL A   1      44.057  27.265  34.347  1.00  0.00     0.023 A 
ATOM     84  C   UNL A   1      45.335  27.827  34.491  1.00  0.00     0.031 A 
ATOM     85  C   UNL A   1      43.802  26.020  34.950  1.00  0.00     0.131 A 
ATOM     86  C   UNL A   1      46.320  27.138  35.214  1.00  0.00     0.055 A 
ATOM     87  C   UNL A   1      44.773  25.357  35.700  1.00  0.00     0.041 A 
ATOM     88  F   UNL A   1      42.591  25.448  34.846  1.00  0.00    -0.206 F 
ATOM     89  C   UNL A   1      46.042  25.916  35.834  1.00  0.00     0.022 A 
BRANCH  86  90
ATOM     90  S   UNL A   1      47.981  27.856  35.339  1.00  0.00     0.124 S 
ATOM     91  O   UNL A   1      47.692  29.287  35.314  1.00  0.00    -0.237 OA
ATOM     92  O   UNL A   1      48.463  27.327  36.611  1.00  0.00    -0.237 OA
ATOM     93  O   UNL A   1      48.668  27.340  34.157  1.00  0.00    -0.744 OA
ENDBRANCH  86  90
ENDBRANCH  60  83
ENDBRANCH  34  35
ENDBRANCH  27  29
ENDBRANCH  26  27
ENDBRANCH  25  26
ENDBRANCH  24  25
ENDBRANCH  23  24
ENDBRANCH   1  23
TORSDOF 23
ENDMDL
MODEL 3
REMARK VINA RESULT:     -10.1      2.172      2.873
REMARK SMILES CC[C@H](C)CN(CC)c1ccc(/C=C/C(=O)OCCOCCOC(=O)c2ccc(-c3c4nc(c(-c5cc(S(=O)(=O)[O-])ccc5F)c5ccc([nH]5)c(-c5cc(S(=O)(=O)[O-])ccc5F)c5nc(c(-c6cc(S(=O)(=O)[O-])ccc6F)c6ccc3[nH]6)C=C5)C=C4)cc2)cc1F
REMARK SMILES IDX 19 1 18 2 17 3 15 4 16 5 14 6 13 7 12 8 9 9 10 10 90 11
REMARK SMILES IDX 11 12 89 13 91 14 6 15 5 16 3 17 4 18 2 19 1 20 7 21 8 22
REMARK SMILES IDX 20 23 21 24 22 25 23 26 24 27 25 28 26 29 27 30 88 31 28 32
REMARK SMILES IDX 87 33 29 34 30 35 31 36 81 37 32 38 86 39 80 40 82 41 33 42
REMARK SMILES IDX 85 43 79 44 78 45 34 47 66 48 46 49 65 50 47 51 50 52 64 53
REMARK SMILES IDX 83 54 48 55 49 56 63 58 84 59 51 60 35 61 36 62 44 63 37 64
REMARK SMILES IDX 43 65 45 66 42 67 38 68 39 69 40 70 41 71 67 72 68 73 76 74
REMARK SMILES IDX 69 75 75 76 77 77 74 78 70 79 71 80 72 81 73 82 52 83 53 84
REMARK SMILES IDX 61 85 54 86 60 87 62 88 59 89 55 90 56 91 57 92 58 93
REMARK H PARENT 82 46 50 57
REMARK Flexibility Score: inf
ROOT
ATOM      1  C   UNL A   1      32.739  29.341  27.129  1.00  0.00     0.202 C 
ENDROOT
BRANCH   1   2
ATOM      2  C   UNL A   1      31.764  28.517  26.284  1.00  0.00     0.261 C 
BRANCH   2   3
ATOM      3  O   UNL A   1      31.514  29.148  25.017  1.00  0.00    -0.460 OA
BRANCH   3   4
ATOM      4  C   UNL A   1      32.038  28.507  23.950  1.00  0.00     0.330 C 
ATOM      5  O   UNL A   1      32.069  28.905  22.795  1.00  0.00    -0.247 OA
BRANCH   4   6
ATOM      6  C   UNL A   1      32.701  27.240  24.322  1.00  0.00     0.094 C 
ATOM      7  C   UNL A   1      33.395  26.422  23.515  1.00  0.00     0.016 C 
BRANCH   7   8
ATOM      8  C   UNL A   1      34.045  25.173  23.966  1.00  0.00    -0.022 A 
ATOM      9  C   UNL A   1      35.041  22.663  24.882  1.00  0.00     0.073 A 
ATOM     10  C   UNL A   1      35.009  22.974  23.523  1.00  0.00     0.029 A 
ATOM     11  C   UNL A   1      34.639  23.667  25.777  1.00  0.00     0.147 A 
ATOM     12  C   UNL A   1      34.535  24.210  23.073  1.00  0.00     0.010 A 
ATOM     13  C   UNL A   1      34.131  24.894  25.334  1.00  0.00     0.049 A 
ATOM     14  F   UNL A   1      34.663  23.434  27.100  1.00  0.00    -0.205 F 
BRANCH   9  15
ATOM     15  N   UNL A   1      35.358  21.378  25.302  1.00  0.00    -0.369 N 
BRANCH  15  16
ATOM     16  C   UNL A   1      34.254  20.481  25.678  1.00  0.00     0.120 C 
BRANCH  16  17
ATOM     17  C   UNL A   1      33.683  19.721  24.453  1.00  0.00     0.005 C 
ATOM     18  C   UNL A   1      33.667  18.204  24.707  1.00  0.00     0.009 C 
BRANCH  17  19
ATOM     19  C   UNL A   1      32.257  20.199  24.108  1.00  0.00     0.002 C 
ATOM     20  C   UNL A   1      32.187  20.884  22.746  1.00  0.00     0.004 C 
ENDBRANCH  17  19
ENDBRANCH  16  17
ENDBRANCH  15  16
BRANCH  15  21
ATOM     21  C   UNL A   1      36.688  20.838  25.034  1.00  0.00     0.113 C 
ATOM     22  C   UNL A   1      37.804  21.816  25.380  1.00  0.00     0.027 C 
ENDBRANCH  15  21
ENDBRANCH   9  15
ENDBRANCH   7   8
ENDBRANCH   4   6
ENDBRANCH   3   4
ENDBRANCH   2   3
ENDBRANCH   1   2
BRANCH   1  23
ATOM     23  O   UNL A   1      32.985  30.675  26.682  1.00  0.00    -0.374 OA
BRANCH  23  24
ATOM     24  C   UNL A   1      33.391  31.630  27.666  1.00  0.00     0.202 C 
BRANCH  24  25
ATOM     25  C   UNL A   1      32.747  33.020  27.587  1.00  0.00     0.261 C 
BRANCH  25  26
ATOM     26  O   UNL A   1      33.665  34.065  27.957  1.00  0.00    -0.460 OA
BRANCH  26  27
ATOM     27  C   UNL A   1      33.566  34.471  29.245  1.00  0.00     0.338 C 
ATOM     28  O   UNL A   1      32.603  35.021  29.768  1.00  0.00    -0.246 OA
BRANCH  27  29
ATOM     29  C   UNL A   1      34.721  33.995  30.027  1.00  0.00     0.060 A 
ATOM     30  C   UNL A   1      35.996  34.302  29.536  1.00  0.00     0.016 A 
ATOM     31  C   UNL A   1      34.571  33.196  31.164  1.00  0.00     0.016 A 
ATOM     32  C   UNL A   1      37.126  33.760  30.144  1.00  0.00     0.010 A 
ATOM     33  C   UNL A   1      35.709  32.646  31.769  1.00  0.00     0.010 A 
ATOM     34  C   UNL A   1      36.987  32.892  31.236  1.00  0.00    -0.014 A 
BRANCH  34  35
ATOM     35  C   UNL A   1      38.174  32.127  31.694  1.00  0.00     0.031 A 
ATOM     36  C   UNL A   1      38.774  32.452  33.036  1.00  0.00     0.074 A 
ATOM     37  C   UNL A   1      38.654  31.101  30.968  1.00  0.00     0.049 A 
ATOM     38  N   UNL A   1      39.778  31.886  33.654  1.00  0.00    -0.248 NA
ATOM     39  C   UNL A   1      38.155  33.559  33.785  1.00  0.00     0.031 C 
ATOM     40  C   UNL A   1      38.121  30.657  29.681  1.00  0.00     0.029 A 
ATOM     41  N   UNL A   1      39.687  30.233  31.222  1.00  0.00    -0.354 N 
ATOM     42  C   UNL A   1      39.908  32.558  34.864  1.00  0.00     0.074 A 
ATOM     43  C   UNL A   1      38.905  33.601  34.877  1.00  0.00     0.031 C 
ATOM     44  C   UNL A   1      38.822  29.589  29.264  1.00  0.00     0.029 A 
ATOM     45  C   UNL A   1      39.872  29.292  30.237  1.00  0.00     0.049 A 
ATOM     46  H   UNL A   1      40.243  30.281  32.032  1.00  0.00     0.167 HD
ATOM     47  C   UNL A   1      40.773  32.319  35.877  1.00  0.00     0.034 A 
ATOM     48  C   UNL A   1      40.790  28.309  30.127  1.00  0.00     0.034 A 
ATOM     49  C   UNL A   1      41.765  31.276  35.859  1.00  0.00     0.049 A 
ATOM     50  C   UNL A   1      41.807  28.122  31.225  1.00  0.00     0.074 A 
ATOM     51  C   UNL A   1      42.677  30.940  36.844  1.00  0.00     0.029 A 
ATOM     52  N   UNL A   1      41.982  30.405  34.801  1.00  0.00    -0.354 N 
ATOM     53  N   UNL A   1      41.927  28.780  32.353  1.00  0.00    -0.248 NA
ATOM     54  C   UNL A   1      42.812  27.068  31.032  1.00  0.00     0.031 C 
ATOM     55  C   UNL A   1      43.486  29.910  36.357  1.00  0.00     0.029 A 
ATOM     56  C   UNL A   1      43.037  29.558  35.095  1.00  0.00     0.049 A 
ATOM     57  H   UNL A   1      41.463  30.392  33.964  1.00  0.00     0.167 HD
ATOM     58  C   UNL A   1      43.011  28.207  33.013  1.00  0.00     0.074 A 
ATOM     59  C   UNL A   1      43.510  27.150  32.158  1.00  0.00     0.031 C 
ATOM     60  C   UNL A   1      43.537  28.524  34.223  1.00  0.00     0.034 A 
BRANCH  47  61
ATOM     61  C   UNL A   1      40.710  33.223  37.079  1.00  0.00     0.023 A 
ATOM     62  C   UNL A   1      40.018  32.853  38.243  1.00  0.00     0.031 A 
ATOM     63  C   UNL A   1      41.371  34.464  37.062  1.00  0.00     0.131 A 
ATOM     64  C   UNL A   1      39.973  33.735  39.335  1.00  0.00     0.055 A 
ATOM     65  C   UNL A   1      41.371  35.310  38.172  1.00  0.00     0.041 A 
ATOM     66  F   UNL A   1      42.031  34.871  35.966  1.00  0.00    -0.206 F 
ATOM     67  C   UNL A   1      40.663  34.949  39.315  1.00  0.00     0.022 A 
BRANCH  64  68
ATOM     68  S   UNL A   1      38.937  33.303  40.760  1.00  0.00     0.124 S 
ATOM     69  O   UNL A   1      39.129  31.857  40.834  1.00  0.00    -0.237 OA
ATOM     70  O   UNL A   1      39.535  34.084  41.836  1.00  0.00    -0.237 OA
ATOM     71  O   UNL A   1      37.600  33.728  40.351  1.00  0.00    -0.744 OA
ENDBRANCH  64  68
ENDBRANCH  47  61
BRANCH  48  72
ATOM     72  C   UNL A   1      40.811  27.447  28.913  1.00  0.00     0.023 A 
ATOM     73  C   UNL A   1      41.740  27.662  27.882  1.00  0.00     0.031 A 
ATOM     74  C   UNL A   1      39.892  26.392  28.770  1.00  0.00     0.131 A 
ATOM     75  C   UNL A   1      41.718  26.839  26.744  1.00  0.00     0.055 A 
ATOM     76  C   UNL A   1      39.898  25.556  27.653  1.00  0.00     0.041 A 
ATOM     77  F   UNL A   1      38.987  26.147  29.730  1.00  0.00    -0.206 F 
ATOM     78  C   UNL A   1      40.812  25.781  26.628  1.00  0.00     0.022 A 
BRANCH  75  79
ATOM     79  S   UNL A   1      42.883  27.181  25.397  1.00  0.00     0.124 S 
ATOM     80  O   UNL A   1      44.089  27.543  26.133  1.00  0.00    -0.237 OA
ATOM     81  O   UNL A   1      42.918  25.904  24.691  1.00  0.00    -0.237 OA
ATOM     82  O   UNL A   1      42.246  28.275  24.667  1.00  0.00    -0.744 OA
ENDBRANCH  75  79
ENDBRANCH  48  72
BRANCH  60  83
ATOM     83  C   UNL A   1      44.704  27.712  34.714  1.00  0.00     0.023 A 
ATOM     84  C   UNL A   1      44.515  26.514  35.422  1.00  0.00     0.031 A 
ATOM     85  C   UNL A   1      46.018  28.101  34.397  1.00  0.00     0.131 A 
ATOM     86  C   UNL A   1      45.628  25.749  35.803  1.00  0.00     0.055 A 
ATOM     87  C   UNL A   1      47.118  27.317  34.743  1.00  0.00     0.041 A 
ATOM     88  F   UNL A   1      46.246  29.234  33.713  1.00  0.00    -0.206 F 
ATOM     89  C   UNL A   1      46.925  26.133  35.451  1.00  0.00     0.022 A 
BRANCH  86  90
ATOM     90  S   UNL A   1      45.363  24.235  36.766  1.00  0.00     0.124 S 
ATOM     91  O   UNL A   1      44.415  23.507  35.927  1.00  0.00    -0.237 OA
ATOM     92  O   UNL A   1      46.707  23.669  36.846  1.00  0.00    -0.237 OA
ATOM     93  O   UNL A   1      44.824  24.724  38.033  1.00  0.00    -0.744 OA
ENDBRANCH  86  90
ENDBRANCH  60  83
ENDBRANCH  34  35
ENDBRANCH  27  29
ENDBRANCH  26  27
ENDBRANCH  25  26
ENDBRANCH  24  25
ENDBRANCH  23  24
ENDBRANCH   1  23
TORSDOF 23
ENDMDL
