MODEL 1
REMARK VINA RESULT:     -10.6      0.000      0.000
REMARK SMILES CC[NH2+][C@]1(C(=O)OCCOCCOC(=O)c2ccc(-c3c4nc(c(-c5cc(S(=O)(=O)[O-])ccc5F)c5ccc([nH]5)c(-c5cc(S(=O)(=O)[O-])ccc5F)c5nc(c(-c6cc(S(=O)(=O)[O-])ccc6F)c6ccc3[nH]6)C=C5)C=C4)cc2)CCC[C@@H]1CC[N@H+]1C[C@H](C)OC[C@@H]1C
REMARK SMILES IDX 10 1 9 2 8 3 7 4 5 5 6 6 4 7 79 8 82 9 80 10 81 11 3 12 2 15
REMARK SMILES IDX 1 16 83 17 84 18 85 19 86 20 91 21 87 23 90 24 92 25 89 26
REMARK SMILES IDX 88 27 11 28 12 29 13 30 14 31 15 32 16 33 17 34 78 35 18 36
REMARK SMILES IDX 77 37 19 38 20 39 21 40 71 41 22 42 76 43 70 44 72 45 23 46
REMARK SMILES IDX 75 47 69 48 68 49 24 51 56 52 36 53 55 54 37 55 40 56 54 57
REMARK SMILES IDX 73 58 38 59 39 60 53 62 74 63 41 64 25 65 26 66 34 67 27 68
REMARK SMILES IDX 33 69 35 70 32 71 28 72 29 73 30 74 31 75 57 76 58 77 66 78
REMARK SMILES IDX 59 79 65 80 67 81 64 82 60 83 61 84 62 85 63 86 42 87 43 88
REMARK SMILES IDX 51 89 44 90 50 91 52 92 49 93 45 94 46 95 47 96 48 97
REMARK H PARENT 3 13 3 14 85 22 72 50 40 61
REMARK Flexibility Score: inf
ROOT
ATOM      1  O   UNL A   1      38.064  21.332  24.839  1.00  0.00    -0.374 OA
ENDROOT
BRANCH   1   2
ATOM      2  C   UNL A   1      36.819  21.981  25.083  1.00  0.00     0.202 C 
BRANCH   2   3
ATOM      3  C   UNL A   1      35.937  22.402  23.897  1.00  0.00     0.261 C 
BRANCH   3   4
ATOM      4  O   UNL A   1      34.918  23.358  24.241  1.00  0.00    -0.459 OA
BRANCH   4   5
ATOM      5  C   UNL A   1      33.655  22.997  23.880  1.00  0.00     0.368 C 
ATOM      6  O   UNL A   1      33.293  22.887  22.710  1.00  0.00    -0.245 OA
BRANCH   5   7
ATOM      7  C   UNL A   1      32.698  22.730  25.092  1.00  0.00     0.197 C 
ATOM      8  C   UNL A   1      33.398  22.698  26.474  1.00  0.00     0.081 C 
ATOM      9  C   UNL A   1      31.714  23.902  25.377  1.00  0.00     0.068 C 
ATOM     10  C   UNL A   1      32.270  22.760  27.489  1.00  0.00     0.008 C 
ATOM     11  C   UNL A   1      31.196  23.598  26.801  1.00  0.00     0.011 C 
BRANCH   7  12
ATOM     12  N   UNL A   1      31.954  21.451  24.825  1.00  0.00    -0.332 N 
ATOM     13  H   UNL A   1      31.349  21.251  25.622  1.00  0.00     0.347 HD
ATOM     14  H   UNL A   1      31.415  21.578  23.969  1.00  0.00     0.347 HD
BRANCH  12  15
ATOM     15  C   UNL A   1      32.858  20.305  24.619  1.00  0.00     0.257 C 
ATOM     16  C   UNL A   1      32.498  19.535  23.358  1.00  0.00     0.071 C 
ENDBRANCH  12  15
ENDBRANCH   7  12
BRANCH   9  17
ATOM     17  C   UNL A   1      30.686  24.234  24.274  1.00  0.00     0.072 C 
BRANCH  17  18
ATOM     18  C   UNL A   1      30.714  25.649  23.684  1.00  0.00     0.263 C 
BRANCH  18  19
ATOM     19  N   UNL A   1      31.608  26.532  24.447  1.00  0.00    -0.329 N 
ATOM     20  C   UNL A   1      32.853  26.868  23.722  1.00  0.00     0.294 C 
ATOM     21  C   UNL A   1      30.924  27.759  24.914  1.00  0.00     0.207 C 
ATOM     22  H   UNL A   1      31.881  25.992  25.269  1.00  0.00     0.348 HD
ATOM     23  C   UNL A   1      32.689  27.996  22.677  1.00  0.00     0.170 C 
ATOM     24  C   UNL A   1      30.799  28.825  23.814  1.00  0.00     0.225 C 
ATOM     25  C   UNL A   1      31.652  28.310  26.149  1.00  0.00     0.078 C 
ATOM     26  O   UNL A   1      32.072  29.160  23.254  1.00  0.00    -0.366 OA
ATOM     27  C   UNL A   1      34.044  28.425  22.128  1.00  0.00     0.045 C 
ENDBRANCH  18  19
ENDBRANCH  17  18
ENDBRANCH   9  17
ENDBRANCH   5   7
ENDBRANCH   4   5
ENDBRANCH   3   4
ENDBRANCH   2   3
ENDBRANCH   1   2
BRANCH   1  28
ATOM     28  C   UNL A   1      38.092  19.915  24.964  1.00  0.00     0.202 C 
BRANCH  28  29
ATOM     29  C   UNL A   1      39.260  19.233  25.689  1.00  0.00     0.261 C 
BRANCH  29  30
ATOM     30  O   UNL A   1      40.395  20.093  25.879  1.00  0.00    -0.460 OA
BRANCH  30  31
ATOM     31  C   UNL A   1      40.758  20.265  27.175  1.00  0.00     0.338 C 
ATOM     32  O   UNL A   1      41.049  19.390  27.980  1.00  0.00    -0.246 OA
BRANCH  31  33
ATOM     33  C   UNL A   1      40.971  21.697  27.444  1.00  0.00     0.060 A 
ATOM     34  C   UNL A   1      40.297  22.620  26.632  1.00  0.00     0.016 A 
ATOM     35  C   UNL A   1      41.847  22.130  28.439  1.00  0.00     0.016 A 
ATOM     36  C   UNL A   1      40.503  23.985  26.806  1.00  0.00     0.010 A 
ATOM     37  C   UNL A   1      42.072  23.501  28.596  1.00  0.00     0.010 A 
ATOM     38  C   UNL A   1      41.413  24.433  27.771  1.00  0.00    -0.014 A 
BRANCH  38  39
ATOM     39  C   UNL A   1      41.760  25.871  27.848  1.00  0.00     0.031 A 
ATOM     40  C   UNL A   1      43.045  26.344  27.231  1.00  0.00     0.074 A 
ATOM     41  C   UNL A   1      40.933  26.734  28.466  1.00  0.00     0.049 A 
ATOM     42  N   UNL A   1      43.597  27.528  27.272  1.00  0.00    -0.248 NA
ATOM     43  C   UNL A   1      43.812  25.348  26.463  1.00  0.00     0.031 C 
ATOM     44  C   UNL A   1      39.632  26.391  29.041  1.00  0.00     0.029 A 
ATOM     45  N   UNL A   1      41.072  28.074  28.729  1.00  0.00    -0.354 N 
ATOM     46  C   UNL A   1      44.784  27.418  26.557  1.00  0.00     0.074 A 
ATOM     47  C   UNL A   1      44.877  26.048  26.100  1.00  0.00     0.031 C 
ATOM     48  C   UNL A   1      39.100  27.489  29.604  1.00  0.00     0.029 A 
ATOM     49  C   UNL A   1      40.045  28.597  29.483  1.00  0.00     0.049 A 
ATOM     50  H   UNL A   1      41.833  28.610  28.409  1.00  0.00     0.167 HD
ATOM     51  C   UNL A   1      45.709  28.376  26.312  1.00  0.00     0.034 A 
ATOM     52  C   UNL A   1      39.912  29.814  30.046  1.00  0.00     0.034 A 
ATOM     53  C   UNL A   1      45.591  29.736  26.776  1.00  0.00     0.049 A 
ATOM     54  C   UNL A   1      41.017  30.829  29.851  1.00  0.00     0.074 A 
ATOM     55  C   UNL A   1      46.443  30.801  26.541  1.00  0.00     0.029 A 
ATOM     56  N   UNL A   1      44.572  30.214  27.588  1.00  0.00    -0.354 N 
ATOM     57  N   UNL A   1      42.120  30.723  29.143  1.00  0.00    -0.248 NA
ATOM     58  C   UNL A   1      40.864  32.121  30.532  1.00  0.00     0.031 C 
ATOM     59  C   UNL A   1      45.989  31.895  27.283  1.00  0.00     0.029 A 
ATOM     60  C   UNL A   1      44.806  31.541  27.912  1.00  0.00     0.049 A 
ATOM     61  H   UNL A   1      43.796  29.688  27.889  1.00  0.00     0.167 HD
ATOM     62  C   UNL A   1      42.772  31.947  29.275  1.00  0.00     0.074 A 
ATOM     63  C   UNL A   1      41.932  32.779  30.109  1.00  0.00     0.031 C 
ATOM     64  C   UNL A   1      43.960  32.351  28.754  1.00  0.00     0.034 A 
BRANCH  51  65
ATOM     65  C   UNL A   1      46.960  27.983  25.568  1.00  0.00     0.023 A 
ATOM     66  C   UNL A   1      47.087  28.143  24.178  1.00  0.00     0.031 A 
ATOM     67  C   UNL A   1      48.057  27.461  26.277  1.00  0.00     0.131 A 
ATOM     68  C   UNL A   1      48.273  27.750  23.538  1.00  0.00     0.055 A 
ATOM     69  C   UNL A   1      49.257  27.136  25.644  1.00  0.00     0.041 A 
ATOM     70  F   UNL A   1      47.982  27.262  27.604  1.00  0.00    -0.206 F 
ATOM     71  C   UNL A   1      49.368  27.273  24.263  1.00  0.00     0.022 A 
BRANCH  68  72
ATOM     72  S   UNL A   1      48.335  27.782  21.726  1.00  0.00     0.124 S 
ATOM     73  O   UNL A   1      47.002  28.278  21.393  1.00  0.00    -0.237 OA
ATOM     74  O   UNL A   1      49.441  28.696  21.462  1.00  0.00    -0.237 OA
ATOM     75  O   UNL A   1      48.580  26.387  21.366  1.00  0.00    -0.744 OA
ENDBRANCH  68  72
ENDBRANCH  51  65
BRANCH  52  76
ATOM     76  C   UNL A   1      38.736  30.140  30.908  1.00  0.00     0.023 A 
ATOM     77  C   UNL A   1      37.630  30.828  30.386  1.00  0.00     0.031 A 
ATOM     78  C   UNL A   1      38.742  29.857  32.286  1.00  0.00     0.131 A 
ATOM     79  C   UNL A   1      36.612  31.271  31.245  1.00  0.00     0.055 A 
ATOM     80  C   UNL A   1      37.693  30.238  33.125  1.00  0.00     0.041 A 
ATOM     81  F   UNL A   1      39.778  29.209  32.844  1.00  0.00    -0.206 F 
ATOM     82  C   UNL A   1      36.627  30.967  32.608  1.00  0.00     0.022 A 
BRANCH  79  83
ATOM     83  S   UNL A   1      35.333  32.369  30.573  1.00  0.00     0.124 S 
ATOM     84  O   UNL A   1      34.954  31.666  29.352  1.00  0.00    -0.237 OA
ATOM     85  O   UNL A   1      34.344  32.372  31.646  1.00  0.00    -0.237 OA
ATOM     86  O   UNL A   1      36.042  33.631  30.374  1.00  0.00    -0.744 OA
ENDBRANCH  79  83
ENDBRANCH  52  76
BRANCH  64  87
ATOM     87  C   UNL A   1      44.399  33.763  29.051  1.00  0.00     0.023 A 
ATOM     88  C   UNL A   1      43.931  34.852  28.297  1.00  0.00     0.031 A 
ATOM     89  C   UNL A   1      45.289  34.023  30.108  1.00  0.00     0.131 A 
ATOM     90  C   UNL A   1      44.390  36.147  28.581  1.00  0.00     0.055 A 
ATOM     91  C   UNL A   1      45.692  35.319  30.428  1.00  0.00     0.041 A 
ATOM     92  F   UNL A   1      45.769  33.019  30.860  1.00  0.00    -0.206 F 
ATOM     93  C   UNL A   1      45.252  36.390  29.655  1.00  0.00     0.022 A 
BRANCH  90  94
ATOM     94  S   UNL A   1      43.904  37.505  27.483  1.00  0.00     0.124 S 
ATOM     95  O   UNL A   1      43.333  38.465  28.422  1.00  0.00    -0.237 OA
ATOM     96  O   UNL A   1      45.173  37.887  26.873  1.00  0.00    -0.237 OA
ATOM     97  O   UNL A   1      42.943  36.882  26.573  1.00  0.00    -0.744 OA
ENDBRANCH  90  94
ENDBRANCH  64  87
ENDBRANCH  38  39
ENDBRANCH  31  33
ENDBRANCH  30  31
ENDBRANCH  29  30
ENDBRANCH  28  29
ENDBRANCH   1  28
TORSDOF 22
ENDMDL
MODEL 2
REMARK VINA RESULT:     -10.2      5.283     10.812
REMARK SMILES CC[NH2+][C@]1(C(=O)OCCOCCOC(=O)c2ccc(-c3c4nc(c(-c5cc(S(=O)(=O)[O-])ccc5F)c5ccc([nH]5)c(-c5cc(S(=O)(=O)[O-])ccc5F)c5nc(c(-c6cc(S(=O)(=O)[O-])ccc6F)c6ccc3[nH]6)C=C5)C=C4)cc2)CCC[C@@H]1CC[N@H+]1C[C@H](C)OC[C@@H]1C
REMARK SMILES IDX 10 1 9 2 8 3 7 4 5 5 6 6 4 7 79 8 82 9 80 10 81 11 3 12 2 15
REMARK SMILES IDX 1 16 83 17 84 18 85 19 86 20 91 21 87 23 90 24 92 25 89 26
REMARK SMILES IDX 88 27 11 28 12 29 13 30 14 31 15 32 16 33 17 34 78 35 18 36
REMARK SMILES IDX 77 37 19 38 20 39 21 40 71 41 22 42 76 43 70 44 72 45 23 46
REMARK SMILES IDX 75 47 69 48 68 49 24 51 56 52 36 53 55 54 37 55 40 56 54 57
REMARK SMILES IDX 73 58 38 59 39 60 53 62 74 63 41 64 25 65 26 66 34 67 27 68
REMARK SMILES IDX 33 69 35 70 32 71 28 72 29 73 30 74 31 75 57 76 58 77 66 78
REMARK SMILES IDX 59 79 65 80 67 81 64 82 60 83 61 84 62 85 63 86 42 87 43 88
REMARK SMILES IDX 51 89 44 90 50 91 52 92 49 93 45 94 46 95 47 96 48 97
REMARK H PARENT 3 13 3 14 85 22 72 50 40 61
REMARK Flexibility Score: inf
ROOT
ATOM      1  O   UNL A   1      33.242  31.094  27.311  1.00  0.00    -0.374 OA
ENDROOT
BRANCH   1   2
ATOM      2  C   UNL A   1      33.028  29.687  27.239  1.00  0.00     0.202 C 
BRANCH   2   3
ATOM      3  C   UNL A   1      34.185  28.763  26.828  1.00  0.00     0.261 C 
BRANCH   3   4
ATOM      4  O   UNL A   1      33.764  27.445  26.431  1.00  0.00    -0.459 OA
BRANCH   4   5
ATOM      5  C   UNL A   1      33.343  27.349  25.139  1.00  0.00     0.368 C 
ATOM      6  O   UNL A   1      33.908  27.907  24.201  1.00  0.00    -0.245 OA
BRANCH   5   7
ATOM      7  C   UNL A   1      32.067  26.456  24.951  1.00  0.00     0.197 C 
ATOM      8  C   UNL A   1      31.364  26.048  26.269  1.00  0.00     0.081 C 
ATOM      9  C   UNL A   1      30.874  27.209  24.293  1.00  0.00     0.068 C 
ATOM     10  C   UNL A   1      30.016  25.492  25.841  1.00  0.00     0.008 C 
ATOM     11  C   UNL A   1      29.665  26.292  24.589  1.00  0.00     0.011 C 
BRANCH   7  12
ATOM     12  N   UNL A   1      32.459  25.250  24.143  1.00  0.00    -0.332 N 
ATOM     13  H   UNL A   1      31.615  24.822  23.763  1.00  0.00     0.347 HD
ATOM     14  H   UNL A   1      33.086  25.563  23.402  1.00  0.00     0.347 HD
BRANCH  12  15
ATOM     15  C   UNL A   1      33.180  24.244  24.943  1.00  0.00     0.257 C 
ATOM     16  C   UNL A   1      34.531  23.912  24.330  1.00  0.00     0.071 C 
ENDBRANCH  12  15
ENDBRANCH   7  12
BRANCH   9  17
ATOM     17  C   UNL A   1      31.078  27.716  22.850  1.00  0.00     0.072 C 
BRANCH  17  18
ATOM     18  C   UNL A   1      30.716  29.177  22.556  1.00  0.00     0.263 C 
BRANCH  18  19
ATOM     19  N   UNL A   1      29.448  29.556  23.196  1.00  0.00    -0.329 N 
ATOM     20  C   UNL A   1      29.407  30.972  23.617  1.00  0.00     0.294 C 
ATOM     21  C   UNL A   1      28.273  29.222  22.359  1.00  0.00     0.207 C 
ATOM     22  H   UNL A   1      29.398  28.992  24.046  1.00  0.00     0.348 HD
ATOM     23  C   UNL A   1      29.084  31.961  22.473  1.00  0.00     0.170 C 
ATOM     24  C   UNL A   1      28.026  30.251  21.244  1.00  0.00     0.225 C 
ATOM     25  C   UNL A   1      27.037  29.058  23.257  1.00  0.00     0.078 C 
ATOM     26  O   UNL A   1      27.891  31.575  21.769  1.00  0.00    -0.366 OA
ATOM     27  C   UNL A   1      28.855  33.364  23.020  1.00  0.00     0.045 C 
ENDBRANCH  18  19
ENDBRANCH  17  18
ENDBRANCH   9  17
ENDBRANCH   5   7
ENDBRANCH   4   5
ENDBRANCH   3   4
ENDBRANCH   2   3
ENDBRANCH   1   2
BRANCH   1  28
ATOM     28  C   UNL A   1      32.121  31.934  27.064  1.00  0.00     0.202 C 
BRANCH  28  29
ATOM     29  C   UNL A   1      32.236  33.449  27.282  1.00  0.00     0.261 C 
BRANCH  29  30
ATOM     30  O   UNL A   1      32.704  33.803  28.593  1.00  0.00    -0.460 OA
BRANCH  30  31
ATOM     31  C   UNL A   1      33.846  34.535  28.603  1.00  0.00     0.338 C 
ATOM     32  O   UNL A   1      33.997  35.669  28.168  1.00  0.00    -0.246 OA
BRANCH  31  33
ATOM     33  C   UNL A   1      34.863  33.855  29.422  1.00  0.00     0.060 A 
ATOM     34  C   UNL A   1      36.206  34.196  29.209  1.00  0.00     0.016 A 
ATOM     35  C   UNL A   1      34.517  32.872  30.349  1.00  0.00     0.016 A 
ATOM     36  C   UNL A   1      37.214  33.547  29.916  1.00  0.00     0.010 A 
ATOM     37  C   UNL A   1      35.532  32.203  31.041  1.00  0.00     0.010 A 
ATOM     38  C   UNL A   1      36.883  32.527  30.816  1.00  0.00    -0.014 A 
BRANCH  38  39
ATOM     39  C   UNL A   1      37.956  31.722  31.446  1.00  0.00     0.031 A 
ATOM     40  C   UNL A   1      38.419  32.085  32.828  1.00  0.00     0.074 A 
ATOM     41  C   UNL A   1      38.504  30.687  30.785  1.00  0.00     0.049 A 
ATOM     42  N   UNL A   1      39.408  31.591  33.526  1.00  0.00    -0.248 NA
ATOM     43  C   UNL A   1      37.666  33.146  33.518  1.00  0.00     0.031 C 
ATOM     44  C   UNL A   1      38.082  30.211  29.467  1.00  0.00     0.029 A 
ATOM     45  N   UNL A   1      39.544  29.858  31.122  1.00  0.00    -0.354 N 
ATOM     46  C   UNL A   1      39.413  32.293  34.726  1.00  0.00     0.074 A 
ATOM     47  C   UNL A   1      38.333  33.254  34.659  1.00  0.00     0.031 C 
ATOM     48  C   UNL A   1      38.870  29.186  29.101  1.00  0.00     0.029 A 
ATOM     49  C   UNL A   1      39.886  28.969  30.129  1.00  0.00     0.049 A 
ATOM     50  H   UNL A   1      40.002  29.896  31.993  1.00  0.00     0.167 HD
ATOM     51  C   UNL A   1      40.250  32.147  35.781  1.00  0.00     0.034 A 
ATOM     52  C   UNL A   1      40.926  28.117  30.044  1.00  0.00     0.034 A 
ATOM     53  C   UNL A   1      41.317  31.178  35.825  1.00  0.00     0.049 A 
ATOM     54  C   UNL A   1      41.910  28.057  31.191  1.00  0.00     0.074 A 
ATOM     55  C   UNL A   1      42.190  30.909  36.865  1.00  0.00     0.029 A 
ATOM     56  N   UNL A   1      41.674  30.339  34.779  1.00  0.00    -0.354 N 
ATOM     57  N   UNL A   1      41.884  28.702  32.337  1.00  0.00    -0.248 NA
ATOM     58  C   UNL A   1      43.064  27.161  31.034  1.00  0.00     0.031 C 
ATOM     59  C   UNL A   1      43.128  29.975  36.415  1.00  0.00     0.029 A 
ATOM     60  C   UNL A   1      42.789  29.596  35.126  1.00  0.00     0.049 A 
ATOM     61  H   UNL A   1      41.202  30.280  33.916  1.00  0.00     0.167 HD
ATOM     62  C   UNL A   1      43.003  28.264  33.043  1.00  0.00     0.074 A 
ATOM     63  C   UNL A   1      43.668  27.289  32.206  1.00  0.00     0.031 C 
ATOM     64  C   UNL A   1      43.444  28.634  34.272  1.00  0.00     0.034 A 
BRANCH  51  65
ATOM     65  C   UNL A   1      40.093  33.090  36.947  1.00  0.00     0.023 A 
ATOM     66  C   UNL A   1      39.395  32.733  38.112  1.00  0.00     0.031 A 
ATOM     67  C   UNL A   1      40.685  34.365  36.895  1.00  0.00     0.131 A 
ATOM     68  C   UNL A   1      39.275  33.656  39.163  1.00  0.00     0.055 A 
ATOM     69  C   UNL A   1      40.619  35.253  37.969  1.00  0.00     0.041 A 
ATOM     70  F   UNL A   1      41.343  34.769  35.795  1.00  0.00    -0.206 F 
ATOM     71  C   UNL A   1      39.904  34.903  39.110  1.00  0.00     0.022 A 
BRANCH  68  72
ATOM     72  S   UNL A   1      38.203  33.243  40.566  1.00  0.00     0.124 S 
ATOM     73  O   UNL A   1      36.914  33.053  39.907  1.00  0.00    -0.237 OA
ATOM     74  O   UNL A   1      38.831  32.040  41.101  1.00  0.00    -0.237 OA
ATOM     75  O   UNL A   1      38.289  34.425  41.423  1.00  0.00    -0.744 OA
ENDBRANCH  68  72
ENDBRANCH  51  65
BRANCH  52  76
ATOM     76  C   UNL A   1      41.152  27.296  28.816  1.00  0.00     0.023 A 
ATOM     77  C   UNL A   1      42.181  27.615  27.916  1.00  0.00     0.031 A 
ATOM     78  C   UNL A   1      40.284  26.244  28.473  1.00  0.00     0.131 A 
ATOM     79  C   UNL A   1      42.274  26.940  26.690  1.00  0.00     0.055 A 
ATOM     80  C   UNL A   1      40.424  25.526  27.283  1.00  0.00     0.041 A 
ATOM     81  F   UNL A   1      39.276  25.898  29.290  1.00  0.00    -0.206 F 
ATOM     82  C   UNL A   1      41.413  25.887  26.373  1.00  0.00     0.022 A 
BRANCH  79  83
ATOM     83  S   UNL A   1      43.454  27.550  25.455  1.00  0.00     0.124 S 
ATOM     84  O   UNL A   1      43.965  28.752  26.105  1.00  0.00    -0.237 OA
ATOM     85  O   UNL A   1      44.385  26.432  25.348  1.00  0.00    -0.237 OA
ATOM     86  O   UNL A   1      42.622  27.783  24.277  1.00  0.00    -0.744 OA
ENDBRANCH  79  83
ENDBRANCH  52  76
BRANCH  64  87
ATOM     87  C   UNL A   1      44.687  27.955  34.792  1.00  0.00     0.023 A 
ATOM     88  C   UNL A   1      44.621  26.751  35.513  1.00  0.00     0.031 A 
ATOM     89  C   UNL A   1      45.954  28.516  34.554  1.00  0.00     0.131 A 
ATOM     90  C   UNL A   1      45.797  26.169  36.010  1.00  0.00     0.055 A 
ATOM     91  C   UNL A   1      47.125  27.900  34.996  1.00  0.00     0.041 A 
ATOM     92  F   UNL A   1      46.076  29.668  33.873  1.00  0.00    -0.206 F 
ATOM     93  C   UNL A   1      47.050  26.725  35.738  1.00  0.00     0.022 A 
BRANCH  90  94
ATOM     94  S   UNL A   1      45.662  24.712  37.081  1.00  0.00     0.124 S 
ATOM     95  O   UNL A   1      46.988  24.117  36.950  1.00  0.00    -0.237 OA
ATOM     96  O   UNL A   1      45.355  25.303  38.379  1.00  0.00    -0.237 OA
ATOM     97  O   UNL A   1      44.574  23.943  36.478  1.00  0.00    -0.744 OA
ENDBRANCH  90  94
ENDBRANCH  64  87
ENDBRANCH  38  39
ENDBRANCH  31  33
ENDBRANCH  30  31
ENDBRANCH  29  30
ENDBRANCH  28  29
ENDBRANCH   1  28
TORSDOF 22
ENDMDL
MODEL 3
REMARK VINA RESULT:     -10.1      5.370      8.913
REMARK SMILES CC[NH2+][C@]1(C(=O)OCCOCCOC(=O)c2ccc(-c3c4nc(c(-c5cc(S(=O)(=O)[O-])ccc5F)c5ccc([nH]5)c(-c5cc(S(=O)(=O)[O-])ccc5F)c5nc(c(-c6cc(S(=O)(=O)[O-])ccc6F)c6ccc3[nH]6)C=C5)C=C4)cc2)CCC[C@@H]1CC[N@H+]1C[C@H](C)OC[C@@H]1C
REMARK SMILES IDX 10 1 9 2 8 3 7 4 5 5 6 6 4 7 79 8 82 9 80 10 81 11 3 12 2 15
REMARK SMILES IDX 1 16 83 17 84 18 85 19 86 20 91 21 87 23 90 24 92 25 89 26
REMARK SMILES IDX 88 27 11 28 12 29 13 30 14 31 15 32 16 33 17 34 78 35 18 36
REMARK SMILES IDX 77 37 19 38 20 39 21 40 71 41 22 42 76 43 70 44 72 45 23 46
REMARK SMILES IDX 75 47 69 48 68 49 24 51 56 52 36 53 55 54 37 55 40 56 54 57
REMARK SMILES IDX 73 58 38 59 39 60 53 62 74 63 41 64 25 65 26 66 34 67 27 68
REMARK SMILES IDX 33 69 35 70 32 71 28 72 29 73 30 74 31 75 57 76 58 77 66 78
REMARK SMILES IDX 59 79 65 80 67 81 64 82 60 83 61 84 62 85 63 86 42 87 43 88
REMARK SMILES IDX 51 89 44 90 50 91 52 92 49 93 45 94 46 95 47 96 48 97
REMARK H PARENT 3 13 3 14 85 22 72 50 40 61
REMARK Flexibility Score: inf
ROOT
ATOM      1  O   UNL A   1      32.998  31.141  27.308  1.00  0.00    -0.374 OA
ENDROOT
BRANCH   1   2
ATOM      2  C   UNL A   1      32.853  29.795  26.862  1.00  0.00     0.202 C 
BRANCH   2   3
ATOM      3  C   UNL A   1      33.939  28.762  27.199  1.00  0.00     0.261 C 
BRANCH   3   4
ATOM      4  O   UNL A   1      33.801  27.520  26.485  1.00  0.00    -0.459 OA
BRANCH   4   5
ATOM      5  C   UNL A   1      33.292  27.641  25.228  1.00  0.00     0.368 C 
ATOM      6  O   UNL A   1      33.745  28.414  24.387  1.00  0.00    -0.245 OA
BRANCH   5   7
ATOM      7  C   UNL A   1      32.069  26.701  24.944  1.00  0.00     0.197 C 
ATOM      8  C   UNL A   1      31.295  26.248  26.207  1.00  0.00     0.081 C 
ATOM      9  C   UNL A   1      30.893  27.414  24.215  1.00  0.00     0.068 C 
ATOM     10  C   UNL A   1      30.004  25.645  25.683  1.00  0.00     0.008 C 
ATOM     11  C   UNL A   1      29.705  26.447  24.418  1.00  0.00     0.011 C 
BRANCH   7  12
ATOM     12  N   UNL A   1      32.563  25.522  24.151  1.00  0.00    -0.332 N 
ATOM     13  H   UNL A   1      31.764  25.064  23.713  1.00  0.00     0.347 HD
ATOM     14  H   UNL A   1      33.222  25.870  23.456  1.00  0.00     0.347 HD
BRANCH  12  15
ATOM     15  C   UNL A   1      33.273  24.538  24.987  1.00  0.00     0.257 C 
ATOM     16  C   UNL A   1      34.470  23.950  24.257  1.00  0.00     0.071 C 
ENDBRANCH  12  15
ENDBRANCH   7  12
BRANCH   9  17
ATOM     17  C   UNL A   1      31.174  27.948  22.794  1.00  0.00     0.072 C 
BRANCH  17  18
ATOM     18  C   UNL A   1      30.743  29.387  22.482  1.00  0.00     0.263 C 
BRANCH  18  19
ATOM     19  N   UNL A   1      29.464  29.717  23.126  1.00  0.00    -0.329 N 
ATOM     20  C   UNL A   1      29.387  31.120  23.586  1.00  0.00     0.294 C 
ATOM     21  C   UNL A   1      28.301  29.379  22.275  1.00  0.00     0.207 C 
ATOM     22  H   UNL A   1      29.424  29.129  23.959  1.00  0.00     0.348 HD
ATOM     23  C   UNL A   1      29.045  32.133  22.469  1.00  0.00     0.170 C 
ATOM     24  C   UNL A   1      28.034  30.433  21.188  1.00  0.00     0.225 C 
ATOM     25  C   UNL A   1      27.065  29.161  23.161  1.00  0.00     0.078 C 
ATOM     26  O   UNL A   1      27.865  31.738  21.748  1.00  0.00    -0.366 OA
ATOM     27  C   UNL A   1      28.780  33.514  23.053  1.00  0.00     0.045 C 
ENDBRANCH  18  19
ENDBRANCH  17  18
ENDBRANCH   9  17
ENDBRANCH   5   7
ENDBRANCH   4   5
ENDBRANCH   3   4
ENDBRANCH   2   3
ENDBRANCH   1   2
BRANCH   1  28
ATOM     28  C   UNL A   1      31.968  32.056  26.955  1.00  0.00     0.202 C 
BRANCH  28  29
ATOM     29  C   UNL A   1      32.173  33.561  27.173  1.00  0.00     0.261 C 
BRANCH  29  30
ATOM     30  O   UNL A   1      32.250  33.933  28.558  1.00  0.00    -0.460 OA
BRANCH  30  31
ATOM     31  C   UNL A   1      33.217  34.841  28.843  1.00  0.00     0.338 C 
ATOM     32  O   UNL A   1      33.097  36.059  28.868  1.00  0.00    -0.246 OA
BRANCH  31  33
ATOM     33  C   UNL A   1      34.415  34.149  29.344  1.00  0.00     0.060 A 
ATOM     34  C   UNL A   1      34.301  33.435  30.546  1.00  0.00     0.016 A 
ATOM     35  C   UNL A   1      35.638  34.231  28.679  1.00  0.00     0.016 A 
ATOM     36  C   UNL A   1      35.415  32.806  31.094  1.00  0.00     0.010 A 
ATOM     37  C   UNL A   1      36.762  33.619  29.244  1.00  0.00     0.010 A 
ATOM     38  C   UNL A   1      36.658  32.919  30.460  1.00  0.00    -0.014 A 
BRANCH  38  39
ATOM     39  C   UNL A   1      37.875  32.393  31.123  1.00  0.00     0.031 A 
ATOM     40  C   UNL A   1      38.608  31.245  30.490  1.00  0.00     0.074 A 
ATOM     41  C   UNL A   1      38.308  32.938  32.274  1.00  0.00     0.049 A 
ATOM     42  N   UNL A   1      39.625  30.562  30.944  1.00  0.00    -0.248 NA
ATOM     43  C   UNL A   1      38.133  30.809  29.166  1.00  0.00     0.031 C 
ATOM     44  C   UNL A   1      37.708  34.097  32.937  1.00  0.00     0.029 A 
ATOM     45  N   UNL A   1      39.345  32.581  33.099  1.00  0.00    -0.354 N 
ATOM     46  C   UNL A   1      39.899  29.601  29.977  1.00  0.00     0.074 A 
ATOM     47  C   UNL A   1      38.935  29.785  28.913  1.00  0.00     0.031 C 
ATOM     48  C   UNL A   1      38.376  34.342  34.076  1.00  0.00     0.029 A 
ATOM     49  C   UNL A   1      39.412  33.327  34.253  1.00  0.00     0.049 A 
ATOM     50  H   UNL A   1      39.980  31.860  32.885  1.00  0.00     0.167 HD
ATOM     51  C   UNL A   1      40.866  28.653  29.985  1.00  0.00     0.034 A 
ATOM     52  C   UNL A   1      40.190  33.175  35.344  1.00  0.00     0.034 A 
ATOM     53  C   UNL A   1      41.817  28.493  31.057  1.00  0.00     0.049 A 
ATOM     54  C   UNL A   1      41.184  32.034  35.372  1.00  0.00     0.074 A 
ATOM     55  C   UNL A   1      42.871  27.599  31.143  1.00  0.00     0.029 A 
ATOM     56  N   UNL A   1      41.817  29.223  32.237  1.00  0.00    -0.354 N 
ATOM     57  N   UNL A   1      41.458  31.153  34.435  1.00  0.00    -0.248 NA
ATOM     58  C   UNL A   1      41.969  31.864  36.602  1.00  0.00     0.031 C 
ATOM     59  C   UNL A   1      43.449  27.728  32.409  1.00  0.00     0.029 A 
ATOM     60  C   UNL A   1      42.814  28.760  33.081  1.00  0.00     0.049 A 
ATOM     61  H   UNL A   1      41.201  29.962  32.443  1.00  0.00     0.167 HD
ATOM     62  C   UNL A   1      42.466  30.346  34.958  1.00  0.00     0.074 A 
ATOM     63  C   UNL A   1      42.765  30.856  36.278  1.00  0.00     0.031 C 
ATOM     64  C   UNL A   1      43.090  29.277  34.399  1.00  0.00     0.034 A 
BRANCH  51  65
ATOM     65  C   UNL A   1      40.909  27.673  28.840  1.00  0.00     0.023 A 
ATOM     66  C   UNL A   1      41.859  27.764  27.810  1.00  0.00     0.031 A 
ATOM     67  C   UNL A   1      39.991  26.608  28.801  1.00  0.00     0.131 A 
ATOM     68  C   UNL A   1      41.845  26.827  26.765  1.00  0.00     0.055 A 
ATOM     69  C   UNL A   1      40.025  25.641  27.795  1.00  0.00     0.041 A 
ATOM     70  F   UNL A   1      39.044  26.486  29.746  1.00  0.00    -0.206 F 
ATOM     71  C   UNL A   1      40.953  25.752  26.764  1.00  0.00     0.022 A 
BRANCH  68  72
ATOM     72  S   UNL A   1      42.951  27.085  25.351  1.00  0.00     0.124 S 
ATOM     73  O   UNL A   1      42.851  25.803  24.659  1.00  0.00    -0.237 OA
ATOM     74  O   UNL A   1      42.340  28.225  24.675  1.00  0.00    -0.237 OA
ATOM     75  O   UNL A   1      44.247  27.350  25.972  1.00  0.00    -0.744 OA
ENDBRANCH  68  72
ENDBRANCH  51  65
BRANCH  52  76
ATOM     76  C   UNL A   1      40.032  34.063  36.534  1.00  0.00     0.023 A 
ATOM     77  C   UNL A   1      39.644  33.539  37.777  1.00  0.00     0.031 A 
ATOM     78  C   UNL A   1      40.168  35.459  36.424  1.00  0.00     0.131 A 
ATOM     79  C   UNL A   1      39.339  34.406  38.838  1.00  0.00     0.055 A 
ATOM     80  C   UNL A   1      39.932  36.313  37.504  1.00  0.00     0.041 A 
ATOM     81  F   UNL A   1      40.528  36.019  35.258  1.00  0.00    -0.206 F 
ATOM     82  C   UNL A   1      39.495  35.788  38.716  1.00  0.00     0.022 A 
BRANCH  79  83
ATOM     83  S   UNL A   1      38.603  33.704  40.341  1.00  0.00     0.124 S 
ATOM     84  O   UNL A   1      37.232  34.197  40.255  1.00  0.00    -0.237 OA
ATOM     85  O   UNL A   1      38.786  32.273  40.127  1.00  0.00    -0.237 OA
ATOM     86  O   UNL A   1      39.409  34.283  41.414  1.00  0.00    -0.744 OA
ENDBRANCH  79  83
ENDBRANCH  52  76
BRANCH  64  87
ATOM     87  C   UNL A   1      44.178  28.614  35.207  1.00  0.00     0.023 A 
ATOM     88  C   UNL A   1      43.899  27.555  36.086  1.00  0.00     0.031 A 
ATOM     89  C   UNL A   1      45.512  29.043  35.087  1.00  0.00     0.131 A 
ATOM     90  C   UNL A   1      44.934  26.988  36.846  1.00  0.00     0.055 A 
ATOM     91  C   UNL A   1      46.546  28.432  35.797  1.00  0.00     0.041 A 
ATOM     92  F   UNL A   1      45.835  30.053  34.263  1.00  0.00    -0.206 F 
ATOM     93  C   UNL A   1      46.259  27.406  36.691  1.00  0.00     0.022 A 
BRANCH  90  94
ATOM     94  S   UNL A   1      44.515  25.743  38.096  1.00  0.00     0.124 S 
ATOM     95  O   UNL A   1      43.557  24.907  37.380  1.00  0.00    -0.237 OA
ATOM     96  O   UNL A   1      45.809  25.131  38.377  1.00  0.00    -0.237 OA
ATOM     97  O   UNL A   1      43.952  26.532  39.191  1.00  0.00    -0.744 OA
ENDBRANCH  90  94
ENDBRANCH  64  87
ENDBRANCH  38  39
ENDBRANCH  31  33
ENDBRANCH  30  31
ENDBRANCH  29  30
ENDBRANCH  28  29
ENDBRANCH   1  28
TORSDOF 22
ENDMDL
