MODEL 1
REMARK VINA RESULT:     -11.5      0.000      0.000
REMARK SMILES O=C(OCCOCCOC(=O)[C@@H]1[C@H](C(=O)Nc2ccccc2Cc2ccccc2)[C@H]2C=C[C@@H]1O2)c1ccc(-c2c3nc(c(-c4cc(S(=O)(=O)[O-])ccc4F)c4ccc([nH]4)c(-c4cc(S(=O)(=O)[O-])ccc4F)c4nc(c(-c5cc(S(=O)(=O)[O-])ccc5F)c5ccc2[nH]5)C=C4)C=C3)cc1
REMARK SMILES IDX 7 1 6 2 5 3 4 4 3 5 2 6 1 7 35 8 36 9 97 10 37 11 96 12
REMARK SMILES IDX 38 13 39 14 40 15 90 16 41 17 95 18 89 19 91 20 42 21 94 22
REMARK SMILES IDX 88 23 87 24 43 26 75 27 55 28 74 29 56 30 59 31 73 32 92 33
REMARK SMILES IDX 57 34 58 35 72 37 93 38 60 39 44 40 45 41 53 42 46 43 52 44
REMARK SMILES IDX 54 45 51 46 47 47 48 48 49 49 50 50 76 51 77 52 85 53 78 54
REMARK SMILES IDX 84 55 86 56 83 57 79 58 80 59 81 60 82 61 61 62 62 63 70 64
REMARK SMILES IDX 63 65 69 66 71 67 68 68 64 69 65 70 66 71 67 72 8 73 9 74
REMARK SMILES IDX 10 75 11 76 12 77 13 78 33 79 30 80 32 81 34 82 31 83 14 84
REMARK SMILES IDX 15 85 16 86 17 88 18 89 22 90 19 91 21 92 20 93 23 94 24 95
REMARK SMILES IDX 25 96 29 97 26 98 28 99 27 100
REMARK H PARENT 91 25 59 36 16 87
REMARK Flexibility Score: inf
ROOT
ATOM      1  C   UNL A   1      32.866  30.172  27.157  1.00  0.00     0.202 C 
ENDROOT
BRANCH   1   2
ATOM      2  O   UNL A   1      31.977  30.865  26.285  1.00  0.00    -0.374 OA
BRANCH   2   3
ATOM      3  C   UNL A   1      31.346  32.016  26.829  1.00  0.00     0.202 C 
BRANCH   3   4
ATOM      4  C   UNL A   1      32.120  33.351  26.794  1.00  0.00     0.261 C 
BRANCH   4   5
ATOM      5  O   UNL A   1      32.276  33.968  28.095  1.00  0.00    -0.460 OA
BRANCH   5   6
ATOM      6  C   UNL A   1      33.417  34.602  28.495  1.00  0.00     0.338 C 
ATOM      7  O   UNL A   1      33.490  35.820  28.609  1.00  0.00    -0.246 OA
BRANCH   6   8
ATOM      8  C   UNL A   1      34.555  33.728  28.823  1.00  0.00     0.060 A 
ATOM      9  C   UNL A   1      34.262  32.421  29.163  1.00  0.00     0.016 A 
ATOM     10  C   UNL A   1      35.824  34.244  29.057  1.00  0.00     0.016 A 
ATOM     11  C   UNL A   1      35.069  31.791  30.083  1.00  0.00     0.010 A 
ATOM     12  C   UNL A   1      36.766  33.438  29.709  1.00  0.00     0.010 A 
ATOM     13  C   UNL A   1      36.382  32.211  30.283  1.00  0.00    -0.014 A 
BRANCH  13  14
ATOM     14  C   UNL A   1      37.326  31.341  31.044  1.00  0.00     0.031 A 
ATOM     15  C   UNL A   1      37.572  31.598  32.506  1.00  0.00     0.074 A 
ATOM     16  C   UNL A   1      37.988  30.340  30.419  1.00  0.00     0.049 A 
ATOM     17  N   UNL A   1      38.617  31.304  33.232  1.00  0.00    -0.248 NA
ATOM     18  C   UNL A   1      36.521  32.326  33.233  1.00  0.00     0.031 C 
ATOM     19  C   UNL A   1      37.789  29.902  29.029  1.00  0.00     0.029 A 
ATOM     20  N   UNL A   1      38.976  29.498  30.867  1.00  0.00    -0.354 N 
ATOM     21  C   UNL A   1      38.406  31.913  34.467  1.00  0.00     0.074 A 
ATOM     22  C   UNL A   1      37.118  32.572  34.390  1.00  0.00     0.031 C 
ATOM     23  C   UNL A   1      38.545  28.833  28.774  1.00  0.00     0.029 A 
ATOM     24  C   UNL A   1      39.453  28.657  29.885  1.00  0.00     0.049 A 
ATOM     25  H   UNL A   1      39.309  29.496  31.794  1.00  0.00     0.167 HD
ATOM     26  C   UNL A   1      39.246  31.937  35.534  1.00  0.00     0.034 A 
ATOM     27  C   UNL A   1      40.574  27.921  29.814  1.00  0.00     0.034 A 
ATOM     28  C   UNL A   1      40.495  31.206  35.554  1.00  0.00     0.049 A 
ATOM     29  C   UNL A   1      41.519  28.002  30.970  1.00  0.00     0.074 A 
ATOM     30  C   UNL A   1      41.455  31.142  36.548  1.00  0.00     0.029 A 
ATOM     31  N   UNL A   1      40.946  30.389  34.518  1.00  0.00    -0.354 N 
ATOM     32  N   UNL A   1      41.404  28.702  32.076  1.00  0.00    -0.248 NA
ATOM     33  C   UNL A   1      42.748  27.217  30.863  1.00  0.00     0.031 C 
ATOM     34  C   UNL A   1      42.507  30.339  36.090  1.00  0.00     0.029 A 
ATOM     35  C   UNL A   1      42.171  29.830  34.846  1.00  0.00     0.049 A 
ATOM     36  H   UNL A   1      40.463  30.230  33.676  1.00  0.00     0.167 HD
ATOM     37  C   UNL A   1      42.543  28.420  32.816  1.00  0.00     0.074 A 
ATOM     38  C   UNL A   1      43.318  27.475  32.031  1.00  0.00     0.031 C 
ATOM     39  C   UNL A   1      42.915  28.893  34.033  1.00  0.00     0.034 A 
BRANCH  26  40
ATOM     40  C   UNL A   1      38.887  32.853  36.688  1.00  0.00     0.023 A 
ATOM     41  C   UNL A   1      39.345  34.180  36.773  1.00  0.00     0.031 A 
ATOM     42  C   UNL A   1      38.146  32.354  37.777  1.00  0.00     0.131 A 
ATOM     43  C   UNL A   1      39.160  34.914  37.958  1.00  0.00     0.055 A 
ATOM     44  C   UNL A   1      37.877  33.125  38.912  1.00  0.00     0.041 A 
ATOM     45  F   UNL A   1      37.695  31.089  37.776  1.00  0.00    -0.206 F 
ATOM     46  C   UNL A   1      38.408  34.406  39.018  1.00  0.00     0.022 A 
BRANCH  43  47
ATOM     47  S   UNL A   1      40.095  36.456  38.173  1.00  0.00     0.124 S 
ATOM     48  O   UNL A   1      41.171  36.026  39.064  1.00  0.00    -0.237 OA
ATOM     49  O   UNL A   1      40.489  36.779  36.807  1.00  0.00    -0.237 OA
ATOM     50  O   UNL A   1      39.125  37.367  38.777  1.00  0.00    -0.744 OA
ENDBRANCH  43  47
ENDBRANCH  26  40
BRANCH  27  51
ATOM     51  C   UNL A   1      40.890  27.147  28.578  1.00  0.00     0.023 A 
ATOM     52  C   UNL A   1      41.909  27.572  27.717  1.00  0.00     0.031 A 
ATOM     53  C   UNL A   1      40.213  25.953  28.257  1.00  0.00     0.131 A 
ATOM     54  C   UNL A   1      42.215  26.823  26.570  1.00  0.00     0.055 A 
ATOM     55  C   UNL A   1      40.562  25.177  27.151  1.00  0.00     0.041 A 
ATOM     56  F   UNL A   1      39.232  25.491  29.050  1.00  0.00    -0.206 F 
ATOM     57  C   UNL A   1      41.564  25.618  26.293  1.00  0.00     0.022 A 
BRANCH  54  58
ATOM     58  S   UNL A   1      43.441  27.482  25.412  1.00  0.00     0.124 S 
ATOM     59  O   UNL A   1      44.038  28.558  26.194  1.00  0.00    -0.237 OA
ATOM     60  O   UNL A   1      44.286  26.317  25.172  1.00  0.00    -0.237 OA
ATOM     61  O   UNL A   1      42.634  27.912  24.271  1.00  0.00    -0.744 OA
ENDBRANCH  54  58
ENDBRANCH  27  51
BRANCH  39  62
ATOM     62  C   UNL A   1      44.182  28.313  34.602  1.00  0.00     0.023 A 
ATOM     63  C   UNL A   1      44.185  27.107  35.321  1.00  0.00     0.031 A 
ATOM     64  C   UNL A   1      45.391  29.016  34.467  1.00  0.00     0.131 A 
ATOM     65  C   UNL A   1      45.363  26.678  35.946  1.00  0.00     0.055 A 
ATOM     66  C   UNL A   1      46.576  28.545  35.028  1.00  0.00     0.041 A 
ATOM     67  F   UNL A   1      45.435  30.179  33.797  1.00  0.00    -0.206 F 
ATOM     68  C   UNL A   1      46.563  27.377  35.787  1.00  0.00     0.022 A 
BRANCH  65  69
ATOM     69  S   UNL A   1      45.277  25.263  37.076  1.00  0.00     0.124 S 
ATOM     70  O   UNL A   1      44.383  25.763  38.116  1.00  0.00    -0.237 OA
ATOM     71  O   UNL A   1      44.733  24.213  36.220  1.00  0.00    -0.237 OA
ATOM     72  O   UNL A   1      46.665  25.070  37.489  1.00  0.00    -0.744 OA
ENDBRANCH  65  69
ENDBRANCH  39  62
ENDBRANCH  13  14
ENDBRANCH   6   8
ENDBRANCH   5   6
ENDBRANCH   4   5
ENDBRANCH   3   4
ENDBRANCH   2   3
ENDBRANCH   1   2
BRANCH   1  73
ATOM     73  C   UNL A   1      32.955  28.671  26.827  1.00  0.00     0.261 C 
BRANCH  73  74
ATOM     74  O   UNL A   1      33.971  28.432  25.821  1.00  0.00    -0.463 OA
BRANCH  74  75
ATOM     75  C   UNL A   1      33.600  28.028  24.582  1.00  0.00     0.312 C 
ATOM     76  O   UNL A   1      34.106  28.444  23.545  1.00  0.00    -0.252 OA
BRANCH  75  77
ATOM     77  C   UNL A   1      32.376  27.127  24.558  1.00  0.00     0.147 C 
ATOM     78  C   UNL A   1      32.474  25.600  24.776  1.00  0.00     0.129 C 
ATOM     79  C   UNL A   1      31.527  27.178  23.262  1.00  0.00     0.157 C 
ATOM     80  C   UNL A   1      31.460  25.058  23.776  1.00  0.00     0.155 C 
ATOM     81  C   UNL A   1      30.099  26.880  23.617  1.00  0.00     0.004 C 
ATOM     82  O   UNL A   1      31.801  25.892  22.642  1.00  0.00    -0.365 OA
ATOM     83  C   UNL A   1      30.073  25.594  24.003  1.00  0.00     0.004 C 
BRANCH  78  84
ATOM     84  C   UNL A   1      33.820  24.949  24.546  1.00  0.00     0.231 C 
ATOM     85  O   UNL A   1      34.790  25.283  25.233  1.00  0.00    -0.274 OA
ATOM     86  N   UNL A   1      34.024  24.125  23.471  1.00  0.00    -0.325 N 
ATOM     87  H   UNL A   1      34.504  24.519  22.707  1.00  0.00     0.169 HD
BRANCH  86  88
ATOM     88  C   UNL A   1      33.620  22.766  23.327  1.00  0.00     0.044 A 
ATOM     89  C   UNL A   1      32.777  22.528  22.229  1.00  0.00     0.026 A 
ATOM     90  C   UNL A   1      33.710  21.811  24.393  1.00  0.00    -0.020 A 
ATOM     91  C   UNL A   1      32.015  21.367  22.161  1.00  0.00     0.002 A 
ATOM     92  C   UNL A   1      32.961  20.630  24.262  1.00  0.00     0.006 A 
ATOM     93  C   UNL A   1      32.104  20.425  23.178  1.00  0.00     0.000 A 
BRANCH  90  94
ATOM     94  C   UNL A   1      34.673  21.915  25.581  1.00  0.00     0.073 C 
BRANCH  94  95
ATOM     95  C   UNL A   1      36.156  21.534  25.528  1.00  0.00    -0.044 A 
ATOM     96  C   UNL A   1      37.100  22.510  25.920  1.00  0.00     0.004 A 
ATOM     97  C   UNL A   1      36.674  20.337  25.024  1.00  0.00     0.004 A 
ATOM     98  C   UNL A   1      38.479  22.281  25.902  1.00  0.00     0.000 A 
ATOM     99  C   UNL A   1      38.062  20.105  24.990  1.00  0.00     0.000 A 
ATOM    100  C   UNL A   1      38.963  21.068  25.442  1.00  0.00     0.000 A 
ENDBRANCH  94  95
ENDBRANCH  90  94
ENDBRANCH  86  88
ENDBRANCH  78  84
ENDBRANCH  75  77
ENDBRANCH  74  75
ENDBRANCH  73  74
ENDBRANCH   1  73
TORSDOF 21
ENDMDL
MODEL 2
REMARK VINA RESULT:     -11.5      2.415      3.330
REMARK SMILES O=C(OCCOCCOC(=O)[C@@H]1[C@H](C(=O)Nc2ccccc2Cc2ccccc2)[C@H]2C=C[C@@H]1O2)c1ccc(-c2c3nc(c(-c4cc(S(=O)(=O)[O-])ccc4F)c4ccc([nH]4)c(-c4cc(S(=O)(=O)[O-])ccc4F)c4nc(c(-c5cc(S(=O)(=O)[O-])ccc5F)c5ccc2[nH]5)C=C4)C=C3)cc1
REMARK SMILES IDX 7 1 6 2 5 3 4 4 3 5 2 6 1 7 35 8 36 9 97 10 37 11 96 12
REMARK SMILES IDX 38 13 39 14 40 15 90 16 41 17 95 18 89 19 91 20 42 21 94 22
REMARK SMILES IDX 88 23 87 24 43 26 75 27 55 28 74 29 56 30 59 31 73 32 92 33
REMARK SMILES IDX 57 34 58 35 72 37 93 38 60 39 44 40 45 41 53 42 46 43 52 44
REMARK SMILES IDX 54 45 51 46 47 47 48 48 49 49 50 50 76 51 77 52 85 53 78 54
REMARK SMILES IDX 84 55 86 56 83 57 79 58 80 59 81 60 82 61 61 62 62 63 70 64
REMARK SMILES IDX 63 65 69 66 71 67 68 68 64 69 65 70 66 71 67 72 8 73 9 74
REMARK SMILES IDX 10 75 11 76 12 77 13 78 33 79 30 80 32 81 34 82 31 83 14 84
REMARK SMILES IDX 15 85 16 86 17 88 18 89 22 90 19 91 21 92 20 93 23 94 24 95
REMARK SMILES IDX 25 96 29 97 26 98 28 99 27 100
REMARK H PARENT 91 25 59 36 16 87
REMARK Flexibility Score: inf
ROOT
ATOM      1  C   UNL A   1      32.085  28.927  24.613  1.00  0.00     0.202 C 
ENDROOT
BRANCH   1   2
ATOM      2  O   UNL A   1      30.979  29.810  24.451  1.00  0.00    -0.374 OA
BRANCH   2   3
ATOM      3  C   UNL A   1      30.855  30.835  25.428  1.00  0.00     0.202 C 
BRANCH   3   4
ATOM      4  C   UNL A   1      31.819  30.806  26.633  1.00  0.00     0.261 C 
BRANCH   4   5
ATOM      5  O   UNL A   1      33.034  31.566  26.426  1.00  0.00    -0.460 OA
BRANCH   5   6
ATOM      6  C   UNL A   1      33.687  32.228  27.426  1.00  0.00     0.338 C 
ATOM      7  O   UNL A   1      33.221  33.220  27.975  1.00  0.00    -0.246 OA
BRANCH   6   8
ATOM      8  C   UNL A   1      34.978  31.654  27.839  1.00  0.00     0.060 A 
ATOM      9  C   UNL A   1      35.025  30.285  28.014  1.00  0.00     0.016 A 
ATOM     10  C   UNL A   1      36.015  32.456  28.302  1.00  0.00     0.016 A 
ATOM     11  C   UNL A   1      35.864  29.781  28.984  1.00  0.00     0.010 A 
ATOM     12  C   UNL A   1      37.062  31.854  29.011  1.00  0.00     0.010 A 
ATOM     13  C   UNL A   1      36.973  30.507  29.411  1.00  0.00    -0.014 A 
BRANCH  13  14
ATOM     14  C   UNL A   1      38.028  29.830  30.222  1.00  0.00     0.031 A 
ATOM     15  C   UNL A   1      38.191  30.173  31.678  1.00  0.00     0.074 A 
ATOM     16  C   UNL A   1      38.861  28.932  29.648  1.00  0.00     0.049 A 
ATOM     17  N   UNL A   1      39.250  30.081  32.435  1.00  0.00    -0.248 NA
ATOM     18  C   UNL A   1      37.016  30.741  32.356  1.00  0.00     0.031 C 
ATOM     19  C   UNL A   1      38.773  28.422  28.272  1.00  0.00     0.029 A 
ATOM     20  N   UNL A   1      39.962  28.281  30.147  1.00  0.00    -0.354 N 
ATOM     21  C   UNL A   1      38.911  30.687  33.642  1.00  0.00     0.074 A 
ATOM     22  C   UNL A   1      37.535  31.121  33.516  1.00  0.00     0.031 C 
ATOM     23  C   UNL A   1      39.700  27.484  28.071  1.00  0.00     0.029 A 
ATOM     24  C   UNL A   1      40.596  27.498  29.206  1.00  0.00     0.049 A 
ATOM     25  H   UNL A   1      40.267  28.364  31.079  1.00  0.00     0.167 HD
ATOM     26  C   UNL A   1      39.708  30.885  34.724  1.00  0.00     0.034 A 
ATOM     27  C   UNL A   1      41.825  26.955  29.184  1.00  0.00     0.034 A 
ATOM     28  C   UNL A   1      41.059  30.372  34.795  1.00  0.00     0.049 A 
ATOM     29  C   UNL A   1      42.713  27.230  30.355  1.00  0.00     0.074 A 
ATOM     30  C   UNL A   1      41.991  30.501  35.810  1.00  0.00     0.029 A 
ATOM     31  N   UNL A   1      41.665  29.606  33.800  1.00  0.00    -0.354 N 
ATOM     32  N   UNL A   1      42.456  27.938  31.432  1.00  0.00    -0.248 NA
ATOM     33  C   UNL A   1      44.057  26.656  30.302  1.00  0.00     0.031 C 
ATOM     34  C   UNL A   1      43.173  29.869  35.404  1.00  0.00     0.029 A 
ATOM     35  C   UNL A   1      42.957  29.269  34.172  1.00  0.00     0.049 A 
ATOM     36  H   UNL A   1      41.236  29.342  32.955  1.00  0.00     0.167 HD
ATOM     37  C   UNL A   1      43.607  27.873  32.204  1.00  0.00     0.074 A 
ATOM     38  C   UNL A   1      44.547  27.044  31.470  1.00  0.00     0.031 C 
ATOM     39  C   UNL A   1      43.865  28.441  33.410  1.00  0.00     0.034 A 
BRANCH  26  40
ATOM     40  C   UNL A   1      39.174  31.768  35.835  1.00  0.00     0.023 A 
ATOM     41  C   UNL A   1      38.542  31.248  36.979  1.00  0.00     0.031 A 
ATOM     42  C   UNL A   1      39.217  33.169  35.702  1.00  0.00     0.131 A 
ATOM     43  C   UNL A   1      37.881  32.111  37.872  1.00  0.00     0.055 A 
ATOM     44  C   UNL A   1      38.647  34.027  36.647  1.00  0.00     0.041 A 
ATOM     45  F   UNL A   1      39.785  33.737  34.625  1.00  0.00    -0.206 F 
ATOM     46  C   UNL A   1      37.951  33.497  37.728  1.00  0.00     0.022 A 
BRANCH  43  47
ATOM     47  S   UNL A   1      36.757  31.386  39.101  1.00  0.00     0.124 S 
ATOM     48  O   UNL A   1      37.618  31.314  40.279  1.00  0.00    -0.237 OA
ATOM     49  O   UNL A   1      35.678  32.363  39.157  1.00  0.00    -0.237 OA
ATOM     50  O   UNL A   1      36.401  30.092  38.520  1.00  0.00    -0.744 OA
ENDBRANCH  43  47
ENDBRANCH  26  40
BRANCH  27  51
ATOM     51  C   UNL A   1      42.295  26.204  27.984  1.00  0.00     0.023 A 
ATOM     52  C   UNL A   1      41.926  24.866  27.797  1.00  0.00     0.031 A 
ATOM     53  C   UNL A   1      43.083  26.815  26.988  1.00  0.00     0.131 A 
ATOM     54  C   UNL A   1      42.354  24.176  26.652  1.00  0.00     0.055 A 
ATOM     55  C   UNL A   1      43.453  26.146  25.821  1.00  0.00     0.041 A 
ATOM     56  F   UNL A   1      43.460  28.099  27.110  1.00  0.00    -0.206 F 
ATOM     57  C   UNL A   1      43.096  24.812  25.653  1.00  0.00     0.022 A 
BRANCH  54  58
ATOM     58  S   UNL A   1      41.974  22.411  26.518  1.00  0.00     0.124 S 
ATOM     59  O   UNL A   1      42.501  22.094  25.196  1.00  0.00    -0.237 OA
ATOM     60  O   UNL A   1      42.707  21.857  27.651  1.00  0.00    -0.237 OA
ATOM     61  O   UNL A   1      40.517  22.367  26.637  1.00  0.00    -0.744 OA
ENDBRANCH  54  58
ENDBRANCH  27  51
BRANCH  39  62
ATOM     62  C   UNL A   1      45.195  28.098  34.024  1.00  0.00     0.023 A 
ATOM     63  C   UNL A   1      45.354  26.989  34.872  1.00  0.00     0.031 A 
ATOM     64  C   UNL A   1      46.302  28.934  33.800  1.00  0.00     0.131 A 
ATOM     65  C   UNL A   1      46.576  26.789  35.526  1.00  0.00     0.055 A 
ATOM     66  C   UNL A   1      47.537  28.686  34.396  1.00  0.00     0.041 A 
ATOM     67  F   UNL A   1      46.196  30.011  33.006  1.00  0.00    -0.206 F 
ATOM     68  C   UNL A   1      47.675  27.618  35.279  1.00  0.00     0.022 A 
BRANCH  65  69
ATOM     69  S   UNL A   1      46.672  25.509  36.806  1.00  0.00     0.124 S 
ATOM     70  O   UNL A   1      48.114  25.323  36.938  1.00  0.00    -0.237 OA
ATOM     71  O   UNL A   1      46.006  26.148  37.937  1.00  0.00    -0.237 OA
ATOM     72  O   UNL A   1      45.952  24.381  36.217  1.00  0.00    -0.744 OA
ENDBRANCH  65  69
ENDBRANCH  39  62
ENDBRANCH  13  14
ENDBRANCH   6   8
ENDBRANCH   5   6
ENDBRANCH   4   5
ENDBRANCH   3   4
ENDBRANCH   2   3
ENDBRANCH   1   2
BRANCH   1  73
ATOM     73  C   UNL A   1      32.648  28.442  23.265  1.00  0.00     0.261 C 
BRANCH  73  74
ATOM     74  O   UNL A   1      31.632  27.731  22.516  1.00  0.00    -0.463 OA
BRANCH  74  75
ATOM     75  C   UNL A   1      31.597  26.377  22.559  1.00  0.00     0.312 C 
ATOM     76  O   UNL A   1      31.363  25.666  21.587  1.00  0.00    -0.252 OA
BRANCH  75  77
ATOM     77  C   UNL A   1      31.707  25.792  23.958  1.00  0.00     0.147 C 
ATOM     78  C   UNL A   1      32.950  24.999  24.423  1.00  0.00     0.129 C 
ATOM     79  C   UNL A   1      30.574  24.818  24.372  1.00  0.00     0.157 C 
ATOM     80  C   UNL A   1      32.336  23.883  25.257  1.00  0.00     0.155 C 
ATOM     81  C   UNL A   1      30.391  24.908  25.860  1.00  0.00     0.004 C 
ATOM     82  O   UNL A   1      31.241  23.527  24.378  1.00  0.00    -0.365 OA
ATOM     83  C   UNL A   1      31.508  24.398  26.403  1.00  0.00     0.004 C 
BRANCH  78  84
ATOM     84  C   UNL A   1      33.840  24.410  23.351  1.00  0.00     0.231 C 
ATOM     85  O   UNL A   1      34.167  25.095  22.378  1.00  0.00    -0.274 OA
ATOM     86  N   UNL A   1      34.144  23.074  23.352  1.00  0.00    -0.325 N 
ATOM     87  H   UNL A   1      33.642  22.515  22.714  1.00  0.00     0.169 HD
BRANCH  86  88
ATOM     88  C   UNL A   1      35.096  22.398  24.166  1.00  0.00     0.044 A 
ATOM     89  C   UNL A   1      36.368  22.994  24.183  1.00  0.00     0.026 A 
ATOM     90  C   UNL A   1      34.926  21.041  24.598  1.00  0.00    -0.020 A 
ATOM     91  C   UNL A   1      37.479  22.279  24.615  1.00  0.00     0.002 A 
ATOM     92  C   UNL A   1      36.066  20.369  25.072  1.00  0.00     0.006 A 
ATOM     93  C   UNL A   1      37.328  20.968  25.052  1.00  0.00     0.000 A 
BRANCH  90  94
ATOM     94  C   UNL A   1      33.576  20.326  24.725  1.00  0.00     0.073 C 
BRANCH  94  95
ATOM     95  C   UNL A   1      33.388  18.809  24.637  1.00  0.00    -0.044 A 
ATOM     96  C   UNL A   1      32.836  18.148  25.758  1.00  0.00     0.004 A 
ATOM     97  C   UNL A   1      33.812  17.993  23.584  1.00  0.00     0.004 A 
ATOM     98  C   UNL A   1      32.629  16.766  25.798  1.00  0.00     0.000 A 
ATOM     99  C   UNL A   1      33.619  16.599  23.623  1.00  0.00     0.000 A 
ATOM    100  C   UNL A   1      33.015  15.988  24.720  1.00  0.00     0.000 A 
ENDBRANCH  94  95
ENDBRANCH  90  94
ENDBRANCH  86  88
ENDBRANCH  78  84
ENDBRANCH  75  77
ENDBRANCH  74  75
ENDBRANCH  73  74
ENDBRANCH   1  73
TORSDOF 21
ENDMDL
MODEL 3
REMARK VINA RESULT:     -11.4      2.142      2.958
REMARK SMILES O=C(OCCOCCOC(=O)[C@@H]1[C@H](C(=O)Nc2ccccc2Cc2ccccc2)[C@H]2C=C[C@@H]1O2)c1ccc(-c2c3nc(c(-c4cc(S(=O)(=O)[O-])ccc4F)c4ccc([nH]4)c(-c4cc(S(=O)(=O)[O-])ccc4F)c4nc(c(-c5cc(S(=O)(=O)[O-])ccc5F)c5ccc2[nH]5)C=C4)C=C3)cc1
REMARK SMILES IDX 7 1 6 2 5 3 4 4 3 5 2 6 1 7 35 8 36 9 97 10 37 11 96 12
REMARK SMILES IDX 38 13 39 14 40 15 90 16 41 17 95 18 89 19 91 20 42 21 94 22
REMARK SMILES IDX 88 23 87 24 43 26 75 27 55 28 74 29 56 30 59 31 73 32 92 33
REMARK SMILES IDX 57 34 58 35 72 37 93 38 60 39 44 40 45 41 53 42 46 43 52 44
REMARK SMILES IDX 54 45 51 46 47 47 48 48 49 49 50 50 76 51 77 52 85 53 78 54
REMARK SMILES IDX 84 55 86 56 83 57 79 58 80 59 81 60 82 61 61 62 62 63 70 64
REMARK SMILES IDX 63 65 69 66 71 67 68 68 64 69 65 70 66 71 67 72 8 73 9 74
REMARK SMILES IDX 10 75 11 76 12 77 13 78 33 79 30 80 32 81 34 82 31 83 14 84
REMARK SMILES IDX 15 85 16 86 17 88 18 89 22 90 19 91 21 92 20 93 23 94 24 95
REMARK SMILES IDX 25 96 29 97 26 98 28 99 27 100
REMARK H PARENT 91 25 59 36 16 87
REMARK Flexibility Score: inf
ROOT
ATOM      1  C   UNL A   1      34.009  31.468  27.759  1.00  0.00     0.202 C 
ENDROOT
BRANCH   1   2
ATOM      2  O   UNL A   1      33.332  32.719  27.673  1.00  0.00    -0.374 OA
BRANCH   2   3
ATOM      3  C   UNL A   1      33.753  33.717  28.593  1.00  0.00     0.202 C 
BRANCH   3   4
ATOM      4  C   UNL A   1      32.816  34.919  28.837  1.00  0.00     0.261 C 
BRANCH   4   5
ATOM      5  O   UNL A   1      33.370  35.918  29.727  1.00  0.00    -0.460 OA
BRANCH   5   6
ATOM      6  C   UNL A   1      32.997  36.052  31.034  1.00  0.00     0.338 C 
ATOM      7  O   UNL A   1      32.041  36.736  31.381  1.00  0.00    -0.246 OA
BRANCH   6   8
ATOM      8  C   UNL A   1      33.792  35.287  32.008  1.00  0.00     0.060 A 
ATOM      9  C   UNL A   1      35.107  35.672  32.182  1.00  0.00     0.016 A 
ATOM     10  C   UNL A   1      33.344  34.074  32.520  1.00  0.00     0.016 A 
ATOM     11  C   UNL A   1      36.036  34.700  32.479  1.00  0.00     0.010 A 
ATOM     12  C   UNL A   1      34.270  33.227  33.143  1.00  0.00     0.010 A 
ATOM     13  C   UNL A   1      35.648  33.506  33.082  1.00  0.00    -0.014 A 
BRANCH  13  14
ATOM     14  C   UNL A   1      36.684  32.608  33.672  1.00  0.00     0.031 A 
ATOM     15  C   UNL A   1      37.214  32.879  35.054  1.00  0.00     0.074 A 
ATOM     16  C   UNL A   1      37.174  31.568  32.958  1.00  0.00     0.049 A 
ATOM     17  N   UNL A   1      38.364  32.552  35.577  1.00  0.00    -0.248 NA
ATOM     18  C   UNL A   1      36.350  33.665  35.948  1.00  0.00     0.031 C 
ATOM     19  C   UNL A   1      36.698  31.116  31.643  1.00  0.00     0.029 A 
ATOM     20  N   UNL A   1      38.195  30.691  33.233  1.00  0.00    -0.354 N 
ATOM     21  C   UNL A   1      38.417  33.190  36.813  1.00  0.00     0.074 A 
ATOM     22  C   UNL A   1      37.166  33.904  36.966  1.00  0.00     0.031 C 
ATOM     23  C   UNL A   1      37.347  30.010  31.276  1.00  0.00     0.029 A 
ATOM     24  C   UNL A   1      38.442  29.814  32.200  1.00  0.00     0.049 A 
ATOM     25  H   UNL A   1      38.697  30.690  34.080  1.00  0.00     0.167 HD
ATOM     26  C   UNL A   1      39.444  33.195  37.702  1.00  0.00     0.034 A 
ATOM     27  C   UNL A   1      39.499  29.027  31.936  1.00  0.00     0.034 A 
ATOM     28  C   UNL A   1      40.644  32.411  37.503  1.00  0.00     0.049 A 
ATOM     29  C   UNL A   1      40.649  29.086  32.890  1.00  0.00     0.074 A 
ATOM     30  C   UNL A   1      41.772  32.321  38.299  1.00  0.00     0.029 A 
ATOM     31  N   UNL A   1      40.857  31.556  36.422  1.00  0.00    -0.354 N 
ATOM     32  N   UNL A   1      40.775  29.810  33.980  1.00  0.00    -0.248 NA
ATOM     33  C   UNL A   1      41.803  28.246  32.572  1.00  0.00     0.031 C 
ATOM     34  C   UNL A   1      42.686  31.465  37.671  1.00  0.00     0.029 A 
ATOM     35  C   UNL A   1      42.099  30.949  36.525  1.00  0.00     0.049 A 
ATOM     36  H   UNL A   1      40.217  31.405  35.690  1.00  0.00     0.167 HD
ATOM     37  C   UNL A   1      42.021  29.490  34.498  1.00  0.00     0.074 A 
ATOM     38  C   UNL A   1      42.594  28.499  33.604  1.00  0.00     0.031 C 
ATOM     39  C   UNL A   1      42.636  29.967  35.610  1.00  0.00     0.034 A 
BRANCH  26  40
ATOM     40  C   UNL A   1      39.349  34.146  38.879  1.00  0.00     0.023 A 
ATOM     41  C   UNL A   1      38.780  33.774  40.110  1.00  0.00     0.031 A 
ATOM     42  C   UNL A   1      39.754  35.487  38.734  1.00  0.00     0.131 A 
ATOM     43  C   UNL A   1      38.525  34.749  41.091  1.00  0.00     0.055 A 
ATOM     44  C   UNL A   1      39.592  36.430  39.753  1.00  0.00     0.041 A 
ATOM     45  F   UNL A   1      40.286  35.920  37.579  1.00  0.00    -0.206 F 
ATOM     46  C   UNL A   1      38.950  36.069  40.932  1.00  0.00     0.022 A 
BRANCH  43  47
ATOM     47  S   UNL A   1      37.445  34.310  42.484  1.00  0.00     0.124 S 
ATOM     48  O   UNL A   1      37.549  35.502  43.323  1.00  0.00    -0.237 OA
ATOM     49  O   UNL A   1      36.159  34.099  41.832  1.00  0.00    -0.237 OA
ATOM     50  O   UNL A   1      38.069  33.110  43.039  1.00  0.00    -0.744 OA
ENDBRANCH  43  47
ENDBRANCH  26  40
BRANCH  27  51
ATOM     51  C   UNL A   1      39.543  28.220  30.682  1.00  0.00     0.023 A 
ATOM     52  C   UNL A   1      40.269  28.672  29.574  1.00  0.00     0.031 A 
ATOM     53  C   UNL A   1      38.900  26.969  30.583  1.00  0.00     0.131 A 
ATOM     54  C   UNL A   1      40.323  27.891  28.408  1.00  0.00     0.055 A 
ATOM     55  C   UNL A   1      39.010  26.168  29.446  1.00  0.00     0.041 A 
ATOM     56  F   UNL A   1      38.197  26.480  31.618  1.00  0.00    -0.206 F 
ATOM     57  C   UNL A   1      39.718  26.634  28.344  1.00  0.00     0.022 A 
BRANCH  54  58
ATOM     58  S   UNL A   1      41.153  28.576  26.952  1.00  0.00     0.124 S 
ATOM     59  O   UNL A   1      40.080  29.348  26.335  1.00  0.00    -0.237 OA
ATOM     60  O   UNL A   1      42.234  29.349  27.555  1.00  0.00    -0.237 OA
ATOM     61  O   UNL A   1      41.575  27.390  26.211  1.00  0.00    -0.744 OA
ENDBRANCH  54  58
ENDBRANCH  27  51
BRANCH  39  62
ATOM     62  C   UNL A   1      43.964  29.341  35.944  1.00  0.00     0.023 A 
ATOM     63  C   UNL A   1      44.062  28.216  36.778  1.00  0.00     0.031 A 
ATOM     64  C   UNL A   1      45.149  29.923  35.461  1.00  0.00     0.131 A 
ATOM     65  C   UNL A   1      45.325  27.753  37.168  1.00  0.00     0.055 A 
ATOM     66  C   UNL A   1      46.401  29.411  35.792  1.00  0.00     0.041 A 
ATOM     67  F   UNL A   1      45.105  31.006  34.669  1.00  0.00    -0.206 F 
ATOM     68  C   UNL A   1      46.496  28.330  36.665  1.00  0.00     0.022 A 
BRANCH  65  69
ATOM     69  S   UNL A   1      45.420  26.469  38.444  1.00  0.00     0.124 S 
ATOM     70  O   UNL A   1      46.862  26.310  38.604  1.00  0.00    -0.237 OA
ATOM     71  O   UNL A   1      44.720  27.091  39.564  1.00  0.00    -0.237 OA
ATOM     72  O   UNL A   1      44.733  25.331  37.837  1.00  0.00    -0.744 OA
ENDBRANCH  65  69
ENDBRANCH  39  62
ENDBRANCH  13  14
ENDBRANCH   6   8
ENDBRANCH   5   6
ENDBRANCH   4   5
ENDBRANCH   3   4
ENDBRANCH   2   3
ENDBRANCH   1   2
BRANCH   1  73
ATOM     73  C   UNL A   1      33.071  30.277  27.497  1.00  0.00     0.261 C 
BRANCH  73  74
ATOM     74  O   UNL A   1      32.369  30.449  26.241  1.00  0.00    -0.463 OA
BRANCH  74  75
ATOM     75  C   UNL A   1      32.601  29.586  25.223  1.00  0.00     0.312 C 
ATOM     76  O   UNL A   1      33.638  29.559  24.569  1.00  0.00    -0.252 OA
BRANCH  75  77
ATOM     77  C   UNL A   1      31.397  28.744  24.830  1.00  0.00     0.147 C 
ATOM     78  C   UNL A   1      31.235  27.277  25.288  1.00  0.00     0.129 C 
ATOM     79  C   UNL A   1      31.145  28.599  23.307  1.00  0.00     0.157 C 
ATOM     80  C   UNL A   1      30.650  26.608  24.051  1.00  0.00     0.155 C 
ATOM     81  C   UNL A   1      29.670  28.425  23.085  1.00  0.00     0.004 C 
ATOM     82  O   UNL A   1      31.502  27.214  23.049  1.00  0.00    -0.365 OA
ATOM     83  C   UNL A   1      29.354  27.230  23.608  1.00  0.00     0.004 C 
BRANCH  78  84
ATOM     84  C   UNL A   1      32.482  26.543  25.729  1.00  0.00     0.231 C 
ATOM     85  O   UNL A   1      33.130  26.956  26.695  1.00  0.00    -0.274 OA
ATOM     86  N   UNL A   1      33.005  25.532  24.965  1.00  0.00    -0.325 N 
ATOM     87  H   UNL A   1      33.789  25.764  24.416  1.00  0.00     0.169 HD
BRANCH  86  88
ATOM     88  C   UNL A   1      32.547  24.187  24.870  1.00  0.00     0.044 A 
ATOM     89  C   UNL A   1      31.269  23.973  25.413  1.00  0.00     0.026 A 
ATOM     90  C   UNL A   1      33.427  23.081  24.629  1.00  0.00    -0.020 A 
ATOM     91  C   UNL A   1      30.842  22.688  25.729  1.00  0.00     0.002 A 
ATOM     92  C   UNL A   1      32.939  21.796  24.916  1.00  0.00     0.006 A 
ATOM     93  C   UNL A   1      31.677  21.605  25.486  1.00  0.00     0.000 A 
BRANCH  90  94
ATOM     94  C   UNL A   1      34.794  23.185  23.941  1.00  0.00     0.073 C 
BRANCH  94  95
ATOM     95  C   UNL A   1      36.137  23.001  24.654  1.00  0.00    -0.044 A 
ATOM     96  C   UNL A   1      36.775  21.745  24.541  1.00  0.00     0.004 A 
ATOM     97  C   UNL A   1      36.747  23.933  25.500  1.00  0.00     0.004 A 
ATOM     98  C   UNL A   1      37.996  21.457  25.156  1.00  0.00     0.000 A 
ATOM     99  C   UNL A   1      37.971  23.645  26.134  1.00  0.00     0.000 A 
ATOM    100  C   UNL A   1      38.602  22.416  25.951  1.00  0.00     0.000 A 
ENDBRANCH  94  95
ENDBRANCH  90  94
ENDBRANCH  86  88
ENDBRANCH  78  84
ENDBRANCH  75  77
ENDBRANCH  74  75
ENDBRANCH  73  74
ENDBRANCH   1  73
TORSDOF 21
ENDMDL
