MODEL 1
REMARK VINA RESULT:     -11.3      0.000      0.000
REMARK SMILES Cc1c(C[N@H+]2CC[C@@H](C(=O)OCCOCCOC(=O)c3ccc(-c4c5nc(c(-c6cc(S(=O)(=O)[O-])ccc6F)c6ccc([nH]6)c(-c6cc(S(=O)(=O)[O-])ccc6F)c6nc(c(-c7cc(S(=O)(=O)[O-])ccc7F)c7ccc4[nH]7)C=C6)C=C5)cc3)[C@@H]2C)cccc1[N+](=O)[O-]
REMARK SMILES IDX 14 1 13 2 12 3 11 4 9 5 10 6 8 7 5 8 6 9 83 10 7 12 84 13
REMARK SMILES IDX 4 14 3 15 1 16 2 17 88 18 85 19 87 20 86 21 89 22 90 23
REMARK SMILES IDX 91 24 15 25 16 26 17 27 18 28 19 29 20 30 21 31 82 32 22 33
REMARK SMILES IDX 81 34 23 35 24 36 25 37 75 38 26 39 80 40 74 41 76 42 27 43
REMARK SMILES IDX 79 44 73 45 72 46 28 48 60 49 40 50 59 51 41 52 44 53 58 54
REMARK SMILES IDX 77 55 42 56 43 57 57 59 78 60 45 61 29 62 30 63 38 64 31 65
REMARK SMILES IDX 37 66 39 67 36 68 32 69 33 70 34 71 35 72 61 73 62 74 70 75
REMARK SMILES IDX 63 76 69 77 71 78 68 79 64 80 65 81 66 82 67 83 46 84 47 85
REMARK SMILES IDX 55 86 48 87 54 88 56 89 53 90 49 91 50 92 51 93 52 94
REMARK H PARENT 5 11 76 47 44 58
REMARK Flexibility Score: inf
ROOT
ATOM      1  O   UNL A   1      38.034  22.230  25.042  1.00  0.00    -0.374 OA
ENDROOT
BRANCH   1   2
ATOM      2  C   UNL A   1      36.841  21.679  24.534  1.00  0.00     0.202 C 
BRANCH   2   3
ATOM      3  C   UNL A   1      35.802  22.528  25.156  1.00  0.00     0.261 C 
BRANCH   3   4
ATOM      4  O   UNL A   1      35.564  23.687  24.377  1.00  0.00    -0.463 OA
BRANCH   4   5
ATOM      5  C   UNL A   1      34.498  24.450  24.702  1.00  0.00     0.315 C 
ATOM      6  O   UNL A   1      34.497  25.658  24.876  1.00  0.00    -0.252 OA
BRANCH   5   7
ATOM      7  C   UNL A   1      33.288  23.562  24.725  1.00  0.00     0.162 C 
ATOM      8  N   UNL A   1      30.956  24.199  24.720  1.00  0.00    -0.328 N 
ATOM      9  C   UNL A   1      31.191  23.290  23.610  1.00  0.00     0.263 C 
ATOM     10  C   UNL A   1      32.161  24.217  25.561  1.00  0.00     0.195 C 
ATOM     11  H   UNL A   1      30.213  23.849  25.324  1.00  0.00     0.348 HD
ATOM     12  C   UNL A   1      32.681  23.331  23.361  1.00  0.00     0.083 C 
ATOM     13  C   UNL A   1      32.076  23.441  26.884  1.00  0.00     0.076 C 
BRANCH   8  14
ATOM     14  C   UNL A   1      30.257  25.471  24.384  1.00  0.00     0.299 C 
BRANCH  14  15
ATOM     15  C   UNL A   1      30.953  26.872  24.118  1.00  0.00     0.016 A 
ATOM     16  C   UNL A   1      31.203  27.333  26.876  1.00  0.00     0.052 C 
ATOM     17  C   UNL A   1      31.606  27.829  25.504  1.00  0.00     0.036 A 
ATOM     18  C   UNL A   1      33.058  28.876  25.396  1.00  0.00     0.272 A 
ATOM     19  C   UNL A   1      31.721  26.937  22.545  1.00  0.00     0.010 A 
ATOM     20  C   UNL A   1      33.940  28.981  23.825  1.00  0.00     0.086 A 
ATOM     21  C   UNL A   1      33.162  27.968  22.272  1.00  0.00     0.008 A 
BRANCH  18  22
ATOM     22  N   UNL A   1      33.536  29.722  26.469  1.00  0.00     0.062 N 
ATOM     23  O   UNL A   1      32.829  30.692  26.773  1.00  0.00    -0.258 OA
ATOM     24  O   UNL A   1      34.579  29.409  27.048  1.00  0.00    -0.258 OA
ENDBRANCH  18  22
ENDBRANCH  14  15
ENDBRANCH   8  14
ENDBRANCH   5   7
ENDBRANCH   4   5
ENDBRANCH   3   4
ENDBRANCH   2   3
ENDBRANCH   1   2
BRANCH   1  25
ATOM     25  C   UNL A   1      38.832  21.286  25.710  1.00  0.00     0.202 C 
BRANCH  25  26
ATOM     26  C   UNL A   1      39.992  21.937  26.481  1.00  0.00     0.261 C 
BRANCH  26  27
ATOM     27  O   UNL A   1      39.751  23.365  26.578  1.00  0.00    -0.460 OA
BRANCH  27  28
ATOM     28  C   UNL A   1      40.524  24.074  27.456  1.00  0.00     0.338 C 
ATOM     29  O   UNL A   1      41.389  23.600  28.170  1.00  0.00    -0.246 OA
BRANCH  28  30
ATOM     30  C   UNL A   1      39.998  25.473  27.582  1.00  0.00     0.060 A 
ATOM     31  C   UNL A   1      40.422  26.488  26.695  1.00  0.00     0.016 A 
ATOM     32  C   UNL A   1      39.348  25.829  28.759  1.00  0.00     0.016 A 
ATOM     33  C   UNL A   1      40.364  27.845  27.075  1.00  0.00     0.010 A 
ATOM     34  C   UNL A   1      39.357  27.155  29.149  1.00  0.00     0.010 A 
ATOM     35  C   UNL A   1      39.926  28.172  28.354  1.00  0.00    -0.014 A 
BRANCH  35  36
ATOM     36  C   UNL A   1      40.143  29.457  29.053  1.00  0.00     0.031 A 
ATOM     37  C   UNL A   1      39.036  30.427  29.029  1.00  0.00     0.074 A 
ATOM     38  C   UNL A   1      41.185  29.706  29.894  1.00  0.00     0.049 A 
ATOM     39  N   UNL A   1      39.202  31.700  29.144  1.00  0.00    -0.248 NA
ATOM     40  C   UNL A   1      37.641  30.068  28.763  1.00  0.00     0.031 C 
ATOM     41  C   UNL A   1      41.268  30.653  31.006  1.00  0.00     0.029 A 
ATOM     42  N   UNL A   1      42.436  29.105  29.934  1.00  0.00    -0.354 N 
ATOM     43  C   UNL A   1      37.966  32.189  29.485  1.00  0.00     0.074 A 
ATOM     44  C   UNL A   1      37.047  31.251  28.914  1.00  0.00     0.031 C 
ATOM     45  C   UNL A   1      42.543  30.741  31.440  1.00  0.00     0.029 A 
ATOM     46  C   UNL A   1      43.372  29.895  30.592  1.00  0.00     0.049 A 
ATOM     47  H   UNL A   1      42.635  28.224  29.544  1.00  0.00     0.167 HD
ATOM     48  C   UNL A   1      37.881  33.130  30.468  1.00  0.00     0.034 A 
ATOM     49  C   UNL A   1      44.624  30.066  30.098  1.00  0.00     0.034 A 
ATOM     50  C   UNL A   1      39.231  33.606  30.881  1.00  0.00     0.049 A 
ATOM     51  C   UNL A   1      44.531  31.572  29.622  1.00  0.00     0.074 A 
ATOM     52  C   UNL A   1      39.916  33.689  32.085  1.00  0.00     0.029 A 
ATOM     53  N   UNL A   1      40.201  33.863  29.903  1.00  0.00    -0.354 N 
ATOM     54  N   UNL A   1      43.447  32.301  29.784  1.00  0.00    -0.248 NA
ATOM     55  C   UNL A   1      45.575  32.385  29.011  1.00  0.00     0.031 C 
ATOM     56  C   UNL A   1      41.290  33.989  31.808  1.00  0.00     0.029 A 
ATOM     57  C   UNL A   1      41.454  34.102  30.436  1.00  0.00     0.049 A 
ATOM     58  H   UNL A   1      40.011  33.874  28.938  1.00  0.00     0.167 HD
ATOM     59  C   UNL A   1      43.594  33.593  29.388  1.00  0.00     0.074 A 
ATOM     60  C   UNL A   1      44.956  33.581  28.862  1.00  0.00     0.031 C 
ATOM     61  C   UNL A   1      42.569  34.505  29.558  1.00  0.00     0.034 A 
BRANCH  48  62
ATOM     62  C   UNL A   1      36.596  33.443  31.244  1.00  0.00     0.023 A 
ATOM     63  C   UNL A   1      35.563  34.124  30.569  1.00  0.00     0.031 A 
ATOM     64  C   UNL A   1      36.305  33.167  32.605  1.00  0.00     0.131 A 
ATOM     65  C   UNL A   1      34.370  34.510  31.216  1.00  0.00     0.055 A 
ATOM     66  C   UNL A   1      35.106  33.524  33.242  1.00  0.00     0.041 A 
ATOM     67  F   UNL A   1      37.146  32.550  33.435  1.00  0.00    -0.206 F 
ATOM     68  C   UNL A   1      34.129  34.204  32.550  1.00  0.00     0.022 A 
BRANCH  65  69
ATOM     69  S   UNL A   1      33.121  35.422  30.278  1.00  0.00     0.124 S 
ATOM     70  O   UNL A   1      32.693  34.427  29.300  1.00  0.00    -0.237 OA
ATOM     71  O   UNL A   1      32.154  35.774  31.311  1.00  0.00    -0.237 OA
ATOM     72  O   UNL A   1      33.870  36.550  29.726  1.00  0.00    -0.744 OA
ENDBRANCH  65  69
ENDBRANCH  48  62
BRANCH  49  73
ATOM     73  C   UNL A   1      45.130  28.753  29.243  1.00  0.00     0.023 A 
ATOM     74  C   UNL A   1      44.481  27.311  27.977  1.00  0.00     0.031 A 
ATOM     75  C   UNL A   1      46.930  28.775  29.528  1.00  0.00     0.131 A 
ATOM     76  C   UNL A   1      45.675  26.213  27.183  1.00  0.00     0.055 A 
ATOM     77  C   UNL A   1      47.973  27.629  28.695  1.00  0.00     0.041 A 
ATOM     78  F   UNL A   1      47.501  29.652  30.362  1.00  0.00    -0.206 F 
ATOM     79  C   UNL A   1      47.374  26.408  27.568  1.00  0.00     0.022 A 
BRANCH  76  80
ATOM     80  S   UNL A   1      45.270  25.650  25.490  1.00  0.00     0.124 S 
ATOM     81  O   UNL A   1      45.773  26.745  24.672  1.00  0.00    -0.237 OA
ATOM     82  O   UNL A   1      46.000  24.388  25.385  1.00  0.00    -0.237 OA
ATOM     83  O   UNL A   1      43.817  25.505  25.540  1.00  0.00    -0.744 OA
ENDBRANCH  76  80
ENDBRANCH  49  73
BRANCH  61  84
ATOM     84  C   UNL A   1      42.491  35.913  28.976  1.00  0.00     0.023 A 
ATOM     85  C   UNL A   1      43.068  37.021  29.593  1.00  0.00     0.031 A 
ATOM     86  C   UNL A   1      41.836  36.197  27.742  1.00  0.00     0.131 A 
ATOM     87  C   UNL A   1      43.031  38.298  29.007  1.00  0.00     0.055 A 
ATOM     88  C   UNL A   1      41.801  37.466  27.154  1.00  0.00     0.041 A 
ATOM     89  F   UNL A   1      41.201  35.265  27.021  1.00  0.00    -0.206 F 
ATOM     90  C   UNL A   1      42.408  38.532  27.786  1.00  0.00     0.022 A 
BRANCH  87  91
ATOM     91  S   UNL A   1      43.830  39.645  29.907  1.00  0.00     0.124 S 
ATOM     92  O   UNL A   1      42.742  40.612  30.036  1.00  0.00    -0.237 OA
ATOM     93  O   UNL A   1      44.237  38.982  31.141  1.00  0.00    -0.237 OA
ATOM     94  O   UNL A   1      44.922  40.049  29.024  1.00  0.00    -0.744 OA
ENDBRANCH  87  91
ENDBRANCH  61  84
ENDBRANCH  35  36
ENDBRANCH  28  30
ENDBRANCH  27  28
ENDBRANCH  26  27
ENDBRANCH  25  26
ENDBRANCH   1  25
TORSDOF 20
ENDMDL
MODEL 2
REMARK VINA RESULT:     -10.5      4.612     10.930
REMARK SMILES Cc1c(C[N@H+]2CC[C@@H](C(=O)OCCOCCOC(=O)c3ccc(-c4c5nc(c(-c6cc(S(=O)(=O)[O-])ccc6F)c6ccc([nH]6)c(-c6cc(S(=O)(=O)[O-])ccc6F)c6nc(c(-c7cc(S(=O)(=O)[O-])ccc7F)c7ccc4[nH]7)C=C6)C=C5)cc3)[C@@H]2C)cccc1[N+](=O)[O-]
REMARK SMILES IDX 14 1 13 2 12 3 11 4 9 5 10 6 8 7 5 8 6 9 83 10 7 12 84 13
REMARK SMILES IDX 4 14 3 15 1 16 2 17 88 18 85 19 87 20 86 21 89 22 90 23
REMARK SMILES IDX 91 24 15 25 16 26 17 27 18 28 19 29 20 30 21 31 82 32 22 33
REMARK SMILES IDX 81 34 23 35 24 36 25 37 75 38 26 39 80 40 74 41 76 42 27 43
REMARK SMILES IDX 79 44 73 45 72 46 28 48 60 49 40 50 59 51 41 52 44 53 58 54
REMARK SMILES IDX 77 55 42 56 43 57 57 59 78 60 45 61 29 62 30 63 38 64 31 65
REMARK SMILES IDX 37 66 39 67 36 68 32 69 33 70 34 71 35 72 61 73 62 74 70 75
REMARK SMILES IDX 63 76 69 77 71 78 68 79 64 80 65 81 66 82 67 83 46 84 47 85
REMARK SMILES IDX 55 86 48 87 54 88 56 89 53 90 49 91 50 92 51 93 52 94
REMARK H PARENT 5 11 76 47 44 58
REMARK Flexibility Score: inf
ROOT
ATOM      1  O   UNL A   1      33.739  30.815  27.114  1.00  0.00    -0.374 OA
ENDROOT
BRANCH   1   2
ATOM      2  C   UNL A   1      32.424  30.328  27.244  1.00  0.00     0.202 C 
BRANCH   2   3
ATOM      3  C   UNL A   1      31.867  30.534  25.890  1.00  0.00     0.261 C 
BRANCH   3   4
ATOM      4  O   UNL A   1      31.763  29.305  25.193  1.00  0.00    -0.463 OA
BRANCH   4   5
ATOM      5  C   UNL A   1      30.889  29.240  24.166  1.00  0.00     0.315 C 
ATOM      6  O   UNL A   1      30.036  30.067  23.886  1.00  0.00    -0.252 OA
BRANCH   5   7
ATOM      7  C   UNL A   1      31.207  28.008  23.370  1.00  0.00     0.162 C 
ATOM      8  N   UNL A   1      32.278  25.972  24.112  1.00  0.00    -0.328 N 
ATOM      9  C   UNL A   1      31.001  25.630  23.508  1.00  0.00     0.263 C 
ATOM     10  C   UNL A   1      32.545  27.393  23.847  1.00  0.00     0.195 C 
ATOM     11  H   UNL A   1      33.040  25.468  23.659  1.00  0.00     0.348 HD
ATOM     12  C   UNL A   1      30.189  26.904  23.531  1.00  0.00     0.083 C 
ATOM     13  C   UNL A   1      33.590  27.696  22.763  1.00  0.00     0.076 C 
BRANCH   8  14
ATOM     14  C   UNL A   1      32.534  25.401  25.464  1.00  0.00     0.299 C 
BRANCH  14  15
ATOM     15  C   UNL A   1      33.394  24.106  25.778  1.00  0.00     0.016 A 
ATOM     16  C   UNL A   1      31.176  22.451  25.299  1.00  0.00     0.052 C 
ATOM     17  C   UNL A   1      32.671  22.467  25.541  1.00  0.00     0.036 A 
ATOM     18  C   UNL A   1      33.608  21.029  25.021  1.00  0.00     0.272 A 
ATOM     19  C   UNL A   1      35.106  24.373  25.522  1.00  0.00     0.010 A 
ATOM     20  C   UNL A   1      35.374  21.214  24.697  1.00  0.00     0.086 A 
ATOM     21  C   UNL A   1      36.181  23.024  25.035  1.00  0.00     0.008 A 
BRANCH  18  22
ATOM     22  N   UNL A   1      33.063  19.692  24.920  1.00  0.00     0.062 N 
ATOM     23  O   UNL A   1      32.605  19.195  25.957  1.00  0.00    -0.258 OA
ATOM     24  O   UNL A   1      33.040  19.146  23.814  1.00  0.00    -0.258 OA
ENDBRANCH  18  22
ENDBRANCH  14  15
ENDBRANCH   8  14
ENDBRANCH   5   7
ENDBRANCH   4   5
ENDBRANCH   3   4
ENDBRANCH   2   3
ENDBRANCH   1   2
BRANCH   1  25
ATOM     25  C   UNL A   1      34.027  31.859  28.010  1.00  0.00     0.202 C 
BRANCH  25  26
ATOM     26  C   UNL A   1      35.412  31.707  28.663  1.00  0.00     0.261 C 
BRANCH  26  27
ATOM     27  O   UNL A   1      35.589  30.327  29.074  1.00  0.00    -0.460 OA
BRANCH  27  28
ATOM     28  C   UNL A   1      36.590  29.616  28.471  1.00  0.00     0.338 C 
ATOM     29  O   UNL A   1      36.447  28.880  27.512  1.00  0.00    -0.246 OA
BRANCH  28  30
ATOM     30  C   UNL A   1      37.840  29.694  29.298  1.00  0.00     0.060 A 
ATOM     31  C   UNL A   1      38.928  30.498  28.892  1.00  0.00     0.016 A 
ATOM     32  C   UNL A   1      38.037  28.732  30.282  1.00  0.00     0.016 A 
ATOM     33  C   UNL A   1      40.236  30.212  29.332  1.00  0.00     0.010 A 
ATOM     34  C   UNL A   1      39.331  28.418  30.656  1.00  0.00     0.010 A 
ATOM     35  C   UNL A   1      40.452  29.098  30.136  1.00  0.00    -0.014 A 
BRANCH  35  36
ATOM     36  C   UNL A   1      41.749  28.433  30.382  1.00  0.00     0.031 A 
ATOM     37  C   UNL A   1      42.036  27.216  29.605  1.00  0.00     0.074 A 
ATOM     38  C   UNL A   1      42.772  28.984  31.093  1.00  0.00     0.049 A 
ATOM     39  N   UNL A   1      42.833  26.286  30.007  1.00  0.00    -0.248 NA
ATOM     40  C   UNL A   1      41.367  26.872  28.348  1.00  0.00     0.031 C 
ATOM     41  C   UNL A   1      44.209  28.727  30.997  1.00  0.00     0.029 A 
ATOM     42  N   UNL A   1      42.721  29.961  32.079  1.00  0.00    -0.354 N 
ATOM     43  C   UNL A   1      43.145  25.573  28.875  1.00  0.00     0.074 A 
ATOM     44  C   UNL A   1      42.005  25.749  28.026  1.00  0.00     0.031 C 
ATOM     45  C   UNL A   1      44.851  29.320  32.024  1.00  0.00     0.029 A 
ATOM     46  C   UNL A   1      43.857  29.951  32.880  1.00  0.00     0.049 A 
ATOM     47  H   UNL A   1      41.969  30.586  32.196  1.00  0.00     0.167 HD
ATOM     48  C   UNL A   1      44.440  25.201  28.669  1.00  0.00     0.034 A 
ATOM     49  C   UNL A   1      43.770  30.062  34.230  1.00  0.00     0.034 A 
ATOM     50  C   UNL A   1      45.284  25.497  29.861  1.00  0.00     0.049 A 
ATOM     51  C   UNL A   1      44.152  28.587  34.655  1.00  0.00     0.074 A 
ATOM     52  C   UNL A   1      46.453  26.210  30.083  1.00  0.00     0.029 A 
ATOM     53  N   UNL A   1      44.790  25.220  31.143  1.00  0.00    -0.354 N 
ATOM     54  N   UNL A   1      44.470  27.657  33.779  1.00  0.00    -0.248 NA
ATOM     55  C   UNL A   1      44.269  28.044  36.002  1.00  0.00     0.031 C 
ATOM     56  C   UNL A   1      46.638  26.355  31.497  1.00  0.00     0.029 A 
ATOM     57  C   UNL A   1      45.590  25.725  32.150  1.00  0.00     0.049 A 
ATOM     58  H   UNL A   1      43.960  24.718  31.309  1.00  0.00     0.167 HD
ATOM     59  C   UNL A   1      44.851  26.481  34.345  1.00  0.00     0.074 A 
ATOM     60  C   UNL A   1      44.661  26.769  35.764  1.00  0.00     0.031 C 
ATOM     61  C   UNL A   1      45.282  25.427  33.562  1.00  0.00     0.034 A 
BRANCH  48  62
ATOM     62  C   UNL A   1      45.009  24.805  27.302  1.00  0.00     0.023 A 
ATOM     63  C   UNL A   1      44.754  23.501  26.831  1.00  0.00     0.031 A 
ATOM     64  C   UNL A   1      45.817  25.581  26.431  1.00  0.00     0.131 A 
ATOM     65  C   UNL A   1      45.288  23.026  25.614  1.00  0.00     0.055 A 
ATOM     66  C   UNL A   1      46.323  25.119  25.206  1.00  0.00     0.041 A 
ATOM     67  F   UNL A   1      46.196  26.832  26.687  1.00  0.00    -0.206 F 
ATOM     68  C   UNL A   1      46.064  23.832  24.790  1.00  0.00     0.022 A 
BRANCH  65  69
ATOM     69  S   UNL A   1      44.945  21.322  25.115  1.00  0.00     0.124 S 
ATOM     70  O   UNL A   1      44.697  21.472  23.684  1.00  0.00    -0.237 OA
ATOM     71  O   UNL A   1      46.175  20.635  25.491  1.00  0.00    -0.237 OA
ATOM     72  O   UNL A   1      43.772  20.966  25.912  1.00  0.00    -0.744 OA
ENDBRANCH  65  69
ENDBRANCH  48  62
BRANCH  49  73
ATOM     73  C   UNL A   1      42.462  30.952  34.689  1.00  0.00     0.023 A 
ATOM     74  C   UNL A   1      40.509  31.274  34.265  1.00  0.00     0.031 A 
ATOM     75  C   UNL A   1      43.086  31.824  36.163  1.00  0.00     0.131 A 
ATOM     76  C   UNL A   1      39.514  32.312  35.359  1.00  0.00     0.055 A 
ATOM     77  C   UNL A   1      42.002  32.819  37.128  1.00  0.00     0.041 A 
ATOM     78  F   UNL A   1      44.364  31.731  36.550  1.00  0.00    -0.206 F 
ATOM     79  C   UNL A   1      40.292  33.047  36.747  1.00  0.00     0.022 A 
BRANCH  76  80
ATOM     80  S   UNL A   1      37.752  31.856  35.543  1.00  0.00     0.124 S 
ATOM     81  O   UNL A   1      37.396  31.449  34.191  1.00  0.00    -0.237 OA
ATOM     82  O   UNL A   1      37.797  30.787  36.540  1.00  0.00    -0.237 OA
ATOM     83  O   UNL A   1      37.148  33.098  36.017  1.00  0.00    -0.744 OA
ENDBRANCH  76  80
ENDBRANCH  49  73
BRANCH  61  84
ATOM     84  C   UNL A   1      45.528  23.991  34.015  1.00  0.00     0.023 A 
ATOM     85  C   UNL A   1      46.785  23.519  34.387  1.00  0.00     0.031 A 
ATOM     86  C   UNL A   1      44.482  23.027  34.110  1.00  0.00     0.131 A 
ATOM     87  C   UNL A   1      46.974  22.207  34.856  1.00  0.00     0.055 A 
ATOM     88  C   UNL A   1      44.666  21.723  34.580  1.00  0.00     0.041 A 
ATOM     89  F   UNL A   1      43.214  23.290  33.769  1.00  0.00    -0.206 F 
ATOM     90  C   UNL A   1      45.923  21.304  34.964  1.00  0.00     0.022 A 
BRANCH  87  91
ATOM     91  S   UNL A   1      48.653  21.728  35.319  1.00  0.00     0.124 S 
ATOM     92  O   UNL A   1      48.409  20.732  36.359  1.00  0.00    -0.237 OA
ATOM     93  O   UNL A   1      49.176  21.210  34.058  1.00  0.00    -0.237 OA
ATOM     94  O   UNL A   1      49.253  22.977  35.779  1.00  0.00    -0.744 OA
ENDBRANCH  87  91
ENDBRANCH  61  84
ENDBRANCH  35  36
ENDBRANCH  28  30
ENDBRANCH  27  28
ENDBRANCH  26  27
ENDBRANCH  25  26
ENDBRANCH   1  25
TORSDOF 20
ENDMDL
MODEL 3
REMARK VINA RESULT:     -10.3      1.906      2.360
REMARK SMILES Cc1c(C[N@H+]2CC[C@@H](C(=O)OCCOCCOC(=O)c3ccc(-c4c5nc(c(-c6cc(S(=O)(=O)[O-])ccc6F)c6ccc([nH]6)c(-c6cc(S(=O)(=O)[O-])ccc6F)c6nc(c(-c7cc(S(=O)(=O)[O-])ccc7F)c7ccc4[nH]7)C=C6)C=C5)cc3)[C@@H]2C)cccc1[N+](=O)[O-]
REMARK SMILES IDX 14 1 13 2 12 3 11 4 9 5 10 6 8 7 5 8 6 9 83 10 7 12 84 13
REMARK SMILES IDX 4 14 3 15 1 16 2 17 88 18 85 19 87 20 86 21 89 22 90 23
REMARK SMILES IDX 91 24 15 25 16 26 17 27 18 28 19 29 20 30 21 31 82 32 22 33
REMARK SMILES IDX 81 34 23 35 24 36 25 37 75 38 26 39 80 40 74 41 76 42 27 43
REMARK SMILES IDX 79 44 73 45 72 46 28 48 60 49 40 50 59 51 41 52 44 53 58 54
REMARK SMILES IDX 77 55 42 56 43 57 57 59 78 60 45 61 29 62 30 63 38 64 31 65
REMARK SMILES IDX 37 66 39 67 36 68 32 69 33 70 34 71 35 72 61 73 62 74 70 75
REMARK SMILES IDX 63 76 69 77 71 78 68 79 64 80 65 81 66 82 67 83 46 84 47 85
REMARK SMILES IDX 55 86 48 87 54 88 56 89 53 90 49 91 50 92 51 93 52 94
REMARK H PARENT 5 11 76 47 44 58
REMARK Flexibility Score: inf
ROOT
ATOM      1  O   UNL A   1      36.135  22.512  25.270  1.00  0.00    -0.374 OA
ENDROOT
BRANCH   1   2
ATOM      2  C   UNL A   1      35.482  21.604  26.127  1.00  0.00     0.202 C 
BRANCH   2   3
ATOM      3  C   UNL A   1      34.053  21.883  25.866  1.00  0.00     0.261 C 
BRANCH   3   4
ATOM      4  O   UNL A   1      33.493  22.666  26.905  1.00  0.00    -0.463 OA
BRANCH   4   5
ATOM      5  C   UNL A   1      32.465  23.482  26.588  1.00  0.00     0.315 C 
ATOM      6  O   UNL A   1      31.534  23.791  27.314  1.00  0.00    -0.252 OA
BRANCH   5   7
ATOM      7  C   UNL A   1      32.714  24.020  25.209  1.00  0.00     0.162 C 
ATOM      8  N   UNL A   1      31.558  25.805  24.060  1.00  0.00    -0.328 N 
ATOM      9  C   UNL A   1      32.980  26.107  24.074  1.00  0.00     0.263 C 
ATOM     10  C   UNL A   1      31.376  24.430  24.546  1.00  0.00     0.195 C 
ATOM     11  H   UNL A   1      31.198  25.802  23.106  1.00  0.00     0.348 HD
ATOM     12  C   UNL A   1      33.560  25.271  25.191  1.00  0.00     0.083 C 
ATOM     13  C   UNL A   1      31.061  23.370  23.480  1.00  0.00     0.076 C 
BRANCH   8  14
ATOM     14  C   UNL A   1      30.656  26.892  24.533  1.00  0.00     0.299 C 
BRANCH  14  15
ATOM     15  C   UNL A   1      30.888  28.448  24.328  1.00  0.00     0.016 A 
ATOM     16  C   UNL A   1      28.571  28.642  22.754  1.00  0.00     0.052 C 
ATOM     17  C   UNL A   1      29.648  29.436  23.463  1.00  0.00     0.036 A 
ATOM     18  C   UNL A   1      29.290  31.151  23.851  1.00  0.00     0.272 A 
ATOM     19  C   UNL A   1      31.848  29.146  25.617  1.00  0.00     0.010 A 
ATOM     20  C   UNL A   1      30.203  31.948  25.189  1.00  0.00     0.086 A 
ATOM     21  C   UNL A   1      31.631  30.860  26.095  1.00  0.00     0.008 A 
BRANCH  18  22
ATOM     22  N   UNL A   1      28.370  31.982  23.106  1.00  0.00     0.062 N 
ATOM     23  O   UNL A   1      27.176  31.924  23.430  1.00  0.00    -0.258 OA
ATOM     24  O   UNL A   1      28.821  32.728  22.234  1.00  0.00    -0.258 OA
ENDBRANCH  18  22
ENDBRANCH  14  15
ENDBRANCH   8  14
ENDBRANCH   5   7
ENDBRANCH   4   5
ENDBRANCH   3   4
ENDBRANCH   2   3
ENDBRANCH   1   2
BRANCH   1  25
ATOM     25  C   UNL A   1      36.633  23.640  25.943  1.00  0.00     0.202 C 
BRANCH  25  26
ATOM     26  C   UNL A   1      38.152  23.566  26.169  1.00  0.00     0.261 C 
BRANCH  26  27
ATOM     27  O   UNL A   1      38.573  24.730  26.927  1.00  0.00    -0.460 OA
BRANCH  27  28
ATOM     28  C   UNL A   1      39.913  24.998  26.973  1.00  0.00     0.338 C 
ATOM     29  O   UNL A   1      40.756  24.486  26.258  1.00  0.00    -0.246 OA
BRANCH  28  30
ATOM     30  C   UNL A   1      40.224  25.835  28.179  1.00  0.00     0.060 A 
ATOM     31  C   UNL A   1      39.201  26.234  29.067  1.00  0.00     0.016 A 
ATOM     32  C   UNL A   1      41.459  26.473  28.236  1.00  0.00     0.016 A 
ATOM     33  C   UNL A   1      39.353  27.384  29.869  1.00  0.00     0.010 A 
ATOM     34  C   UNL A   1      41.573  27.634  28.976  1.00  0.00     0.010 A 
ATOM     35  C   UNL A   1      40.507  28.149  29.743  1.00  0.00    -0.014 A 
BRANCH  35  36
ATOM     36  C   UNL A   1      40.688  29.544  30.198  1.00  0.00     0.031 A 
ATOM     37  C   UNL A   1      39.540  30.453  30.045  1.00  0.00     0.074 A 
ATOM     38  C   UNL A   1      41.742  29.977  30.945  1.00  0.00     0.049 A 
ATOM     39  N   UNL A   1      39.654  31.731  29.929  1.00  0.00    -0.248 NA
ATOM     40  C   UNL A   1      38.155  30.001  29.896  1.00  0.00     0.031 C 
ATOM     41  C   UNL A   1      41.816  31.108  31.870  1.00  0.00     0.029 A 
ATOM     42  N   UNL A   1      43.018  29.440  31.045  1.00  0.00    -0.354 N 
ATOM     43  C   UNL A   1      38.408  32.227  30.224  1.00  0.00     0.074 A 
ATOM     44  C   UNL A   1      37.515  31.168  29.859  1.00  0.00     0.031 C 
ATOM     45  C   UNL A   1      43.097  31.319  32.236  1.00  0.00     0.029 A 
ATOM     46  C   UNL A   1      43.937  30.368  31.521  1.00  0.00     0.049 A 
ATOM     47  H   UNL A   1      43.245  28.512  30.807  1.00  0.00     0.167 HD
ATOM     48  C   UNL A   1      38.310  33.322  31.030  1.00  0.00     0.034 A 
ATOM     49  C   UNL A   1      45.167  30.496  30.959  1.00  0.00     0.034 A 
ATOM     50  C   UNL A   1      39.651  33.913  31.304  1.00  0.00     0.049 A 
ATOM     51  C   UNL A   1      44.995  31.890  30.231  1.00  0.00     0.074 A 
ATOM     52  C   UNL A   1      40.366  34.233  32.450  1.00  0.00     0.029 A 
ATOM     53  N   UNL A   1      40.580  34.031  30.262  1.00  0.00    -0.354 N 
ATOM     54  N   UNL A   1      43.886  32.595  30.302  1.00  0.00    -0.248 NA
ATOM     55  C   UNL A   1      45.985  32.621  29.450  1.00  0.00     0.031 C 
ATOM     56  C   UNL A   1      41.717  34.532  32.075  1.00  0.00     0.029 A 
ATOM     57  C   UNL A   1      41.836  34.406  30.700  1.00  0.00     0.049 A 
ATOM     58  H   UNL A   1      40.362  33.864  29.318  1.00  0.00     0.167 HD
ATOM     59  C   UNL A   1      43.965  33.802  29.681  1.00  0.00     0.074 A 
ATOM     60  C   UNL A   1      45.311  33.748  29.117  1.00  0.00     0.031 C 
ATOM     61  C   UNL A   1      42.907  34.691  29.726  1.00  0.00     0.034 A 
BRANCH  48  62
ATOM     62  C   UNL A   1      37.036  33.719  31.784  1.00  0.00     0.023 A 
ATOM     63  C   UNL A   1      35.940  34.188  31.032  1.00  0.00     0.031 A 
ATOM     64  C   UNL A   1      36.810  33.715  33.185  1.00  0.00     0.131 A 
ATOM     65  C   UNL A   1      34.749  34.634  31.643  1.00  0.00     0.055 A 
ATOM     66  C   UNL A   1      35.614  34.130  33.791  1.00  0.00     0.041 A 
ATOM     67  F   UNL A   1      37.716  33.329  34.082  1.00  0.00    -0.206 F 
ATOM     68  C   UNL A   1      34.573  34.598  33.021  1.00  0.00     0.022 A 
BRANCH  65  69
ATOM     69  S   UNL A   1      33.413  35.265  30.597  1.00  0.00     0.124 S 
ATOM     70  O   UNL A   1      33.350  34.252  29.548  1.00  0.00    -0.237 OA
ATOM     71  O   UNL A   1      32.288  35.309  31.525  1.00  0.00    -0.237 OA
ATOM     72  O   UNL A   1      33.909  36.571  30.168  1.00  0.00    -0.744 OA
ENDBRANCH  65  69
ENDBRANCH  48  62
BRANCH  49  73
ATOM     73  C   UNL A   1      45.704  29.072  30.330  1.00  0.00     0.023 A 
ATOM     74  C   UNL A   1      45.065  27.325  29.531  1.00  0.00     0.031 A 
ATOM     75  C   UNL A   1      47.509  29.324  30.290  1.00  0.00     0.131 A 
ATOM     76  C   UNL A   1      46.259  26.186  28.796  1.00  0.00     0.055 A 
ATOM     77  C   UNL A   1      48.556  28.116  29.553  1.00  0.00     0.041 A 
ATOM     78  F   UNL A   1      48.080  30.418  30.807  1.00  0.00    -0.206 F 
ATOM     79  C   UNL A   1      47.957  26.619  28.832  1.00  0.00     0.022 A 
BRANCH  76  80
ATOM     80  S   UNL A   1      45.684  25.213  27.357  1.00  0.00     0.124 S 
ATOM     81  O   UNL A   1      45.721  26.197  26.284  1.00  0.00    -0.237 OA
ATOM     82  O   UNL A   1      46.675  24.141  27.274  1.00  0.00    -0.237 OA
ATOM     83  O   UNL A   1      44.355  24.776  27.777  1.00  0.00    -0.744 OA
ENDBRANCH  76  80
ENDBRANCH  49  73
BRANCH  61  84
ATOM     84  C   UNL A   1      42.751  35.970  28.910  1.00  0.00     0.023 A 
ATOM     85  C   UNL A   1      42.923  37.241  29.454  1.00  0.00     0.031 A 
ATOM     86  C   UNL A   1      42.438  35.959  27.519  1.00  0.00     0.131 A 
ATOM     87  C   UNL A   1      42.830  38.402  28.666  1.00  0.00     0.055 A 
ATOM     88  C   UNL A   1      42.349  37.112  26.732  1.00  0.00     0.041 A 
ATOM     89  F   UNL A   1      42.211  34.833  26.831  1.00  0.00    -0.206 F 
ATOM     90  C   UNL A   1      42.552  38.350  27.306  1.00  0.00     0.022 A 
BRANCH  87  91
ATOM     91  S   UNL A   1      43.087  39.986  29.495  1.00  0.00     0.124 S 
ATOM     92  O   UNL A   1      43.382  39.569  30.864  1.00  0.00    -0.237 OA
ATOM     93  O   UNL A   1      44.211  40.539  28.746  1.00  0.00    -0.237 OA
ATOM     94  O   UNL A   1      41.814  40.679  29.316  1.00  0.00    -0.744 OA
ENDBRANCH  87  91
ENDBRANCH  61  84
ENDBRANCH  35  36
ENDBRANCH  28  30
ENDBRANCH  27  28
ENDBRANCH  26  27
ENDBRANCH  25  26
ENDBRANCH   1  25
TORSDOF 20
ENDMDL
