MODEL 1
REMARK VINA RESULT:     -13.2      0.000      0.000
REMARK SMILES Cc1c(C(=O)OCCOCCOC(=O)c2ccc(-c3c4nc(c(-c5cc(S(=O)(=O)[O-])ccc5F)c5ccc([nH]5)c(-c5cc(S(=O)(=O)[O-])ccc5F)c5nc(c(-c6cc(S(=O)(=O)[O-])ccc6F)c6ccc3[nH]6)C=C5)C=C4)cc2)cccc1-n1c(C)cc(/C=C2/C(=O)NC(=S)N=C2O)c1C
REMARK SMILES IDX 9 1 8 2 7 3 6 4 4 5 5 6 3 7 1 8 2 9 81 10 78 11 80 12 79 13
REMARK SMILES IDX 82 14 83 15 97 16 84 17 85 18 86 19 98 20 87 21 88 22 89 23
REMARK SMILES IDX 95 24 90 25 91 26 94 27 92 28 93 30 96 31 10 33 11 34 12 35
REMARK SMILES IDX 13 36 14 37 15 38 16 39 77 40 17 41 76 42 18 43 19 44 20 45
REMARK SMILES IDX 70 46 21 47 75 48 69 49 71 50 22 51 74 52 68 53 67 54 23 56
REMARK SMILES IDX 55 57 35 58 54 59 36 60 39 61 53 62 72 63 37 64 38 65 52 67
REMARK SMILES IDX 73 68 40 69 24 70 25 71 33 72 26 73 32 74 34 75 31 76 27 77
REMARK SMILES IDX 28 78 29 79 30 80 56 81 57 82 65 83 58 84 64 85 66 86 63 87
REMARK SMILES IDX 59 88 60 89 61 90 62 91 41 92 42 93 50 94 43 95 49 96 51 97
REMARK SMILES IDX 48 98 44 99 45 100 46 101 47 102
REMARK H PARENT 91 29 96 32 71 55 39 66
REMARK Flexibility Score: inf
ROOT
ATOM      1  O   UNL A   1      41.631  19.325  25.443  1.00  0.00    -0.374 OA
ENDROOT
BRANCH   1   2
ATOM      2  C   UNL A   1      40.630  19.737  26.358  1.00  0.00     0.202 C 
BRANCH   2   3
ATOM      3  C   UNL A   1      40.316  21.132  25.962  1.00  0.00     0.261 C 
BRANCH   3   4
ATOM      4  O   UNL A   1      38.932  21.322  25.636  1.00  0.00    -0.460 OA
BRANCH   4   5
ATOM      5  C   UNL A   1      38.188  22.436  25.759  1.00  0.00     0.338 C 
ATOM      6  O   UNL A   1      38.547  23.553  26.018  1.00  0.00    -0.246 OA
BRANCH   5   7
ATOM      7  C   UNL A   1      36.783  22.014  25.411  1.00  0.00     0.065 A 
ATOM      8  C   UNL A   1      35.722  24.227  26.192  1.00  0.00     0.047 C 
ATOM      9  C   UNL A   1      35.643  22.842  25.590  1.00  0.00    -0.012 A 
ATOM     10  C   UNL A   1      34.377  22.287  25.358  1.00  0.00     0.049 A 
ATOM     11  C   UNL A   1      36.612  20.668  25.037  1.00  0.00     0.016 A 
ATOM     12  C   UNL A   1      34.208  20.933  25.055  1.00  0.00     0.027 A 
ATOM     13  C   UNL A   1      35.331  20.127  24.886  1.00  0.00     0.003 A 
BRANCH  10  14
ATOM     14  N   UNL A   1      33.234  23.059  25.661  1.00  0.00    -0.318 N 
ATOM     15  C   UNL A   1      32.576  23.096  26.885  1.00  0.00     0.020 A 
ATOM     16  C   UNL A   1      32.353  23.519  24.682  1.00  0.00     0.027 A 
ATOM     17  C   UNL A   1      32.986  22.304  28.084  1.00  0.00     0.065 C 
ATOM     18  C   UNL A   1      31.476  23.912  26.715  1.00  0.00     0.031 A 
ATOM     19  C   UNL A   1      31.385  24.257  25.338  1.00  0.00    -0.003 A 
ATOM     20  C   UNL A   1      32.493  23.081  23.256  1.00  0.00     0.065 C 
BRANCH  19  21
ATOM     21  C   UNL A   1      30.320  25.037  24.799  1.00  0.00     0.029 C 
ATOM     22  C   UNL A   1      30.275  26.318  24.389  1.00  0.00     0.102 C 
ATOM     23  C   UNL A   1      28.967  26.783  23.864  1.00  0.00     0.262 C 
ATOM     24  C   UNL A   1      31.321  27.342  24.328  1.00  0.00     0.226 C 
ATOM     25  O   UNL A   1      27.893  26.229  24.069  1.00  0.00    -0.269 OA
ATOM     26  N   UNL A   1      29.044  27.932  23.124  1.00  0.00    -0.297 N 
ATOM     27  N   UNL A   1      31.291  28.433  23.651  1.00  0.00    -0.184 NA
ATOM     28  C   UNL A   1      30.156  28.715  22.942  1.00  0.00     0.203 C 
ATOM     29  H   UNL A   1      28.218  28.226  22.677  1.00  0.00     0.172 HD
ATOM     30  S   UNL A   1      30.017  30.037  21.919  1.00  0.00    -0.038 S 
BRANCH  24  31
ATOM     31  O   UNL A   1      32.386  27.168  25.109  1.00  0.00    -0.493 OA
ATOM     32  H   UNL A   1      33.146  27.703  24.991  1.00  0.00     0.295 HD
ENDBRANCH  24  31
ENDBRANCH  19  21
ENDBRANCH  10  14
ENDBRANCH   5   7
ENDBRANCH   4   5
ENDBRANCH   3   4
ENDBRANCH   2   3
ENDBRANCH   1   2
BRANCH   1  33
ATOM     33  C   UNL A   1      42.830  18.892  26.037  1.00  0.00     0.202 C 
BRANCH  33  34
ATOM     34  C   UNL A   1      43.998  18.910  25.043  1.00  0.00     0.261 C 
BRANCH  34  35
ATOM     35  O   UNL A   1      44.109  20.227  24.451  1.00  0.00    -0.460 OA
BRANCH  35  36
ATOM     36  C   UNL A   1      44.880  21.135  25.119  1.00  0.00     0.338 C 
ATOM     37  O   UNL A   1      46.016  20.933  25.513  1.00  0.00    -0.246 OA
BRANCH  36  38
ATOM     38  C   UNL A   1      44.073  22.351  25.449  1.00  0.00     0.060 A 
ATOM     39  C   UNL A   1      43.966  23.423  24.535  1.00  0.00     0.016 A 
ATOM     40  C   UNL A   1      43.695  22.539  26.774  1.00  0.00     0.016 A 
ATOM     41  C   UNL A   1      43.617  24.713  24.985  1.00  0.00     0.010 A 
ATOM     42  C   UNL A   1      43.477  23.823  27.225  1.00  0.00     0.010 A 
ATOM     43  C   UNL A   1      43.450  24.927  26.352  1.00  0.00    -0.014 A 
BRANCH  43  44
ATOM     44  C   UNL A   1      43.404  26.223  27.042  1.00  0.00     0.031 A 
ATOM     45  C   UNL A   1      42.096  26.893  27.189  1.00  0.00     0.074 A 
ATOM     46  C   UNL A   1      44.426  26.640  27.831  1.00  0.00     0.049 A 
ATOM     47  N   UNL A   1      41.961  28.135  27.496  1.00  0.00    -0.248 NA
ATOM     48  C   UNL A   1      40.816  26.214  26.998  1.00  0.00     0.031 C 
ATOM     49  C   UNL A   1      44.363  27.484  29.028  1.00  0.00     0.029 A 
ATOM     50  N   UNL A   1      45.785  26.345  27.740  1.00  0.00    -0.354 N 
ATOM     51  C   UNL A   1      40.667  28.292  27.929  1.00  0.00     0.074 A 
ATOM     52  C   UNL A   1      39.964  27.116  27.483  1.00  0.00     0.031 C 
ATOM     53  C   UNL A   1      45.609  27.819  29.414  1.00  0.00     0.029 A 
ATOM     54  C   UNL A   1      46.526  27.338  28.394  1.00  0.00     0.049 A 
ATOM     55  H   UNL A   1      46.165  25.557  27.287  1.00  0.00     0.167 HD
ATOM     56  C   UNL A   1      40.361  29.289  28.802  1.00  0.00     0.034 A 
ATOM     57  C   UNL A   1      47.517  28.002  27.741  1.00  0.00     0.034 A 
ATOM     58  C   UNL A   1      41.568  29.999  29.258  1.00  0.00     0.049 A 
ATOM     59  C   UNL A   1      47.066  29.445  27.589  1.00  0.00     0.074 A 
ATOM     60  C   UNL A   1      42.254  30.053  30.463  1.00  0.00     0.029 A 
ATOM     61  N   UNL A   1      42.432  30.558  28.322  1.00  0.00    -0.354 N 
ATOM     62  N   UNL A   1      45.888  29.855  27.981  1.00  0.00    -0.248 NA
ATOM     63  C   UNL A   1      47.837  30.532  27.005  1.00  0.00     0.031 C 
ATOM     64  C   UNL A   1      43.512  30.690  30.237  1.00  0.00     0.029 A 
ATOM     65  C   UNL A   1      43.588  31.044  28.902  1.00  0.00     0.049 A 
ATOM     66  H   UNL A   1      42.241  30.603  27.357  1.00  0.00     0.167 HD
ATOM     67  C   UNL A   1      45.708  31.177  27.730  1.00  0.00     0.074 A 
ATOM     68  C   UNL A   1      46.954  31.549  27.067  1.00  0.00     0.031 C 
ATOM     69  C   UNL A   1      44.540  31.803  28.091  1.00  0.00     0.034 A 
BRANCH  56  70
ATOM     70  C   UNL A   1      39.005  29.403  29.465  1.00  0.00     0.023 A 
ATOM     71  C   UNL A   1      38.079  30.348  28.992  1.00  0.00     0.031 A 
ATOM     72  C   UNL A   1      38.553  28.607  30.541  1.00  0.00     0.131 A 
ATOM     73  C   UNL A   1      36.842  30.549  29.629  1.00  0.00     0.055 A 
ATOM     74  C   UNL A   1      37.357  28.858  31.227  1.00  0.00     0.041 A 
ATOM     75  F   UNL A   1      39.217  27.512  30.936  1.00  0.00    -0.206 F 
ATOM     76  C   UNL A   1      36.494  29.842  30.776  1.00  0.00     0.022 A 
BRANCH  73  77
ATOM     77  S   UNL A   1      35.662  31.706  28.888  1.00  0.00     0.124 S 
ATOM     78  O   UNL A   1      34.816  32.053  30.026  1.00  0.00    -0.237 OA
ATOM     79  O   UNL A   1      36.537  32.761  28.389  1.00  0.00    -0.237 OA
ATOM     80  O   UNL A   1      35.009  30.907  27.851  1.00  0.00    -0.744 OA
ENDBRANCH  73  77
ENDBRANCH  56  70
BRANCH  57  81
ATOM     81  C   UNL A   1      48.210  27.094  26.750  1.00  0.00     0.023 A 
ATOM     82  C   UNL A   1      47.945  27.257  25.353  1.00  0.00     0.031 A 
ATOM     83  C   UNL A   1      49.434  26.497  27.095  1.00  0.00     0.131 A 
ATOM     84  C   UNL A   1      48.931  26.945  24.386  1.00  0.00     0.055 A 
ATOM     85  C   UNL A   1      50.415  26.218  26.132  1.00  0.00     0.041 A 
ATOM     86  F   UNL A   1      49.764  26.325  28.384  1.00  0.00    -0.206 F 
ATOM     87  C   UNL A   1      50.183  26.476  24.783  1.00  0.00     0.022 A 
BRANCH  84  88
ATOM     88  S   UNL A   1      48.707  27.362  22.614  1.00  0.00     0.124 S 
ATOM     89  O   UNL A   1      48.683  26.049  21.985  1.00  0.00    -0.237 OA
ATOM     90  O   UNL A   1      47.450  28.094  22.594  1.00  0.00    -0.237 OA
ATOM     91  O   UNL A   1      49.875  28.191  22.312  1.00  0.00    -0.744 OA
ENDBRANCH  84  88
ENDBRANCH  57  81
BRANCH  69  92
ATOM     92  C   UNL A   1      44.167  33.209  27.697  1.00  0.00     0.023 A 
ATOM     93  C   UNL A   1      44.031  34.228  28.637  1.00  0.00     0.031 A 
ATOM     94  C   UNL A   1      43.954  33.588  26.347  1.00  0.00     0.131 A 
ATOM     95  C   UNL A   1      43.893  35.562  28.236  1.00  0.00     0.055 A 
ATOM     96  C   UNL A   1      43.723  34.905  25.952  1.00  0.00     0.041 A 
ATOM     97  F   UNL A   1      43.993  32.715  25.333  1.00  0.00    -0.206 F 
ATOM     98  C   UNL A   1      43.733  35.913  26.898  1.00  0.00     0.022 A 
BRANCH  95  99
ATOM     99  S   UNL A   1      44.047  36.832  29.508  1.00  0.00     0.124 S 
ATOM    100  O   UNL A   1      45.486  37.072  29.540  1.00  0.00    -0.237 OA
ATOM    101  O   UNL A   1      43.240  37.912  28.945  1.00  0.00    -0.237 OA
ATOM    102  O   UNL A   1      43.492  36.194  30.699  1.00  0.00    -0.744 OA
ENDBRANCH  95  99
ENDBRANCH  69  92
ENDBRANCH  43  44
ENDBRANCH  36  38
ENDBRANCH  35  36
ENDBRANCH  34  35
ENDBRANCH  33  34
ENDBRANCH   1  33
TORSDOF 20
ENDMDL
MODEL 2
REMARK VINA RESULT:     -13.0      5.281     11.348
REMARK SMILES Cc1c(C(=O)OCCOCCOC(=O)c2ccc(-c3c4nc(c(-c5cc(S(=O)(=O)[O-])ccc5F)c5ccc([nH]5)c(-c5cc(S(=O)(=O)[O-])ccc5F)c5nc(c(-c6cc(S(=O)(=O)[O-])ccc6F)c6ccc3[nH]6)C=C5)C=C4)cc2)cccc1-n1c(C)cc(/C=C2/C(=O)NC(=S)N=C2O)c1C
REMARK SMILES IDX 9 1 8 2 7 3 6 4 4 5 5 6 3 7 1 8 2 9 81 10 78 11 80 12 79 13
REMARK SMILES IDX 82 14 83 15 97 16 84 17 85 18 86 19 98 20 87 21 88 22 89 23
REMARK SMILES IDX 95 24 90 25 91 26 94 27 92 28 93 30 96 31 10 33 11 34 12 35
REMARK SMILES IDX 13 36 14 37 15 38 16 39 77 40 17 41 76 42 18 43 19 44 20 45
REMARK SMILES IDX 70 46 21 47 75 48 69 49 71 50 22 51 74 52 68 53 67 54 23 56
REMARK SMILES IDX 55 57 35 58 54 59 36 60 39 61 53 62 72 63 37 64 38 65 52 67
REMARK SMILES IDX 73 68 40 69 24 70 25 71 33 72 26 73 32 74 34 75 31 76 27 77
REMARK SMILES IDX 28 78 29 79 30 80 56 81 57 82 65 83 58 84 64 85 66 86 63 87
REMARK SMILES IDX 59 88 60 89 61 90 62 91 41 92 42 93 50 94 43 95 49 96 51 97
REMARK SMILES IDX 48 98 44 99 45 100 46 101 47 102
REMARK H PARENT 91 29 96 32 71 55 39 66
REMARK Flexibility Score: inf
ROOT
ATOM      1  O   UNL A   1      32.871  34.341  29.133  1.00  0.00    -0.374 OA
ENDROOT
BRANCH   1   2
ATOM      2  C   UNL A   1      33.263  33.837  27.868  1.00  0.00     0.202 C 
BRANCH   2   3
ATOM      3  C   UNL A   1      33.972  32.569  28.176  1.00  0.00     0.261 C 
BRANCH   3   4
ATOM      4  O   UNL A   1      33.277  31.410  27.696  1.00  0.00    -0.460 OA
BRANCH   4   5
ATOM      5  C   UNL A   1      33.769  30.184  27.441  1.00  0.00     0.338 C 
ATOM      6  O   UNL A   1      34.682  29.616  27.978  1.00  0.00    -0.246 OA
BRANCH   5   7
ATOM      7  C   UNL A   1      32.869  29.609  26.376  1.00  0.00     0.065 A 
ATOM      8  C   UNL A   1      34.415  27.611  25.881  1.00  0.00     0.047 C 
ATOM      9  C   UNL A   1      33.151  28.413  25.667  1.00  0.00    -0.012 A 
ATOM     10  C   UNL A   1      32.306  28.055  24.607  1.00  0.00     0.049 A 
ATOM     11  C   UNL A   1      31.779  30.408  25.985  1.00  0.00     0.016 A 
ATOM     12  C   UNL A   1      31.268  28.886  24.177  1.00  0.00     0.027 A 
ATOM     13  C   UNL A   1      31.001  30.061  24.877  1.00  0.00     0.003 A 
BRANCH  10  14
ATOM     14  N   UNL A   1      32.653  26.941  23.811  1.00  0.00    -0.318 N 
ATOM     15  C   UNL A   1      33.413  26.976  22.648  1.00  0.00     0.020 A 
ATOM     16  C   UNL A   1      31.921  25.754  23.814  1.00  0.00     0.027 A 
ATOM     17  C   UNL A   1      33.983  28.222  22.052  1.00  0.00     0.065 C 
ATOM     18  C   UNL A   1      33.439  25.686  22.157  1.00  0.00     0.031 A 
ATOM     19  C   UNL A   1      32.567  24.889  22.950  1.00  0.00    -0.003 A 
ATOM     20  C   UNL A   1      30.623  25.654  24.558  1.00  0.00     0.065 C 
BRANCH  19  21
ATOM     21  C   UNL A   1      32.301  23.515  22.676  1.00  0.00     0.029 C 
ATOM     22  C   UNL A   1      32.714  22.391  23.289  1.00  0.00     0.102 C 
ATOM     23  C   UNL A   1      32.209  21.119  22.715  1.00  0.00     0.262 C 
ATOM     24  C   UNL A   1      33.555  22.198  24.473  1.00  0.00     0.226 C 
ATOM     25  O   UNL A   1      31.741  20.996  21.589  1.00  0.00    -0.269 OA
ATOM     26  N   UNL A   1      32.326  20.046  23.556  1.00  0.00    -0.297 N 
ATOM     27  N   UNL A   1      33.657  21.129  25.178  1.00  0.00    -0.184 NA
ATOM     28  C   UNL A   1      32.955  20.027  24.775  1.00  0.00     0.203 C 
ATOM     29  H   UNL A   1      31.919  19.201  23.256  1.00  0.00     0.172 HD
ATOM     30  S   UNL A   1      32.894  18.603  25.659  1.00  0.00    -0.038 S 
BRANCH  24  31
ATOM     31  O   UNL A   1      34.355  23.205  24.820  1.00  0.00    -0.493 OA
ATOM     32  H   UNL A   1      34.475  23.418  25.724  1.00  0.00     0.295 HD
ENDBRANCH  24  31
ENDBRANCH  19  21
ENDBRANCH  10  14
ENDBRANCH   5   7
ENDBRANCH   4   5
ENDBRANCH   3   4
ENDBRANCH   2   3
ENDBRANCH   1   2
BRANCH   1  33
ATOM     33  C   UNL A   1      33.163  35.701  29.340  1.00  0.00     0.202 C 
BRANCH  33  34
ATOM     34  C   UNL A   1      32.857  36.136  30.779  1.00  0.00     0.261 C 
BRANCH  34  35
ATOM     35  O   UNL A   1      33.145  35.046  31.687  1.00  0.00    -0.460 OA
BRANCH  35  36
ATOM     36  C   UNL A   1      34.381  35.044  32.268  1.00  0.00     0.338 C 
ATOM     37  O   UNL A   1      34.874  35.985  32.866  1.00  0.00    -0.246 OA
BRANCH  36  38
ATOM     38  C   UNL A   1      35.111  33.786  31.920  1.00  0.00     0.060 A 
ATOM     39  C   UNL A   1      35.050  32.653  32.763  1.00  0.00     0.016 A 
ATOM     40  C   UNL A   1      36.087  33.852  30.932  1.00  0.00     0.016 A 
ATOM     41  C   UNL A   1      36.053  31.663  32.704  1.00  0.00     0.010 A 
ATOM     42  C   UNL A   1      37.127  32.948  30.964  1.00  0.00     0.010 A 
ATOM     43  C   UNL A   1      37.139  31.857  31.852  1.00  0.00    -0.014 A 
BRANCH  43  44
ATOM     44  C   UNL A   1      38.415  31.128  31.873  1.00  0.00     0.031 A 
ATOM     45  C   UNL A   1      38.541  29.912  31.045  1.00  0.00     0.074 A 
ATOM     46  C   UNL A   1      39.554  31.709  32.329  1.00  0.00     0.049 A 
ATOM     47  N   UNL A   1      39.473  29.038  31.199  1.00  0.00    -0.248 NA
ATOM     48  C   UNL A   1      37.617  29.571  29.964  1.00  0.00     0.031 C 
ATOM     49  C   UNL A   1      40.932  31.473  31.892  1.00  0.00     0.029 A 
ATOM     50  N   UNL A   1      39.708  32.705  33.292  1.00  0.00    -0.354 N 
ATOM     51  C   UNL A   1      39.511  28.299  30.041  1.00  0.00     0.074 A 
ATOM     52  C   UNL A   1      38.268  28.576  29.365  1.00  0.00     0.031 C 
ATOM     53  C   UNL A   1      41.786  32.108  32.717  1.00  0.00     0.029 A 
ATOM     54  C   UNL A   1      41.006  32.654  33.816  1.00  0.00     0.049 A 
ATOM     55  H   UNL A   1      39.011  33.346  33.562  1.00  0.00     0.167 HD
ATOM     56  C   UNL A   1      40.668  27.695  29.660  1.00  0.00     0.034 A 
ATOM     57  C   UNL A   1      41.207  32.542  35.156  1.00  0.00     0.034 A 
ATOM     58  C   UNL A   1      41.786  28.060  30.546  1.00  0.00     0.049 A 
ATOM     59  C   UNL A   1      41.822  31.175  35.405  1.00  0.00     0.074 A 
ATOM     60  C   UNL A   1      42.919  28.846  30.389  1.00  0.00     0.029 A 
ATOM     61  N   UNL A   1      41.675  27.850  31.916  1.00  0.00    -0.354 N 
ATOM     62  N   UNL A   1      42.015  30.309  34.445  1.00  0.00    -0.248 NA
ATOM     63  C   UNL A   1      42.262  30.649  36.689  1.00  0.00     0.031 C 
ATOM     64  C   UNL A   1      43.500  29.060  31.676  1.00  0.00     0.029 A 
ATOM     65  C   UNL A   1      42.738  28.389  32.616  1.00  0.00     0.049 A 
ATOM     66  H   UNL A   1      40.926  27.372  32.339  1.00  0.00     0.167 HD
ATOM     67  C   UNL A   1      42.564  29.159  34.910  1.00  0.00     0.074 A 
ATOM     68  C   UNL A   1      42.657  29.406  36.346  1.00  0.00     0.031 C 
ATOM     69  C   UNL A   1      42.865  28.131  34.050  1.00  0.00     0.034 A 
BRANCH  56  70
ATOM     70  C   UNL A   1      40.833  27.030  28.311  1.00  0.00     0.023 A 
ATOM     71  C   UNL A   1      40.866  25.627  28.228  1.00  0.00     0.031 A 
ATOM     72  C   UNL A   1      40.940  27.705  27.075  1.00  0.00     0.131 A 
ATOM     73  C   UNL A   1      41.104  24.967  27.010  1.00  0.00     0.055 A 
ATOM     74  C   UNL A   1      41.256  27.056  25.873  1.00  0.00     0.041 A 
ATOM     75  F   UNL A   1      40.681  29.016  26.963  1.00  0.00    -0.206 F 
ATOM     76  C   UNL A   1      41.347  25.676  25.837  1.00  0.00     0.022 A 
BRANCH  73  77
ATOM     77  S   UNL A   1      41.018  23.158  26.972  1.00  0.00     0.124 S 
ATOM     78  O   UNL A   1      41.506  22.800  28.300  1.00  0.00    -0.237 OA
ATOM     79  O   UNL A   1      39.602  22.921  26.719  1.00  0.00    -0.237 OA
ATOM     80  O   UNL A   1      41.908  22.800  25.867  1.00  0.00    -0.744 OA
ENDBRANCH  73  77
ENDBRANCH  56  70
BRANCH  57  81
ATOM     81  C   UNL A   1      40.127  33.272  35.924  1.00  0.00     0.023 A 
ATOM     82  C   UNL A   1      39.087  32.516  36.553  1.00  0.00     0.031 A 
ATOM     83  C   UNL A   1      40.397  34.543  36.459  1.00  0.00     0.131 A 
ATOM     84  C   UNL A   1      38.460  32.986  37.732  1.00  0.00     0.055 A 
ATOM     85  C   UNL A   1      39.790  34.987  37.644  1.00  0.00     0.041 A 
ATOM     86  F   UNL A   1      41.369  35.305  35.937  1.00  0.00    -0.206 F 
ATOM     87  C   UNL A   1      38.852  34.197  38.304  1.00  0.00     0.022 A 
BRANCH  84  88
ATOM     88  S   UNL A   1      37.297  31.938  38.686  1.00  0.00     0.124 S 
ATOM     89  O   UNL A   1      36.067  32.718  38.644  1.00  0.00    -0.237 OA
ATOM     90  O   UNL A   1      37.276  30.688  37.941  1.00  0.00    -0.237 OA
ATOM     91  O   UNL A   1      37.937  31.830  39.998  1.00  0.00    -0.744 OA
ENDBRANCH  84  88
ENDBRANCH  57  81
BRANCH  69  92
ATOM     92  C   UNL A   1      43.302  26.755  34.482  1.00  0.00     0.023 A 
ATOM     93  C   UNL A   1      44.629  26.340  34.398  1.00  0.00     0.031 A 
ATOM     94  C   UNL A   1      42.396  25.805  35.021  1.00  0.00     0.131 A 
ATOM     95  C   UNL A   1      45.048  25.146  34.995  1.00  0.00     0.055 A 
ATOM     96  C   UNL A   1      42.799  24.572  35.533  1.00  0.00     0.041 A 
ATOM     97  F   UNL A   1      41.080  26.030  35.116  1.00  0.00    -0.206 F 
ATOM     98  C   UNL A   1      44.143  24.252  35.561  1.00  0.00     0.022 A 
BRANCH  95  99
ATOM     99  S   UNL A   1      46.825  24.854  35.112  1.00  0.00     0.124 S 
ATOM    100  O   UNL A   1      47.279  25.997  35.898  1.00  0.00    -0.237 OA
ATOM    101  O   UNL A   1      46.867  23.563  35.794  1.00  0.00    -0.237 OA
ATOM    102  O   UNL A   1      47.263  24.839  33.719  1.00  0.00    -0.744 OA
ENDBRANCH  95  99
ENDBRANCH  69  92
ENDBRANCH  43  44
ENDBRANCH  36  38
ENDBRANCH  35  36
ENDBRANCH  34  35
ENDBRANCH  33  34
ENDBRANCH   1  33
TORSDOF 20
ENDMDL
MODEL 3
REMARK VINA RESULT:     -12.2      3.966     10.475
REMARK SMILES Cc1c(C(=O)OCCOCCOC(=O)c2ccc(-c3c4nc(c(-c5cc(S(=O)(=O)[O-])ccc5F)c5ccc([nH]5)c(-c5cc(S(=O)(=O)[O-])ccc5F)c5nc(c(-c6cc(S(=O)(=O)[O-])ccc6F)c6ccc3[nH]6)C=C5)C=C4)cc2)cccc1-n1c(C)cc(/C=C2/C(=O)NC(=S)N=C2O)c1C
REMARK SMILES IDX 9 1 8 2 7 3 6 4 4 5 5 6 3 7 1 8 2 9 81 10 78 11 80 12 79 13
REMARK SMILES IDX 82 14 83 15 97 16 84 17 85 18 86 19 98 20 87 21 88 22 89 23
REMARK SMILES IDX 95 24 90 25 91 26 94 27 92 28 93 30 96 31 10 33 11 34 12 35
REMARK SMILES IDX 13 36 14 37 15 38 16 39 77 40 17 41 76 42 18 43 19 44 20 45
REMARK SMILES IDX 70 46 21 47 75 48 69 49 71 50 22 51 74 52 68 53 67 54 23 56
REMARK SMILES IDX 55 57 35 58 54 59 36 60 39 61 53 62 72 63 37 64 38 65 52 67
REMARK SMILES IDX 73 68 40 69 24 70 25 71 33 72 26 73 32 74 34 75 31 76 27 77
REMARK SMILES IDX 28 78 29 79 30 80 56 81 57 82 65 83 58 84 64 85 66 86 63 87
REMARK SMILES IDX 59 88 60 89 61 90 62 91 41 92 42 93 50 94 43 95 49 96 51 97
REMARK SMILES IDX 48 98 44 99 45 100 46 101 47 102
REMARK H PARENT 91 29 96 32 71 55 39 66
REMARK Flexibility Score: inf
ROOT
ATOM      1  O   UNL A   1      33.173  29.580  26.150  1.00  0.00    -0.374 OA
ENDROOT
BRANCH   1   2
ATOM      2  C   UNL A   1      32.460  29.815  24.948  1.00  0.00     0.202 C 
BRANCH   2   3
ATOM      3  C   UNL A   1      31.343  28.838  24.980  1.00  0.00     0.261 C 
BRANCH   3   4
ATOM      4  O   UNL A   1      31.766  27.519  25.352  1.00  0.00    -0.460 OA
BRANCH   4   5
ATOM      5  C   UNL A   1      31.471  26.829  26.469  1.00  0.00     0.338 C 
ATOM      6  O   UNL A   1      31.028  27.238  27.509  1.00  0.00    -0.246 OA
BRANCH   5   7
ATOM      7  C   UNL A   1      31.731  25.384  26.122  1.00  0.00     0.065 A 
ATOM      8  C   UNL A   1      34.247  25.738  25.707  1.00  0.00     0.047 C 
ATOM      9  C   UNL A   1      33.011  24.871  25.789  1.00  0.00    -0.012 A 
ATOM     10  C   UNL A   1      33.100  23.541  25.353  1.00  0.00     0.049 A 
ATOM     11  C   UNL A   1      30.595  24.565  25.982  1.00  0.00     0.016 A 
ATOM     12  C   UNL A   1      31.964  22.754  25.148  1.00  0.00     0.027 A 
ATOM     13  C   UNL A   1      30.710  23.268  25.473  1.00  0.00     0.003 A 
BRANCH  10  14
ATOM     14  N   UNL A   1      34.346  23.062  24.892  1.00  0.00    -0.318 N 
ATOM     15  C   UNL A   1      34.736  22.951  23.563  1.00  0.00     0.020 A 
ATOM     16  C   UNL A   1      35.158  22.221  25.652  1.00  0.00     0.027 A 
ATOM     17  C   UNL A   1      33.876  23.327  22.400  1.00  0.00     0.065 C 
ATOM     18  C   UNL A   1      35.987  22.368  23.567  1.00  0.00     0.031 A 
ATOM     19  C   UNL A   1      36.297  21.988  24.903  1.00  0.00    -0.003 A 
ATOM     20  C   UNL A   1      34.674  21.653  26.952  1.00  0.00     0.065 C 
BRANCH  19  21
ATOM     21  C   UNL A   1      37.490  21.292  25.258  1.00  0.00     0.029 C 
ATOM     22  C   UNL A   1      38.628  21.717  25.838  1.00  0.00     0.102 C 
ATOM     23  C   UNL A   1      39.663  20.679  26.066  1.00  0.00     0.262 C 
ATOM     24  C   UNL A   1      39.015  23.040  26.332  1.00  0.00     0.226 C 
ATOM     25  O   UNL A   1      39.701  19.592  25.501  1.00  0.00    -0.269 OA
ATOM     26  N   UNL A   1      40.622  21.043  26.972  1.00  0.00    -0.297 N 
ATOM     27  N   UNL A   1      39.977  23.308  27.141  1.00  0.00    -0.184 NA
ATOM     28  C   UNL A   1      40.767  22.273  27.561  1.00  0.00     0.203 C 
ATOM     29  H   UNL A   1      41.276  20.352  27.226  1.00  0.00     0.172 HD
ATOM     30  S   UNL A   1      41.979  22.450  28.706  1.00  0.00    -0.038 S 
BRANCH  24  31
ATOM     31  O   UNL A   1      38.355  24.089  25.843  1.00  0.00    -0.493 OA
ATOM     32  H   UNL A   1      38.474  24.341  24.948  1.00  0.00     0.295 HD
ENDBRANCH  24  31
ENDBRANCH  19  21
ENDBRANCH  10  14
ENDBRANCH   5   7
ENDBRANCH   4   5
ENDBRANCH   3   4
ENDBRANCH   2   3
ENDBRANCH   1   2
BRANCH   1  33
ATOM     33  C   UNL A   1      32.794  30.400  27.228  1.00  0.00     0.202 C 
BRANCH  33  34
ATOM     34  C   UNL A   1      33.829  31.500  27.498  1.00  0.00     0.261 C 
BRANCH  34  35
ATOM     35  O   UNL A   1      35.152  30.916  27.566  1.00  0.00    -0.460 OA
BRANCH  35  36
ATOM     36  C   UNL A   1      35.791  30.989  28.770  1.00  0.00     0.338 C 
ATOM     37  O   UNL A   1      35.603  31.852  29.611  1.00  0.00    -0.246 OA
BRANCH  36  38
ATOM     38  C   UNL A   1      36.874  29.960  28.842  1.00  0.00     0.060 A 
ATOM     39  C   UNL A   1      36.990  29.102  29.959  1.00  0.00     0.016 A 
ATOM     40  C   UNL A   1      37.936  30.070  27.950  1.00  0.00     0.016 A 
ATOM     41  C   UNL A   1      38.217  28.473  30.252  1.00  0.00     0.010 A 
ATOM     42  C   UNL A   1      39.161  29.553  28.310  1.00  0.00     0.010 A 
ATOM     43  C   UNL A   1      39.329  28.767  29.465  1.00  0.00    -0.014 A 
BRANCH  43  44
ATOM     44  C   UNL A   1      40.735  28.479  29.783  1.00  0.00     0.031 A 
ATOM     45  C   UNL A   1      41.399  27.365  29.077  1.00  0.00     0.074 A 
ATOM     46  C   UNL A   1      41.517  29.389  30.415  1.00  0.00     0.049 A 
ATOM     47  N   UNL A   1      42.503  26.830  29.467  1.00  0.00    -0.248 NA
ATOM     48  C   UNL A   1      40.870  26.750  27.860  1.00  0.00     0.031 C 
ATOM     49  C   UNL A   1      42.960  29.601  30.273  1.00  0.00     0.029 A 
ATOM     50  N   UNL A   1      41.152  30.383  31.323  1.00  0.00    -0.354 N 
ATOM     51  C   UNL A   1      43.006  26.142  28.390  1.00  0.00     0.074 A 
ATOM     52  C   UNL A   1      41.907  26.012  27.466  1.00  0.00     0.031 C 
ATOM     53  C   UNL A   1      43.385  30.474  31.207  1.00  0.00     0.029 A 
ATOM     54  C   UNL A   1      42.265  30.745  32.093  1.00  0.00     0.049 A 
ATOM     55  H   UNL A   1      40.252  30.770  31.408  1.00  0.00     0.167 HD
ATOM     56  C   UNL A   1      44.346  25.935  28.284  1.00  0.00     0.034 A 
ATOM     57  C   UNL A   1      42.209  30.702  33.451  1.00  0.00     0.034 A 
ATOM     58  C   UNL A   1      45.087  26.635  29.346  1.00  0.00     0.049 A 
ATOM     59  C   UNL A   1      43.152  29.600  33.904  1.00  0.00     0.074 A 
ATOM     60  C   UNL A   1      45.927  27.738  29.364  1.00  0.00     0.029 A 
ATOM     61  N   UNL A   1      44.765  26.400  30.679  1.00  0.00    -0.354 N 
ATOM     62  N   UNL A   1      43.797  28.839  33.060  1.00  0.00    -0.248 NA
ATOM     63  C   UNL A   1      43.457  29.239  35.281  1.00  0.00     0.031 C 
ATOM     64  C   UNL A   1      46.135  28.125  30.723  1.00  0.00     0.029 A 
ATOM     65  C   UNL A   1      45.440  27.247  31.537  1.00  0.00     0.049 A 
ATOM     66  H   UNL A   1      44.131  25.709  30.977  1.00  0.00     0.167 HD
ATOM     67  C   UNL A   1      44.567  27.921  33.698  1.00  0.00     0.074 A 
ATOM     68  C   UNL A   1      44.280  28.185  35.104  1.00  0.00     0.031 C 
ATOM     69  C   UNL A   1      45.342  27.042  32.982  1.00  0.00     0.034 A 
BRANCH  56  70
ATOM     70  C   UNL A   1      44.983  25.356  27.039  1.00  0.00     0.023 A 
ATOM     71  C   UNL A   1      44.743  24.015  26.697  1.00  0.00     0.031 A 
ATOM     72  C   UNL A   1      45.813  26.065  26.141  1.00  0.00     0.131 A 
ATOM     73  C   UNL A   1      45.381  23.410  25.599  1.00  0.00     0.055 A 
ATOM     74  C   UNL A   1      46.512  25.447  25.096  1.00  0.00     0.041 A 
ATOM     75  F   UNL A   1      45.933  27.399  26.197  1.00  0.00    -0.206 F 
ATOM     76  C   UNL A   1      46.303  24.105  24.824  1.00  0.00     0.022 A 
BRANCH  73  77
ATOM     77  S   UNL A   1      44.929  21.712  25.161  1.00  0.00     0.124 S 
ATOM     78  O   UNL A   1      43.768  21.473  26.012  1.00  0.00    -0.237 OA
ATOM     79  O   UNL A   1      44.669  21.821  23.730  1.00  0.00    -0.237 OA
ATOM     80  O   UNL A   1      46.123  20.942  25.511  1.00  0.00    -0.744 OA
ENDBRANCH  73  77
ENDBRANCH  56  70
BRANCH  57  81
ATOM     81  C   UNL A   1      40.822  31.053  33.943  1.00  0.00     0.023 A 
ATOM     82  C   UNL A   1      40.347  32.394  33.787  1.00  0.00     0.031 A 
ATOM     83  C   UNL A   1      39.848  30.046  34.048  1.00  0.00     0.131 A 
ATOM     84  C   UNL A   1      38.966  32.660  33.620  1.00  0.00     0.055 A 
ATOM     85  C   UNL A   1      38.486  30.316  33.852  1.00  0.00     0.041 A 
ATOM     86  F   UNL A   1      40.213  28.762  34.178  1.00  0.00    -0.206 F 
ATOM     87  C   UNL A   1      38.045  31.612  33.599  1.00  0.00     0.022 A 
BRANCH  84  88
ATOM     88  S   UNL A   1      38.355  34.333  33.185  1.00  0.00     0.124 S 
ATOM     89  O   UNL A   1      36.976  34.069  32.794  1.00  0.00    -0.237 OA
ATOM     90  O   UNL A   1      38.527  35.088  34.416  1.00  0.00    -0.237 OA
ATOM     91  O   UNL A   1      39.252  34.751  32.107  1.00  0.00    -0.744 OA
ENDBRANCH  84  88
ENDBRANCH  57  81
BRANCH  69  92
ATOM     92  C   UNL A   1      46.083  25.874  33.580  1.00  0.00     0.023 A 
ATOM     93  C   UNL A   1      45.425  24.847  34.253  1.00  0.00     0.031 A 
ATOM     94  C   UNL A   1      47.491  25.736  33.478  1.00  0.00     0.131 A 
ATOM     95  C   UNL A   1      46.101  23.675  34.613  1.00  0.00     0.055 A 
ATOM     96  C   UNL A   1      48.181  24.609  33.922  1.00  0.00     0.041 A 
ATOM     97  F   UNL A   1      48.273  26.664  32.912  1.00  0.00    -0.206 F 
ATOM     98  C   UNL A   1      47.478  23.546  34.458  1.00  0.00     0.022 A 
BRANCH  95  99
ATOM     99  S   UNL A   1      45.103  22.284  35.184  1.00  0.00     0.124 S 
ATOM    100  O   UNL A   1      45.415  22.238  36.609  1.00  0.00    -0.237 OA
ATOM    101  O   UNL A   1      43.754  22.731  34.848  1.00  0.00    -0.237 OA
ATOM    102  O   UNL A   1      45.602  21.159  34.397  1.00  0.00    -0.744 OA
ENDBRANCH  95  99
ENDBRANCH  69  92
ENDBRANCH  43  44
ENDBRANCH  36  38
ENDBRANCH  35  36
ENDBRANCH  34  35
ENDBRANCH  33  34
ENDBRANCH   1  33
TORSDOF 20
ENDMDL
