MODEL 1
REMARK VINA RESULT:     -10.4      0.000      0.000
REMARK SMILES CC(=O)Oc1ccc(Br)cc1C(=O)NCC(=O)OCCOCCOC(=O)c1ccc(-c2c3nc(c(-c4cc(S(=O)(=O)[O-])ccc4F)c4ccc([nH]4)c(-c4cc(S(=O)(=O)[O-])ccc4F)c4nc(c(-c5cc(S(=O)(=O)[O-])ccc5F)c5ccc2[nH]5)C=C4)C=C3)cc1
REMARK SMILES IDX 20 1 19 2 18 3 16 4 17 5 15 6 14 7 12 8 13 9 11 11 5 12 6 13
REMARK SMILES IDX 7 14 10 15 8 16 9 17 4 18 2 19 1 20 3 21 21 22 22 23 23 24
REMARK SMILES IDX 24 25 25 26 26 27 27 28 28 29 89 30 29 31 88 32 30 33 31 34
REMARK SMILES IDX 32 35 82 36 33 37 87 38 81 39 83 40 34 41 86 42 80 43 79 44
REMARK SMILES IDX 35 46 67 47 47 48 66 49 48 50 51 51 65 52 84 53 49 54 50 55
REMARK SMILES IDX 64 57 85 58 52 59 36 60 37 61 45 62 38 63 44 64 46 65 43 66
REMARK SMILES IDX 39 67 40 68 41 69 42 70 68 71 69 72 77 73 70 74 76 75 78 76
REMARK SMILES IDX 75 77 71 78 72 79 73 80 74 81 53 82 54 83 62 84 55 85 61 86
REMARK SMILES IDX 63 87 60 88 56 89 57 90 58 91 59 92
REMARK H PARENT 14 10 83 45 51 56
REMARK Flexibility Score: inf
ROOT
ATOM      1  C   UNL A   1      33.880  28.327  24.287  1.00  0.00     0.202 C 
ENDROOT
BRANCH   1   2
ATOM      2  C   UNL A   1      33.957  27.471  25.553  1.00  0.00     0.261 C 
BRANCH   2   3
ATOM      3  O   UNL A   1      33.430  26.151  25.331  1.00  0.00    -0.462 OA
BRANCH   3   4
ATOM      4  C   UNL A   1      34.337  25.164  25.101  1.00  0.00     0.325 C 
ATOM      5  O   UNL A   1      35.424  25.059  25.657  1.00  0.00    -0.250 OA
BRANCH   4   6
ATOM      6  C   UNL A   1      33.841  24.143  24.075  1.00  0.00     0.239 C 
BRANCH   6   7
ATOM      7  N   UNL A   1      33.633  24.656  22.736  1.00  0.00    -0.341 N 
ATOM      8  C   UNL A   1      32.699  25.438  22.128  1.00  0.00     0.255 C 
ATOM      9  O   UNL A   1      32.980  25.730  20.960  1.00  0.00    -0.269 OA
ATOM     10  H   UNL A   1      34.339  24.368  22.113  1.00  0.00     0.164 HD
BRANCH   8  11
ATOM     11  C   UNL A   1      31.440  25.995  22.715  1.00  0.00     0.083 A 
ATOM     12  C   UNL A   1      30.508  25.402  23.580  1.00  0.00     0.143 A 
ATOM     13  C   UNL A   1      29.365  26.115  24.002  1.00  0.00     0.049 A 
ATOM     14  C   UNL A   1      29.094  27.392  23.520  1.00  0.00     0.019 A 
ATOM     15  C   UNL A   1      31.142  27.302  22.252  1.00  0.00     0.033 A 
ATOM     16  C   UNL A   1      29.986  27.982  22.641  1.00  0.00     0.019 A 
ATOM     17  Br  UNL A   1      29.636  29.713  21.969  1.00  0.00    -0.051 Br
BRANCH  12  18
ATOM     18  O   UNL A   1      30.692  24.133  24.152  1.00  0.00    -0.426 OA
BRANCH  18  19
ATOM     19  C   UNL A   1      30.657  24.038  25.546  1.00  0.00     0.308 C 
ATOM     20  C   UNL A   1      30.577  22.596  25.960  1.00  0.00     0.139 C 
ATOM     21  O   UNL A   1      30.700  24.971  26.334  1.00  0.00    -0.252 OA
ENDBRANCH  18  19
ENDBRANCH  12  18
ENDBRANCH   8  11
ENDBRANCH   6   7
ENDBRANCH   4   6
ENDBRANCH   3   4
ENDBRANCH   2   3
ENDBRANCH   1   2
BRANCH   1  22
ATOM     22  O   UNL A   1      33.049  29.486  24.346  1.00  0.00    -0.374 OA
BRANCH  22  23
ATOM     23  C   UNL A   1      31.927  29.463  25.225  1.00  0.00     0.202 C 
BRANCH  23  24
ATOM     24  C   UNL A   1      31.624  30.711  26.060  1.00  0.00     0.261 C 
BRANCH  24  25
ATOM     25  O   UNL A   1      32.396  30.776  27.266  1.00  0.00    -0.460 OA
BRANCH  25  26
ATOM     26  C   UNL A   1      33.156  31.893  27.365  1.00  0.00     0.338 C 
ATOM     27  O   UNL A   1      32.759  33.051  27.301  1.00  0.00    -0.246 OA
BRANCH  26  28
ATOM     28  C   UNL A   1      34.536  31.554  27.755  1.00  0.00     0.060 A 
ATOM     29  C   UNL A   1      34.821  30.199  27.964  1.00  0.00     0.016 A 
ATOM     30  C   UNL A   1      35.504  32.532  27.996  1.00  0.00     0.016 A 
ATOM     31  C   UNL A   1      36.049  29.821  28.496  1.00  0.00     0.010 A 
ATOM     32  C   UNL A   1      36.737  32.149  28.535  1.00  0.00     0.010 A 
ATOM     33  C   UNL A   1      36.993  30.798  28.834  1.00  0.00    -0.014 A 
BRANCH  33  34
ATOM     34  C   UNL A   1      38.157  30.414  29.668  1.00  0.00     0.031 A 
ATOM     35  C   UNL A   1      39.181  29.475  29.087  1.00  0.00     0.074 A 
ATOM     36  C   UNL A   1      38.330  30.940  30.893  1.00  0.00     0.049 A 
ATOM     37  N   UNL A   1      40.261  28.981  29.633  1.00  0.00    -0.248 NA
ATOM     38  C   UNL A   1      38.949  29.033  27.703  1.00  0.00     0.031 C 
ATOM     39  C   UNL A   1      37.435  31.905  31.529  1.00  0.00     0.029 A 
ATOM     40  N   UNL A   1      39.320  30.737  31.820  1.00  0.00    -0.354 N 
ATOM     41  C   UNL A   1      40.835  28.164  28.663  1.00  0.00     0.074 A 
ATOM     42  C   UNL A   1      39.959  28.200  27.511  1.00  0.00     0.031 C 
ATOM     43  C   UNL A   1      37.914  32.206  32.747  1.00  0.00     0.029 A 
ATOM     44  C   UNL A   1      39.123  31.423  32.995  1.00  0.00     0.049 A 
ATOM     45  H   UNL A   1      40.098  30.155  31.660  1.00  0.00     0.167 HD
ATOM     46  C   UNL A   1      41.991  27.458  28.727  1.00  0.00     0.034 A 
ATOM     47  C   UNL A   1      39.824  31.399  34.146  1.00  0.00     0.034 A 
ATOM     48  C   UNL A   1      42.844  27.430  29.891  1.00  0.00     0.049 A 
ATOM     49  C   UNL A   1      41.057  30.530  34.228  1.00  0.00     0.074 A 
ATOM     50  C   UNL A   1      44.041  26.757  30.066  1.00  0.00     0.029 A 
ATOM     51  N   UNL A   1      42.585  28.094  31.083  1.00  0.00    -0.354 N 
ATOM     52  N   UNL A   1      41.591  29.760  33.307  1.00  0.00    -0.248 NA
ATOM     53  C   UNL A   1      41.787  30.534  35.503  1.00  0.00     0.031 C 
ATOM     54  C   UNL A   1      44.461  26.948  31.387  1.00  0.00     0.029 A 
ATOM     55  C   UNL A   1      43.578  27.817  32.010  1.00  0.00     0.049 A 
ATOM     56  H   UNL A   1      41.808  28.677  31.248  1.00  0.00     0.167 HD
ATOM     57  C   UNL A   1      42.740  29.218  33.882  1.00  0.00     0.074 A 
ATOM     58  C   UNL A   1      42.824  29.760  35.222  1.00  0.00     0.031 C 
ATOM     59  C   UNL A   1      43.645  28.359  33.348  1.00  0.00     0.034 A 
BRANCH  46  60
ATOM     60  C   UNL A   1      42.360  26.615  27.528  1.00  0.00     0.023 A 
ATOM     61  C   UNL A   1      41.977  25.266  27.419  1.00  0.00     0.031 A 
ATOM     62  C   UNL A   1      43.132  27.165  26.489  1.00  0.00     0.131 A 
ATOM     63  C   UNL A   1      42.425  24.496  26.334  1.00  0.00     0.055 A 
ATOM     64  C   UNL A   1      43.506  26.415  25.372  1.00  0.00     0.041 A 
ATOM     65  F   UNL A   1      43.551  28.439  26.547  1.00  0.00    -0.206 F 
ATOM     66  C   UNL A   1      43.165  25.068  25.296  1.00  0.00     0.022 A 
BRANCH  63  67
ATOM     67  S   UNL A   1      42.154  22.703  26.370  1.00  0.00     0.124 S 
ATOM     68  O   UNL A   1      40.707  22.626  26.557  1.00  0.00    -0.237 OA
ATOM     69  O   UNL A   1      42.654  22.281  25.067  1.00  0.00    -0.237 OA
ATOM     70  O   UNL A   1      42.946  22.260  27.517  1.00  0.00    -0.744 OA
ENDBRANCH  63  67
ENDBRANCH  46  60
BRANCH  47  71
ATOM     71  C   UNL A   1      39.363  32.182  35.328  1.00  0.00     0.023 A 
ATOM     72  C   UNL A   1      39.760  33.514  35.521  1.00  0.00     0.031 A 
ATOM     73  C   UNL A   1      38.556  31.586  36.316  1.00  0.00     0.131 A 
ATOM     74  C   UNL A   1      39.391  34.192  36.694  1.00  0.00     0.055 A 
ATOM     75  C   UNL A   1      38.143  32.283  37.452  1.00  0.00     0.041 A 
ATOM     76  F   UNL A   1      38.151  30.312  36.186  1.00  0.00    -0.206 F 
ATOM     77  C   UNL A   1      38.571  33.590  37.653  1.00  0.00     0.022 A 
BRANCH  74  78
ATOM     78  S   UNL A   1      40.077  35.844  36.995  1.00  0.00     0.124 S 
ATOM     79  O   UNL A   1      39.675  36.556  35.788  1.00  0.00    -0.237 OA
ATOM     80  O   UNL A   1      39.401  36.234  38.228  1.00  0.00    -0.237 OA
ATOM     81  O   UNL A   1      41.512  35.597  37.126  1.00  0.00    -0.744 OA
ENDBRANCH  74  78
ENDBRANCH  47  71
BRANCH  59  82
ATOM     82  C   UNL A   1      44.839  27.998  34.202  1.00  0.00     0.023 A 
ATOM     83  C   UNL A   1      44.860  26.845  35.006  1.00  0.00     0.031 A 
ATOM     84  C   UNL A   1      45.974  28.830  34.211  1.00  0.00     0.131 A 
ATOM     85  C   UNL A   1      45.966  26.587  35.829  1.00  0.00     0.055 A 
ATOM     86  C   UNL A   1      47.099  28.533  34.981  1.00  0.00     0.041 A 
ATOM     87  F   UNL A   1      46.009  29.947  33.466  1.00  0.00    -0.206 F 
ATOM     88  C   UNL A   1      47.093  27.413  35.808  1.00  0.00     0.022 A 
BRANCH  85  89
ATOM     89  S   UNL A   1      45.874  25.212  37.009  1.00  0.00     0.124 S 
ATOM     90  O   UNL A   1      47.180  25.279  37.656  1.00  0.00    -0.237 OA
ATOM     91  O   UNL A   1      44.732  25.586  37.836  1.00  0.00    -0.237 OA
ATOM     92  O   UNL A   1      45.664  24.043  36.156  1.00  0.00    -0.744 OA
ENDBRANCH  85  89
ENDBRANCH  59  82
ENDBRANCH  33  34
ENDBRANCH  26  28
ENDBRANCH  25  26
ENDBRANCH  24  25
ENDBRANCH  23  24
ENDBRANCH  22  23
ENDBRANCH   1  22
TORSDOF 21
ENDMDL
MODEL 2
REMARK VINA RESULT:     -10.3      4.383      9.419
REMARK SMILES CC(=O)Oc1ccc(Br)cc1C(=O)NCC(=O)OCCOCCOC(=O)c1ccc(-c2c3nc(c(-c4cc(S(=O)(=O)[O-])ccc4F)c4ccc([nH]4)c(-c4cc(S(=O)(=O)[O-])ccc4F)c4nc(c(-c5cc(S(=O)(=O)[O-])ccc5F)c5ccc2[nH]5)C=C4)C=C3)cc1
REMARK SMILES IDX 20 1 19 2 18 3 16 4 17 5 15 6 14 7 12 8 13 9 11 11 5 12 6 13
REMARK SMILES IDX 7 14 10 15 8 16 9 17 4 18 2 19 1 20 3 21 21 22 22 23 23 24
REMARK SMILES IDX 24 25 25 26 26 27 27 28 28 29 89 30 29 31 88 32 30 33 31 34
REMARK SMILES IDX 32 35 82 36 33 37 87 38 81 39 83 40 34 41 86 42 80 43 79 44
REMARK SMILES IDX 35 46 67 47 47 48 66 49 48 50 51 51 65 52 84 53 49 54 50 55
REMARK SMILES IDX 64 57 85 58 52 59 36 60 37 61 45 62 38 63 44 64 46 65 43 66
REMARK SMILES IDX 39 67 40 68 41 69 42 70 68 71 69 72 77 73 70 74 76 75 78 76
REMARK SMILES IDX 75 77 71 78 72 79 73 80 74 81 53 82 54 83 62 84 55 85 61 86
REMARK SMILES IDX 63 87 60 88 56 89 57 90 58 91 59 92
REMARK H PARENT 14 10 83 45 51 56
REMARK Flexibility Score: inf
ROOT
ATOM      1  C   UNL A   1      33.879  21.966  26.116  1.00  0.00     0.202 C 
ENDROOT
BRANCH   1   2
ATOM      2  C   UNL A   1      33.327  23.278  25.554  1.00  0.00     0.261 C 
BRANCH   2   3
ATOM      3  O   UNL A   1      32.027  23.096  24.965  1.00  0.00    -0.462 OA
BRANCH   3   4
ATOM      4  C   UNL A   1      31.974  23.063  23.606  1.00  0.00     0.325 C 
ATOM      5  O   UNL A   1      32.327  22.119  22.909  1.00  0.00    -0.250 OA
BRANCH   4   6
ATOM      6  C   UNL A   1      31.378  24.340  23.013  1.00  0.00     0.239 C 
BRANCH   6   7
ATOM      7  N   UNL A   1      32.307  25.181  22.285  1.00  0.00    -0.341 N 
ATOM      8  C   UNL A   1      32.747  26.464  22.391  1.00  0.00     0.255 C 
ATOM      9  O   UNL A   1      33.657  26.745  21.603  1.00  0.00    -0.269 OA
ATOM     10  H   UNL A   1      32.721  24.708  21.526  1.00  0.00     0.164 HD
BRANCH   8  11
ATOM     11  C   UNL A   1      32.295  27.517  23.355  1.00  0.00     0.083 A 
ATOM     12  C   UNL A   1      31.143  28.318  23.341  1.00  0.00     0.143 A 
ATOM     13  C   UNL A   1      30.920  29.273  24.355  1.00  0.00     0.049 A 
ATOM     14  C   UNL A   1      31.863  29.497  25.354  1.00  0.00     0.019 A 
ATOM     15  C   UNL A   1      33.231  27.760  24.392  1.00  0.00     0.033 A 
ATOM     16  C   UNL A   1      33.021  28.738  25.367  1.00  0.00     0.019 A 
ATOM     17  Br  UNL A   1      34.318  29.028  26.709  1.00  0.00    -0.051 Br
BRANCH  12  18
ATOM     18  O   UNL A   1      30.111  28.161  22.401  1.00  0.00    -0.426 OA
BRANCH  18  19
ATOM     19  C   UNL A   1      29.432  29.310  21.985  1.00  0.00     0.308 C 
ATOM     20  C   UNL A   1      28.044  29.321  22.557  1.00  0.00     0.139 C 
ATOM     21  O   UNL A   1      29.884  30.197  21.275  1.00  0.00    -0.252 OA
ENDBRANCH  18  19
ENDBRANCH  12  18
ENDBRANCH   8  11
ENDBRANCH   6   7
ENDBRANCH   4   6
ENDBRANCH   3   4
ENDBRANCH   2   3
ENDBRANCH   1   2
BRANCH   1  22
ATOM     22  O   UNL A   1      35.296  21.796  26.076  1.00  0.00    -0.374 OA
BRANCH  22  23
ATOM     23  C   UNL A   1      35.819  20.711  25.315  1.00  0.00     0.202 C 
BRANCH  23  24
ATOM     24  C   UNL A   1      37.225  20.844  24.719  1.00  0.00     0.261 C 
BRANCH  24  25
ATOM     25  O   UNL A   1      37.927  21.998  25.197  1.00  0.00    -0.460 OA
BRANCH  25  26
ATOM     26  C   UNL A   1      39.002  21.700  25.965  1.00  0.00     0.338 C 
ATOM     27  O   UNL A   1      39.631  20.647  25.959  1.00  0.00    -0.246 OA
BRANCH  26  28
ATOM     28  C   UNL A   1      39.465  22.888  26.702  1.00  0.00     0.060 A 
ATOM     29  C   UNL A   1      38.862  24.110  26.378  1.00  0.00     0.016 A 
ATOM     30  C   UNL A   1      40.516  22.833  27.621  1.00  0.00     0.016 A 
ATOM     31  C   UNL A   1      39.362  25.295  26.908  1.00  0.00     0.010 A 
ATOM     32  C   UNL A   1      41.020  24.027  28.149  1.00  0.00     0.010 A 
ATOM     33  C   UNL A   1      40.477  25.264  27.754  1.00  0.00    -0.014 A 
BRANCH  33  34
ATOM     34  C   UNL A   1      41.178  26.533  28.065  1.00  0.00     0.031 A 
ATOM     35  C   UNL A   1      40.415  27.623  28.770  1.00  0.00     0.074 A 
ATOM     36  C   UNL A   1      42.483  26.686  27.781  1.00  0.00     0.049 A 
ATOM     37  N   UNL A   1      40.807  28.820  29.120  1.00  0.00    -0.248 NA
ATOM     38  C   UNL A   1      39.020  27.318  29.124  1.00  0.00     0.031 C 
ATOM     39  C   UNL A   1      43.333  25.674  27.155  1.00  0.00     0.029 A 
ATOM     40  N   UNL A   1      43.321  27.752  27.982  1.00  0.00    -0.354 N 
ATOM     41  C   UNL A   1      39.707  29.416  29.729  1.00  0.00     0.074 A 
ATOM     42  C   UNL A   1      38.621  28.460  29.663  1.00  0.00     0.031 C 
ATOM     43  C   UNL A   1      44.574  26.172  27.019  1.00  0.00     0.029 A 
ATOM     44  C   UNL A   1      44.594  27.549  27.505  1.00  0.00     0.049 A 
ATOM     45  H   UNL A   1      43.038  28.584  28.427  1.00  0.00     0.167 HD
ATOM     46  C   UNL A   1      39.615  30.642  30.299  1.00  0.00     0.034 A 
ATOM     47  C   UNL A   1      45.646  28.391  27.443  1.00  0.00     0.034 A 
ATOM     48  C   UNL A   1      40.709  31.583  30.345  1.00  0.00     0.049 A 
ATOM     49  C   UNL A   1      45.493  29.788  27.999  1.00  0.00     0.074 A 
ATOM     50  C   UNL A   1      40.734  32.849  30.902  1.00  0.00     0.029 A 
ATOM     51  N   UNL A   1      41.969  31.364  29.802  1.00  0.00    -0.354 N 
ATOM     52  N   UNL A   1      44.448  30.342  28.571  1.00  0.00    -0.248 NA
ATOM     53  C   UNL A   1      46.665  30.669  27.907  1.00  0.00     0.031 C 
ATOM     54  C   UNL A   1      41.978  33.426  30.625  1.00  0.00     0.029 A 
ATOM     55  C   UNL A   1      42.766  32.486  29.978  1.00  0.00     0.049 A 
ATOM     56  H   UNL A   1      42.256  30.534  29.357  1.00  0.00     0.167 HD
ATOM     57  C   UNL A   1      44.851  31.625  28.939  1.00  0.00     0.074 A 
ATOM     58  C   UNL A   1      46.236  31.754  28.534  1.00  0.00     0.031 C 
ATOM     59  C   UNL A   1      44.145  32.603  29.561  1.00  0.00     0.034 A 
BRANCH  46  60
ATOM     60  C   UNL A   1      38.272  31.053  30.858  1.00  0.00     0.023 A 
ATOM     61  C   UNL A   1      37.286  31.658  30.059  1.00  0.00     0.031 A 
ATOM     62  C   UNL A   1      37.986  30.859  32.221  1.00  0.00     0.131 A 
ATOM     63  C   UNL A   1      36.092  32.111  30.642  1.00  0.00     0.055 A 
ATOM     64  C   UNL A   1      36.763  31.238  32.779  1.00  0.00     0.041 A 
ATOM     65  F   UNL A   1      38.896  30.311  33.041  1.00  0.00    -0.206 F 
ATOM     66  C   UNL A   1      35.812  31.881  31.992  1.00  0.00     0.022 A 
BRANCH  63  67
ATOM     67  S   UNL A   1      34.973  33.135  29.648  1.00  0.00     0.124 S 
ATOM     68  O   UNL A   1      34.088  33.686  30.671  1.00  0.00    -0.237 OA
ATOM     69  O   UNL A   1      35.887  34.079  29.015  1.00  0.00    -0.237 OA
ATOM     70  O   UNL A   1      34.342  32.175  28.743  1.00  0.00    -0.744 OA
ENDBRANCH  63  67
ENDBRANCH  46  60
BRANCH  47  71
ATOM     71  C   UNL A   1      46.921  27.962  26.799  1.00  0.00     0.023 A 
ATOM     72  C   UNL A   1      47.105  28.059  25.411  1.00  0.00     0.031 A 
ATOM     73  C   UNL A   1      47.959  27.396  27.563  1.00  0.00     0.131 A 
ATOM     74  C   UNL A   1      48.276  27.554  24.824  1.00  0.00     0.055 A 
ATOM     75  C   UNL A   1      49.146  26.950  26.980  1.00  0.00     0.041 A 
ATOM     76  F   UNL A   1      47.834  27.274  28.894  1.00  0.00    -0.206 F 
ATOM     77  C   UNL A   1      49.304  27.016  25.601  1.00  0.00     0.022 A 
BRANCH  74  78
ATOM     78  S   UNL A   1      48.397  27.526  23.013  1.00  0.00     0.124 S 
ATOM     79  O   UNL A   1      48.377  26.095  22.737  1.00  0.00    -0.237 OA
ATOM     80  O   UNL A   1      47.209  28.275  22.619  1.00  0.00    -0.237 OA
ATOM     81  O   UNL A   1      49.669  28.196  22.748  1.00  0.00    -0.744 OA
ENDBRANCH  74  78
ENDBRANCH  47  71
BRANCH  59  82
ATOM     82  C   UNL A   1      44.881  33.880  29.894  1.00  0.00     0.023 A 
ATOM     83  C   UNL A   1      45.399  34.129  31.177  1.00  0.00     0.031 A 
ATOM     84  C   UNL A   1      45.061  34.866  28.906  1.00  0.00     0.131 A 
ATOM     85  C   UNL A   1      46.019  35.357  31.454  1.00  0.00     0.055 A 
ATOM     86  C   UNL A   1      45.737  36.057  29.170  1.00  0.00     0.041 A 
ATOM     87  F   UNL A   1      44.584  34.685  27.665  1.00  0.00    -0.206 F 
ATOM     88  C   UNL A   1      46.208  36.315  30.454  1.00  0.00     0.022 A 
BRANCH  85  89
ATOM     89  S   UNL A   1      46.486  35.731  33.167  1.00  0.00     0.124 S 
ATOM     90  O   UNL A   1      47.800  36.341  32.997  1.00  0.00    -0.237 OA
ATOM     91  O   UNL A   1      45.417  36.628  33.593  1.00  0.00    -0.237 OA
ATOM     92  O   UNL A   1      46.490  34.421  33.815  1.00  0.00    -0.744 OA
ENDBRANCH  85  89
ENDBRANCH  59  82
ENDBRANCH  33  34
ENDBRANCH  26  28
ENDBRANCH  25  26
ENDBRANCH  24  25
ENDBRANCH  23  24
ENDBRANCH  22  23
ENDBRANCH   1  22
TORSDOF 21
ENDMDL
MODEL 3
REMARK VINA RESULT:     -10.3      4.478      7.209
REMARK SMILES CC(=O)Oc1ccc(Br)cc1C(=O)NCC(=O)OCCOCCOC(=O)c1ccc(-c2c3nc(c(-c4cc(S(=O)(=O)[O-])ccc4F)c4ccc([nH]4)c(-c4cc(S(=O)(=O)[O-])ccc4F)c4nc(c(-c5cc(S(=O)(=O)[O-])ccc5F)c5ccc2[nH]5)C=C4)C=C3)cc1
REMARK SMILES IDX 20 1 19 2 18 3 16 4 17 5 15 6 14 7 12 8 13 9 11 11 5 12 6 13
REMARK SMILES IDX 7 14 10 15 8 16 9 17 4 18 2 19 1 20 3 21 21 22 22 23 23 24
REMARK SMILES IDX 24 25 25 26 26 27 27 28 28 29 89 30 29 31 88 32 30 33 31 34
REMARK SMILES IDX 32 35 82 36 33 37 87 38 81 39 83 40 34 41 86 42 80 43 79 44
REMARK SMILES IDX 35 46 67 47 47 48 66 49 48 50 51 51 65 52 84 53 49 54 50 55
REMARK SMILES IDX 64 57 85 58 52 59 36 60 37 61 45 62 38 63 44 64 46 65 43 66
REMARK SMILES IDX 39 67 40 68 41 69 42 70 68 71 69 72 77 73 70 74 76 75 78 76
REMARK SMILES IDX 75 77 71 78 72 79 73 80 74 81 53 82 54 83 62 84 55 85 61 86
REMARK SMILES IDX 63 87 60 88 56 89 57 90 58 91 59 92
REMARK H PARENT 14 10 83 45 51 56
REMARK Flexibility Score: inf
ROOT
ATOM      1  C   UNL A   1      34.172  22.588  26.063  1.00  0.00     0.202 C 
ENDROOT
BRANCH   1   2
ATOM      2  C   UNL A   1      33.112  23.307  25.226  1.00  0.00     0.261 C 
BRANCH   2   3
ATOM      3  O   UNL A   1      33.705  24.048  24.145  1.00  0.00    -0.462 OA
BRANCH   3   4
ATOM      4  C   UNL A   1      34.055  25.336  24.409  1.00  0.00     0.325 C 
ATOM      5  O   UNL A   1      34.733  25.702  25.362  1.00  0.00    -0.250 OA
BRANCH   4   6
ATOM      6  C   UNL A   1      33.538  26.311  23.351  1.00  0.00     0.239 C 
BRANCH   6   7
ATOM      7  N   UNL A   1      33.406  27.688  23.784  1.00  0.00    -0.341 N 
ATOM      8  C   UNL A   1      32.370  28.540  24.014  1.00  0.00     0.255 C 
ATOM      9  O   UNL A   1      32.716  29.623  24.499  1.00  0.00    -0.269 OA
ATOM     10  H   UNL A   1      34.279  28.110  23.953  1.00  0.00     0.164 HD
BRANCH   8  11
ATOM     11  C   UNL A   1      30.910  28.297  23.792  1.00  0.00     0.083 A 
ATOM     12  C   UNL A   1      30.142  27.145  24.019  1.00  0.00     0.143 A 
ATOM     13  C   UNL A   1      28.763  27.130  23.717  1.00  0.00     0.049 A 
ATOM     14  C   UNL A   1      28.144  28.226  23.125  1.00  0.00     0.019 A 
ATOM     15  C   UNL A   1      30.247  29.402  23.199  1.00  0.00     0.033 A 
ATOM     16  C   UNL A   1      28.892  29.362  22.865  1.00  0.00     0.019 A 
ATOM     17  Br  UNL A   1      28.073  30.860  22.056  1.00  0.00    -0.051 Br
BRANCH  12  18
ATOM     18  O   UNL A   1      30.652  25.992  24.638  1.00  0.00    -0.426 OA
BRANCH  18  19
ATOM     19  C   UNL A   1      30.435  25.842  26.010  1.00  0.00     0.308 C 
ATOM     20  C   UNL A   1      31.470  26.610  26.780  1.00  0.00     0.139 C 
ATOM     21  O   UNL A   1      29.534  25.202  26.532  1.00  0.00    -0.252 OA
ENDBRANCH  18  19
ENDBRANCH  12  18
ENDBRANCH   8  11
ENDBRANCH   6   7
ENDBRANCH   4   6
ENDBRANCH   3   4
ENDBRANCH   2   3
ENDBRANCH   1   2
BRANCH   1  22
ATOM     22  O   UNL A   1      35.366  22.194  25.386  1.00  0.00    -0.374 OA
BRANCH  22  23
ATOM     23  C   UNL A   1      35.560  20.807  25.120  1.00  0.00     0.202 C 
BRANCH  23  24
ATOM     24  C   UNL A   1      36.992  20.278  24.991  1.00  0.00     0.261 C 
BRANCH  24  25
ATOM     25  O   UNL A   1      37.976  21.320  25.012  1.00  0.00    -0.460 OA
BRANCH  25  26
ATOM     26  C   UNL A   1      39.039  21.049  25.806  1.00  0.00     0.338 C 
ATOM     27  O   UNL A   1      39.675  20.001  25.837  1.00  0.00    -0.246 OA
BRANCH  26  28
ATOM     28  C   UNL A   1      39.477  22.258  26.525  1.00  0.00     0.060 A 
ATOM     29  C   UNL A   1      38.765  23.437  26.276  1.00  0.00     0.016 A 
ATOM     30  C   UNL A   1      40.604  22.266  27.351  1.00  0.00     0.016 A 
ATOM     31  C   UNL A   1      39.223  24.647  26.784  1.00  0.00     0.010 A 
ATOM     32  C   UNL A   1      41.065  23.486  27.857  1.00  0.00     0.010 A 
ATOM     33  C   UNL A   1      40.405  24.686  27.533  1.00  0.00    -0.014 A 
BRANCH  33  34
ATOM     34  C   UNL A   1      41.039  25.998  27.808  1.00  0.00     0.031 A 
ATOM     35  C   UNL A   1      42.455  26.225  27.348  1.00  0.00     0.074 A 
ATOM     36  C   UNL A   1      40.346  26.986  28.400  1.00  0.00     0.049 A 
ATOM     37  N   UNL A   1      43.220  27.274  27.498  1.00  0.00    -0.248 NA
ATOM     38  C   UNL A   1      43.091  25.113  26.624  1.00  0.00     0.031 C 
ATOM     39  C   UNL A   1      38.952  26.896  28.831  1.00  0.00     0.029 A 
ATOM     40  N   UNL A   1      40.722  28.261  28.740  1.00  0.00    -0.354 N 
ATOM     41  C   UNL A   1      44.431  26.948  26.894  1.00  0.00     0.074 A 
ATOM     42  C   UNL A   1      44.308  25.588  26.412  1.00  0.00     0.031 C 
ATOM     43  C   UNL A   1      38.591  28.067  29.383  1.00  0.00     0.029 A 
ATOM     44  C   UNL A   1      39.739  28.971  29.387  1.00  0.00     0.049 A 
ATOM     45  H   UNL A   1      41.612  28.632  28.539  1.00  0.00     0.167 HD
ATOM     46  C   UNL A   1      45.538  27.717  26.747  1.00  0.00     0.034 A 
ATOM     47  C   UNL A   1      39.773  30.199  29.942  1.00  0.00     0.034 A 
ATOM     48  C   UNL A   1      45.641  29.068  27.244  1.00  0.00     0.049 A 
ATOM     49  C   UNL A   1      41.049  31.002  29.851  1.00  0.00     0.074 A 
ATOM     50  C   UNL A   1      46.708  29.943  27.147  1.00  0.00     0.029 A 
ATOM     51  N   UNL A   1      44.643  29.736  27.944  1.00  0.00    -0.354 N 
ATOM     52  N   UNL A   1      42.189  30.685  29.279  1.00  0.00    -0.248 NA
ATOM     53  C   UNL A   1      41.040  32.333  30.473  1.00  0.00     0.031 C 
ATOM     54  C   UNL A   1      46.388  31.106  27.856  1.00  0.00     0.029 A 
ATOM     55  C   UNL A   1      45.084  30.997  28.317  1.00  0.00     0.049 A 
ATOM     56  H   UNL A   1      43.753  29.369  28.147  1.00  0.00     0.167 HD
ATOM     57  C   UNL A   1      43.018  31.794  29.443  1.00  0.00     0.074 A 
ATOM     58  C   UNL A   1      42.242  32.788  30.155  1.00  0.00     0.031 C 
ATOM     59  C   UNL A   1      44.301  31.976  29.035  1.00  0.00     0.034 A 
BRANCH  46  60
ATOM     60  C   UNL A   1      46.738  27.090  26.077  1.00  0.00     0.023 A 
ATOM     61  C   UNL A   1      47.738  26.425  26.809  1.00  0.00     0.031 A 
ATOM     62  C   UNL A   1      46.898  27.184  24.682  1.00  0.00     0.131 A 
ATOM     63  C   UNL A   1      48.883  25.944  26.155  1.00  0.00     0.055 A 
ATOM     64  C   UNL A   1      48.000  26.630  24.028  1.00  0.00     0.041 A 
ATOM     65  F   UNL A   1      45.992  27.828  23.931  1.00  0.00    -0.206 F 
ATOM     66  C   UNL A   1      49.008  26.018  24.765  1.00  0.00     0.022 A 
BRANCH  63  67
ATOM     67  S   UNL A   1      50.273  25.351  27.159  1.00  0.00     0.124 S 
ATOM     68  O   UNL A   1      51.176  24.831  26.135  1.00  0.00    -0.237 OA
ATOM     69  O   UNL A   1      50.709  26.564  27.841  1.00  0.00    -0.237 OA
ATOM     70  O   UNL A   1      49.667  24.335  28.018  1.00  0.00    -0.744 OA
ENDBRANCH  63  67
ENDBRANCH  46  60
BRANCH  47  71
ATOM     71  C   UNL A   1      38.587  30.732  30.671  1.00  0.00     0.023 A 
ATOM     72  C   UNL A   1      37.542  31.376  29.990  1.00  0.00     0.031 A 
ATOM     73  C   UNL A   1      38.507  30.651  32.074  1.00  0.00     0.131 A 
ATOM     74  C   UNL A   1      36.487  31.955  30.714  1.00  0.00     0.055 A 
ATOM     75  C   UNL A   1      37.427  31.177  32.784  1.00  0.00     0.041 A 
ATOM     76  F   UNL A   1      39.481  30.050  32.777  1.00  0.00    -0.206 F 
ATOM     77  C   UNL A   1      36.415  31.845  32.105  1.00  0.00     0.022 A 
BRANCH  74  78
ATOM     78  S   UNL A   1      35.255  32.939  29.816  1.00  0.00     0.124 S 
ATOM     79  O   UNL A   1      34.494  33.530  30.910  1.00  0.00    -0.237 OA
ATOM     80  O   UNL A   1      36.097  33.852  29.050  1.00  0.00    -0.237 OA
ATOM     81  O   UNL A   1      34.538  31.943  29.023  1.00  0.00    -0.744 OA
ENDBRANCH  74  78
ENDBRANCH  47  71
BRANCH  59  82
ATOM     82  C   UNL A   1      44.923  33.328  29.300  1.00  0.00     0.023 A 
ATOM     83  C   UNL A   1      44.848  34.379  28.369  1.00  0.00     0.031 A 
ATOM     84  C   UNL A   1      45.606  33.562  30.508  1.00  0.00     0.131 A 
ATOM     85  C   UNL A   1      45.497  35.594  28.634  1.00  0.00     0.055 A 
ATOM     86  C   UNL A   1      46.192  34.796  30.795  1.00  0.00     0.041 A 
ATOM     87  F   UNL A   1      45.713  32.595  31.432  1.00  0.00    -0.206 F 
ATOM     88  C   UNL A   1      46.152  35.816  29.849  1.00  0.00     0.022 A 
BRANCH  85  89
ATOM     89  S   UNL A   1      45.562  36.851  27.327  1.00  0.00     0.124 S 
ATOM     90  O   UNL A   1      46.410  37.873  27.931  1.00  0.00    -0.237 OA
ATOM     91  O   UNL A   1      46.147  36.113  26.213  1.00  0.00    -0.237 OA
ATOM     92  O   UNL A   1      44.162  37.233  27.149  1.00  0.00    -0.744 OA
ENDBRANCH  85  89
ENDBRANCH  59  82
ENDBRANCH  33  34
ENDBRANCH  26  28
ENDBRANCH  25  26
ENDBRANCH  24  25
ENDBRANCH  23  24
ENDBRANCH  22  23
ENDBRANCH   1  22
TORSDOF 21
ENDMDL
