MODEL 1
REMARK VINA RESULT:      -9.8      0.000      0.000
REMARK SMILES Cc1cc2c(c(C)c1Br)C=C(C(=O)OCCOCCOC(=O)c1ccc(-c3c4nc(c(-c5cc(S(=O)(=O)[O-])ccc5F)c5ccc([nH]5)c(-c5cc(S(=O)(=O)[O-])ccc5F)c5nc(c(-c6cc(S(=O)(=O)[O-])ccc6F)c6ccc3[nH]6)C=C5)C=C4)cc1)[C@@H](C(F)(F)F)O2
REMARK SMILES IDX 18 1 17 2 16 3 15 4 14 5 12 6 13 7 11 8 1 9 2 10 3 11 8 12
REMARK SMILES IDX 4 13 6 14 9 15 5 16 91 17 7 18 10 19 86 20 87 21 88 22 89 23
REMARK SMILES IDX 90 24 19 25 20 26 21 27 22 28 23 29 24 30 85 31 25 32 84 33
REMARK SMILES IDX 26 34 27 35 28 36 78 37 29 38 83 39 77 40 79 41 30 42 82 43
REMARK SMILES IDX 76 44 75 45 31 47 63 48 43 49 62 50 44 51 47 52 61 53 80 54
REMARK SMILES IDX 45 55 46 56 60 58 81 59 48 60 32 61 33 62 41 63 34 64 40 65
REMARK SMILES IDX 42 66 39 67 35 68 36 69 37 70 38 71 64 72 65 73 73 74 66 75
REMARK SMILES IDX 72 76 74 77 71 78 67 79 68 80 69 81 70 82 49 83 50 84 58 85
REMARK SMILES IDX 51 86 57 87 59 88 56 89 52 90 53 91 54 92 55 93
REMARK H PARENT 79 46 47 57
REMARK Flexibility Score: inf
ROOT
ATOM      1  C   UNL A   1      32.983  35.032  28.839  1.00  0.00     0.202 C 
ENDROOT
BRANCH   1   2
ATOM      2  O   UNL A   1      33.266  36.310  29.411  1.00  0.00    -0.374 OA
BRANCH   2   3
ATOM      3  C   UNL A   1      32.940  36.515  30.784  1.00  0.00     0.202 C 
BRANCH   3   4
ATOM      4  C   UNL A   1      33.177  35.343  31.742  1.00  0.00     0.261 C 
BRANCH   4   5
ATOM      5  O   UNL A   1      34.465  35.411  32.373  1.00  0.00    -0.460 OA
BRANCH   5   6
ATOM      6  C   UNL A   1      35.134  34.237  32.405  1.00  0.00     0.338 C 
ATOM      7  O   UNL A   1      34.683  33.124  32.175  1.00  0.00    -0.246 OA
BRANCH   6   8
ATOM      8  C   UNL A   1      36.571  34.483  32.630  1.00  0.00     0.087 C 
ATOM      9  C   UNL A   1      43.034  34.385  32.423  1.00  0.00     0.046 C 
ATOM     10  C   UNL A   1      41.564  34.492  32.111  1.00  0.00    -0.033 A 
ATOM     11  C   UNL A   1      40.674  34.697  33.174  1.00  0.00     0.051 A 
ATOM     12  C   UNL A   1      41.052  34.385  30.801  1.00  0.00     0.024 A 
ATOM     13  C   UNL A   1      39.298  34.722  32.961  1.00  0.00     0.128 A 
ATOM     14  C   UNL A   1      39.659  34.432  30.561  1.00  0.00    -0.026 A 
ATOM     15  Br  UNL A   1      42.289  34.150  29.357  1.00  0.00    -0.050 Br
ATOM     16  C   UNL A   1      38.782  34.555  31.671  1.00  0.00     0.021 A 
ATOM     17  O   UNL A   1      38.538  34.920  34.079  1.00  0.00    -0.475 OA
ATOM     18  C   UNL A   1      39.070  34.349  29.170  1.00  0.00     0.046 C 
ATOM     19  C   UNL A   1      37.335  34.450  31.531  1.00  0.00     0.027 C 
ATOM     20  C   UNL A   1      37.098  34.726  34.011  1.00  0.00     0.316 C 
BRANCH  20  21
ATOM     21  C   UNL A   1      36.714  33.614  34.997  1.00  0.00     0.430 C 
ATOM     22  F   UNL A   1      35.461  33.798  35.478  1.00  0.00    -0.167 F 
ATOM     23  F   UNL A   1      36.735  32.394  34.414  1.00  0.00    -0.167 F 
ATOM     24  F   UNL A   1      37.553  33.571  36.059  1.00  0.00    -0.167 F 
ENDBRANCH  20  21
ENDBRANCH   6   8
ENDBRANCH   5   6
ENDBRANCH   4   5
ENDBRANCH   3   4
ENDBRANCH   2   3
ENDBRANCH   1   2
BRANCH   1  25
ATOM     25  C   UNL A   1      34.147  34.243  28.225  1.00  0.00     0.261 C 
BRANCH  25  26
ATOM     26  O   UNL A   1      34.536  33.124  29.043  1.00  0.00    -0.460 OA
BRANCH  26  27
ATOM     27  C   UNL A   1      34.441  31.916  28.437  1.00  0.00     0.338 C 
ATOM     28  O   UNL A   1      33.536  31.529  27.704  1.00  0.00    -0.246 OA
BRANCH  27  29
ATOM     29  C   UNL A   1      35.695  31.168  28.614  1.00  0.00     0.060 A 
ATOM     30  C   UNL A   1      35.664  30.019  29.414  1.00  0.00     0.016 A 
ATOM     31  C   UNL A   1      36.897  31.630  28.075  1.00  0.00     0.016 A 
ATOM     32  C   UNL A   1      36.846  29.341  29.703  1.00  0.00     0.010 A 
ATOM     33  C   UNL A   1      38.085  30.956  28.380  1.00  0.00     0.010 A 
ATOM     34  C   UNL A   1      38.067  29.827  29.220  1.00  0.00    -0.014 A 
BRANCH  34  35
ATOM     35  C   UNL A   1      39.327  29.240  29.734  1.00  0.00     0.031 A 
ATOM     36  C   UNL A   1      39.906  29.777  31.015  1.00  0.00     0.074 A 
ATOM     37  C   UNL A   1      39.901  28.192  29.115  1.00  0.00     0.049 A 
ATOM     38  N   UNL A   1      40.976  29.397  31.663  1.00  0.00    -0.248 NA
ATOM     39  C   UNL A   1      39.178  30.885  31.653  1.00  0.00     0.031 C 
ATOM     40  C   UNL A   1      39.395  27.550  27.902  1.00  0.00     0.029 A 
ATOM     41  N   UNL A   1      41.027  27.473  29.431  1.00  0.00    -0.354 N 
ATOM     42  C   UNL A   1      41.043  30.207  32.790  1.00  0.00     0.074 A 
ATOM     43  C   UNL A   1      39.932  31.130  32.714  1.00  0.00     0.031 C 
ATOM     44  C   UNL A   1      40.200  26.522  27.585  1.00  0.00     0.029 A 
ATOM     45  C   UNL A   1      41.296  26.451  28.551  1.00  0.00     0.049 A 
ATOM     46  H   UNL A   1      41.589  27.671  30.214  1.00  0.00     0.167 HD
ATOM     47  C   UNL A   1      41.940  30.172  33.805  1.00  0.00     0.034 A 
ATOM     48  C   UNL A   1      42.314  25.569  28.524  1.00  0.00     0.034 A 
ATOM     49  C   UNL A   1      43.044  29.252  33.870  1.00  0.00     0.049 A 
ATOM     50  C   UNL A   1      43.366  25.626  29.603  1.00  0.00     0.074 A 
ATOM     51  C   UNL A   1      44.005  29.131  34.858  1.00  0.00     0.029 A 
ATOM     52  N   UNL A   1      43.342  28.300  32.905  1.00  0.00    -0.354 N 
ATOM     53  N   UNL A   1      43.425  26.410  30.655  1.00  0.00    -0.248 NA
ATOM     54  C   UNL A   1      44.493  24.688  29.489  1.00  0.00     0.031 C 
ATOM     55  C   UNL A   1      44.919  28.151  34.460  1.00  0.00     0.029 A 
ATOM     56  C   UNL A   1      44.493  27.615  33.256  1.00  0.00     0.049 A 
ATOM     57  H   UNL A   1      42.812  28.135  32.092  1.00  0.00     0.167 HD
ATOM     58  C   UNL A   1      44.586  26.048  31.334  1.00  0.00     0.074 A 
ATOM     59  C   UNL A   1      45.193  24.972  30.579  1.00  0.00     0.031 C 
ATOM     60  C   UNL A   1      45.097  26.558  32.482  1.00  0.00     0.034 A 
BRANCH  47  61
ATOM     61  C   UNL A   1      41.777  31.178  34.913  1.00  0.00     0.023 A 
ATOM     62  C   UNL A   1      42.633  32.285  35.029  1.00  0.00     0.031 A 
ATOM     63  C   UNL A   1      40.742  31.035  35.854  1.00  0.00     0.131 A 
ATOM     64  C   UNL A   1      42.466  33.187  36.088  1.00  0.00     0.055 A 
ATOM     65  C   UNL A   1      40.542  31.970  36.870  1.00  0.00     0.041 A 
ATOM     66  F   UNL A   1      39.909  29.985  35.798  1.00  0.00    -0.206 F 
ATOM     67  C   UNL A   1      41.412  33.051  36.996  1.00  0.00     0.022 A 
BRANCH  64  68
ATOM     68  S   UNL A   1      43.694  34.500  36.314  1.00  0.00     0.124 S 
ATOM     69  O   UNL A   1      44.778  34.042  35.448  1.00  0.00    -0.237 OA
ATOM     70  O   UNL A   1      42.977  35.688  35.865  1.00  0.00    -0.237 OA
ATOM     71  O   UNL A   1      43.986  34.454  37.746  1.00  0.00    -0.744 OA
ENDBRANCH  64  68
ENDBRANCH  47  61
BRANCH  48  72
ATOM     72  C   UNL A   1      42.409  24.571  27.422  1.00  0.00     0.023 A 
ATOM     73  C   UNL A   1      41.667  23.381  27.456  1.00  0.00     0.031 A 
ATOM     74  C   UNL A   1      43.259  24.790  26.324  1.00  0.00     0.131 A 
ATOM     75  C   UNL A   1      41.804  22.444  26.419  1.00  0.00     0.055 A 
ATOM     76  C   UNL A   1      43.364  23.873  25.277  1.00  0.00     0.041 A 
ATOM     77  F   UNL A   1      43.990  25.914  26.246  1.00  0.00    -0.206 F 
ATOM     78  C   UNL A   1      42.637  22.688  25.324  1.00  0.00     0.022 A 
BRANCH  75  79
ATOM     79  S   UNL A   1      40.897  20.877  26.535  1.00  0.00     0.124 S 
ATOM     80  O   UNL A   1      39.605  21.239  25.966  1.00  0.00    -0.237 OA
ATOM     81  O   UNL A   1      41.726  19.984  25.732  1.00  0.00    -0.237 OA
ATOM     82  O   UNL A   1      40.892  20.593  27.969  1.00  0.00    -0.744 OA
ENDBRANCH  75  79
ENDBRANCH  48  72
BRANCH  60  83
ATOM     83  C   UNL A   1      46.376  25.961  33.004  1.00  0.00     0.023 A 
ATOM     84  C   UNL A   1      46.365  24.828  33.833  1.00  0.00     0.031 A 
ATOM     85  C   UNL A   1      47.618  26.483  32.603  1.00  0.00     0.131 A 
ATOM     86  C   UNL A   1      47.577  24.258  34.249  1.00  0.00     0.055 A 
ATOM     87  C   UNL A   1      48.821  25.888  32.986  1.00  0.00     0.041 A 
ATOM     88  F   UNL A   1      47.680  27.561  31.805  1.00  0.00    -0.206 F 
ATOM     89  C   UNL A   1      48.804  24.770  33.815  1.00  0.00     0.022 A 
BRANCH  86  90
ATOM     90  S   UNL A   1      47.534  22.840  35.378  1.00  0.00     0.124 S 
ATOM     91  O   UNL A   1      48.940  22.449  35.426  1.00  0.00    -0.237 OA
ATOM     92  O   UNL A   1      46.994  23.424  36.601  1.00  0.00    -0.237 OA
ATOM     93  O   UNL A   1      46.650  21.891  34.704  1.00  0.00    -0.744 OA
ENDBRANCH  86  90
ENDBRANCH  60  83
ENDBRANCH  34  35
ENDBRANCH  27  29
ENDBRANCH  26  27
ENDBRANCH  25  26
ENDBRANCH   1  25
TORSDOF 18
ENDMDL
MODEL 2
REMARK VINA RESULT:      -9.8      5.813     11.837
REMARK SMILES Cc1cc2c(c(C)c1Br)C=C(C(=O)OCCOCCOC(=O)c1ccc(-c3c4nc(c(-c5cc(S(=O)(=O)[O-])ccc5F)c5ccc([nH]5)c(-c5cc(S(=O)(=O)[O-])ccc5F)c5nc(c(-c6cc(S(=O)(=O)[O-])ccc6F)c6ccc3[nH]6)C=C5)C=C4)cc1)[C@@H](C(F)(F)F)O2
REMARK SMILES IDX 18 1 17 2 16 3 15 4 14 5 12 6 13 7 11 8 1 9 2 10 3 11 8 12
REMARK SMILES IDX 4 13 6 14 9 15 5 16 91 17 7 18 10 19 86 20 87 21 88 22 89 23
REMARK SMILES IDX 90 24 19 25 20 26 21 27 22 28 23 29 24 30 85 31 25 32 84 33
REMARK SMILES IDX 26 34 27 35 28 36 78 37 29 38 83 39 77 40 79 41 30 42 82 43
REMARK SMILES IDX 76 44 75 45 31 47 63 48 43 49 62 50 44 51 47 52 61 53 80 54
REMARK SMILES IDX 45 55 46 56 60 58 81 59 48 60 32 61 33 62 41 63 34 64 40 65
REMARK SMILES IDX 42 66 39 67 35 68 36 69 37 70 38 71 64 72 65 73 73 74 66 75
REMARK SMILES IDX 72 76 74 77 71 78 67 79 68 80 69 81 70 82 49 83 50 84 58 85
REMARK SMILES IDX 51 86 57 87 59 88 56 89 52 90 53 91 54 92 55 93
REMARK H PARENT 79 46 47 57
REMARK Flexibility Score: inf
ROOT
ATOM      1  C   UNL A   1      37.419  20.412  24.809  1.00  0.00     0.202 C 
ENDROOT
BRANCH   1   2
ATOM      2  O   UNL A   1      36.132  19.812  24.966  1.00  0.00    -0.374 OA
BRANCH   2   3
ATOM      3  C   UNL A   1      35.024  20.666  25.237  1.00  0.00     0.202 C 
BRANCH   3   4
ATOM      4  C   UNL A   1      35.320  21.993  25.944  1.00  0.00     0.261 C 
BRANCH   4   5
ATOM      5  O   UNL A   1      34.642  23.099  25.328  1.00  0.00    -0.460 OA
BRANCH   5   6
ATOM      6  C   UNL A   1      33.634  23.617  26.065  1.00  0.00     0.338 C 
ATOM      7  O   UNL A   1      33.307  23.295  27.198  1.00  0.00    -0.246 OA
BRANCH   6   8
ATOM      8  C   UNL A   1      33.031  24.761  25.356  1.00  0.00     0.087 C 
ATOM      9  C   UNL A   1      29.988  30.255  23.816  1.00  0.00     0.046 C 
ATOM     10  C   UNL A   1      30.910  29.204  24.374  1.00  0.00    -0.033 A 
ATOM     11  C   UNL A   1      30.988  27.971  23.713  1.00  0.00     0.051 A 
ATOM     12  C   UNL A   1      31.686  29.408  25.535  1.00  0.00     0.024 A 
ATOM     13  C   UNL A   1      31.761  26.931  24.226  1.00  0.00     0.128 A 
ATOM     14  C   UNL A   1      32.494  28.372  26.059  1.00  0.00    -0.026 A 
ATOM     15  Br  UNL A   1      31.598  31.115  26.399  1.00  0.00    -0.050 Br
ATOM     16  C   UNL A   1      32.483  27.109  25.409  1.00  0.00     0.021 A 
ATOM     17  O   UNL A   1      31.745  25.779  23.492  1.00  0.00    -0.475 OA
ATOM     18  C   UNL A   1      33.362  28.557  27.283  1.00  0.00     0.046 C 
ATOM     19  C   UNL A   1      33.157  25.944  25.971  1.00  0.00     0.027 C 
ATOM     20  C   UNL A   1      32.316  24.564  24.054  1.00  0.00     0.316 C 
BRANCH  20  21
ATOM     21  C   UNL A   1      31.208  23.505  24.140  1.00  0.00     0.430 C 
ATOM     22  F   UNL A   1      30.232  23.745  23.232  1.00  0.00    -0.167 F 
ATOM     23  F   UNL A   1      31.678  22.262  23.890  1.00  0.00    -0.167 F 
ATOM     24  F   UNL A   1      30.627  23.483  25.362  1.00  0.00    -0.167 F 
ENDBRANCH  20  21
ENDBRANCH   6   8
ENDBRANCH   5   6
ENDBRANCH   4   5
ENDBRANCH   3   4
ENDBRANCH   2   3
ENDBRANCH   1   2
BRANCH   1  25
ATOM     25  C   UNL A   1      38.617  19.735  25.486  1.00  0.00     0.261 C 
BRANCH  25  26
ATOM     26  O   UNL A   1      39.784  20.579  25.498  1.00  0.00    -0.460 OA
BRANCH  26  27
ATOM     27  C   UNL A   1      40.524  20.510  26.631  1.00  0.00     0.338 C 
ATOM     28  O   UNL A   1      41.090  19.521  27.082  1.00  0.00    -0.246 OA
BRANCH  27  29
ATOM     29  C   UNL A   1      40.733  21.862  27.173  1.00  0.00     0.060 A 
ATOM     30  C   UNL A   1      40.138  22.936  26.500  1.00  0.00     0.016 A 
ATOM     31  C   UNL A   1      41.564  22.082  28.272  1.00  0.00     0.016 A 
ATOM     32  C   UNL A   1      40.399  24.242  26.907  1.00  0.00     0.010 A 
ATOM     33  C   UNL A   1      41.837  23.396  28.671  1.00  0.00     0.010 A 
ATOM     34  C   UNL A   1      41.279  24.481  27.971  1.00  0.00    -0.014 A 
BRANCH  34  35
ATOM     35  C   UNL A   1      41.730  25.869  28.231  1.00  0.00     0.031 A 
ATOM     36  C   UNL A   1      43.094  26.288  27.753  1.00  0.00     0.074 A 
ATOM     37  C   UNL A   1      40.907  26.762  28.809  1.00  0.00     0.049 A 
ATOM     38  N   UNL A   1      43.680  27.453  27.844  1.00  0.00    -0.248 NA
ATOM     39  C   UNL A   1      43.901  25.258  27.079  1.00  0.00     0.031 C 
ATOM     40  C   UNL A   1      39.542  26.485  29.257  1.00  0.00     0.029 A 
ATOM     41  N   UNL A   1      41.094  28.090  29.104  1.00  0.00    -0.354 N 
ATOM     42  C   UNL A   1      44.917  27.301  27.228  1.00  0.00     0.074 A 
ATOM     43  C   UNL A   1      45.015  25.920  26.808  1.00  0.00     0.031 C 
ATOM     44  C   UNL A   1      39.010  27.613  29.756  1.00  0.00     0.029 A 
ATOM     45  C   UNL A   1      40.004  28.684  29.695  1.00  0.00     0.049 A 
ATOM     46  H   UNL A   1      41.931  28.571  28.912  1.00  0.00     0.167 HD
ATOM     47  C   UNL A   1      45.875  28.235  27.015  1.00  0.00     0.034 A 
ATOM     48  C   UNL A   1      39.833  29.944  30.143  1.00  0.00     0.034 A 
ATOM     49  C   UNL A   1      45.770  29.606  27.438  1.00  0.00     0.049 A 
ATOM     50  C   UNL A   1      40.961  30.935  30.000  1.00  0.00     0.074 A 
ATOM     51  C   UNL A   1      46.682  30.631  27.266  1.00  0.00     0.029 A 
ATOM     52  N   UNL A   1      44.692  30.144  28.127  1.00  0.00    -0.354 N 
ATOM     53  N   UNL A   1      42.132  30.773  29.429  1.00  0.00    -0.248 NA
ATOM     54  C   UNL A   1      40.750  32.275  30.568  1.00  0.00     0.031 C 
ATOM     55  C   UNL A   1      46.185  31.770  27.904  1.00  0.00     0.029 A 
ATOM     56  C   UNL A   1      44.933  31.474  28.420  1.00  0.00     0.049 A 
ATOM     57  H   UNL A   1      43.875  29.651  28.370  1.00  0.00     0.167 HD
ATOM     58  C   UNL A   1      42.789  31.994  29.556  1.00  0.00     0.074 A 
ATOM     59  C   UNL A   1      41.883  32.885  30.251  1.00  0.00     0.031 C 
ATOM     60  C   UNL A   1      44.028  32.344  29.130  1.00  0.00     0.034 A 
BRANCH  47  61
ATOM     61  C   UNL A   1      47.133  27.794  26.315  1.00  0.00     0.023 A 
ATOM     62  C   UNL A   1      47.285  27.931  24.925  1.00  0.00     0.031 A 
ATOM     63  C   UNL A   1      48.198  27.245  27.049  1.00  0.00     0.131 A 
ATOM     64  C   UNL A   1      48.460  27.486  24.305  1.00  0.00     0.055 A 
ATOM     65  C   UNL A   1      49.390  26.860  26.435  1.00  0.00     0.041 A 
ATOM     66  F   UNL A   1      48.095  27.075  28.377  1.00  0.00    -0.206 F 
ATOM     67  C   UNL A   1      49.524  26.974  25.053  1.00  0.00     0.022 A 
BRANCH  64  68
ATOM     68  S   UNL A   1      48.552  27.511  22.496  1.00  0.00     0.124 S 
ATOM     69  O   UNL A   1      49.812  28.216  22.274  1.00  0.00    -0.237 OA
ATOM     70  O   UNL A   1      48.547  26.092  22.157  1.00  0.00    -0.237 OA
ATOM     71  O   UNL A   1      47.354  28.248  22.101  1.00  0.00    -0.744 OA
ENDBRANCH  64  68
ENDBRANCH  47  61
BRANCH  48  72
ATOM     72  C   UNL A   1      38.554  30.337  30.798  1.00  0.00     0.023 A 
ATOM     73  C   UNL A   1      37.568  31.046  30.095  1.00  0.00     0.031 A 
ATOM     74  C   UNL A   1      38.308  30.020  32.145  1.00  0.00     0.131 A 
ATOM     75  C   UNL A   1      36.388  31.433  30.750  1.00  0.00     0.055 A 
ATOM     76  C   UNL A   1      37.117  30.373  32.781  1.00  0.00     0.041 A 
ATOM     77  F   UNL A   1      39.221  29.342  32.860  1.00  0.00    -0.206 F 
ATOM     78  C   UNL A   1      36.151  31.090  32.083  1.00  0.00     0.022 A 
BRANCH  75  79
ATOM     79  S   UNL A   1      35.171  32.424  29.840  1.00  0.00     0.124 S 
ATOM     80  O   UNL A   1      34.223  32.769  30.892  1.00  0.00    -0.237 OA
ATOM     81  O   UNL A   1      35.990  33.519  29.329  1.00  0.00    -0.237 OA
ATOM     82  O   UNL A   1      34.671  31.499  28.825  1.00  0.00    -0.744 OA
ENDBRANCH  75  79
ENDBRANCH  48  72
BRANCH  60  83
ATOM     83  C   UNL A   1      44.486  33.754  29.394  1.00  0.00     0.023 A 
ATOM     84  C   UNL A   1      44.116  34.810  28.547  1.00  0.00     0.031 A 
ATOM     85  C   UNL A   1      45.232  34.054  30.548  1.00  0.00     0.131 A 
ATOM     86  C   UNL A   1      44.505  36.121  28.857  1.00  0.00     0.055 A 
ATOM     87  C   UNL A   1      45.581  35.364  30.874  1.00  0.00     0.041 A 
ATOM     88  F   UNL A   1      45.603  33.078  31.393  1.00  0.00    -0.206 F 
ATOM     89  C   UNL A   1      45.219  36.406  30.025  1.00  0.00     0.022 A 
BRANCH  86  90
ATOM     90  S   UNL A   1      44.076  37.456  27.708  1.00  0.00     0.124 S 
ATOM     91  O   UNL A   1      45.184  37.406  26.759  1.00  0.00    -0.237 OA
ATOM     92  O   UNL A   1      42.778  37.028  27.195  1.00  0.00    -0.237 OA
ATOM     93  O   UNL A   1      44.041  38.644  28.559  1.00  0.00    -0.744 OA
ENDBRANCH  86  90
ENDBRANCH  60  83
ENDBRANCH  34  35
ENDBRANCH  27  29
ENDBRANCH  26  27
ENDBRANCH  25  26
ENDBRANCH   1  25
TORSDOF 18
ENDMDL
MODEL 3
REMARK VINA RESULT:      -9.4      4.503      6.952
REMARK SMILES Cc1cc2c(c(C)c1Br)C=C(C(=O)OCCOCCOC(=O)c1ccc(-c3c4nc(c(-c5cc(S(=O)(=O)[O-])ccc5F)c5ccc([nH]5)c(-c5cc(S(=O)(=O)[O-])ccc5F)c5nc(c(-c6cc(S(=O)(=O)[O-])ccc6F)c6ccc3[nH]6)C=C5)C=C4)cc1)[C@@H](C(F)(F)F)O2
REMARK SMILES IDX 18 1 17 2 16 3 15 4 14 5 12 6 13 7 11 8 1 9 2 10 3 11 8 12
REMARK SMILES IDX 4 13 6 14 9 15 5 16 91 17 7 18 10 19 86 20 87 21 88 22 89 23
REMARK SMILES IDX 90 24 19 25 20 26 21 27 22 28 23 29 24 30 85 31 25 32 84 33
REMARK SMILES IDX 26 34 27 35 28 36 78 37 29 38 83 39 77 40 79 41 30 42 82 43
REMARK SMILES IDX 76 44 75 45 31 47 63 48 43 49 62 50 44 51 47 52 61 53 80 54
REMARK SMILES IDX 45 55 46 56 60 58 81 59 48 60 32 61 33 62 41 63 34 64 40 65
REMARK SMILES IDX 42 66 39 67 35 68 36 69 37 70 38 71 64 72 65 73 73 74 66 75
REMARK SMILES IDX 72 76 74 77 71 78 67 79 68 80 69 81 70 82 49 83 50 84 58 85
REMARK SMILES IDX 51 86 57 87 59 88 56 89 52 90 53 91 54 92 55 93
REMARK H PARENT 79 46 47 57
REMARK Flexibility Score: inf
ROOT
ATOM      1  C   UNL A   1      30.713  31.701  25.460  1.00  0.00     0.202 C 
ENDROOT
BRANCH   1   2
ATOM      2  O   UNL A   1      30.688  30.342  25.019  1.00  0.00    -0.374 OA
BRANCH   2   3
ATOM      3  C   UNL A   1      29.896  30.024  23.877  1.00  0.00     0.202 C 
BRANCH   3   4
ATOM      4  C   UNL A   1      30.571  29.225  22.757  1.00  0.00     0.261 C 
BRANCH   4   5
ATOM      5  O   UNL A   1      31.170  28.014  23.241  1.00  0.00    -0.460 OA
BRANCH   5   6
ATOM      6  C   UNL A   1      32.503  27.926  23.028  1.00  0.00     0.338 C 
ATOM      7  O   UNL A   1      33.194  28.679  22.356  1.00  0.00    -0.246 OA
BRANCH   6   8
ATOM      8  C   UNL A   1      33.072  26.842  23.850  1.00  0.00     0.087 C 
ATOM      9  C   UNL A   1      34.062  21.387  27.179  1.00  0.00     0.046 C 
ATOM     10  C   UNL A   1      33.770  22.422  26.124  1.00  0.00    -0.033 A 
ATOM     11  C   UNL A   1      34.219  23.731  26.337  1.00  0.00     0.051 A 
ATOM     12  C   UNL A   1      33.057  22.126  24.943  1.00  0.00     0.024 A 
ATOM     13  C   UNL A   1      33.909  24.750  25.438  1.00  0.00     0.128 A 
ATOM     14  C   UNL A   1      32.752  23.142  24.007  1.00  0.00    -0.026 A 
ATOM     15  Br  UNL A   1      32.490  20.320  24.650  1.00  0.00    -0.050 Br
ATOM     16  C   UNL A   1      33.151  24.474  24.296  1.00  0.00     0.021 A 
ATOM     17  O   UNL A   1      34.398  25.983  25.765  1.00  0.00    -0.475 OA
ATOM     18  C   UNL A   1      32.016  22.863  22.716  1.00  0.00     0.046 C 
ATOM     19  C   UNL A   1      32.740  25.602  23.470  1.00  0.00     0.027 C 
ATOM     20  C   UNL A   1      33.938  27.153  25.032  1.00  0.00     0.316 C 
BRANCH  20  21
ATOM     21  C   UNL A   1      33.264  28.110  26.026  1.00  0.00     0.430 C 
ATOM     22  F   UNL A   1      31.947  27.824  26.164  1.00  0.00    -0.167 F 
ATOM     23  F   UNL A   1      33.814  28.026  27.259  1.00  0.00    -0.167 F 
ATOM     24  F   UNL A   1      33.358  29.399  25.626  1.00  0.00    -0.167 F 
ENDBRANCH  20  21
ENDBRANCH   6   8
ENDBRANCH   5   6
ENDBRANCH   4   5
ENDBRANCH   3   4
ENDBRANCH   2   3
ENDBRANCH   1   2
BRANCH   1  25
ATOM     25  C   UNL A   1      31.336  32.002  26.829  1.00  0.00     0.261 C 
BRANCH  25  26
ATOM     26  O   UNL A   1      32.770  31.876  26.814  1.00  0.00    -0.460 OA
BRANCH  26  27
ATOM     27  C   UNL A   1      33.428  32.776  27.584  1.00  0.00     0.338 C 
ATOM     28  O   UNL A   1      32.983  33.827  28.032  1.00  0.00    -0.246 OA
BRANCH  27  29
ATOM     29  C   UNL A   1      34.730  32.226  27.991  1.00  0.00     0.060 A 
ATOM     30  C   UNL A   1      34.807  30.853  28.256  1.00  0.00     0.016 A 
ATOM     31  C   UNL A   1      35.837  33.054  28.190  1.00  0.00     0.016 A 
ATOM     32  C   UNL A   1      35.988  30.306  28.753  1.00  0.00     0.010 A 
ATOM     33  C   UNL A   1      37.017  32.504  28.704  1.00  0.00     0.010 A 
ATOM     34  C   UNL A   1      37.087  31.134  29.015  1.00  0.00    -0.014 A 
BRANCH  34  35
ATOM     35  C   UNL A   1      38.239  30.581  29.765  1.00  0.00     0.031 A 
ATOM     36  C   UNL A   1      38.451  31.014  31.190  1.00  0.00     0.074 A 
ATOM     37  C   UNL A   1      39.035  29.647  29.213  1.00  0.00     0.049 A 
ATOM     38  N   UNL A   1      39.370  30.639  32.041  1.00  0.00    -0.248 NA
ATOM     39  C   UNL A   1      37.496  31.995  31.729  1.00  0.00     0.031 C 
ATOM     40  C   UNL A   1      38.888  29.107  27.860  1.00  0.00     0.029 A 
ATOM     41  N   UNL A   1      40.116  28.975  29.726  1.00  0.00    -0.354 N 
ATOM     42  C   UNL A   1      39.098  31.326  33.219  1.00  0.00     0.074 A 
ATOM     43  C   UNL A   1      37.955  32.175  32.958  1.00  0.00     0.031 C 
ATOM     44  C   UNL A   1      39.834  28.176  27.658  1.00  0.00     0.029 A 
ATOM     45  C   UNL A   1      40.676  28.075  28.850  1.00  0.00     0.049 A 
ATOM     46  H   UNL A   1      40.459  29.125  30.636  1.00  0.00     0.167 HD
ATOM     47  C   UNL A   1      39.731  31.241  34.413  1.00  0.00     0.034 A 
ATOM     48  C   UNL A   1      41.748  27.271  28.992  1.00  0.00     0.034 A 
ATOM     49  C   UNL A   1      40.869  30.396  34.661  1.00  0.00     0.049 A 
ATOM     50  C   UNL A   1      42.509  27.282  30.294  1.00  0.00     0.074 A 
ATOM     51  C   UNL A   1      41.579  30.234  35.837  1.00  0.00     0.029 A 
ATOM     52  N   UNL A   1      41.470  29.576  33.716  1.00  0.00    -0.354 N 
ATOM     53  N   UNL A   1      42.248  27.950  31.394  1.00  0.00    -0.248 NA
ATOM     54  C   UNL A   1      43.711  26.440  30.373  1.00  0.00     0.031 C 
ATOM     55  C   UNL A   1      42.645  29.366  35.587  1.00  0.00     0.029 A 
ATOM     56  C   UNL A   1      42.564  28.936  34.273  1.00  0.00     0.049 A 
ATOM     57  H   UNL A   1      41.162  29.465  32.788  1.00  0.00     0.167 HD
ATOM     58  C   UNL A   1      43.246  27.596  32.299  1.00  0.00     0.074 A 
ATOM     59  C   UNL A   1      44.109  26.651  31.621  1.00  0.00     0.031 C 
ATOM     60  C   UNL A   1      43.426  28.012  33.577  1.00  0.00     0.034 A 
BRANCH  47  61
ATOM     61  C   UNL A   1      39.223  32.108  35.533  1.00  0.00     0.023 A 
ATOM     62  C   UNL A   1      39.690  33.420  35.714  1.00  0.00     0.031 A 
ATOM     63  C   UNL A   1      38.247  31.622  36.420  1.00  0.00     0.131 A 
ATOM     64  C   UNL A   1      39.212  34.189  36.783  1.00  0.00     0.055 A 
ATOM     65  C   UNL A   1      37.729  32.413  37.445  1.00  0.00     0.041 A 
ATOM     66  F   UNL A   1      37.781  30.369  36.301  1.00  0.00    -0.206 F 
ATOM     67  C   UNL A   1      38.217  33.704  37.636  1.00  0.00     0.022 A 
BRANCH  64  68
ATOM     68  S   UNL A   1      39.965  35.808  37.096  1.00  0.00     0.124 S 
ATOM     69  O   UNL A   1      41.367  35.447  37.294  1.00  0.00    -0.237 OA
ATOM     70  O   UNL A   1      39.662  36.542  35.873  1.00  0.00    -0.237 OA
ATOM     71  O   UNL A   1      39.274  36.282  38.294  1.00  0.00    -0.744 OA
ENDBRANCH  64  68
ENDBRANCH  47  61
BRANCH  48  72
ATOM     72  C   UNL A   1      42.189  26.407  27.861  1.00  0.00     0.023 A 
ATOM     73  C   UNL A   1      41.822  25.054  27.798  1.00  0.00     0.031 A 
ATOM     74  C   UNL A   1      42.997  26.922  26.834  1.00  0.00     0.131 A 
ATOM     75  C   UNL A   1      42.282  24.256  26.738  1.00  0.00     0.055 A 
ATOM     76  C   UNL A   1      43.421  26.135  25.762  1.00  0.00     0.041 A 
ATOM     77  F   UNL A   1      43.374  28.211  26.850  1.00  0.00    -0.206 F 
ATOM     78  C   UNL A   1      43.067  24.791  25.714  1.00  0.00     0.022 A 
BRANCH  75  79
ATOM     79  S   UNL A   1      41.864  22.491  26.731  1.00  0.00     0.124 S 
ATOM     80  O   UNL A   1      42.727  21.978  27.789  1.00  0.00    -0.237 OA
ATOM     81  O   UNL A   1      40.435  22.514  27.023  1.00  0.00    -0.237 OA
ATOM     82  O   UNL A   1      42.213  22.064  25.377  1.00  0.00    -0.744 OA
ENDBRANCH  75  79
ENDBRANCH  48  72
BRANCH  60  83
ATOM     83  C   UNL A   1      44.596  27.449  34.338  1.00  0.00     0.023 A 
ATOM     84  C   UNL A   1      44.463  26.300  35.133  1.00  0.00     0.031 A 
ATOM     85  C   UNL A   1      45.873  28.023  34.202  1.00  0.00     0.131 A 
ATOM     86  C   UNL A   1      45.587  25.764  35.777  1.00  0.00     0.055 A 
ATOM     87  C   UNL A   1      46.996  27.462  34.811  1.00  0.00     0.041 A 
ATOM     88  F   UNL A   1      46.051  29.118  33.447  1.00  0.00    -0.206 F 
ATOM     89  C   UNL A   1      46.855  26.327  35.605  1.00  0.00     0.022 A 
BRANCH  86  90
ATOM     90  S   UNL A   1      45.374  24.322  36.855  1.00  0.00     0.124 S 
ATOM     91  O   UNL A   1      44.910  24.937  38.095  1.00  0.00    -0.237 OA
ATOM     92  O   UNL A   1      44.387  23.528  36.130  1.00  0.00    -0.237 OA
ATOM     93  O   UNL A   1      46.712  23.737  36.915  1.00  0.00    -0.744 OA
ENDBRANCH  86  90
ENDBRANCH  60  83
ENDBRANCH  34  35
ENDBRANCH  27  29
ENDBRANCH  26  27
ENDBRANCH  25  26
ENDBRANCH   1  25
TORSDOF 18
ENDMDL
