MODEL 1
REMARK VINA RESULT:     -11.2      0.000      0.000
REMARK SMILES CC(C)CCc1cc2c(cc1Cl)C=C(C(=O)OCCOCCOC(=O)c1ccc(-c3c4nc(c(-c5cc(S(=O)(=O)[O-])ccc5F)c5ccc([nH]5)c(-c5cc(S(=O)(=O)[O-])ccc5F)c5nc(c(-c6cc(S(=O)(=O)[O-])ccc6F)c6ccc3[nH]6)C=C5)C=C4)cc1)[C@@H](C(F)(F)F)O2
REMARK SMILES IDX 20 1 19 2 18 3 17 4 15 5 16 6 14 7 6 8 7 9 11 10 8 11 10 12
REMARK SMILES IDX 12 13 9 14 94 15 13 16 89 17 5 18 4 19 2 20 1 21 3 22 90 23
REMARK SMILES IDX 91 24 92 25 93 26 21 27 22 28 23 29 24 30 25 31 26 32 27 33
REMARK SMILES IDX 88 34 28 35 87 36 29 37 30 38 31 39 81 40 32 41 86 42 80 43
REMARK SMILES IDX 82 44 33 45 85 46 79 47 78 48 34 50 66 51 46 52 65 53 47 54
REMARK SMILES IDX 50 55 64 56 83 57 48 58 49 59 63 61 84 62 51 63 35 64 36 65
REMARK SMILES IDX 44 66 37 67 43 68 45 69 42 70 38 71 39 72 40 73 41 74 67 75
REMARK SMILES IDX 68 76 76 77 69 78 75 79 77 80 74 81 70 82 71 83 72 84 73 85
REMARK SMILES IDX 52 86 53 87 61 88 54 89 60 90 62 91 59 92 55 93 56 94 57 95
REMARK SMILES IDX 58 96
REMARK H PARENT 82 49 50 60
REMARK Flexibility Score: inf
ROOT
ATOM      1  O   UNL A   1      37.846  20.671  24.471  1.00  0.00    -0.374 OA
ENDROOT
BRANCH   1   2
ATOM      2  C   UNL A   1      37.346  21.701  25.320  1.00  0.00     0.202 C 
BRANCH   2   3
ATOM      3  C   UNL A   1      35.847  21.696  25.639  1.00  0.00     0.261 C 
BRANCH   3   4
ATOM      4  O   UNL A   1      35.353  23.017  25.900  1.00  0.00    -0.460 OA
BRANCH   4   5
ATOM      5  C   UNL A   1      34.030  23.078  26.177  1.00  0.00     0.338 C 
ATOM      6  O   UNL A   1      33.414  22.396  26.980  1.00  0.00    -0.246 OA
BRANCH   5   7
ATOM      7  C   UNL A   1      33.429  24.220  25.462  1.00  0.00     0.087 C 
ATOM      8  C   UNL A   1      31.225  28.603  24.425  1.00  0.00    -0.026 A 
ATOM      9  C   UNL A   1      31.471  27.427  23.695  1.00  0.00     0.052 A 
ATOM     10  C   UNL A   1      31.886  28.755  25.659  1.00  0.00     0.045 A 
ATOM     11  C   UNL A   1      32.218  26.380  24.239  1.00  0.00     0.128 A 
ATOM     12  C   UNL A   1      32.666  27.724  26.188  1.00  0.00     0.032 A 
ATOM     13  Cl  UNL A   1      31.759  30.206  26.594  1.00  0.00    -0.084 Cl
ATOM     14  C   UNL A   1      32.794  26.518  25.498  1.00  0.00     0.019 A 
ATOM     15  O   UNL A   1      32.330  25.253  23.476  1.00  0.00    -0.475 OA
ATOM     16  C   UNL A   1      33.473  25.394  26.106  1.00  0.00     0.027 C 
ATOM     17  C   UNL A   1      32.807  24.028  24.105  1.00  0.00     0.316 C 
BRANCH   8  18
ATOM     18  C   UNL A   1      30.287  29.681  23.916  1.00  0.00     0.037 C 
BRANCH  18  19
ATOM     19  C   UNL A   1      29.511  29.417  22.614  1.00  0.00     0.008 C 
BRANCH  19  20
ATOM     20  C   UNL A   1      28.137  30.112  22.493  1.00  0.00    -0.017 C 
ATOM     21  C   UNL A   1      27.928  31.198  23.548  1.00  0.00     0.007 C 
ATOM     22  C   UNL A   1      27.988  30.707  21.091  1.00  0.00     0.007 C 
ENDBRANCH  19  20
ENDBRANCH  18  19
ENDBRANCH   8  18
BRANCH  17  23
ATOM     23  C   UNL A   1      31.666  23.001  24.132  1.00  0.00     0.430 C 
ATOM     24  F   UNL A   1      30.930  23.109  25.262  1.00  0.00    -0.167 F 
ATOM     25  F   UNL A   1      30.818  23.171  23.091  1.00  0.00    -0.167 F 
ATOM     26  F   UNL A   1      32.132  21.732  24.071  1.00  0.00    -0.167 F 
ENDBRANCH  17  23
ENDBRANCH   5   7
ENDBRANCH   4   5
ENDBRANCH   3   4
ENDBRANCH   2   3
ENDBRANCH   1   2
BRANCH   1  27
ATOM     27  C   UNL A   1      38.380  19.491  25.070  1.00  0.00     0.202 C 
BRANCH  27  28
ATOM     28  C   UNL A   1      39.468  19.634  26.143  1.00  0.00     0.261 C 
BRANCH  28  29
ATOM     29  O   UNL A   1      40.773  19.257  25.678  1.00  0.00    -0.460 OA
BRANCH  29  30
ATOM     30  C   UNL A   1      41.776  19.475  26.568  1.00  0.00     0.338 C 
ATOM     31  O   UNL A   1      42.576  18.651  26.986  1.00  0.00    -0.246 OA
BRANCH  30  32
ATOM     32  C   UNL A   1      41.904  20.924  26.813  1.00  0.00     0.060 A 
ATOM     33  C   UNL A   1      42.180  21.420  28.087  1.00  0.00     0.016 A 
ATOM     34  C   UNL A   1      41.770  21.794  25.723  1.00  0.00     0.016 A 
ATOM     35  C   UNL A   1      42.345  22.796  28.262  1.00  0.00     0.010 A 
ATOM     36  C   UNL A   1      41.942  23.167  25.900  1.00  0.00     0.010 A 
ATOM     37  C   UNL A   1      42.246  23.679  27.169  1.00  0.00    -0.014 A 
BRANCH  37  38
ATOM     38  C   UNL A   1      42.591  25.113  27.343  1.00  0.00     0.031 A 
ATOM     39  C   UNL A   1      41.635  26.082  27.973  1.00  0.00     0.074 A 
ATOM     40  C   UNL A   1      43.795  25.537  26.913  1.00  0.00     0.049 A 
ATOM     41  N   UNL A   1      41.836  27.333  28.298  1.00  0.00    -0.248 NA
ATOM     42  C   UNL A   1      40.280  25.594  28.266  1.00  0.00     0.031 C 
ATOM     43  C   UNL A   1      44.777  24.694  26.231  1.00  0.00     0.029 A 
ATOM     44  N   UNL A   1      44.406  26.764  26.991  1.00  0.00    -0.354 N 
ATOM     45  C   UNL A   1      40.645  27.778  28.857  1.00  0.00     0.074 A 
ATOM     46  C   UNL A   1      39.706  26.681  28.768  1.00  0.00     0.031 C 
ATOM     47  C   UNL A   1      45.882  25.413  25.994  1.00  0.00     0.029 A 
ATOM     48  C   UNL A   1      45.680  26.779  26.470  1.00  0.00     0.049 A 
ATOM     49  H   UNL A   1      43.974  27.556  27.384  1.00  0.00     0.167 HD
ATOM     50  C   UNL A   1      40.375  28.986  29.411  1.00  0.00     0.034 A 
ATOM     51  C   UNL A   1      46.588  27.773  26.391  1.00  0.00     0.034 A 
ATOM     52  C   UNL A   1      41.324  30.070  29.474  1.00  0.00     0.049 A 
ATOM     53  C   UNL A   1      46.260  29.110  27.008  1.00  0.00     0.074 A 
ATOM     54  C   UNL A   1      41.159  31.315  30.058  1.00  0.00     0.029 A 
ATOM     55  N   UNL A   1      42.604  30.054  28.935  1.00  0.00    -0.354 N 
ATOM     56  N   UNL A   1      45.171  29.481  27.640  1.00  0.00    -0.248 NA
ATOM     57  C   UNL A   1      47.288  30.158  26.926  1.00  0.00     0.031 C 
ATOM     58  C   UNL A   1      42.298  32.075  29.799  1.00  0.00     0.029 A 
ATOM     59  C   UNL A   1      43.223  31.277  29.145  1.00  0.00     0.049 A 
ATOM     60  H   UNL A   1      43.011  29.288  28.471  1.00  0.00     0.167 HD
ATOM     61  C   UNL A   1      45.398  30.787  28.063  1.00  0.00     0.074 A 
ATOM     62  C   UNL A   1      46.736  31.135  27.633  1.00  0.00     0.031 C 
ATOM     63  C   UNL A   1      44.568  31.619  28.743  1.00  0.00     0.034 A 
BRANCH  50  64
ATOM     64  C   UNL A   1      39.016  29.216  30.030  1.00  0.00     0.023 A 
ATOM     65  C   UNL A   1      38.057  29.999  29.359  1.00  0.00     0.031 A 
ATOM     66  C   UNL A   1      38.735  28.809  31.348  1.00  0.00     0.131 A 
ATOM     67  C   UNL A   1      36.888  30.390  30.023  1.00  0.00     0.055 A 
ATOM     68  C   UNL A   1      37.544  29.158  31.986  1.00  0.00     0.041 A 
ATOM     69  F   UNL A   1      39.619  28.069  32.036  1.00  0.00    -0.206 F 
ATOM     70  C   UNL A   1      36.621  29.967  31.329  1.00  0.00     0.022 A 
BRANCH  67  71
ATOM     71  S   UNL A   1      35.710  31.534  29.253  1.00  0.00     0.124 S 
ATOM     72  O   UNL A   1      36.602  32.488  28.599  1.00  0.00    -0.237 OA
ATOM     73  O   UNL A   1      34.971  30.653  28.354  1.00  0.00    -0.237 OA
ATOM     74  O   UNL A   1      34.951  32.067  30.380  1.00  0.00    -0.744 OA
ENDBRANCH  67  71
ENDBRANCH  50  64
BRANCH  51  75
ATOM     75  C   UNL A   1      47.919  27.492  25.775  1.00  0.00     0.023 A 
ATOM     76  C   UNL A   1      48.141  27.721  24.405  1.00  0.00     0.031 A 
ATOM     77  C   UNL A   1      48.947  26.887  26.517  1.00  0.00     0.131 A 
ATOM     78  C   UNL A   1      49.328  27.280  23.807  1.00  0.00     0.055 A 
ATOM     79  C   UNL A   1      50.162  26.525  25.933  1.00  0.00     0.041 A 
ATOM     80  F   UNL A   1      48.778  26.630  27.824  1.00  0.00    -0.206 F 
ATOM     81  C   UNL A   1      50.349  26.704  24.567  1.00  0.00     0.022 A 
BRANCH  78  82
ATOM     82  S   UNL A   1      49.525  27.311  22.004  1.00  0.00     0.124 S 
ATOM     83  O   UNL A   1      48.856  28.557  21.645  1.00  0.00    -0.237 OA
ATOM     84  O   UNL A   1      50.980  27.313  21.865  1.00  0.00    -0.237 OA
ATOM     85  O   UNL A   1      48.863  26.089  21.564  1.00  0.00    -0.744 OA
ENDBRANCH  78  82
ENDBRANCH  51  75
BRANCH  63  86
ATOM     86  C   UNL A   1      45.060  33.001  29.117  1.00  0.00     0.023 A 
ATOM     87  C   UNL A   1      45.023  34.037  28.162  1.00  0.00     0.031 A 
ATOM     88  C   UNL A   1      45.706  33.254  30.340  1.00  0.00     0.131 A 
ATOM     89  C   UNL A   1      45.664  35.255  28.422  1.00  0.00     0.055 A 
ATOM     90  C   UNL A   1      46.290  34.492  30.619  1.00  0.00     0.041 A 
ATOM     91  F   UNL A   1      45.787  32.300  31.280  1.00  0.00    -0.206 F 
ATOM     92  C   UNL A   1      46.286  35.493  29.651  1.00  0.00     0.022 A 
BRANCH  89  93
ATOM     93  S   UNL A   1      45.810  36.528  27.139  1.00  0.00     0.124 S 
ATOM     94  O   UNL A   1      46.943  37.314  27.621  1.00  0.00    -0.237 OA
ATOM     95  O   UNL A   1      46.069  35.731  25.943  1.00  0.00    -0.237 OA
ATOM     96  O   UNL A   1      44.522  37.212  27.171  1.00  0.00    -0.744 OA
ENDBRANCH  89  93
ENDBRANCH  63  86
ENDBRANCH  37  38
ENDBRANCH  30  32
ENDBRANCH  29  30
ENDBRANCH  28  29
ENDBRANCH  27  28
ENDBRANCH   1  27
TORSDOF 21
ENDMDL
MODEL 2
REMARK VINA RESULT:     -11.0      1.893      7.529
REMARK SMILES CC(C)CCc1cc2c(cc1Cl)C=C(C(=O)OCCOCCOC(=O)c1ccc(-c3c4nc(c(-c5cc(S(=O)(=O)[O-])ccc5F)c5ccc([nH]5)c(-c5cc(S(=O)(=O)[O-])ccc5F)c5nc(c(-c6cc(S(=O)(=O)[O-])ccc6F)c6ccc3[nH]6)C=C5)C=C4)cc1)[C@@H](C(F)(F)F)O2
REMARK SMILES IDX 20 1 19 2 18 3 17 4 15 5 16 6 14 7 6 8 7 9 11 10 8 11 10 12
REMARK SMILES IDX 12 13 9 14 94 15 13 16 89 17 5 18 4 19 2 20 1 21 3 22 90 23
REMARK SMILES IDX 91 24 92 25 93 26 21 27 22 28 23 29 24 30 25 31 26 32 27 33
REMARK SMILES IDX 88 34 28 35 87 36 29 37 30 38 31 39 81 40 32 41 86 42 80 43
REMARK SMILES IDX 82 44 33 45 85 46 79 47 78 48 34 50 66 51 46 52 65 53 47 54
REMARK SMILES IDX 50 55 64 56 83 57 48 58 49 59 63 61 84 62 51 63 35 64 36 65
REMARK SMILES IDX 44 66 37 67 43 68 45 69 42 70 38 71 39 72 40 73 41 74 67 75
REMARK SMILES IDX 68 76 76 77 69 78 75 79 77 80 74 81 70 82 71 83 72 84 73 85
REMARK SMILES IDX 52 86 53 87 61 88 54 89 60 90 62 91 59 92 55 93 56 94 57 95
REMARK SMILES IDX 58 96
REMARK H PARENT 82 49 50 60
REMARK Flexibility Score: inf
ROOT
ATOM      1  O   UNL A   1      37.922  21.597  25.099  1.00  0.00    -0.374 OA
ENDROOT
BRANCH   1   2
ATOM      2  C   UNL A   1      36.836  20.690  24.926  1.00  0.00     0.202 C 
BRANCH   2   3
ATOM      3  C   UNL A   1      35.433  21.177  25.303  1.00  0.00     0.261 C 
BRANCH   3   4
ATOM      4  O   UNL A   1      35.242  22.561  24.978  1.00  0.00    -0.460 OA
BRANCH   4   5
ATOM      5  C   UNL A   1      34.443  23.235  25.837  1.00  0.00     0.338 C 
ATOM      6  O   UNL A   1      34.393  23.108  27.050  1.00  0.00    -0.246 OA
BRANCH   5   7
ATOM      7  C   UNL A   1      33.717  24.291  25.107  1.00  0.00     0.087 C 
ATOM      8  C   UNL A   1      31.210  28.487  23.985  1.00  0.00    -0.026 A 
ATOM      9  C   UNL A   1      31.432  27.265  23.326  1.00  0.00     0.052 A 
ATOM     10  C   UNL A   1      31.991  28.764  25.124  1.00  0.00     0.045 A 
ATOM     11  C   UNL A   1      32.282  26.296  23.863  1.00  0.00     0.128 A 
ATOM     12  C   UNL A   1      32.871  27.811  25.641  1.00  0.00     0.032 A 
ATOM     13  Cl  UNL A   1      31.897  30.281  25.953  1.00  0.00    -0.084 Cl
ATOM     14  C   UNL A   1      32.982  26.558  25.036  1.00  0.00     0.019 A 
ATOM     15  O   UNL A   1      32.365  25.116  23.181  1.00  0.00    -0.475 OA
ATOM     16  C   UNL A   1      33.774  25.514  25.650  1.00  0.00     0.027 C 
ATOM     17  C   UNL A   1      32.963  23.966  23.846  1.00  0.00     0.316 C 
BRANCH   8  18
ATOM     18  C   UNL A   1      30.173  29.483  23.502  1.00  0.00     0.037 C 
BRANCH  18  19
ATOM     19  C   UNL A   1      28.789  28.953  23.090  1.00  0.00     0.008 C 
BRANCH  19  20
ATOM     20  C   UNL A   1      27.782  30.010  22.590  1.00  0.00    -0.017 C 
ATOM     21  C   UNL A   1      27.650  31.200  23.540  1.00  0.00     0.007 C 
ATOM     22  C   UNL A   1      28.199  30.495  21.199  1.00  0.00     0.007 C 
ENDBRANCH  19  20
ENDBRANCH  18  19
ENDBRANCH   8  18
BRANCH  17  23
ATOM     23  C   UNL A   1      31.881  22.901  24.077  1.00  0.00     0.430 C 
ATOM     24  F   UNL A   1      30.912  22.970  23.135  1.00  0.00    -0.167 F 
ATOM     25  F   UNL A   1      32.393  21.649  24.024  1.00  0.00    -0.167 F 
ATOM     26  F   UNL A   1      31.286  23.044  25.283  1.00  0.00    -0.167 F 
ENDBRANCH  17  23
ENDBRANCH   5   7
ENDBRANCH   4   5
ENDBRANCH   3   4
ENDBRANCH   2   3
ENDBRANCH   1   2
BRANCH   1  27
ATOM     27  C   UNL A   1      38.928  21.282  26.059  1.00  0.00     0.202 C 
BRANCH  27  28
ATOM     28  C   UNL A   1      39.827  20.061  25.816  1.00  0.00     0.261 C 
BRANCH  28  29
ATOM     29  O   UNL A   1      40.955  20.005  26.702  1.00  0.00    -0.460 OA
BRANCH  29  30
ATOM     30  C   UNL A   1      42.082  20.592  26.222  1.00  0.00     0.338 C 
ATOM     31  O   UNL A   1      42.838  20.141  25.374  1.00  0.00    -0.246 OA
BRANCH  30  32
ATOM     32  C   UNL A   1      42.165  21.975  26.727  1.00  0.00     0.060 A 
ATOM     33  C   UNL A   1      42.249  22.242  28.094  1.00  0.00     0.016 A 
ATOM     34  C   UNL A   1      42.189  23.020  25.794  1.00  0.00     0.016 A 
ATOM     35  C   UNL A   1      42.379  23.565  28.523  1.00  0.00     0.010 A 
ATOM     36  C   UNL A   1      42.327  24.340  26.226  1.00  0.00     0.010 A 
ATOM     37  C   UNL A   1      42.438  24.622  27.594  1.00  0.00    -0.014 A 
BRANCH  37  38
ATOM     38  C   UNL A   1      42.747  25.998  28.059  1.00  0.00     0.031 A 
ATOM     39  C   UNL A   1      44.140  26.552  28.011  1.00  0.00     0.074 A 
ATOM     40  C   UNL A   1      41.738  26.751  28.540  1.00  0.00     0.049 A 
ATOM     41  N   UNL A   1      44.544  27.769  28.270  1.00  0.00    -0.248 NA
ATOM     42  C   UNL A   1      45.218  25.627  27.635  1.00  0.00     0.031 C 
ATOM     43  C   UNL A   1      40.358  26.291  28.689  1.00  0.00     0.029 A 
ATOM     44  N   UNL A   1      41.706  28.052  28.977  1.00  0.00    -0.354 N 
ATOM     45  C   UNL A   1      45.919  27.765  28.067  1.00  0.00     0.074 A 
ATOM     46  C   UNL A   1      46.287  26.408  27.724  1.00  0.00     0.031 C 
ATOM     47  C   UNL A   1      39.606  27.304  29.139  1.00  0.00     0.029 A 
ATOM     48  C   UNL A   1      40.451  28.478  29.349  1.00  0.00     0.049 A 
ATOM     49  H   UNL A   1      42.505  28.626  29.019  1.00  0.00     0.167 HD
ATOM     50  C   UNL A   1      46.783  28.807  28.140  1.00  0.00     0.034 A 
ATOM     51  C   UNL A   1      40.023  29.676  29.797  1.00  0.00     0.034 A 
ATOM     52  C   UNL A   1      46.393  30.149  28.500  1.00  0.00     0.049 A 
ATOM     53  C   UNL A   1      41.006  30.817  29.877  1.00  0.00     0.074 A 
ATOM     54  C   UNL A   1      47.188  31.282  28.556  1.00  0.00     0.029 A 
ATOM     55  N   UNL A   1      45.116  30.545  28.874  1.00  0.00    -0.354 N 
ATOM     56  N   UNL A   1      42.281  30.829  29.567  1.00  0.00    -0.248 NA
ATOM     57  C   UNL A   1      40.494  32.113  30.343  1.00  0.00     0.031 C 
ATOM     58  C   UNL A   1      46.416  32.336  29.041  1.00  0.00     0.029 A 
ATOM     59  C   UNL A   1      45.111  31.895  29.190  1.00  0.00     0.049 A 
ATOM     60  H   UNL A   1      44.329  29.955  28.908  1.00  0.00     0.167 HD
ATOM     61  C   UNL A   1      42.712  32.138  29.763  1.00  0.00     0.074 A 
ATOM     62  C   UNL A   1      41.557  32.893  30.198  1.00  0.00     0.031 C 
ATOM     63  C   UNL A   1      43.955  32.660  29.598  1.00  0.00     0.034 A 
BRANCH  50  64
ATOM     64  C   UNL A   1      48.236  28.575  27.799  1.00  0.00     0.023 A 
ATOM     65  C   UNL A   1      48.648  28.527  26.453  1.00  0.00     0.031 A 
ATOM     66  C   UNL A   1      49.174  28.234  28.791  1.00  0.00     0.131 A 
ATOM     67  C   UNL A   1      49.943  28.100  26.134  1.00  0.00     0.055 A 
ATOM     68  C   UNL A   1      50.480  27.860  28.471  1.00  0.00     0.041 A 
ATOM     69  F   UNL A   1      48.832  28.255  30.089  1.00  0.00    -0.206 F 
ATOM     70  C   UNL A   1      50.864  27.774  27.135  1.00  0.00     0.022 A 
BRANCH  67  71
ATOM     71  S   UNL A   1      50.455  27.863  24.411  1.00  0.00     0.124 S 
ATOM     72  O   UNL A   1      49.169  27.830  23.717  1.00  0.00    -0.237 OA
ATOM     73  O   UNL A   1      51.266  29.052  24.167  1.00  0.00    -0.237 OA
ATOM     74  O   UNL A   1      51.181  26.597  24.432  1.00  0.00    -0.744 OA
ENDBRANCH  67  71
ENDBRANCH  50  64
BRANCH  51  75
ATOM     75  C   UNL A   1      38.575  29.855  30.115  1.00  0.00     0.023 A 
ATOM     76  C   UNL A   1      37.710  30.487  29.203  1.00  0.00     0.031 A 
ATOM     77  C   UNL A   1      38.061  29.501  31.374  1.00  0.00     0.131 A 
ATOM     78  C   UNL A   1      36.404  30.812  29.590  1.00  0.00     0.055 A 
ATOM     79  C   UNL A   1      36.734  29.753  31.725  1.00  0.00     0.041 A 
ATOM     80  F   UNL A   1      38.851  28.913  32.286  1.00  0.00    -0.206 F 
ATOM     81  C   UNL A   1      35.904  30.429  30.837  1.00  0.00     0.022 A 
BRANCH  78  82
ATOM     82  S   UNL A   1      35.362  31.866  28.544  1.00  0.00     0.124 S 
ATOM     83  O   UNL A   1      34.827  30.907  27.582  1.00  0.00    -0.237 OA
ATOM     84  O   UNL A   1      34.402  32.389  29.514  1.00  0.00    -0.237 OA
ATOM     85  O   UNL A   1      36.296  32.847  28.005  1.00  0.00    -0.744 OA
ENDBRANCH  78  82
ENDBRANCH  51  75
BRANCH  63  86
ATOM     86  C   UNL A   1      44.169  34.137  29.851  1.00  0.00     0.023 A 
ATOM     87  C   UNL A   1      44.353  34.599  31.169  1.00  0.00     0.031 A 
ATOM     88  C   UNL A   1      44.031  35.093  28.830  1.00  0.00     0.131 A 
ATOM     89  C   UNL A   1      44.342  35.973  31.440  1.00  0.00     0.055 A 
ATOM     90  C   UNL A   1      44.082  36.463  29.096  1.00  0.00     0.041 A 
ATOM     91  F   UNL A   1      43.837  34.712  27.558  1.00  0.00    -0.206 F 
ATOM     92  C   UNL A   1      44.220  36.909  30.408  1.00  0.00     0.022 A 
BRANCH  89  93
ATOM     93  S   UNL A   1      44.370  36.592  33.145  1.00  0.00     0.124 S 
ATOM     94  O   UNL A   1      45.703  36.191  33.589  1.00  0.00    -0.237 OA
ATOM     95  O   UNL A   1      44.184  38.028  32.953  1.00  0.00    -0.237 OA
ATOM     96  O   UNL A   1      43.263  35.897  33.792  1.00  0.00    -0.744 OA
ENDBRANCH  89  93
ENDBRANCH  63  86
ENDBRANCH  37  38
ENDBRANCH  30  32
ENDBRANCH  29  30
ENDBRANCH  28  29
ENDBRANCH  27  28
ENDBRANCH   1  27
TORSDOF 21
ENDMDL
MODEL 3
REMARK VINA RESULT:     -10.9      5.906      9.799
REMARK SMILES CC(C)CCc1cc2c(cc1Cl)C=C(C(=O)OCCOCCOC(=O)c1ccc(-c3c4nc(c(-c5cc(S(=O)(=O)[O-])ccc5F)c5ccc([nH]5)c(-c5cc(S(=O)(=O)[O-])ccc5F)c5nc(c(-c6cc(S(=O)(=O)[O-])ccc6F)c6ccc3[nH]6)C=C5)C=C4)cc1)[C@@H](C(F)(F)F)O2
REMARK SMILES IDX 20 1 19 2 18 3 17 4 15 5 16 6 14 7 6 8 7 9 11 10 8 11 10 12
REMARK SMILES IDX 12 13 9 14 94 15 13 16 89 17 5 18 4 19 2 20 1 21 3 22 90 23
REMARK SMILES IDX 91 24 92 25 93 26 21 27 22 28 23 29 24 30 25 31 26 32 27 33
REMARK SMILES IDX 88 34 28 35 87 36 29 37 30 38 31 39 81 40 32 41 86 42 80 43
REMARK SMILES IDX 82 44 33 45 85 46 79 47 78 48 34 50 66 51 46 52 65 53 47 54
REMARK SMILES IDX 50 55 64 56 83 57 48 58 49 59 63 61 84 62 51 63 35 64 36 65
REMARK SMILES IDX 44 66 37 67 43 68 45 69 42 70 38 71 39 72 40 73 41 74 67 75
REMARK SMILES IDX 68 76 76 77 69 78 75 79 77 80 74 81 70 82 71 83 72 84 73 85
REMARK SMILES IDX 52 86 53 87 61 88 54 89 60 90 62 91 59 92 55 93 56 94 57 95
REMARK SMILES IDX 58 96
REMARK H PARENT 82 49 50 60
REMARK Flexibility Score: inf
ROOT
ATOM      1  O   UNL A   1      32.594  30.549  26.941  1.00  0.00    -0.374 OA
ENDROOT
BRANCH   1   2
ATOM      2  C   UNL A   1      33.063  29.792  25.827  1.00  0.00     0.202 C 
BRANCH   2   3
ATOM      3  C   UNL A   1      33.393  28.314  26.057  1.00  0.00     0.261 C 
BRANCH   3   4
ATOM      4  O   UNL A   1      32.558  27.452  25.272  1.00  0.00    -0.460 OA
BRANCH   4   5
ATOM      5  C   UNL A   1      33.203  26.798  24.278  1.00  0.00     0.338 C 
ATOM      6  O   UNL A   1      33.826  27.294  23.353  1.00  0.00    -0.246 OA
BRANCH   5   7
ATOM      7  C   UNL A   1      33.179  25.347  24.548  1.00  0.00     0.087 C 
ATOM      8  C   UNL A   1      34.448  20.504  24.833  1.00  0.00    -0.026 A 
ATOM      9  C   UNL A   1      33.244  21.218  24.970  1.00  0.00     0.052 A 
ATOM     10  C   UNL A   1      35.645  21.244  24.815  1.00  0.00     0.045 A 
ATOM     11  C   UNL A   1      33.221  22.614  24.935  1.00  0.00     0.128 A 
ATOM     12  C   UNL A   1      35.627  22.641  24.818  1.00  0.00     0.032 A 
ATOM     13  Cl  UNL A   1      37.196  20.477  24.769  1.00  0.00    -0.084 Cl
ATOM     14  C   UNL A   1      34.411  23.326  24.831  1.00  0.00     0.019 A 
ATOM     15  O   UNL A   1      31.991  23.202  25.000  1.00  0.00    -0.475 OA
ATOM     16  C   UNL A   1      34.378  24.765  24.683  1.00  0.00     0.027 C 
ATOM     17  C   UNL A   1      31.871  24.611  24.643  1.00  0.00     0.316 C 
BRANCH   8  18
ATOM     18  C   UNL A   1      34.474  18.993  24.710  1.00  0.00     0.037 C 
BRANCH  18  19
ATOM     19  C   UNL A   1      33.133  18.242  24.646  1.00  0.00     0.008 C 
BRANCH  19  20
ATOM     20  C   UNL A   1      32.913  17.356  23.401  1.00  0.00    -0.017 C 
ATOM     21  C   UNL A   1      32.420  18.147  22.191  1.00  0.00     0.007 C 
ATOM     22  C   UNL A   1      34.215  16.628  23.056  1.00  0.00     0.007 C 
ENDBRANCH  19  20
ENDBRANCH  18  19
ENDBRANCH   8  18
BRANCH  17  23
ATOM     23  C   UNL A   1      31.043  24.734  23.357  1.00  0.00     0.430 C 
ATOM     24  F   UNL A   1      30.271  25.845  23.370  1.00  0.00    -0.167 F 
ATOM     25  F   UNL A   1      31.832  24.816  22.260  1.00  0.00    -0.167 F 
ATOM     26  F   UNL A   1      30.221  23.672  23.185  1.00  0.00    -0.167 F 
ENDBRANCH  17  23
ENDBRANCH   5   7
ENDBRANCH   4   5
ENDBRANCH   3   4
ENDBRANCH   2   3
ENDBRANCH   1   2
BRANCH   1  27
ATOM     27  C   UNL A   1      33.545  31.261  27.732  1.00  0.00     0.202 C 
BRANCH  27  28
ATOM     28  C   UNL A   1      33.797  32.744  27.429  1.00  0.00     0.261 C 
BRANCH  28  29
ATOM     29  O   UNL A   1      32.777  33.608  27.952  1.00  0.00    -0.460 OA
BRANCH  29  30
ATOM     30  C   UNL A   1      33.239  34.641  28.703  1.00  0.00     0.338 C 
ATOM     31  O   UNL A   1      32.700  35.726  28.867  1.00  0.00    -0.246 OA
BRANCH  30  32
ATOM     32  C   UNL A   1      34.411  34.194  29.478  1.00  0.00     0.060 A 
ATOM     33  C   UNL A   1      34.262  33.485  30.670  1.00  0.00     0.016 A 
ATOM     34  C   UNL A   1      35.687  34.475  28.970  1.00  0.00     0.016 A 
ATOM     35  C   UNL A   1      35.401  33.036  31.343  1.00  0.00     0.010 A 
ATOM     36  C   UNL A   1      36.822  34.019  29.641  1.00  0.00     0.010 A 
ATOM     37  C   UNL A   1      36.689  33.282  30.826  1.00  0.00    -0.014 A 
BRANCH  37  38
ATOM     38  C   UNL A   1      37.874  32.653  31.463  1.00  0.00     0.031 A 
ATOM     39  C   UNL A   1      38.422  33.147  32.768  1.00  0.00     0.074 A 
ATOM     40  C   UNL A   1      38.461  31.616  30.833  1.00  0.00     0.049 A 
ATOM     41  N   UNL A   1      39.372  32.630  33.502  1.00  0.00    -0.248 NA
ATOM     42  C   UNL A   1      37.841  34.381  33.316  1.00  0.00     0.031 C 
ATOM     43  C   UNL A   1      38.049  31.094  29.531  1.00  0.00     0.029 A 
ATOM     44  N   UNL A   1      39.512  30.811  31.198  1.00  0.00    -0.354 N 
ATOM     45  C   UNL A   1      39.491  33.459  34.612  1.00  0.00     0.074 A 
ATOM     46  C   UNL A   1      38.556  34.547  34.421  1.00  0.00     0.031 C 
ATOM     47  C   UNL A   1      38.805  30.031  29.226  1.00  0.00     0.029 A 
ATOM     48  C   UNL A   1      39.783  29.814  30.290  1.00  0.00     0.049 A 
ATOM     49  H   UNL A   1      40.021  30.935  32.032  1.00  0.00     0.167 HD
ATOM     50  C   UNL A   1      40.291  33.304  35.695  1.00  0.00     0.034 A 
ATOM     51  C   UNL A   1      40.705  28.829  30.311  1.00  0.00     0.034 A 
ATOM     52  C   UNL A   1      41.226  32.218  35.855  1.00  0.00     0.049 A 
ATOM     53  C   UNL A   1      41.590  28.685  31.524  1.00  0.00     0.074 A 
ATOM     54  C   UNL A   1      42.046  31.951  36.938  1.00  0.00     0.029 A 
ATOM     55  N   UNL A   1      41.478  31.227  34.915  1.00  0.00    -0.354 N 
ATOM     56  N   UNL A   1      41.608  29.406  32.620  1.00  0.00    -0.248 NA
ATOM     57  C   UNL A   1      42.561  27.582  31.520  1.00  0.00     0.031 C 
ATOM     58  C   UNL A   1      42.849  30.857  36.621  1.00  0.00     0.029 A 
ATOM     59  C   UNL A   1      42.462  30.369  35.383  1.00  0.00     0.049 A 
ATOM     60  H   UNL A   1      41.025  31.145  34.045  1.00  0.00     0.167 HD
ATOM     61  C   UNL A   1      42.562  28.823  33.449  1.00  0.00     0.074 A 
ATOM     62  C   UNL A   1      43.083  27.677  32.735  1.00  0.00     0.031 C 
ATOM     63  C   UNL A   1      42.966  29.208  34.686  1.00  0.00     0.034 A 
BRANCH  50  64
ATOM     64  C   UNL A   1      40.189  34.304  36.824  1.00  0.00     0.023 A 
ATOM     65  C   UNL A   1      41.217  35.244  37.031  1.00  0.00     0.031 A 
ATOM     66  C   UNL A   1      39.169  34.215  37.789  1.00  0.00     0.131 A 
ATOM     67  C   UNL A   1      41.228  36.020  38.196  1.00  0.00     0.055 A 
ATOM     68  C   UNL A   1      39.157  35.028  38.923  1.00  0.00     0.041 A 
ATOM     69  F   UNL A   1      38.169  33.330  37.645  1.00  0.00    -0.206 F 
ATOM     70  C   UNL A   1      40.200  35.924  39.139  1.00  0.00     0.022 A 
BRANCH  67  71
ATOM     71  S   UNL A   1      42.620  37.118  38.580  1.00  0.00     0.124 S 
ATOM     72  O   UNL A   1      43.074  37.504  37.245  1.00  0.00    -0.237 OA
ATOM     73  O   UNL A   1      41.972  38.176  39.348  1.00  0.00    -0.237 OA
ATOM     74  O   UNL A   1      43.542  36.268  39.326  1.00  0.00    -0.744 OA
ENDBRANCH  67  71
ENDBRANCH  50  64
BRANCH  51  75
ATOM     75  C   UNL A   1      40.760  27.864  29.172  1.00  0.00     0.023 A 
ATOM     76  C   UNL A   1      41.692  28.030  28.132  1.00  0.00     0.031 A 
ATOM     77  C   UNL A   1      39.814  26.833  29.051  1.00  0.00     0.131 A 
ATOM     78  C   UNL A   1      41.608  27.229  26.986  1.00  0.00     0.055 A 
ATOM     79  C   UNL A   1      39.788  25.983  27.945  1.00  0.00     0.041 A 
ATOM     80  F   UNL A   1      38.891  26.644  30.008  1.00  0.00    -0.206 F 
ATOM     81  C   UNL A   1      40.677  26.192  26.895  1.00  0.00     0.022 A 
BRANCH  78  82
ATOM     82  S   UNL A   1      42.611  27.601  25.520  1.00  0.00     0.124 S 
ATOM     83  O   UNL A   1      43.908  27.918  26.110  1.00  0.00    -0.237 OA
ATOM     84  O   UNL A   1      42.543  26.338  24.788  1.00  0.00    -0.237 OA
ATOM     85  O   UNL A   1      41.910  28.718  24.898  1.00  0.00    -0.744 OA
ENDBRANCH  78  82
ENDBRANCH  51  75
BRANCH  63  86
ATOM     86  C   UNL A   1      44.012  28.383  35.405  1.00  0.00     0.023 A 
ATOM     87  C   UNL A   1      45.375  28.554  35.088  1.00  0.00     0.031 A 
ATOM     88  C   UNL A   1      43.664  27.331  36.270  1.00  0.00     0.131 A 
ATOM     89  C   UNL A   1      46.330  27.659  35.586  1.00  0.00     0.055 A 
ATOM     90  C   UNL A   1      44.628  26.479  36.815  1.00  0.00     0.041 A 
ATOM     91  F   UNL A   1      42.381  27.110  36.595  1.00  0.00    -0.206 F 
ATOM     92  C   UNL A   1      45.965  26.629  36.458  1.00  0.00     0.022 A 
BRANCH  89  93
ATOM     93  S   UNL A   1      48.056  27.728  35.034  1.00  0.00     0.124 S 
ATOM     94  O   UNL A   1      47.980  27.086  33.723  1.00  0.00    -0.237 OA
ATOM     95  O   UNL A   1      48.314  29.165  35.010  1.00  0.00    -0.237 OA
ATOM     96  O   UNL A   1      48.783  26.977  36.052  1.00  0.00    -0.744 OA
ENDBRANCH  89  93
ENDBRANCH  63  86
ENDBRANCH  37  38
ENDBRANCH  30  32
ENDBRANCH  29  30
ENDBRANCH  28  29
ENDBRANCH  27  28
ENDBRANCH   1  27
TORSDOF 21
ENDMDL
