MODEL 1
REMARK VINA RESULT:     -11.5      0.000      0.000
REMARK SMILES O=C(OCCOCCOC(=O)c1ccc(N2C(=O)C[C@H](c3c[nH]c4ccccc34)C2=O)cc1O)c1ccc(-c2c3nc(c(-c4cc(S(=O)(=O)[O-])ccc4F)c4ccc([nH]4)c(-c4cc(S(=O)(=O)[O-])ccc4F)c4nc(c(-c5cc(S(=O)(=O)[O-])ccc5F)c5ccc2[nH]5)C=C4)C=C3)cc1
REMARK SMILES IDX 5 1 4 2 3 3 2 4 1 5 35 6 36 7 97 8 37 9 96 10 38 11 39 12
REMARK SMILES IDX 40 13 90 14 41 15 95 16 89 17 91 18 42 19 94 20 88 21 87 22
REMARK SMILES IDX 43 24 75 25 55 26 74 27 56 28 59 29 73 30 92 31 57 32 58 33
REMARK SMILES IDX 72 35 93 36 60 37 44 38 45 39 53 40 46 41 52 42 54 43 51 44
REMARK SMILES IDX 47 45 48 46 49 47 50 48 76 49 77 50 85 51 78 52 84 53 86 54
REMARK SMILES IDX 83 55 79 56 80 57 81 58 82 59 61 60 62 61 70 62 63 63 69 64
REMARK SMILES IDX 71 65 68 66 64 67 65 68 66 69 67 70 6 71 7 72 8 73 9 74
REMARK SMILES IDX 10 75 11 76 12 77 13 78 33 79 14 80 32 81 15 82 34 83 16 85
REMARK SMILES IDX 17 86 30 87 18 88 19 89 20 90 31 91 21 92 22 93 29 94 23 95
REMARK SMILES IDX 24 96 28 97 25 99 27 100 26 101
REMARK H PARENT 91 23 59 34 34 84 23 98
REMARK Flexibility Score: inf
ROOT
ATOM      1  C   UNL A   1      44.039  22.073  25.741  1.00  0.00     0.202 C 
ENDROOT
BRANCH   1   2
ATOM      2  C   UNL A   1      43.511  22.710  24.453  1.00  0.00     0.261 C 
BRANCH   2   3
ATOM      3  O   UNL A   1      43.021  24.037  24.711  1.00  0.00    -0.460 OA
BRANCH   3   4
ATOM      4  C   UNL A   1      43.705  25.100  25.197  1.00  0.00     0.338 C 
ATOM      5  O   UNL A   1      44.779  25.394  24.673  1.00  0.00    -0.246 OA
BRANCH   4   6
ATOM      6  C   UNL A   1      43.234  25.932  26.347  1.00  0.00     0.060 A 
ATOM      7  C   UNL A   1      43.549  27.277  26.534  1.00  0.00     0.016 A 
ATOM      8  C   UNL A   1      42.335  25.338  27.250  1.00  0.00     0.016 A 
ATOM      9  C   UNL A   1      43.055  27.999  27.607  1.00  0.00     0.010 A 
ATOM     10  C   UNL A   1      41.789  26.073  28.310  1.00  0.00     0.010 A 
ATOM     11  C   UNL A   1      42.163  27.408  28.493  1.00  0.00    -0.014 A 
BRANCH  11  12
ATOM     12  C   UNL A   1      41.730  28.221  29.644  1.00  0.00     0.031 A 
ATOM     13  C   UNL A   1      40.452  28.990  29.529  1.00  0.00     0.074 A 
ATOM     14  C   UNL A   1      42.382  28.091  30.815  1.00  0.00     0.049 A 
ATOM     15  N   UNL A   1      39.857  29.743  30.412  1.00  0.00    -0.248 NA
ATOM     16  C   UNL A   1      39.735  28.876  28.247  1.00  0.00     0.031 C 
ATOM     17  C   UNL A   1      43.559  27.242  31.029  1.00  0.00     0.029 A 
ATOM     18  N   UNL A   1      42.128  28.622  32.051  1.00  0.00    -0.354 N 
ATOM     19  C   UNL A   1      38.696  30.197  29.796  1.00  0.00     0.074 A 
ATOM     20  C   UNL A   1      38.687  29.657  28.454  1.00  0.00     0.031 C 
ATOM     21  C   UNL A   1      43.901  27.285  32.325  1.00  0.00     0.029 A 
ATOM     22  C   UNL A   1      43.024  28.222  33.016  1.00  0.00     0.049 A 
ATOM     23  H   UNL A   1      41.378  29.232  32.231  1.00  0.00     0.167 HD
ATOM     24  C   UNL A   1      37.731  30.992  30.316  1.00  0.00     0.034 A 
ATOM     25  C   UNL A   1      43.136  28.604  34.303  1.00  0.00     0.034 A 
ATOM     26  C   UNL A   1      37.803  31.532  31.650  1.00  0.00     0.049 A 
ATOM     27  C   UNL A   1      42.118  29.593  34.818  1.00  0.00     0.074 A 
ATOM     28  C   UNL A   1      36.977  32.453  32.264  1.00  0.00     0.029 A 
ATOM     29  N   UNL A   1      38.778  31.186  32.584  1.00  0.00    -0.354 N 
ATOM     30  N   UNL A   1      41.081  30.108  34.194  1.00  0.00    -0.248 NA
ATOM     31  C   UNL A   1      42.282  30.057  36.199  1.00  0.00     0.031 C 
ATOM     32  C   UNL A   1      37.481  32.704  33.546  1.00  0.00     0.029 A 
ATOM     33  C   UNL A   1      38.581  31.887  33.762  1.00  0.00     0.049 A 
ATOM     34  H   UNL A   1      39.502  30.538  32.428  1.00  0.00     0.167 HD
ATOM     35  C   UNL A   1      40.462  30.948  35.113  1.00  0.00     0.074 A 
ATOM     36  C   UNL A   1      41.224  30.838  36.343  1.00  0.00     0.031 C 
ATOM     37  C   UNL A   1      39.376  31.751  34.961  1.00  0.00     0.034 A 
BRANCH  24  38
ATOM     38  C   UNL A   1      36.602  31.377  29.394  1.00  0.00     0.023 A 
ATOM     39  C   UNL A   1      35.709  30.421  28.876  1.00  0.00     0.031 A 
ATOM     40  C   UNL A   1      36.483  32.702  28.939  1.00  0.00     0.131 A 
ATOM     41  C   UNL A   1      34.793  30.787  27.877  1.00  0.00     0.055 A 
ATOM     42  C   UNL A   1      35.517  33.075  28.002  1.00  0.00     0.041 A 
ATOM     43  F   UNL A   1      37.328  33.651  29.370  1.00  0.00    -0.206 F 
ATOM     44  C   UNL A   1      34.676  32.112  27.452  1.00  0.00     0.022 A 
BRANCH  41  45
ATOM     45  S   UNL A   1      33.868  29.480  27.022  1.00  0.00     0.124 S 
ATOM     46  O   UNL A   1      34.871  28.970  26.089  1.00  0.00    -0.237 OA
ATOM     47  O   UNL A   1      33.498  28.586  28.113  1.00  0.00    -0.237 OA
ATOM     48  O   UNL A   1      32.757  30.196  26.399  1.00  0.00    -0.744 OA
ENDBRANCH  41  45
ENDBRANCH  24  38
BRANCH  25  49
ATOM     49  C   UNL A   1      44.277  28.140  35.151  1.00  0.00     0.023 A 
ATOM     50  C   UNL A   1      44.138  27.090  36.072  1.00  0.00     0.031 A 
ATOM     51  C   UNL A   1      45.521  28.800  35.100  1.00  0.00     0.131 A 
ATOM     52  C   UNL A   1      45.200  26.767  36.936  1.00  0.00     0.055 A 
ATOM     53  C   UNL A   1      46.594  28.432  35.913  1.00  0.00     0.041 A 
ATOM     54  F   UNL A   1      45.715  29.823  34.252  1.00  0.00    -0.206 F 
ATOM     55  C   UNL A   1      46.430  27.421  36.851  1.00  0.00     0.022 A 
BRANCH  52  56
ATOM     56  S   UNL A   1      44.912  25.563  38.264  1.00  0.00     0.124 S 
ATOM     57  O   UNL A   1      44.078  26.328  39.186  1.00  0.00    -0.237 OA
ATOM     58  O   UNL A   1      44.250  24.477  37.550  1.00  0.00    -0.237 OA
ATOM     59  O   UNL A   1      46.258  25.262  38.748  1.00  0.00    -0.744 OA
ENDBRANCH  52  56
ENDBRANCH  25  49
BRANCH  37  60
ATOM     60  C   UNL A   1      38.951  32.533  36.177  1.00  0.00     0.023 A 
ATOM     61  C   UNL A   1      39.417  33.839  36.406  1.00  0.00     0.031 A 
ATOM     62  C   UNL A   1      38.091  31.955  37.125  1.00  0.00     0.131 A 
ATOM     63  C   UNL A   1      39.075  34.500  37.593  1.00  0.00     0.055 A 
ATOM     64  C   UNL A   1      37.701  32.643  38.273  1.00  0.00     0.041 A 
ATOM     65  F   UNL A   1      37.619  30.709  36.950  1.00  0.00    -0.206 F 
ATOM     66  C   UNL A   1      38.207  33.917  38.520  1.00  0.00     0.022 A 
BRANCH  63  67
ATOM     67  S   UNL A   1      39.865  36.090  37.958  1.00  0.00     0.124 S 
ATOM     68  O   UNL A   1      38.903  36.706  38.867  1.00  0.00    -0.237 OA
ATOM     69  O   UNL A   1      41.131  35.678  38.555  1.00  0.00    -0.237 OA
ATOM     70  O   UNL A   1      39.976  36.726  36.648  1.00  0.00    -0.744 OA
ENDBRANCH  63  67
ENDBRANCH  37  60
ENDBRANCH  11  12
ENDBRANCH   4   6
ENDBRANCH   3   4
ENDBRANCH   2   3
ENDBRANCH   1   2
BRANCH   1  71
ATOM     71  O   UNL A   1      44.733  20.837  25.566  1.00  0.00    -0.374 OA
BRANCH  71  72
ATOM     72  C   UNL A   1      44.128  19.900  24.667  1.00  0.00     0.202 C 
BRANCH  72  73
ATOM     73  C   UNL A   1      43.138  19.025  25.437  1.00  0.00     0.261 C 
BRANCH  73  74
ATOM     74  O   UNL A   1      41.830  19.579  25.245  1.00  0.00    -0.460 OA
BRANCH  74  75
ATOM     75  C   UNL A   1      41.127  19.799  26.384  1.00  0.00     0.341 C 
ATOM     76  O   UNL A   1      41.517  19.703  27.537  1.00  0.00    -0.246 OA
BRANCH  75  77
ATOM     77  C   UNL A   1      39.867  20.461  26.006  1.00  0.00     0.101 A 
ATOM     78  C   UNL A   1      38.890  19.678  25.377  1.00  0.00     0.022 A 
ATOM     79  C   UNL A   1      39.604  21.796  26.302  1.00  0.00     0.132 A 
ATOM     80  C   UNL A   1      37.634  20.214  25.085  1.00  0.00     0.028 A 
ATOM     81  C   UNL A   1      38.380  22.354  25.939  1.00  0.00     0.074 A 
ATOM     82  C   UNL A   1      37.387  21.570  25.328  1.00  0.00     0.055 A 
BRANCH  79  83
ATOM     83  O   UNL A   1      40.544  22.570  26.918  1.00  0.00    -0.507 OA
ATOM     84  H   UNL A   1      40.818  22.370  27.791  1.00  0.00     0.293 HD
ENDBRANCH  79  83
BRANCH  82  85
ATOM     85  N   UNL A   1      36.208  22.175  24.844  1.00  0.00    -0.250 N 
ATOM     86  C   UNL A   1      36.129  22.713  23.584  1.00  0.00     0.234 C 
ATOM     87  C   UNL A   1      34.996  22.192  25.497  1.00  0.00     0.241 C 
ATOM     88  O   UNL A   1      37.027  22.901  22.774  1.00  0.00    -0.274 OA
ATOM     89  C   UNL A   1      34.690  22.919  23.250  1.00  0.00     0.119 C 
ATOM     90  C   UNL A   1      33.983  22.872  24.599  1.00  0.00     0.121 C 
ATOM     91  O   UNL A   1      34.753  21.784  26.626  1.00  0.00    -0.273 OA
BRANCH  90  92
ATOM     92  C   UNL A   1      33.545  24.247  25.025  1.00  0.00    -0.010 A 
ATOM     93  C   UNL A   1      34.223  25.204  25.754  1.00  0.00     0.088 A 
ATOM     94  C   UNL A   1      32.273  24.826  24.682  1.00  0.00     0.003 A 
ATOM     95  N   UNL A   1      33.430  26.320  25.851  1.00  0.00    -0.361 N 
ATOM     96  C   UNL A   1      32.243  26.123  25.184  1.00  0.00     0.046 A 
ATOM     97  C   UNL A   1      31.156  24.359  23.955  1.00  0.00     0.010 A 
ATOM     98  H   UNL A   1      33.676  27.144  26.330  1.00  0.00     0.166 HD
ATOM     99  C   UNL A   1      31.155  26.984  24.988  1.00  0.00     0.026 A 
ATOM    100  C   UNL A   1      30.065  25.206  23.742  1.00  0.00     0.001 A 
ATOM    101  C   UNL A   1      30.068  26.501  24.251  1.00  0.00     0.002 A 
ENDBRANCH  90  92
ENDBRANCH  82  85
ENDBRANCH  75  77
ENDBRANCH  74  75
ENDBRANCH  73  74
ENDBRANCH  72  73
ENDBRANCH  71  72
ENDBRANCH   1  71
TORSDOF 20
ENDMDL
MODEL 2
REMARK VINA RESULT:     -11.5      2.679     10.058
REMARK SMILES O=C(OCCOCCOC(=O)c1ccc(N2C(=O)C[C@H](c3c[nH]c4ccccc34)C2=O)cc1O)c1ccc(-c2c3nc(c(-c4cc(S(=O)(=O)[O-])ccc4F)c4ccc([nH]4)c(-c4cc(S(=O)(=O)[O-])ccc4F)c4nc(c(-c5cc(S(=O)(=O)[O-])ccc5F)c5ccc2[nH]5)C=C4)C=C3)cc1
REMARK SMILES IDX 5 1 4 2 3 3 2 4 1 5 35 6 36 7 97 8 37 9 96 10 38 11 39 12
REMARK SMILES IDX 40 13 90 14 41 15 95 16 89 17 91 18 42 19 94 20 88 21 87 22
REMARK SMILES IDX 43 24 75 25 55 26 74 27 56 28 59 29 73 30 92 31 57 32 58 33
REMARK SMILES IDX 72 35 93 36 60 37 44 38 45 39 53 40 46 41 52 42 54 43 51 44
REMARK SMILES IDX 47 45 48 46 49 47 50 48 76 49 77 50 85 51 78 52 84 53 86 54
REMARK SMILES IDX 83 55 79 56 80 57 81 58 82 59 61 60 62 61 70 62 63 63 69 64
REMARK SMILES IDX 71 65 68 66 64 67 65 68 66 69 67 70 6 71 7 72 8 73 9 74
REMARK SMILES IDX 10 75 11 76 12 77 13 78 33 79 14 80 32 81 15 82 34 83 16 85
REMARK SMILES IDX 17 86 30 87 18 88 19 89 20 90 31 91 21 92 22 93 29 94 23 95
REMARK SMILES IDX 24 96 28 97 25 99 27 100 26 101
REMARK H PARENT 91 23 59 34 34 84 23 98
REMARK Flexibility Score: inf
ROOT
ATOM      1  C   UNL A   1      30.851  30.919  25.016  1.00  0.00     0.202 C 
ENDROOT
BRANCH   1   2
ATOM      2  C   UNL A   1      31.399  30.819  26.442  1.00  0.00     0.261 C 
BRANCH   2   3
ATOM      3  O   UNL A   1      32.809  31.097  26.461  1.00  0.00    -0.460 OA
BRANCH   3   4
ATOM      4  C   UNL A   1      33.497  31.869  27.337  1.00  0.00     0.338 C 
ATOM      5  O   UNL A   1      33.057  32.987  27.602  1.00  0.00    -0.246 OA
BRANCH   4   6
ATOM      6  C   UNL A   1      34.772  31.442  27.991  1.00  0.00     0.060 A 
ATOM      7  C   UNL A   1      35.024  30.158  28.474  1.00  0.00     0.016 A 
ATOM      8  C   UNL A   1      35.821  32.376  28.036  1.00  0.00     0.016 A 
ATOM      9  C   UNL A   1      36.238  29.821  29.046  1.00  0.00     0.010 A 
ATOM     10  C   UNL A   1      37.071  32.030  28.565  1.00  0.00     0.010 A 
ATOM     11  C   UNL A   1      37.273  30.747  29.083  1.00  0.00    -0.014 A 
BRANCH  11  12
ATOM     12  C   UNL A   1      38.514  30.333  29.762  1.00  0.00     0.031 A 
ATOM     13  C   UNL A   1      38.754  30.811  31.159  1.00  0.00     0.074 A 
ATOM     14  C   UNL A   1      39.286  29.391  29.188  1.00  0.00     0.049 A 
ATOM     15  N   UNL A   1      39.748  30.555  31.962  1.00  0.00    -0.248 NA
ATOM     16  C   UNL A   1      37.716  31.682  31.736  1.00  0.00     0.031 C 
ATOM     17  C   UNL A   1      39.028  28.777  27.880  1.00  0.00     0.029 A 
ATOM     18  N   UNL A   1      40.406  28.746  29.639  1.00  0.00    -0.354 N 
ATOM     19  C   UNL A   1      39.461  31.233  33.141  1.00  0.00     0.074 A 
ATOM     20  C   UNL A   1      38.213  31.936  32.936  1.00  0.00     0.031 C 
ATOM     21  C   UNL A   1      39.944  27.823  27.654  1.00  0.00     0.029 A 
ATOM     22  C   UNL A   1      40.897  27.811  28.757  1.00  0.00     0.049 A 
ATOM     23  H   UNL A   1      40.821  28.934  30.512  1.00  0.00     0.167 HD
ATOM     24  C   UNL A   1      40.182  31.258  34.287  1.00  0.00     0.034 A 
ATOM     25  C   UNL A   1      42.014  27.060  28.825  1.00  0.00     0.034 A 
ATOM     26  C   UNL A   1      41.439  30.567  34.430  1.00  0.00     0.049 A 
ATOM     27  C   UNL A   1      42.866  27.206  30.061  1.00  0.00     0.074 A 
ATOM     28  C   UNL A   1      42.343  30.608  35.474  1.00  0.00     0.029 A 
ATOM     29  N   UNL A   1      41.968  29.696  33.479  1.00  0.00    -0.354 N 
ATOM     30  N   UNL A   1      42.646  27.938  31.133  1.00  0.00    -0.248 NA
ATOM     31  C   UNL A   1      44.114  26.438  30.103  1.00  0.00     0.031 C 
ATOM     32  C   UNL A   1      43.440  29.807  35.132  1.00  0.00     0.029 A 
ATOM     33  C   UNL A   1      43.191  29.207  33.906  1.00  0.00     0.049 A 
ATOM     34  H   UNL A   1      41.534  29.463  32.627  1.00  0.00     0.167 HD
ATOM     35  C   UNL A   1      43.724  27.707  31.980  1.00  0.00     0.074 A 
ATOM     36  C   UNL A   1      44.570  26.739  31.308  1.00  0.00     0.031 C 
ATOM     37  C   UNL A   1      44.005  28.249  33.194  1.00  0.00     0.034 A 
BRANCH  24  38
ATOM     38  C   UNL A   1      39.659  32.134  35.398  1.00  0.00     0.023 A 
ATOM     39  C   UNL A   1      40.081  33.467  35.551  1.00  0.00     0.031 A 
ATOM     40  C   UNL A   1      38.812  31.595  36.381  1.00  0.00     0.131 A 
ATOM     41  C   UNL A   1      39.721  34.188  36.700  1.00  0.00     0.055 A 
ATOM     42  C   UNL A   1      38.393  32.344  37.483  1.00  0.00     0.041 A 
ATOM     43  F   UNL A   1      38.404  30.319  36.308  1.00  0.00    -0.206 F 
ATOM     44  C   UNL A   1      38.861  33.643  37.657  1.00  0.00     0.022 A 
BRANCH  41  45
ATOM     45  S   UNL A   1      40.520  35.788  37.011  1.00  0.00     0.124 S 
ATOM     46  O   UNL A   1      39.762  36.673  36.128  1.00  0.00    -0.237 OA
ATOM     47  O   UNL A   1      40.306  35.978  38.441  1.00  0.00    -0.237 OA
ATOM     48  O   UNL A   1      41.907  35.563  36.613  1.00  0.00    -0.744 OA
ENDBRANCH  41  45
ENDBRANCH  24  38
BRANCH  25  49
ATOM     49  C   UNL A   1      42.434  26.194  27.680  1.00  0.00     0.023 A 
ATOM     50  C   UNL A   1      41.957  24.883  27.527  1.00  0.00     0.031 A 
ATOM     51  C   UNL A   1      43.389  26.652  26.751  1.00  0.00     0.131 A 
ATOM     52  C   UNL A   1      42.471  24.062  26.508  1.00  0.00     0.055 A 
ATOM     53  C   UNL A   1      43.847  25.855  25.700  1.00  0.00     0.041 A 
ATOM     54  F   UNL A   1      43.897  27.890  26.849  1.00  0.00    -0.206 F 
ATOM     55  C   UNL A   1      43.400  24.545  25.585  1.00  0.00     0.022 A 
BRANCH  52  56
ATOM     56  S   UNL A   1      42.004  22.307  26.479  1.00  0.00     0.124 S 
ATOM     57  O   UNL A   1      42.724  21.826  25.305  1.00  0.00    -0.237 OA
ATOM     58  O   UNL A   1      42.498  21.841  27.770  1.00  0.00    -0.237 OA
ATOM     59  O   UNL A   1      40.549  22.345  26.344  1.00  0.00    -0.744 OA
ENDBRANCH  52  56
ENDBRANCH  25  49
BRANCH  37  60
ATOM     60  C   UNL A   1      45.265  27.766  33.863  1.00  0.00     0.023 A 
ATOM     61  C   UNL A   1      45.272  26.610  34.664  1.00  0.00     0.031 A 
ATOM     62  C   UNL A   1      46.464  28.483  33.716  1.00  0.00     0.131 A 
ATOM     63  C   UNL A   1      46.440  26.243  35.344  1.00  0.00     0.055 A 
ATOM     64  C   UNL A   1      47.641  28.076  34.344  1.00  0.00     0.041 A 
ATOM     65  F   UNL A   1      46.509  29.593  32.961  1.00  0.00    -0.206 F 
ATOM     66  C   UNL A   1      47.628  26.959  35.176  1.00  0.00     0.022 A 
BRANCH  63  67
ATOM     67  S   UNL A   1      46.357  24.880  36.535  1.00  0.00     0.124 S 
ATOM     68  O   UNL A   1      47.132  23.842  35.864  1.00  0.00    -0.237 OA
ATOM     69  O   UNL A   1      46.972  25.466  37.722  1.00  0.00    -0.237 OA
ATOM     70  O   UNL A   1      44.926  24.610  36.649  1.00  0.00    -0.744 OA
ENDBRANCH  63  67
ENDBRANCH  37  60
ENDBRANCH  11  12
ENDBRANCH   4   6
ENDBRANCH   3   4
ENDBRANCH   2   3
ENDBRANCH   1   2
BRANCH   1  71
ATOM     71  O   UNL A   1      29.605  31.605  24.890  1.00  0.00    -0.374 OA
BRANCH  71  72
ATOM     72  C   UNL A   1      29.569  32.666  23.929  1.00  0.00     0.202 C 
BRANCH  72  73
ATOM     73  C   UNL A   1      28.572  32.315  22.823  1.00  0.00     0.261 C 
BRANCH  73  74
ATOM     74  O   UNL A   1      29.248  31.466  21.886  1.00  0.00    -0.460 OA
BRANCH  74  75
ATOM     75  C   UNL A   1      28.570  30.346  21.534  1.00  0.00     0.341 C 
ATOM     76  O   UNL A   1      27.789  30.202  20.607  1.00  0.00    -0.246 OA
BRANCH  75  77
ATOM     77  C   UNL A   1      29.146  29.222  22.290  1.00  0.00     0.101 A 
ATOM     78  C   UNL A   1      28.259  28.383  22.977  1.00  0.00     0.022 A 
ATOM     79  C   UNL A   1      30.511  28.944  22.295  1.00  0.00     0.132 A 
ATOM     80  C   UNL A   1      28.728  27.240  23.628  1.00  0.00     0.028 A 
ATOM     81  C   UNL A   1      30.989  27.849  23.011  1.00  0.00     0.074 A 
ATOM     82  C   UNL A   1      30.103  26.990  23.684  1.00  0.00     0.055 A 
BRANCH  79  83
ATOM     83  O   UNL A   1      31.387  29.750  21.628  1.00  0.00    -0.507 OA
ATOM     84  H   UNL A   1      32.291  29.765  21.874  1.00  0.00     0.293 HD
ENDBRANCH  79  83
BRANCH  82  85
ATOM     85  N   UNL A   1      30.606  25.967  24.515  1.00  0.00    -0.250 N 
ATOM     86  C   UNL A   1      30.985  26.202  25.813  1.00  0.00     0.234 C 
ATOM     87  C   UNL A   1      30.663  24.630  24.187  1.00  0.00     0.241 C 
ATOM     88  O   UNL A   1      31.104  27.273  26.393  1.00  0.00    -0.274 OA
ATOM     89  C   UNL A   1      31.102  24.890  26.513  1.00  0.00     0.119 C 
ATOM     90  C   UNL A   1      31.196  23.871  25.385  1.00  0.00     0.121 C 
ATOM     91  O   UNL A   1      30.385  24.116  23.111  1.00  0.00    -0.273 OA
BRANCH  90  92
ATOM     92  C   UNL A   1      32.596  23.338  25.255  1.00  0.00    -0.010 A 
ATOM     93  C   UNL A   1      33.806  23.996  25.361  1.00  0.00     0.088 A 
ATOM     94  C   UNL A   1      32.909  21.954  25.017  1.00  0.00     0.003 A 
ATOM     95  N   UNL A   1      34.816  23.079  25.212  1.00  0.00    -0.361 N 
ATOM     96  C   UNL A   1      34.295  21.820  25.024  1.00  0.00     0.046 A 
ATOM     97  C   UNL A   1      32.122  20.796  24.828  1.00  0.00     0.010 A 
ATOM     98  H   UNL A   1      35.776  23.292  25.236  1.00  0.00     0.166 HD
ATOM     99  C   UNL A   1      34.935  20.584  24.862  1.00  0.00     0.026 A 
ATOM    100  C   UNL A   1      32.742  19.554  24.673  1.00  0.00     0.001 A 
ATOM    101  C   UNL A   1      34.130  19.452  24.692  1.00  0.00     0.002 A 
ENDBRANCH  90  92
ENDBRANCH  82  85
ENDBRANCH  75  77
ENDBRANCH  74  75
ENDBRANCH  73  74
ENDBRANCH  72  73
ENDBRANCH  71  72
ENDBRANCH   1  71
TORSDOF 20
ENDMDL
MODEL 3
REMARK VINA RESULT:     -11.3      5.349      9.480
REMARK SMILES O=C(OCCOCCOC(=O)c1ccc(N2C(=O)C[C@H](c3c[nH]c4ccccc34)C2=O)cc1O)c1ccc(-c2c3nc(c(-c4cc(S(=O)(=O)[O-])ccc4F)c4ccc([nH]4)c(-c4cc(S(=O)(=O)[O-])ccc4F)c4nc(c(-c5cc(S(=O)(=O)[O-])ccc5F)c5ccc2[nH]5)C=C4)C=C3)cc1
REMARK SMILES IDX 5 1 4 2 3 3 2 4 1 5 35 6 36 7 97 8 37 9 96 10 38 11 39 12
REMARK SMILES IDX 40 13 90 14 41 15 95 16 89 17 91 18 42 19 94 20 88 21 87 22
REMARK SMILES IDX 43 24 75 25 55 26 74 27 56 28 59 29 73 30 92 31 57 32 58 33
REMARK SMILES IDX 72 35 93 36 60 37 44 38 45 39 53 40 46 41 52 42 54 43 51 44
REMARK SMILES IDX 47 45 48 46 49 47 50 48 76 49 77 50 85 51 78 52 84 53 86 54
REMARK SMILES IDX 83 55 79 56 80 57 81 58 82 59 61 60 62 61 70 62 63 63 69 64
REMARK SMILES IDX 71 65 68 66 64 67 65 68 66 69 67 70 6 71 7 72 8 73 9 74
REMARK SMILES IDX 10 75 11 76 12 77 13 78 33 79 14 80 32 81 15 82 34 83 16 85
REMARK SMILES IDX 17 86 30 87 18 88 19 89 20 90 31 91 21 92 22 93 29 94 23 95
REMARK SMILES IDX 24 96 28 97 25 99 27 100 26 101
REMARK H PARENT 91 23 59 34 34 84 23 98
REMARK Flexibility Score: inf
ROOT
ATOM      1  C   UNL A   1      40.866  19.740  26.120  1.00  0.00     0.202 C 
ENDROOT
BRANCH   1   2
ATOM      2  C   UNL A   1      42.288  19.200  26.294  1.00  0.00     0.261 C 
BRANCH   2   3
ATOM      3  O   UNL A   1      42.971  19.161  25.031  1.00  0.00    -0.460 OA
BRANCH   3   4
ATOM      4  C   UNL A   1      43.984  19.953  24.603  1.00  0.00     0.338 C 
ATOM      5  O   UNL A   1      44.741  19.516  23.737  1.00  0.00    -0.246 OA
BRANCH   4   6
ATOM      6  C   UNL A   1      44.241  21.327  25.135  1.00  0.00     0.060 A 
ATOM      7  C   UNL A   1      44.935  21.604  26.312  1.00  0.00     0.016 A 
ATOM      8  C   UNL A   1      43.835  22.414  24.342  1.00  0.00     0.016 A 
ATOM      9  C   UNL A   1      45.163  22.902  26.734  1.00  0.00     0.010 A 
ATOM     10  C   UNL A   1      44.107  23.731  24.734  1.00  0.00     0.010 A 
ATOM     11  C   UNL A   1      44.764  23.973  25.944  1.00  0.00    -0.014 A 
BRANCH  11  12
ATOM     12  C   UNL A   1      44.988  25.324  26.490  1.00  0.00     0.031 A 
ATOM     13  C   UNL A   1      46.346  25.935  26.339  1.00  0.00     0.074 A 
ATOM     14  C   UNL A   1      43.930  26.035  26.922  1.00  0.00     0.049 A 
ATOM     15  N   UNL A   1      46.769  27.112  26.707  1.00  0.00    -0.248 NA
ATOM     16  C   UNL A   1      47.360  25.110  25.660  1.00  0.00     0.031 C 
ATOM     17  C   UNL A   1      42.549  25.541  26.963  1.00  0.00     0.029 A 
ATOM     18  N   UNL A   1      43.831  27.328  27.359  1.00  0.00    -0.354 N 
ATOM     19  C   UNL A   1      48.099  27.173  26.308  1.00  0.00     0.074 A 
ATOM     20  C   UNL A   1      48.420  25.902  25.696  1.00  0.00     0.031 C 
ATOM     21  C   UNL A   1      41.740  26.532  27.367  1.00  0.00     0.029 A 
ATOM     22  C   UNL A   1      42.549  27.701  27.691  1.00  0.00     0.049 A 
ATOM     23  H   UNL A   1      44.604  27.934  27.429  1.00  0.00     0.167 HD
ATOM     24  C   UNL A   1      48.965  28.205  26.444  1.00  0.00     0.034 A 
ATOM     25  C   UNL A   1      42.094  28.849  28.230  1.00  0.00     0.034 A 
ATOM     26  C   UNL A   1      48.606  29.441  27.093  1.00  0.00     0.049 A 
ATOM     27  C   UNL A   1      43.109  29.936  28.490  1.00  0.00     0.074 A 
ATOM     28  C   UNL A   1      49.407  30.517  27.424  1.00  0.00     0.029 A 
ATOM     29  N   UNL A   1      47.316  29.761  27.511  1.00  0.00    -0.354 N 
ATOM     30  N   UNL A   1      44.395  29.946  28.211  1.00  0.00    -0.248 NA
ATOM     31  C   UNL A   1      42.622  31.157  29.138  1.00  0.00     0.031 C 
ATOM     32  C   UNL A   1      48.615  31.461  28.088  1.00  0.00     0.029 A 
ATOM     33  C   UNL A   1      47.303  31.010  28.109  1.00  0.00     0.049 A 
ATOM     34  H   UNL A   1      46.528  29.182  27.398  1.00  0.00     0.167 HD
ATOM     35  C   UNL A   1      44.867  31.182  28.640  1.00  0.00     0.074 A 
ATOM     36  C   UNL A   1      43.719  31.900  29.160  1.00  0.00     0.031 C 
ATOM     37  C   UNL A   1      46.131  31.681  28.624  1.00  0.00     0.034 A 
BRANCH  24  38
ATOM     38  C   UNL A   1      50.377  27.972  25.970  1.00  0.00     0.023 A 
ATOM     39  C   UNL A   1      50.779  28.287  24.658  1.00  0.00     0.031 A 
ATOM     40  C   UNL A   1      51.305  27.325  26.804  1.00  0.00     0.131 A 
ATOM     41  C   UNL A   1      52.041  27.882  24.197  1.00  0.00     0.055 A 
ATOM     42  C   UNL A   1      52.588  26.995  26.362  1.00  0.00     0.041 A 
ATOM     43  F   UNL A   1      50.968  26.968  28.053  1.00  0.00    -0.206 F 
ATOM     44  C   UNL A   1      52.957  27.258  25.047  1.00  0.00     0.022 A 
BRANCH  41  45
ATOM     45  S   UNL A   1      52.412  28.035  22.426  1.00  0.00     0.124 S 
ATOM     46  O   UNL A   1      52.134  26.683  21.948  1.00  0.00    -0.237 OA
ATOM     47  O   UNL A   1      51.479  29.070  21.995  1.00  0.00    -0.237 OA
ATOM     48  O   UNL A   1      53.822  28.418  22.402  1.00  0.00    -0.744 OA
ENDBRANCH  41  45
ENDBRANCH  24  38
BRANCH  25  49
ATOM     49  C   UNL A   1      40.664  28.998  28.640  1.00  0.00     0.023 A 
ATOM     50  C   UNL A   1      40.260  28.889  29.980  1.00  0.00     0.031 A 
ATOM     51  C   UNL A   1      39.658  29.184  27.671  1.00  0.00     0.131 A 
ATOM     52  C   UNL A   1      38.892  28.913  30.307  1.00  0.00     0.055 A 
ATOM     53  C   UNL A   1      38.306  29.274  28.007  1.00  0.00     0.041 A 
ATOM     54  F   UNL A   1      39.975  29.281  26.370  1.00  0.00    -0.206 F 
ATOM     55  C   UNL A   1      37.916  29.120  29.332  1.00  0.00     0.022 A 
BRANCH  52  56
ATOM     56  S   UNL A   1      38.394  28.541  32.013  1.00  0.00     0.124 S 
ATOM     57  O   UNL A   1      39.414  29.246  32.782  1.00  0.00    -0.237 OA
ATOM     58  O   UNL A   1      37.049  29.102  32.064  1.00  0.00    -0.237 OA
ATOM     59  O   UNL A   1      38.464  27.082  32.077  1.00  0.00    -0.744 OA
ENDBRANCH  52  56
ENDBRANCH  25  49
BRANCH  37  60
ATOM     60  C   UNL A   1      46.302  33.079  29.158  1.00  0.00     0.023 A 
ATOM     61  C   UNL A   1      46.250  34.198  28.310  1.00  0.00     0.031 A 
ATOM     62  C   UNL A   1      46.543  33.289  30.526  1.00  0.00     0.131 A 
ATOM     63  C   UNL A   1      46.505  35.475  28.827  1.00  0.00     0.055 A 
ATOM     64  C   UNL A   1      46.731  34.568  31.047  1.00  0.00     0.041 A 
ATOM     65  F   UNL A   1      46.601  32.252  31.377  1.00  0.00    -0.206 F 
ATOM     66  C   UNL A   1      46.729  35.669  30.193  1.00  0.00     0.022 A 
BRANCH  63  67
ATOM     67  S   UNL A   1      46.645  36.865  27.674  1.00  0.00     0.124 S 
ATOM     68  O   UNL A   1      45.694  37.821  28.231  1.00  0.00    -0.237 OA
ATOM     69  O   UNL A   1      48.054  37.227  27.792  1.00  0.00    -0.237 OA
ATOM     70  O   UNL A   1      46.262  36.285  26.389  1.00  0.00    -0.744 OA
ENDBRANCH  63  67
ENDBRANCH  37  60
ENDBRANCH  11  12
ENDBRANCH   4   6
ENDBRANCH   3   4
ENDBRANCH   2   3
ENDBRANCH   1   2
BRANCH   1  71
ATOM     71  O   UNL A   1      40.500  20.788  27.018  1.00  0.00    -0.374 OA
BRANCH  71  72
ATOM     72  C   UNL A   1      40.284  22.074  26.425  1.00  0.00     0.202 C 
BRANCH  72  73
ATOM     73  C   UNL A   1      38.785  22.380  26.409  1.00  0.00     0.261 C 
BRANCH  73  74
ATOM     74  O   UNL A   1      38.340  22.286  25.049  1.00  0.00    -0.460 OA
BRANCH  74  75
ATOM     75  C   UNL A   1      37.296  21.444  24.843  1.00  0.00     0.341 C 
ATOM     76  O   UNL A   1      37.282  20.228  24.947  1.00  0.00    -0.246 OA
BRANCH  75  77
ATOM     77  C   UNL A   1      36.078  22.265  24.744  1.00  0.00     0.101 A 
ATOM     78  C   UNL A   1      35.923  23.055  23.597  1.00  0.00     0.022 A 
ATOM     79  C   UNL A   1      35.073  22.233  25.707  1.00  0.00     0.132 A 
ATOM     80  C   UNL A   1      34.746  23.777  23.390  1.00  0.00     0.028 A 
ATOM     81  C   UNL A   1      33.932  23.015  25.540  1.00  0.00     0.074 A 
ATOM     82  C   UNL A   1      33.760  23.793  24.383  1.00  0.00     0.055 A 
BRANCH  79  83
ATOM     83  O   UNL A   1      35.207  21.465  26.828  1.00  0.00    -0.507 OA
ATOM     84  H   UNL A   1      34.960  20.562  26.810  1.00  0.00     0.293 HD
ENDBRANCH  79  83
BRANCH  82  85
ATOM     85  N   UNL A   1      32.669  24.682  24.286  1.00  0.00    -0.250 N 
ATOM     86  C   UNL A   1      31.506  24.341  23.642  1.00  0.00     0.234 C 
ATOM     87  C   UNL A   1      32.583  25.910  24.905  1.00  0.00     0.241 C 
ATOM     88  O   UNL A   1      31.273  23.357  22.953  1.00  0.00    -0.274 OA
ATOM     89  C   UNL A   1      30.448  25.316  24.035  1.00  0.00     0.119 C 
ATOM     90  C   UNL A   1      31.222  26.500  24.602  1.00  0.00     0.121 C 
ATOM     91  O   UNL A   1      33.453  26.478  25.553  1.00  0.00    -0.273 OA
BRANCH  90  92
ATOM     92  C   UNL A   1      31.206  27.661  23.645  1.00  0.00    -0.010 A 
ATOM     93  C   UNL A   1      32.252  28.277  22.986  1.00  0.00     0.088 A 
ATOM     94  C   UNL A   1      30.007  28.330  23.215  1.00  0.00     0.003 A 
ATOM     95  N   UNL A   1      31.739  29.264  22.182  1.00  0.00    -0.361 N 
ATOM     96  C   UNL A   1      30.368  29.301  22.286  1.00  0.00     0.046 A 
ATOM     97  C   UNL A   1      28.638  28.165  23.520  1.00  0.00     0.010 A 
ATOM     98  H   UNL A   1      32.277  29.860  21.613  1.00  0.00     0.166 HD
ATOM     99  C   UNL A   1      29.427  30.111  21.636  1.00  0.00     0.026 A 
ATOM    100  C   UNL A   1      27.685  28.958  22.875  1.00  0.00     0.001 A 
ATOM    101  C   UNL A   1      28.077  29.916  21.945  1.00  0.00     0.002 A 
ENDBRANCH  90  92
ENDBRANCH  82  85
ENDBRANCH  75  77
ENDBRANCH  74  75
ENDBRANCH  73  74
ENDBRANCH  72  73
ENDBRANCH  71  72
ENDBRANCH   1  71
TORSDOF 20
ENDMDL
