MODEL 1
REMARK VINA RESULT:     -10.7      0.000      0.000
REMARK SMILES CC[C@@H](C)N(C)c1ccc(/C=C/C(=O)OCCOCCOC(=O)c2ccc(-c3c4nc(c(-c5cc(S(=O)(=O)[O-])ccc5F)c5ccc([nH]5)c(-c5cc(S(=O)(=O)[O-])ccc5F)c5nc(c(-c6cc(S(=O)(=O)[O-])ccc6F)c6ccc3[nH]6)C=C5)C=C4)cc2)cc1F
REMARK SMILES IDX 17 1 16 2 15 3 13 4 14 5 12 6 11 7 10 8 7 9 8 10 88 11 9 12
REMARK SMILES IDX 87 13 89 14 5 15 6 16 3 17 4 18 2 19 1 20 18 21 19 22 20 23
REMARK SMILES IDX 21 24 22 25 23 26 24 27 25 28 86 29 26 30 85 31 27 32 28 33
REMARK SMILES IDX 29 34 79 35 30 36 84 37 78 38 80 39 31 40 83 41 77 42 76 43
REMARK SMILES IDX 32 45 64 46 44 47 63 48 45 49 48 50 62 51 81 52 46 53 47 54
REMARK SMILES IDX 61 56 82 57 49 58 33 59 34 60 42 61 35 62 41 63 43 64 40 65
REMARK SMILES IDX 36 66 37 67 38 68 39 69 65 70 66 71 74 72 67 73 73 74 75 75
REMARK SMILES IDX 72 76 68 77 69 78 70 79 71 80 50 81 51 82 59 83 52 84 58 85
REMARK SMILES IDX 60 86 57 87 53 88 54 89 55 90 56 91
REMARK H PARENT 80 44 48 55
REMARK Flexibility Score: inf
ROOT
ATOM      1  C   UNL A   1      35.376  21.508  25.889  1.00  0.00     0.202 C 
ENDROOT
BRANCH   1   2
ATOM      2  C   UNL A   1      34.643  20.548  24.951  1.00  0.00     0.261 C 
BRANCH   2   3
ATOM      3  O   UNL A   1      33.725  21.261  24.104  1.00  0.00    -0.460 OA
BRANCH   3   4
ATOM      4  C   UNL A   1      32.525  21.543  24.657  1.00  0.00     0.330 C 
ATOM      5  O   UNL A   1      31.763  20.757  25.200  1.00  0.00    -0.247 OA
BRANCH   4   6
ATOM      6  C   UNL A   1      32.212  22.987  24.612  1.00  0.00     0.094 C 
ATOM      7  C   UNL A   1      32.846  23.966  25.280  1.00  0.00     0.016 C 
BRANCH   7   8
ATOM      8  C   UNL A   1      32.468  25.386  25.177  1.00  0.00    -0.022 A 
ATOM      9  C   UNL A   1      31.686  28.113  24.790  1.00  0.00     0.073 A 
ATOM     10  C   UNL A   1      30.978  27.263  25.650  1.00  0.00     0.029 A 
ATOM     11  C   UNL A   1      32.852  27.580  24.214  1.00  0.00     0.147 A 
ATOM     12  C   UNL A   1      31.365  25.929  25.849  1.00  0.00     0.010 A 
ATOM     13  C   UNL A   1      33.237  26.246  24.392  1.00  0.00     0.049 A 
ATOM     14  F   UNL A   1      33.663  28.359  23.483  1.00  0.00    -0.205 F 
BRANCH   9  15
ATOM     15  N   UNL A   1      31.223  29.402  24.509  1.00  0.00    -0.370 N 
ATOM     16  C   UNL A   1      31.403  30.424  25.535  1.00  0.00     0.144 C 
BRANCH  15  17
ATOM     17  C   UNL A   1      30.092  29.590  23.564  1.00  0.00     0.078 C 
ATOM     18  C   UNL A   1      30.532  29.385  22.110  1.00  0.00     0.031 C 
BRANCH  17  19
ATOM     19  C   UNL A   1      29.367  30.928  23.783  1.00  0.00     0.021 C 
ATOM     20  C   UNL A   1      27.858  30.838  23.598  1.00  0.00     0.006 C 
ENDBRANCH  17  19
ENDBRANCH  15  17
ENDBRANCH   9  15
ENDBRANCH   7   8
ENDBRANCH   4   6
ENDBRANCH   3   4
ENDBRANCH   2   3
ENDBRANCH   1   2
BRANCH   1  21
ATOM     21  O   UNL A   1      36.800  21.509  25.767  1.00  0.00    -0.374 OA
BRANCH  21  22
ATOM     22  C   UNL A   1      37.353  20.677  24.745  1.00  0.00     0.202 C 
BRANCH  22  23
ATOM     23  C   UNL A   1      38.494  19.749  25.182  1.00  0.00     0.261 C 
BRANCH  23  24
ATOM     24  O   UNL A   1      39.026  20.124  26.465  1.00  0.00    -0.460 OA
BRANCH  24  25
ATOM     25  C   UNL A   1      40.362  20.353  26.484  1.00  0.00     0.338 C 
ATOM     26  O   UNL A   1      41.236  19.626  26.031  1.00  0.00    -0.246 OA
BRANCH  25  27
ATOM     27  C   UNL A   1      40.634  21.718  26.973  1.00  0.00     0.060 A 
ATOM     28  C   UNL A   1      40.003  22.778  26.311  1.00  0.00     0.016 A 
ATOM     29  C   UNL A   1      41.528  21.967  28.017  1.00  0.00     0.016 A 
ATOM     30  C   UNL A   1      40.300  24.095  26.659  1.00  0.00     0.010 A 
ATOM     31  C   UNL A   1      41.831  23.291  28.360  1.00  0.00     0.010 A 
ATOM     32  C   UNL A   1      41.242  24.360  27.660  1.00  0.00    -0.014 A 
BRANCH  32  33
ATOM     33  C   UNL A   1      41.709  25.752  27.876  1.00  0.00     0.031 A 
ATOM     34  C   UNL A   1      43.042  26.171  27.318  1.00  0.00     0.074 A 
ATOM     35  C   UNL A   1      40.937  26.644  28.523  1.00  0.00     0.049 A 
ATOM     36  N   UNL A   1      43.658  27.319  27.418  1.00  0.00    -0.248 NA
ATOM     37  C   UNL A   1      43.777  25.158  26.543  1.00  0.00     0.031 C 
ATOM     38  C   UNL A   1      39.603  26.372  29.059  1.00  0.00     0.029 A 
ATOM     39  N   UNL A   1      41.162  27.961  28.834  1.00  0.00    -0.354 N 
ATOM     40  C   UNL A   1      44.854  27.170  26.724  1.00  0.00     0.074 A 
ATOM     41  C   UNL A   1      44.888  25.810  26.232  1.00  0.00     0.031 C 
ATOM     42  C   UNL A   1      39.128  27.491  29.632  1.00  0.00     0.029 A 
ATOM     43  C   UNL A   1      40.135  28.545  29.539  1.00  0.00     0.049 A 
ATOM     44  H   UNL A   1      41.980  28.443  28.576  1.00  0.00     0.167 HD
ATOM     45  C   UNL A   1      45.828  28.086  26.513  1.00  0.00     0.034 A 
ATOM     46  C   UNL A   1      40.030  29.781  30.068  1.00  0.00     0.034 A 
ATOM     47  C   UNL A   1      45.783  29.440  27.005  1.00  0.00     0.049 A 
ATOM     48  C   UNL A   1      41.164  30.757  29.895  1.00  0.00     0.074 A 
ATOM     49  C   UNL A   1      46.711  30.451  26.828  1.00  0.00     0.029 A 
ATOM     50  N   UNL A   1      44.759  29.971  27.777  1.00  0.00    -0.354 N 
ATOM     51  N   UNL A   1      42.302  30.594  29.261  1.00  0.00    -0.248 NA
ATOM     52  C   UNL A   1      41.004  32.083  30.511  1.00  0.00     0.031 C 
ATOM     53  C   UNL A   1      46.282  31.570  27.547  1.00  0.00     0.029 A 
ATOM     54  C   UNL A   1      45.050  31.283  28.113  1.00  0.00     0.049 A 
ATOM     55  H   UNL A   1      43.945  29.486  28.046  1.00  0.00     0.167 HD
ATOM     56  C   UNL A   1      42.985  31.800  29.387  1.00  0.00     0.074 A 
ATOM     57  C   UNL A   1      42.132  32.684  30.156  1.00  0.00     0.031 C 
ATOM     58  C   UNL A   1      44.202  32.147  28.899  1.00  0.00     0.034 A 
BRANCH  45  59
ATOM     59  C   UNL A   1      47.051  27.643  25.753  1.00  0.00     0.023 A 
ATOM     60  C   UNL A   1      47.215  27.922  24.386  1.00  0.00     0.031 A 
ATOM     61  C   UNL A   1      48.075  26.943  26.415  1.00  0.00     0.131 A 
ATOM     62  C   UNL A   1      48.361  27.470  23.715  1.00  0.00     0.055 A 
ATOM     63  C   UNL A   1      49.240  26.548  25.757  1.00  0.00     0.041 A 
ATOM     64  F   UNL A   1      47.958  26.633  27.717  1.00  0.00    -0.206 F 
ATOM     65  C   UNL A   1      49.384  26.805  24.397  1.00  0.00     0.022 A 
BRANCH  62  66
ATOM     66  S   UNL A   1      48.465  27.692  21.919  1.00  0.00     0.124 S 
ATOM     67  O   UNL A   1      47.167  28.293  21.622  1.00  0.00    -0.237 OA
ATOM     68  O   UNL A   1      49.623  28.566  21.773  1.00  0.00    -0.237 OA
ATOM     69  O   UNL A   1      48.645  26.332  21.416  1.00  0.00    -0.744 OA
ENDBRANCH  62  66
ENDBRANCH  45  59
BRANCH  46  70
ATOM     70  C   UNL A   1      38.817  30.148  30.849  1.00  0.00     0.023 A 
ATOM     71  C   UNL A   1      37.806  30.945  30.290  1.00  0.00     0.031 A 
ATOM     72  C   UNL A   1      38.652  29.693  32.169  1.00  0.00     0.131 A 
ATOM     73  C   UNL A   1      36.677  31.275  31.058  1.00  0.00     0.055 A 
ATOM     74  C   UNL A   1      37.513  29.995  32.916  1.00  0.00     0.041 A 
ATOM     75  F   UNL A   1      39.591  28.924  32.743  1.00  0.00    -0.206 F 
ATOM     76  C   UNL A   1      36.518  30.794  32.361  1.00  0.00     0.022 A 
BRANCH  73  77
ATOM     77  S   UNL A   1      35.413  32.355  30.333  1.00  0.00     0.124 S 
ATOM     78  O   UNL A   1      34.474  32.495  31.440  1.00  0.00    -0.237 OA
ATOM     79  O   UNL A   1      36.186  33.545  29.992  1.00  0.00    -0.237 OA
ATOM     80  O   UNL A   1      34.923  31.587  29.190  1.00  0.00    -0.744 OA
ENDBRANCH  73  77
ENDBRANCH  46  70
BRANCH  58  81
ATOM     81  C   UNL A   1      44.684  33.551  29.154  1.00  0.00     0.023 A 
ATOM     82  C   UNL A   1      44.414  34.596  28.256  1.00  0.00     0.031 A 
ATOM     83  C   UNL A   1      45.372  33.854  30.343  1.00  0.00     0.131 A 
ATOM     84  C   UNL A   1      44.850  35.897  28.551  1.00  0.00     0.055 A 
ATOM     85  C   UNL A   1      45.764  35.157  30.652  1.00  0.00     0.041 A 
ATOM     86  F   UNL A   1      45.649  32.889  31.235  1.00  0.00    -0.206 F 
ATOM     87  C   UNL A   1      45.507  36.187  29.751  1.00  0.00     0.022 A 
BRANCH  84  88
ATOM     88  S   UNL A   1      44.569  37.212  27.334  1.00  0.00     0.124 S 
ATOM     89  O   UNL A   1      44.542  38.403  28.177  1.00  0.00    -0.237 OA
ATOM     90  O   UNL A   1      45.725  37.081  26.454  1.00  0.00    -0.237 OA
ATOM     91  O   UNL A   1      43.288  36.851  26.729  1.00  0.00    -0.744 OA
ENDBRANCH  84  88
ENDBRANCH  58  81
ENDBRANCH  32  33
ENDBRANCH  25  27
ENDBRANCH  24  25
ENDBRANCH  23  24
ENDBRANCH  22  23
ENDBRANCH  21  22
ENDBRANCH   1  21
TORSDOF 21
ENDMDL
MODEL 2
REMARK VINA RESULT:     -10.4      2.028      2.259
REMARK SMILES CC[C@@H](C)N(C)c1ccc(/C=C/C(=O)OCCOCCOC(=O)c2ccc(-c3c4nc(c(-c5cc(S(=O)(=O)[O-])ccc5F)c5ccc([nH]5)c(-c5cc(S(=O)(=O)[O-])ccc5F)c5nc(c(-c6cc(S(=O)(=O)[O-])ccc6F)c6ccc3[nH]6)C=C5)C=C4)cc2)cc1F
REMARK SMILES IDX 17 1 16 2 15 3 13 4 14 5 12 6 11 7 10 8 7 9 8 10 88 11 9 12
REMARK SMILES IDX 87 13 89 14 5 15 6 16 3 17 4 18 2 19 1 20 18 21 19 22 20 23
REMARK SMILES IDX 21 24 22 25 23 26 24 27 25 28 86 29 26 30 85 31 27 32 28 33
REMARK SMILES IDX 29 34 79 35 30 36 84 37 78 38 80 39 31 40 83 41 77 42 76 43
REMARK SMILES IDX 32 45 64 46 44 47 63 48 45 49 48 50 62 51 81 52 46 53 47 54
REMARK SMILES IDX 61 56 82 57 49 58 33 59 34 60 42 61 35 62 41 63 43 64 40 65
REMARK SMILES IDX 36 66 37 67 38 68 39 69 65 70 66 71 74 72 67 73 73 74 75 75
REMARK SMILES IDX 72 76 68 77 69 78 70 79 71 80 50 81 51 82 59 83 52 84 58 85
REMARK SMILES IDX 60 86 57 87 53 88 54 89 55 90 56 91
REMARK H PARENT 80 44 48 55
REMARK Flexibility Score: inf
ROOT
ATOM      1  C   UNL A   1      35.541  21.453  25.883  1.00  0.00     0.202 C 
ENDROOT
BRANCH   1   2
ATOM      2  C   UNL A   1      34.762  20.493  24.983  1.00  0.00     0.261 C 
BRANCH   2   3
ATOM      3  O   UNL A   1      33.804  21.206  24.181  1.00  0.00    -0.460 OA
BRANCH   3   4
ATOM      4  C   UNL A   1      32.622  21.463  24.783  1.00  0.00     0.330 C 
ATOM      5  O   UNL A   1      31.905  20.663  25.365  1.00  0.00    -0.247 OA
BRANCH   4   6
ATOM      6  C   UNL A   1      32.269  22.898  24.735  1.00  0.00     0.094 C 
ATOM      7  C   UNL A   1      32.872  23.893  25.407  1.00  0.00     0.016 C 
BRANCH   7   8
ATOM      8  C   UNL A   1      32.454  25.303  25.302  1.00  0.00    -0.022 A 
ATOM      9  C   UNL A   1      31.677  28.030  24.906  1.00  0.00     0.073 A 
ATOM     10  C   UNL A   1      30.756  27.058  25.321  1.00  0.00     0.029 A 
ATOM     11  C   UNL A   1      33.014  27.609  24.797  1.00  0.00     0.147 A 
ATOM     12  C   UNL A   1      31.136  25.723  25.524  1.00  0.00     0.010 A 
ATOM     13  C   UNL A   1      33.401  26.277  24.982  1.00  0.00     0.049 A 
ATOM     14  F   UNL A   1      33.984  28.497  24.534  1.00  0.00    -0.205 F 
BRANCH   9  15
ATOM     15  N   UNL A   1      31.263  29.328  24.592  1.00  0.00    -0.370 N 
ATOM     16  C   UNL A   1      31.493  30.371  25.586  1.00  0.00     0.144 C 
BRANCH  15  17
ATOM     17  C   UNL A   1      30.130  29.533  23.651  1.00  0.00     0.078 C 
ATOM     18  C   UNL A   1      30.545  29.258  22.202  1.00  0.00     0.031 C 
BRANCH  17  19
ATOM     19  C   UNL A   1      29.469  30.910  23.829  1.00  0.00     0.021 C 
ATOM     20  C   UNL A   1      27.980  30.913  23.509  1.00  0.00     0.006 C 
ENDBRANCH  17  19
ENDBRANCH  15  17
ENDBRANCH   9  15
ENDBRANCH   7   8
ENDBRANCH   4   6
ENDBRANCH   3   4
ENDBRANCH   2   3
ENDBRANCH   1   2
BRANCH   1  21
ATOM     21  O   UNL A   1      36.957  21.450  25.694  1.00  0.00    -0.374 OA
BRANCH  21  22
ATOM     22  C   UNL A   1      37.466  20.562  24.695  1.00  0.00     0.202 C 
BRANCH  22  23
ATOM     23  C   UNL A   1      38.368  19.430  25.204  1.00  0.00     0.261 C 
BRANCH  23  24
ATOM     24  O   UNL A   1      39.037  19.787  26.427  1.00  0.00    -0.460 OA
BRANCH  24  25
ATOM     25  C   UNL A   1      40.354  20.080  26.292  1.00  0.00     0.338 C 
ATOM     26  O   UNL A   1      41.195  19.416  25.701  1.00  0.00    -0.246 OA
BRANCH  25  27
ATOM     27  C   UNL A   1      40.626  21.434  26.809  1.00  0.00     0.060 A 
ATOM     28  C   UNL A   1      40.076  22.515  26.108  1.00  0.00     0.016 A 
ATOM     29  C   UNL A   1      41.446  21.654  27.918  1.00  0.00     0.016 A 
ATOM     30  C   UNL A   1      40.381  23.821  26.485  1.00  0.00     0.010 A 
ATOM     31  C   UNL A   1      41.759  22.968  28.291  1.00  0.00     0.010 A 
ATOM     32  C   UNL A   1      41.254  24.056  27.555  1.00  0.00    -0.014 A 
BRANCH  32  33
ATOM     33  C   UNL A   1      41.741  25.433  27.814  1.00  0.00     0.031 A 
ATOM     34  C   UNL A   1      43.123  25.817  27.360  1.00  0.00     0.074 A 
ATOM     35  C   UNL A   1      40.947  26.344  28.406  1.00  0.00     0.049 A 
ATOM     36  N   UNL A   1      43.761  26.947  27.513  1.00  0.00    -0.248 NA
ATOM     37  C   UNL A   1      43.887  24.787  26.636  1.00  0.00     0.031 C 
ATOM     38  C   UNL A   1      39.569  26.107  28.839  1.00  0.00     0.029 A 
ATOM     39  N   UNL A   1      41.184  27.653  28.741  1.00  0.00    -0.354 N 
ATOM     40  C   UNL A   1      45.001  26.768  26.910  1.00  0.00     0.074 A 
ATOM     41  C   UNL A   1      45.035  25.409  26.413  1.00  0.00     0.031 C 
ATOM     42  C   UNL A   1      39.084  27.236  29.382  1.00  0.00     0.029 A 
ATOM     43  C   UNL A   1      40.124  28.262  29.371  1.00  0.00     0.049 A 
ATOM     44  H   UNL A   1      42.033  28.113  28.549  1.00  0.00     0.167 HD
ATOM     45  C   UNL A   1      46.014  27.656  26.778  1.00  0.00     0.034 A 
ATOM     46  C   UNL A   1      40.014  29.499  29.898  1.00  0.00     0.034 A 
ATOM     47  C   UNL A   1      45.969  29.009  27.274  1.00  0.00     0.049 A 
ATOM     48  C   UNL A   1      41.184  30.444  29.816  1.00  0.00     0.074 A 
ATOM     49  C   UNL A   1      46.935  29.994  27.173  1.00  0.00     0.029 A 
ATOM     50  N   UNL A   1      44.905  29.566  27.970  1.00  0.00    -0.354 N 
ATOM     51  N   UNL A   1      42.361  30.251  29.268  1.00  0.00    -0.248 NA
ATOM     52  C   UNL A   1      41.014  31.771  30.427  1.00  0.00     0.031 C 
ATOM     53  C   UNL A   1      46.484  31.122  27.864  1.00  0.00     0.029 A 
ATOM     54  C   UNL A   1      45.206  30.867  28.334  1.00  0.00     0.049 A 
ATOM     55  H   UNL A   1      44.060  29.103  28.174  1.00  0.00     0.167 HD
ATOM     56  C   UNL A   1      43.066  31.437  29.452  1.00  0.00     0.074 A 
ATOM     57  C   UNL A   1      42.182  32.342  30.161  1.00  0.00     0.031 C 
ATOM     58  C   UNL A   1      44.325  31.752  29.059  1.00  0.00     0.034 A 
BRANCH  45  59
ATOM     59  C   UNL A   1      47.277  27.182  26.110  1.00  0.00     0.023 A 
ATOM     60  C   UNL A   1      48.278  26.497  26.819  1.00  0.00     0.031 A 
ATOM     61  C   UNL A   1      47.474  27.408  24.736  1.00  0.00     0.131 A 
ATOM     62  C   UNL A   1      49.448  26.095  26.158  1.00  0.00     0.055 A 
ATOM     63  C   UNL A   1      48.612  26.953  24.071  1.00  0.00     0.041 A 
ATOM     64  F   UNL A   1      46.556  28.076  24.017  1.00  0.00    -0.206 F 
ATOM     65  C   UNL A   1      49.611  26.298  24.785  1.00  0.00     0.022 A 
BRANCH  62  66
ATOM     66  S   UNL A   1      50.794  25.370  27.133  1.00  0.00     0.124 S 
ATOM     67  O   UNL A   1      50.106  24.279  27.819  1.00  0.00    -0.237 OA
ATOM     68  O   UNL A   1      51.753  24.975  26.107  1.00  0.00    -0.237 OA
ATOM     69  O   UNL A   1      51.223  26.469  27.996  1.00  0.00    -0.744 OA
ENDBRANCH  62  66
ENDBRANCH  45  59
BRANCH  46  70
ATOM     70  C   UNL A   1      38.755  29.896  30.588  1.00  0.00     0.023 A 
ATOM     71  C   UNL A   1      37.796  30.694  29.947  1.00  0.00     0.031 A 
ATOM     72  C   UNL A   1      38.497  29.471  31.903  1.00  0.00     0.131 A 
ATOM     73  C   UNL A   1      36.622  31.054  30.629  1.00  0.00     0.055 A 
ATOM     74  C   UNL A   1      37.314  29.802  32.564  1.00  0.00     0.041 A 
ATOM     75  F   UNL A   1      39.384  28.702  32.553  1.00  0.00    -0.206 F 
ATOM     76  C   UNL A   1      36.369  30.601  31.928  1.00  0.00     0.022 A 
BRANCH  73  77
ATOM     77  S   UNL A   1      35.424  32.134  29.800  1.00  0.00     0.124 S 
ATOM     78  O   UNL A   1      34.458  32.377  30.865  1.00  0.00    -0.237 OA
ATOM     79  O   UNL A   1      36.254  33.271  29.414  1.00  0.00    -0.237 OA
ATOM     80  O   UNL A   1      34.940  31.316  28.690  1.00  0.00    -0.744 OA
ENDBRANCH  73  77
ENDBRANCH  46  70
BRANCH  58  81
ATOM     81  C   UNL A   1      44.825  33.141  29.358  1.00  0.00     0.023 A 
ATOM     82  C   UNL A   1      45.563  33.424  30.519  1.00  0.00     0.031 A 
ATOM     83  C   UNL A   1      44.608  34.181  28.437  1.00  0.00     0.131 A 
ATOM     84  C   UNL A   1      46.042  34.724  30.740  1.00  0.00     0.055 A 
ATOM     85  C   UNL A   1      45.124  35.461  28.640  1.00  0.00     0.041 A 
ATOM     86  F   UNL A   1      43.912  33.959  27.310  1.00  0.00    -0.206 F 
ATOM     87  C   UNL A   1      45.842  35.739  29.800  1.00  0.00     0.022 A 
BRANCH  84  88
ATOM     88  S   UNL A   1      46.914  35.085  32.289  1.00  0.00     0.124 S 
ATOM     89  O   UNL A   1      46.201  34.237  33.241  1.00  0.00    -0.237 OA
ATOM     90  O   UNL A   1      48.283  34.686  31.982  1.00  0.00    -0.237 OA
ATOM     91  O   UNL A   1      46.714  36.522  32.469  1.00  0.00    -0.744 OA
ENDBRANCH  84  88
ENDBRANCH  58  81
ENDBRANCH  32  33
ENDBRANCH  25  27
ENDBRANCH  24  25
ENDBRANCH  23  24
ENDBRANCH  22  23
ENDBRANCH  21  22
ENDBRANCH   1  21
TORSDOF 21
ENDMDL
MODEL 3
REMARK VINA RESULT:     -10.4      1.448      7.733
REMARK SMILES CC[C@@H](C)N(C)c1ccc(/C=C/C(=O)OCCOCCOC(=O)c2ccc(-c3c4nc(c(-c5cc(S(=O)(=O)[O-])ccc5F)c5ccc([nH]5)c(-c5cc(S(=O)(=O)[O-])ccc5F)c5nc(c(-c6cc(S(=O)(=O)[O-])ccc6F)c6ccc3[nH]6)C=C5)C=C4)cc2)cc1F
REMARK SMILES IDX 17 1 16 2 15 3 13 4 14 5 12 6 11 7 10 8 7 9 8 10 88 11 9 12
REMARK SMILES IDX 87 13 89 14 5 15 6 16 3 17 4 18 2 19 1 20 18 21 19 22 20 23
REMARK SMILES IDX 21 24 22 25 23 26 24 27 25 28 86 29 26 30 85 31 27 32 28 33
REMARK SMILES IDX 29 34 79 35 30 36 84 37 78 38 80 39 31 40 83 41 77 42 76 43
REMARK SMILES IDX 32 45 64 46 44 47 63 48 45 49 48 50 62 51 81 52 46 53 47 54
REMARK SMILES IDX 61 56 82 57 49 58 33 59 34 60 42 61 35 62 41 63 43 64 40 65
REMARK SMILES IDX 36 66 37 67 38 68 39 69 65 70 66 71 74 72 67 73 73 74 75 75
REMARK SMILES IDX 72 76 68 77 69 78 70 79 71 80 50 81 51 82 59 83 52 84 58 85
REMARK SMILES IDX 60 86 57 87 53 88 54 89 55 90 56 91
REMARK H PARENT 80 44 48 55
REMARK Flexibility Score: inf
ROOT
ATOM      1  C   UNL A   1      34.317  22.726  23.565  1.00  0.00     0.202 C 
ENDROOT
BRANCH   1   2
ATOM      2  C   UNL A   1      33.293  22.742  24.700  1.00  0.00     0.261 C 
BRANCH   2   3
ATOM      3  O   UNL A   1      32.510  23.948  24.666  1.00  0.00    -0.460 OA
BRANCH   3   4
ATOM      4  C   UNL A   1      33.005  24.981  25.383  1.00  0.00     0.330 C 
ATOM      5  O   UNL A   1      33.957  24.954  26.149  1.00  0.00    -0.247 OA
BRANCH   4   6
ATOM      6  C   UNL A   1      32.299  26.249  25.101  1.00  0.00     0.094 C 
ATOM      7  C   UNL A   1      31.533  26.518  24.030  1.00  0.00     0.016 C 
BRANCH   7   8
ATOM      8  C   UNL A   1      30.863  27.814  23.825  1.00  0.00    -0.022 A 
ATOM      9  C   UNL A   1      29.403  30.257  23.514  1.00  0.00     0.073 A 
ATOM     10  C   UNL A   1      30.530  30.177  24.344  1.00  0.00     0.029 A 
ATOM     11  C   UNL A   1      29.098  29.104  22.772  1.00  0.00     0.147 A 
ATOM     12  C   UNL A   1      31.252  28.984  24.491  1.00  0.00     0.010 A 
ATOM     13  C   UNL A   1      29.802  27.903  22.923  1.00  0.00     0.049 A 
ATOM     14  F   UNL A   1      28.119  29.127  21.855  1.00  0.00    -0.205 F 
BRANCH   9  15
ATOM     15  N   UNL A   1      28.623  31.417  23.468  1.00  0.00    -0.370 N 
ATOM     16  C   UNL A   1      27.216  31.301  23.835  1.00  0.00     0.144 C 
BRANCH  15  17
ATOM     17  C   UNL A   1      28.986  32.513  22.532  1.00  0.00     0.078 C 
ATOM     18  C   UNL A   1      29.421  33.776  23.283  1.00  0.00     0.031 C 
BRANCH  17  19
ATOM     19  C   UNL A   1      27.879  32.786  21.500  1.00  0.00     0.021 C 
ATOM     20  C   UNL A   1      28.101  32.077  20.171  1.00  0.00     0.006 C 
ENDBRANCH  17  19
ENDBRANCH  15  17
ENDBRANCH   9  15
ENDBRANCH   7   8
ENDBRANCH   4   6
ENDBRANCH   3   4
ENDBRANCH   2   3
ENDBRANCH   1   2
BRANCH   1  21
ATOM     21  O   UNL A   1      35.627  22.288  23.933  1.00  0.00    -0.374 OA
BRANCH  21  22
ATOM     22  C   UNL A   1      35.709  21.053  24.649  1.00  0.00     0.202 C 
BRANCH  22  23
ATOM     23  C   UNL A   1      37.110  20.650  25.128  1.00  0.00     0.261 C 
BRANCH  23  24
ATOM     24  O   UNL A   1      37.719  21.679  25.926  1.00  0.00    -0.460 OA
BRANCH  24  25
ATOM     25  C   UNL A   1      39.027  21.473  26.221  1.00  0.00     0.338 C 
ATOM     26  O   UNL A   1      39.683  20.470  25.974  1.00  0.00    -0.246 OA
BRANCH  25  27
ATOM     27  C   UNL A   1      39.632  22.716  26.734  1.00  0.00     0.060 A 
ATOM     28  C   UNL A   1      39.154  23.927  26.218  1.00  0.00     0.016 A 
ATOM     29  C   UNL A   1      40.682  22.705  27.655  1.00  0.00     0.016 A 
ATOM     30  C   UNL A   1      39.755  25.130  26.585  1.00  0.00     0.010 A 
ATOM     31  C   UNL A   1      41.290  23.914  28.017  1.00  0.00     0.010 A 
ATOM     32  C   UNL A   1      40.850  25.128  27.458  1.00  0.00    -0.014 A 
BRANCH  32  33
ATOM     33  C   UNL A   1      41.616  26.380  27.675  1.00  0.00     0.031 A 
ATOM     34  C   UNL A   1      40.999  27.480  28.496  1.00  0.00     0.074 A 
ATOM     35  C   UNL A   1      42.861  26.519  27.185  1.00  0.00     0.049 A 
ATOM     36  N   UNL A   1      41.471  28.665  28.781  1.00  0.00    -0.248 NA
ATOM     37  C   UNL A   1      39.673  27.206  29.072  1.00  0.00     0.031 C 
ATOM     38  C   UNL A   1      43.586  25.502  26.423  1.00  0.00     0.029 A 
ATOM     39  N   UNL A   1      43.738  27.572  27.259  1.00  0.00    -0.354 N 
ATOM     40  C   UNL A   1      40.502  29.281  29.565  1.00  0.00     0.074 A 
ATOM     41  C   UNL A   1      39.404  28.348  29.688  1.00  0.00     0.031 C 
ATOM     42  C   UNL A   1      44.799  25.982  26.102  1.00  0.00     0.029 A 
ATOM     43  C   UNL A   1      44.924  27.350  26.599  1.00  0.00     0.049 A 
ATOM     44  H   UNL A   1      43.538  28.407  27.740  1.00  0.00     0.167 HD
ATOM     45  C   UNL A   1      40.531  30.509  30.135  1.00  0.00     0.034 A 
ATOM     46  C   UNL A   1      45.980  28.165  26.400  1.00  0.00     0.034 A 
ATOM     47  C   UNL A   1      41.633  31.430  30.009  1.00  0.00     0.049 A 
ATOM     48  C   UNL A   1      45.954  29.559  26.971  1.00  0.00     0.074 A 
ATOM     49  C   UNL A   1      41.767  32.691  30.565  1.00  0.00     0.029 A 
ATOM     50  N   UNL A   1      42.785  31.196  29.272  1.00  0.00    -0.354 N 
ATOM     51  N   UNL A   1      45.019  30.139  27.687  1.00  0.00    -0.248 NA
ATOM     52  C   UNL A   1      47.123  30.411  26.704  1.00  0.00     0.031 C 
ATOM     53  C   UNL A   1      42.967  33.244  30.112  1.00  0.00     0.029 A 
ATOM     54  C   UNL A   1      43.617  32.301  29.331  1.00  0.00     0.049 A 
ATOM     55  H   UNL A   1      42.982  30.366  28.780  1.00  0.00     0.167 HD
ATOM     56  C   UNL A   1      45.494  31.416  27.971  1.00  0.00     0.074 A 
ATOM     57  C   UNL A   1      46.800  31.523  27.350  1.00  0.00     0.031 C 
ATOM     58  C   UNL A   1      44.907  32.405  28.690  1.00  0.00     0.034 A 
BRANCH  45  59
ATOM     59  C   UNL A   1      39.317  30.949  30.910  1.00  0.00     0.023 A 
ATOM     60  C   UNL A   1      38.222  31.568  30.283  1.00  0.00     0.031 A 
ATOM     61  C   UNL A   1      39.250  30.729  32.297  1.00  0.00     0.131 A 
ATOM     62  C   UNL A   1      37.123  31.980  31.050  1.00  0.00     0.055 A 
ATOM     63  C   UNL A   1      38.129  31.087  33.045  1.00  0.00     0.041 A 
ATOM     64  F   UNL A   1      40.279  30.159  32.947  1.00  0.00    -0.206 F 
ATOM     65  C   UNL A   1      37.059  31.723  32.423  1.00  0.00     0.022 A 
BRANCH  62  66
ATOM     66  S   UNL A   1      35.805  32.930  30.245  1.00  0.00     0.124 S 
ATOM     67  O   UNL A   1      35.137  31.897  29.458  1.00  0.00    -0.237 OA
ATOM     68  O   UNL A   1      35.054  33.456  31.379  1.00  0.00    -0.237 OA
ATOM     69  O   UNL A   1      36.532  33.929  29.463  1.00  0.00    -0.744 OA
ENDBRANCH  62  66
ENDBRANCH  45  59
BRANCH  46  70
ATOM     70  C   UNL A   1      47.133  27.692  25.586  1.00  0.00     0.023 A 
ATOM     71  C   UNL A   1      47.199  27.937  24.207  1.00  0.00     0.031 A 
ATOM     72  C   UNL A   1      48.192  26.990  26.190  1.00  0.00     0.131 A 
ATOM     73  C   UNL A   1      48.301  27.471  23.470  1.00  0.00     0.055 A 
ATOM     74  C   UNL A   1      49.300  26.560  25.460  1.00  0.00     0.041 A 
ATOM     75  F   UNL A   1      48.174  26.737  27.507  1.00  0.00    -0.206 F 
ATOM     76  C   UNL A   1      49.357  26.797  24.090  1.00  0.00     0.022 A 
BRANCH  73  77
ATOM     77  S   UNL A   1      48.335  27.749  21.678  1.00  0.00     0.124 S 
ATOM     78  O   UNL A   1      48.501  26.392  21.171  1.00  0.00    -0.237 OA
ATOM     79  O   UNL A   1      47.035  28.370  21.440  1.00  0.00    -0.237 OA
ATOM     80  O   UNL A   1      49.484  28.632  21.493  1.00  0.00    -0.744 OA
ENDBRANCH  73  77
ENDBRANCH  46  70
BRANCH  58  81
ATOM     81  C   UNL A   1      45.676  33.687  28.875  1.00  0.00     0.023 A 
ATOM     82  C   UNL A   1      45.445  34.807  28.060  1.00  0.00     0.031 A 
ATOM     83  C   UNL A   1      46.610  33.804  29.920  1.00  0.00     0.131 A 
ATOM     84  C   UNL A   1      46.157  35.994  28.291  1.00  0.00     0.055 A 
ATOM     85  C   UNL A   1      47.283  34.999  30.173  1.00  0.00     0.041 A 
ATOM     86  F   UNL A   1      46.862  32.761  30.729  1.00  0.00    -0.206 F 
ATOM     87  C   UNL A   1      47.061  36.102  29.352  1.00  0.00     0.022 A 
BRANCH  84  88
ATOM     88  S   UNL A   1      45.908  37.397  27.169  1.00  0.00     0.124 S 
ATOM     89  O   UNL A   1      46.370  38.519  27.982  1.00  0.00    -0.237 OA
ATOM     90  O   UNL A   1      46.749  37.046  26.030  1.00  0.00    -0.237 OA
ATOM     91  O   UNL A   1      44.470  37.375  26.906  1.00  0.00    -0.744 OA
ENDBRANCH  84  88
ENDBRANCH  58  81
ENDBRANCH  32  33
ENDBRANCH  25  27
ENDBRANCH  24  25
ENDBRANCH  23  24
ENDBRANCH  22  23
ENDBRANCH  21  22
ENDBRANCH   1  21
TORSDOF 21
ENDMDL
