MODEL 1
REMARK VINA RESULT:     -11.6      0.000      0.000
REMARK SMILES C[C@@H]1CCC[C@@]1(C(=O)OCCOCCOC(=O)c1ccc(-c2c3nc(c(-c4cc(S(=O)(=O)[O-])ccc4F)c4ccc([nH]4)c(-c4cc(S(=O)(=O)[O-])ccc4F)c4nc(c(-c5cc(S(=O)(=O)[O-])ccc5F)c5ccc2[nH]5)C=C4)C=C3)cc1)c1ccc(Cl)cc1Cl
REMARK SMILES IDX 13 1 12 2 11 3 10 4 9 5 7 6 8 7 6 8 1 9 2 10 3 11 4 12 5 13
REMARK SMILES IDX 81 14 82 15 87 16 83 17 86 18 88 19 84 20 85 21 14 22 15 23
REMARK SMILES IDX 16 24 17 25 18 26 19 27 80 28 20 29 79 30 21 31 22 32 23 33
REMARK SMILES IDX 73 34 24 35 78 36 72 37 74 38 25 39 77 40 71 41 70 42 26 44
REMARK SMILES IDX 58 45 38 46 57 47 39 48 42 49 56 50 75 51 40 52 41 53 55 55
REMARK SMILES IDX 76 56 43 57 27 58 28 59 36 60 29 61 35 62 37 63 34 64 30 65
REMARK SMILES IDX 31 66 32 67 33 68 59 69 60 70 68 71 61 72 67 73 69 74 66 75
REMARK SMILES IDX 62 76 63 77 64 78 65 79 44 80 45 81 53 82 46 83 52 84 54 85
REMARK SMILES IDX 51 86 47 87 48 88 49 89 50 90
REMARK H PARENT 74 43 42 54
REMARK Flexibility Score: inf
ROOT
ATOM      1  C   UNL A   1      31.102  31.945  26.573  1.00  0.00     0.202 C 
ENDROOT
BRANCH   1   2
ATOM      2  O   UNL A   1      31.428  30.777  25.822  1.00  0.00    -0.374 OA
BRANCH   2   3
ATOM      3  C   UNL A   1      32.628  30.094  26.183  1.00  0.00     0.202 C 
BRANCH   3   4
ATOM      4  C   UNL A   1      32.471  28.778  26.950  1.00  0.00     0.261 C 
BRANCH   4   5
ATOM      5  O   UNL A   1      31.650  27.740  26.348  1.00  0.00    -0.463 OA
BRANCH   5   6
ATOM      6  C   UNL A   1      32.304  26.890  25.501  1.00  0.00     0.316 C 
ATOM      7  O   UNL A   1      33.506  26.641  25.600  1.00  0.00    -0.251 OA
BRANCH   6   8
ATOM      8  C   UNL A   1      31.449  26.304  24.334  1.00  0.00     0.097 C 
ATOM      9  C   UNL A   1      30.935  24.180  25.822  1.00  0.00     0.009 C 
ATOM     10  C   UNL A   1      30.540  25.051  24.635  1.00  0.00     0.008 C 
ATOM     11  C   UNL A   1      30.607  24.152  23.383  1.00  0.00     0.005 C 
ATOM     12  C   UNL A   1      31.971  24.388  22.762  1.00  0.00     0.002 C 
ATOM     13  C   UNL A   1      32.533  25.658  23.394  1.00  0.00     0.024 C 
BRANCH   8  14
ATOM     14  C   UNL A   1      30.628  27.415  23.561  1.00  0.00    -0.012 A 
ATOM     15  C   UNL A   1      29.211  27.326  23.548  1.00  0.00     0.008 A 
ATOM     16  C   UNL A   1      31.151  28.547  22.888  1.00  0.00     0.046 A 
ATOM     17  C   UNL A   1      28.380  28.295  22.971  1.00  0.00     0.021 A 
ATOM     18  C   UNL A   1      30.314  29.509  22.288  1.00  0.00     0.041 A 
ATOM     19  Cl  UNL A   1      32.813  28.927  22.665  1.00  0.00    -0.084 Cl
ATOM     20  C   UNL A   1      28.938  29.389  22.341  1.00  0.00     0.042 A 
ATOM     21  Cl  UNL A   1      27.935  30.580  21.619  1.00  0.00    -0.084 Cl
ENDBRANCH   8  14
ENDBRANCH   6   8
ENDBRANCH   5   6
ENDBRANCH   4   5
ENDBRANCH   3   4
ENDBRANCH   2   3
ENDBRANCH   1   2
BRANCH   1  22
ATOM     22  C   UNL A   1      32.219  32.988  26.681  1.00  0.00     0.261 C 
BRANCH  22  23
ATOM     23  O   UNL A   1      32.278  33.508  28.016  1.00  0.00    -0.460 OA
BRANCH  23  24
ATOM     24  C   UNL A   1      33.364  34.244  28.322  1.00  0.00     0.338 C 
ATOM     25  O   UNL A   1      33.413  35.451  28.449  1.00  0.00    -0.246 OA
BRANCH  24  26
ATOM     26  C   UNL A   1      34.517  33.327  28.451  1.00  0.00     0.060 A 
ATOM     27  C   UNL A   1      34.342  32.051  29.001  1.00  0.00     0.016 A 
ATOM     28  C   UNL A   1      35.794  33.787  28.129  1.00  0.00     0.016 A 
ATOM     29  C   UNL A   1      35.460  31.275  29.324  1.00  0.00     0.010 A 
ATOM     30  C   UNL A   1      36.909  32.995  28.421  1.00  0.00     0.010 A 
ATOM     31  C   UNL A   1      36.754  31.765  29.087  1.00  0.00    -0.014 A 
BRANCH  31  32
ATOM     32  C   UNL A   1      37.923  31.116  29.744  1.00  0.00     0.031 A 
ATOM     33  C   UNL A   1      38.221  31.459  31.185  1.00  0.00     0.074 A 
ATOM     34  C   UNL A   1      38.688  30.209  29.108  1.00  0.00     0.049 A 
ATOM     35  N   UNL A   1      39.166  31.011  31.973  1.00  0.00    -0.248 NA
ATOM     36  C   UNL A   1      37.335  32.449  31.817  1.00  0.00     0.031 C 
ATOM     37  C   UNL A   1      38.509  29.769  27.726  1.00  0.00     0.029 A 
ATOM     38  N   UNL A   1      39.774  29.494  29.550  1.00  0.00    -0.354 N 
ATOM     39  C   UNL A   1      38.987  31.662  33.190  1.00  0.00     0.074 A 
ATOM     40  C   UNL A   1      37.879  32.576  33.017  1.00  0.00     0.031 C 
ATOM     41  C   UNL A   1      39.453  28.856  27.434  1.00  0.00     0.029 A 
ATOM     42  C   UNL A   1      40.316  28.660  28.600  1.00  0.00     0.049 A 
ATOM     43  H   UNL A   1      40.133  29.569  30.464  1.00  0.00     0.167 HD
ATOM     44  C   UNL A   1      39.663  31.502  34.355  1.00  0.00     0.034 A 
ATOM     45  C   UNL A   1      41.384  27.839  28.659  1.00  0.00     0.034 A 
ATOM     46  C   UNL A   1      40.771  30.595  34.531  1.00  0.00     0.049 A 
ATOM     47  C   UNL A   1      42.159  27.713  29.951  1.00  0.00     0.074 A 
ATOM     48  C   UNL A   1      41.515  30.354  35.673  1.00  0.00     0.029 A 
ATOM     49  N   UNL A   1      41.301  29.785  33.536  1.00  0.00    -0.354 N 
ATOM     50  N   UNL A   1      41.962  28.319  31.099  1.00  0.00    -0.248 NA
ATOM     51  C   UNL A   1      43.291  26.774  29.955  1.00  0.00     0.031 C 
ATOM     52  C   UNL A   1      42.530  29.444  35.355  1.00  0.00     0.029 A 
ATOM     53  C   UNL A   1      42.375  29.062  34.032  1.00  0.00     0.049 A 
ATOM     54  H   UNL A   1      40.963  29.732  32.613  1.00  0.00     0.167 HD
ATOM     55  C   UNL A   1      42.921  27.803  31.970  1.00  0.00     0.074 A 
ATOM     56  C   UNL A   1      43.689  26.834  31.218  1.00  0.00     0.031 C 
ATOM     57  C   UNL A   1      43.140  28.098  33.277  1.00  0.00     0.034 A 
BRANCH  44  58
ATOM     58  C   UNL A   1      39.237  32.364  35.519  1.00  0.00     0.023 A 
ATOM     59  C   UNL A   1      39.653  33.702  35.635  1.00  0.00     0.031 A 
ATOM     60  C   UNL A   1      38.436  31.830  36.543  1.00  0.00     0.131 A 
ATOM     61  C   UNL A   1      39.329  34.438  36.785  1.00  0.00     0.055 A 
ATOM     62  C   UNL A   1      38.052  32.592  37.648  1.00  0.00     0.041 A 
ATOM     63  F   UNL A   1      38.027  30.553  36.495  1.00  0.00    -0.206 F 
ATOM     64  C   UNL A   1      38.512  33.899  37.782  1.00  0.00     0.022 A 
BRANCH  61  65
ATOM     65  S   UNL A   1      40.109  36.057  37.028  1.00  0.00     0.124 S 
ATOM     66  O   UNL A   1      39.340  36.591  38.150  1.00  0.00    -0.237 OA
ATOM     67  O   UNL A   1      41.494  35.701  37.314  1.00  0.00    -0.237 OA
ATOM     68  O   UNL A   1      39.890  36.737  35.752  1.00  0.00    -0.744 OA
ENDBRANCH  61  65
ENDBRANCH  44  58
BRANCH  45  69
ATOM     69  C   UNL A   1      41.814  27.069  27.455  1.00  0.00     0.023 A 
ATOM     70  C   UNL A   1      41.649  25.677  27.384  1.00  0.00     0.031 A 
ATOM     71  C   UNL A   1      42.462  27.715  26.388  1.00  0.00     0.131 A 
ATOM     72  C   UNL A   1      42.171  24.968  26.291  1.00  0.00     0.055 A 
ATOM     73  C   UNL A   1      42.936  27.011  25.279  1.00  0.00     0.041 A 
ATOM     74  F   UNL A   1      42.643  29.045  26.408  1.00  0.00    -0.206 F 
ATOM     75  C   UNL A   1      42.803  25.626  25.234  1.00  0.00     0.022 A 
BRANCH  72  76
ATOM     76  S   UNL A   1      42.083  23.156  26.308  1.00  0.00     0.124 S 
ATOM     77  O   UNL A   1      42.967  22.826  27.420  1.00  0.00    -0.237 OA
ATOM     78  O   UNL A   1      40.659  22.924  26.528  1.00  0.00    -0.237 OA
ATOM     79  O   UNL A   1      42.575  22.779  24.984  1.00  0.00    -0.744 OA
ENDBRANCH  72  76
ENDBRANCH  45  69
BRANCH  57  80
ATOM     80  C   UNL A   1      44.216  27.316  33.992  1.00  0.00     0.023 A 
ATOM     81  C   UNL A   1      44.010  25.998  34.437  1.00  0.00     0.031 A 
ATOM     82  C   UNL A   1      45.466  27.910  34.245  1.00  0.00     0.131 A 
ATOM     83  C   UNL A   1      45.015  25.338  35.164  1.00  0.00     0.055 A 
ATOM     84  C   UNL A   1      46.482  27.230  34.920  1.00  0.00     0.041 A 
ATOM     85  F   UNL A   1      45.720  29.165  33.843  1.00  0.00    -0.206 F 
ATOM     86  C   UNL A   1      46.253  25.942  35.397  1.00  0.00     0.022 A 
BRANCH  83  87
ATOM     87  S   UNL A   1      44.649  23.717  35.889  1.00  0.00     0.124 S 
ATOM     88  O   UNL A   1      44.923  23.945  37.305  1.00  0.00    -0.237 OA
ATOM     89  O   UNL A   1      43.246  23.528  35.535  1.00  0.00    -0.237 OA
ATOM     90  O   UNL A   1      45.585  22.819  35.214  1.00  0.00    -0.744 OA
ENDBRANCH  83  87
ENDBRANCH  57  80
ENDBRANCH  31  32
ENDBRANCH  24  26
ENDBRANCH  23  24
ENDBRANCH  22  23
ENDBRANCH   1  22
TORSDOF 18
ENDMDL
MODEL 2
REMARK VINA RESULT:     -11.5      4.623     10.117
REMARK SMILES C[C@@H]1CCC[C@@]1(C(=O)OCCOCCOC(=O)c1ccc(-c2c3nc(c(-c4cc(S(=O)(=O)[O-])ccc4F)c4ccc([nH]4)c(-c4cc(S(=O)(=O)[O-])ccc4F)c4nc(c(-c5cc(S(=O)(=O)[O-])ccc5F)c5ccc2[nH]5)C=C4)C=C3)cc1)c1ccc(Cl)cc1Cl
REMARK SMILES IDX 13 1 12 2 11 3 10 4 9 5 7 6 8 7 6 8 1 9 2 10 3 11 4 12 5 13
REMARK SMILES IDX 81 14 82 15 87 16 83 17 86 18 88 19 84 20 85 21 14 22 15 23
REMARK SMILES IDX 16 24 17 25 18 26 19 27 80 28 20 29 79 30 21 31 22 32 23 33
REMARK SMILES IDX 73 34 24 35 78 36 72 37 74 38 25 39 77 40 71 41 70 42 26 44
REMARK SMILES IDX 58 45 38 46 57 47 39 48 42 49 56 50 75 51 40 52 41 53 55 55
REMARK SMILES IDX 76 56 43 57 27 58 28 59 36 60 29 61 35 62 37 63 34 64 30 65
REMARK SMILES IDX 31 66 32 67 33 68 59 69 60 70 68 71 61 72 67 73 69 74 66 75
REMARK SMILES IDX 62 76 63 77 64 78 65 79 44 80 45 81 53 82 46 83 52 84 54 85
REMARK SMILES IDX 51 86 47 87 48 88 49 89 50 90
REMARK H PARENT 74 43 42 54
REMARK Flexibility Score: inf
ROOT
ATOM      1  C   UNL A   1      35.702  21.152  25.302  1.00  0.00     0.202 C 
ENDROOT
BRANCH   1   2
ATOM      2  O   UNL A   1      35.613  22.467  24.757  1.00  0.00    -0.374 OA
BRANCH   2   3
ATOM      3  C   UNL A   1      34.735  23.378  25.415  1.00  0.00     0.202 C 
BRANCH   3   4
ATOM      4  C   UNL A   1      34.276  24.598  24.611  1.00  0.00     0.261 C 
BRANCH   4   5
ATOM      5  O   UNL A   1      33.342  25.513  25.248  1.00  0.00    -0.463 OA
BRANCH   5   6
ATOM      6  C   UNL A   1      33.156  26.705  24.605  1.00  0.00     0.316 C 
ATOM      7  O   UNL A   1      33.706  26.983  23.539  1.00  0.00    -0.251 OA
BRANCH   6   8
ATOM      8  C   UNL A   1      32.258  27.743  25.348  1.00  0.00     0.097 C 
ATOM      9  C   UNL A   1      34.432  28.832  26.387  1.00  0.00     0.009 C 
ATOM     10  C   UNL A   1      32.958  28.983  26.026  1.00  0.00     0.008 C 
ATOM     11  C   UNL A   1      32.203  29.244  27.345  1.00  0.00     0.005 C 
ATOM     12  C   UNL A   1      31.677  27.898  27.809  1.00  0.00     0.002 C 
ATOM     13  C   UNL A   1      31.780  26.948  26.619  1.00  0.00     0.024 C 
BRANCH   8  14
ATOM     14  C   UNL A   1      31.018  28.209  24.481  1.00  0.00    -0.012 A 
ATOM     15  C   UNL A   1      30.815  29.600  24.280  1.00  0.00     0.008 A 
ATOM     16  C   UNL A   1      30.075  27.378  23.828  1.00  0.00     0.046 A 
ATOM     17  C   UNL A   1      29.804  30.124  23.464  1.00  0.00     0.021 A 
ATOM     18  C   UNL A   1      29.045  27.908  23.025  1.00  0.00     0.041 A 
ATOM     19  Cl  UNL A   1      29.994  25.662  23.908  1.00  0.00    -0.084 Cl
ATOM     20  C   UNL A   1      28.920  29.272  22.835  1.00  0.00     0.042 A 
ATOM     21  Cl  UNL A   1      27.670  29.897  21.840  1.00  0.00    -0.084 Cl
ENDBRANCH   8  14
ENDBRANCH   6   8
ENDBRANCH   5   6
ENDBRANCH   4   5
ENDBRANCH   3   4
ENDBRANCH   2   3
ENDBRANCH   1   2
BRANCH   1  22
ATOM     22  C   UNL A   1      37.028  20.425  25.048  1.00  0.00     0.261 C 
BRANCH  22  23
ATOM     23  O   UNL A   1      38.108  21.367  25.032  1.00  0.00    -0.460 OA
BRANCH  23  24
ATOM     24  C   UNL A   1      39.156  21.085  25.831  1.00  0.00     0.338 C 
ATOM     25  O   UNL A   1      39.743  20.024  25.914  1.00  0.00    -0.246 OA
BRANCH  24  26
ATOM     26  C   UNL A   1      39.463  22.292  26.627  1.00  0.00     0.060 A 
ATOM     27  C   UNL A   1      38.722  23.465  26.439  1.00  0.00     0.016 A 
ATOM     28  C   UNL A   1      40.570  22.285  27.478  1.00  0.00     0.016 A 
ATOM     29  C   UNL A   1      39.152  24.659  27.028  1.00  0.00     0.010 A 
ATOM     30  C   UNL A   1      40.978  23.474  28.092  1.00  0.00     0.010 A 
ATOM     31  C   UNL A   1      40.314  24.683  27.813  1.00  0.00    -0.014 A 
BRANCH  31  32
ATOM     32  C   UNL A   1      40.964  25.985  28.135  1.00  0.00     0.031 A 
ATOM     33  C   UNL A   1      42.381  26.218  27.664  1.00  0.00     0.074 A 
ATOM     34  C   UNL A   1      40.315  26.965  28.790  1.00  0.00     0.049 A 
ATOM     35  N   UNL A   1      43.145  27.272  27.804  1.00  0.00    -0.248 NA
ATOM     36  C   UNL A   1      43.021  25.106  26.945  1.00  0.00     0.031 C 
ATOM     37  C   UNL A   1      38.943  26.887  29.288  1.00  0.00     0.029 A 
ATOM     38  N   UNL A   1      40.731  28.225  29.148  1.00  0.00    -0.354 N 
ATOM     39  C   UNL A   1      44.353  26.950  27.191  1.00  0.00     0.074 A 
ATOM     40  C   UNL A   1      44.236  25.583  26.730  1.00  0.00     0.031 C 
ATOM     41  C   UNL A   1      38.630  28.051  29.885  1.00  0.00     0.029 A 
ATOM     42  C   UNL A   1      39.784  28.950  29.831  1.00  0.00     0.049 A 
ATOM     43  H   UNL A   1      41.625  28.577  28.934  1.00  0.00     0.167 HD
ATOM     44  C   UNL A   1      45.452  27.722  27.006  1.00  0.00     0.034 A 
ATOM     45  C   UNL A   1      39.839  30.192  30.356  1.00  0.00     0.034 A 
ATOM     46  C   UNL A   1      45.574  29.083  27.469  1.00  0.00     0.049 A 
ATOM     47  C   UNL A   1      41.093  31.020  30.186  1.00  0.00     0.074 A 
ATOM     48  C   UNL A   1      46.643  29.951  27.323  1.00  0.00     0.029 A 
ATOM     49  N   UNL A   1      44.599  29.772  28.176  1.00  0.00    -0.354 N 
ATOM     50  N   UNL A   1      42.217  30.707  29.583  1.00  0.00    -0.248 NA
ATOM     51  C   UNL A   1      41.073  32.376  30.753  1.00  0.00     0.031 C 
ATOM     52  C   UNL A   1      46.337  31.143  27.990  1.00  0.00     0.029 A 
ATOM     53  C   UNL A   1      45.049  31.045  28.492  1.00  0.00     0.049 A 
ATOM     54  H   UNL A   1      43.716  29.410  28.418  1.00  0.00     0.167 HD
ATOM     55  C   UNL A   1      43.021  31.844  29.666  1.00  0.00     0.074 A 
ATOM     56  C   UNL A   1      42.250  32.848  30.369  1.00  0.00     0.031 C 
ATOM     57  C   UNL A   1      44.278  32.042  29.195  1.00  0.00     0.034 A 
BRANCH  44  58
ATOM     58  C   UNL A   1      46.626  27.086  26.301  1.00  0.00     0.023 A 
ATOM     59  C   UNL A   1      47.642  26.423  27.012  1.00  0.00     0.031 A 
ATOM     60  C   UNL A   1      46.749  27.175  24.903  1.00  0.00     0.131 A 
ATOM     61  C   UNL A   1      48.771  25.942  26.333  1.00  0.00     0.055 A 
ATOM     62  C   UNL A   1      47.838  26.626  24.225  1.00  0.00     0.041 A 
ATOM     63  F   UNL A   1      45.820  27.815  24.175  1.00  0.00    -0.206 F 
ATOM     64  C   UNL A   1      48.866  26.018  24.941  1.00  0.00     0.022 A 
BRANCH  61  65
ATOM     65  S   UNL A   1      50.180  25.345  27.307  1.00  0.00     0.124 S 
ATOM     66  O   UNL A   1      50.448  26.491  28.173  1.00  0.00    -0.237 OA
ATOM     67  O   UNL A   1      49.633  24.164  27.963  1.00  0.00    -0.237 OA
ATOM     68  O   UNL A   1      51.206  25.082  26.300  1.00  0.00    -0.744 OA
ENDBRANCH  61  65
ENDBRANCH  44  58
BRANCH  45  69
ATOM     69  C   UNL A   1      38.681  30.744  31.116  1.00  0.00     0.023 A 
ATOM     70  C   UNL A   1      37.589  31.330  30.455  1.00  0.00     0.031 A 
ATOM     71  C   UNL A   1      38.687  30.755  32.522  1.00  0.00     0.131 A 
ATOM     72  C   UNL A   1      36.572  31.946  31.200  1.00  0.00     0.055 A 
ATOM     73  C   UNL A   1      37.648  31.326  33.259  1.00  0.00     0.041 A 
ATOM     74  F   UNL A   1      39.708  30.207  33.200  1.00  0.00    -0.206 F 
ATOM     75  C   UNL A   1      36.588  31.939  32.596  1.00  0.00     0.022 A 
BRANCH  72  76
ATOM     76  S   UNL A   1      35.260  32.832  30.313  1.00  0.00     0.124 S 
ATOM     77  O   UNL A   1      34.292  33.073  31.378  1.00  0.00    -0.237 OA
ATOM     78  O   UNL A   1      35.971  34.004  29.814  1.00  0.00    -0.237 OA
ATOM     79  O   UNL A   1      34.839  31.879  29.288  1.00  0.00    -0.744 OA
ENDBRANCH  72  76
ENDBRANCH  45  69
BRANCH  57  80
ATOM     80  C   UNL A   1      44.874  33.419  29.371  1.00  0.00     0.023 A 
ATOM     81  C   UNL A   1      44.627  34.462  28.460  1.00  0.00     0.031 A 
ATOM     82  C   UNL A   1      45.718  33.685  30.464  1.00  0.00     0.131 A 
ATOM     83  C   UNL A   1      45.264  35.702  28.625  1.00  0.00     0.055 A 
ATOM     84  C   UNL A   1      46.306  34.938  30.655  1.00  0.00     0.041 A 
ATOM     85  F   UNL A   1      45.990  32.729  31.367  1.00  0.00    -0.206 F 
ATOM     86  C   UNL A   1      46.092  35.950  29.724  1.00  0.00     0.022 A 
BRANCH  83  87
ATOM     87  S   UNL A   1      45.078  36.960  27.331  1.00  0.00     0.124 S 
ATOM     88  O   UNL A   1      43.739  36.680  26.822  1.00  0.00    -0.237 OA
ATOM     89  O   UNL A   1      45.227  38.202  28.082  1.00  0.00    -0.237 OA
ATOM     90  O   UNL A   1      46.168  36.663  26.403  1.00  0.00    -0.744 OA
ENDBRANCH  83  87
ENDBRANCH  57  80
ENDBRANCH  31  32
ENDBRANCH  24  26
ENDBRANCH  23  24
ENDBRANCH  22  23
ENDBRANCH   1  22
TORSDOF 18
ENDMDL
MODEL 3
REMARK VINA RESULT:     -11.3      1.725      2.860
REMARK SMILES C[C@@H]1CCC[C@@]1(C(=O)OCCOCCOC(=O)c1ccc(-c2c3nc(c(-c4cc(S(=O)(=O)[O-])ccc4F)c4ccc([nH]4)c(-c4cc(S(=O)(=O)[O-])ccc4F)c4nc(c(-c5cc(S(=O)(=O)[O-])ccc5F)c5ccc2[nH]5)C=C4)C=C3)cc1)c1ccc(Cl)cc1Cl
REMARK SMILES IDX 13 1 12 2 11 3 10 4 9 5 7 6 8 7 6 8 1 9 2 10 3 11 4 12 5 13
REMARK SMILES IDX 81 14 82 15 87 16 83 17 86 18 88 19 84 20 85 21 14 22 15 23
REMARK SMILES IDX 16 24 17 25 18 26 19 27 80 28 20 29 79 30 21 31 22 32 23 33
REMARK SMILES IDX 73 34 24 35 78 36 72 37 74 38 25 39 77 40 71 41 70 42 26 44
REMARK SMILES IDX 58 45 38 46 57 47 39 48 42 49 56 50 75 51 40 52 41 53 55 55
REMARK SMILES IDX 76 56 43 57 27 58 28 59 36 60 29 61 35 62 37 63 34 64 30 65
REMARK SMILES IDX 31 66 32 67 33 68 59 69 60 70 68 71 61 72 67 73 69 74 66 75
REMARK SMILES IDX 62 76 63 77 64 78 65 79 44 80 45 81 53 82 46 83 52 84 54 85
REMARK SMILES IDX 51 86 47 87 48 88 49 89 50 90
REMARK H PARENT 74 43 42 54
REMARK Flexibility Score: inf
ROOT
ATOM      1  C   UNL A   1      31.227  31.474  26.124  1.00  0.00     0.202 C 
ENDROOT
BRANCH   1   2
ATOM      2  O   UNL A   1      32.007  30.321  26.439  1.00  0.00    -0.374 OA
BRANCH   2   3
ATOM      3  C   UNL A   1      32.839  29.805  25.403  1.00  0.00     0.202 C 
BRANCH   3   4
ATOM      4  C   UNL A   1      33.306  28.354  25.549  1.00  0.00     0.261 C 
BRANCH   4   5
ATOM      5  O   UNL A   1      32.403  27.305  25.105  1.00  0.00    -0.463 OA
BRANCH   5   6
ATOM      6  C   UNL A   1      32.966  26.333  24.327  1.00  0.00     0.316 C 
ATOM      7  O   UNL A   1      33.564  26.578  23.279  1.00  0.00    -0.251 OA
BRANCH   6   8
ATOM      8  C   UNL A   1      32.738  24.865  24.804  1.00  0.00     0.097 C 
ATOM      9  C   UNL A   1      30.383  24.876  23.603  1.00  0.00     0.009 C 
ATOM     10  C   UNL A   1      31.533  24.060  24.183  1.00  0.00     0.008 C 
ATOM     11  C   UNL A   1      30.941  23.209  25.326  1.00  0.00     0.005 C 
ATOM     12  C   UNL A   1      31.194  23.981  26.607  1.00  0.00     0.002 C 
ATOM     13  C   UNL A   1      32.233  25.051  26.283  1.00  0.00     0.024 C 
BRANCH   8  14
ATOM     14  C   UNL A   1      34.063  23.999  24.770  1.00  0.00    -0.012 A 
ATOM     15  C   UNL A   1      34.871  23.947  25.937  1.00  0.00     0.008 A 
ATOM     16  C   UNL A   1      34.537  23.211  23.692  1.00  0.00     0.046 A 
ATOM     17  C   UNL A   1      36.016  23.148  26.050  1.00  0.00     0.021 A 
ATOM     18  C   UNL A   1      35.702  22.425  23.801  1.00  0.00     0.041 A 
ATOM     19  Cl  UNL A   1      33.838  23.091  22.126  1.00  0.00    -0.084 Cl
ATOM     20  C   UNL A   1      36.428  22.385  24.976  1.00  0.00     0.042 A 
ATOM     21  Cl  UNL A   1      37.834  21.408  25.095  1.00  0.00    -0.084 Cl
ENDBRANCH   8  14
ENDBRANCH   6   8
ENDBRANCH   5   6
ENDBRANCH   4   5
ENDBRANCH   3   4
ENDBRANCH   2   3
ENDBRANCH   1   2
BRANCH   1  22
ATOM     22  C   UNL A   1      31.333  32.630  27.124  1.00  0.00     0.261 C 
BRANCH  22  23
ATOM     23  O   UNL A   1      32.593  33.297  26.971  1.00  0.00    -0.460 OA
BRANCH  23  24
ATOM     24  C   UNL A   1      33.207  33.679  28.108  1.00  0.00     0.338 C 
ATOM     25  O   UNL A   1      32.823  34.522  28.895  1.00  0.00    -0.246 OA
BRANCH  24  26
ATOM     26  C   UNL A   1      34.463  32.910  28.230  1.00  0.00     0.060 A 
ATOM     27  C   UNL A   1      34.424  31.541  28.521  1.00  0.00     0.016 A 
ATOM     28  C   UNL A   1      35.685  33.583  28.169  1.00  0.00     0.016 A 
ATOM     29  C   UNL A   1      35.605  30.868  28.852  1.00  0.00     0.010 A 
ATOM     30  C   UNL A   1      36.868  32.899  28.467  1.00  0.00     0.010 A 
ATOM     31  C   UNL A   1      36.828  31.555  28.881  1.00  0.00    -0.014 A 
BRANCH  31  32
ATOM     32  C   UNL A   1      38.003  30.948  29.568  1.00  0.00     0.031 A 
ATOM     33  C   UNL A   1      38.279  31.336  31.002  1.00  0.00     0.074 A 
ATOM     34  C   UNL A   1      38.791  30.039  28.965  1.00  0.00     0.049 A 
ATOM     35  N   UNL A   1      39.224  30.929  31.811  1.00  0.00    -0.248 NA
ATOM     36  C   UNL A   1      37.368  32.326  31.597  1.00  0.00     0.031 C 
ATOM     37  C   UNL A   1      38.635  29.557  27.594  1.00  0.00     0.029 A 
ATOM     38  N   UNL A   1      39.887  29.357  29.438  1.00  0.00    -0.354 N 
ATOM     39  C   UNL A   1      39.020  31.610  33.007  1.00  0.00     0.074 A 
ATOM     40  C   UNL A   1      37.896  32.497  32.798  1.00  0.00     0.031 C 
ATOM     41  C   UNL A   1      39.599  28.655  27.337  1.00  0.00     0.029 A 
ATOM     42  C   UNL A   1      40.454  28.509  28.516  1.00  0.00     0.049 A 
ATOM     43  H   UNL A   1      40.234  29.465  30.353  1.00  0.00     0.167 HD
ATOM     44  C   UNL A   1      39.688  31.496  34.183  1.00  0.00     0.034 A 
ATOM     45  C   UNL A   1      41.537  27.710  28.609  1.00  0.00     0.034 A 
ATOM     46  C   UNL A   1      40.811  30.616  34.395  1.00  0.00     0.049 A 
ATOM     47  C   UNL A   1      42.301  27.635  29.911  1.00  0.00     0.074 A 
ATOM     48  C   UNL A   1      41.548  30.422  35.551  1.00  0.00     0.029 A 
ATOM     49  N   UNL A   1      41.367  29.790  33.428  1.00  0.00    -0.354 N 
ATOM     50  N   UNL A   1      42.080  28.269  31.039  1.00  0.00    -0.248 NA
ATOM     51  C   UNL A   1      43.451  26.719  29.952  1.00  0.00     0.031 C 
ATOM     52  C   UNL A   1      42.583  29.523  35.268  1.00  0.00     0.029 A 
ATOM     53  C   UNL A   1      42.449  29.102  33.955  1.00  0.00     0.049 A 
ATOM     54  H   UNL A   1      41.039  29.704  32.504  1.00  0.00     0.167 HD
ATOM     55  C   UNL A   1      43.040  27.797  31.934  1.00  0.00     0.074 A 
ATOM     56  C   UNL A   1      43.834  26.822  31.217  1.00  0.00     0.031 C 
ATOM     57  C   UNL A   1      43.240  28.132  33.234  1.00  0.00     0.034 A 
BRANCH  44  58
ATOM     58  C   UNL A   1      39.233  32.382  35.318  1.00  0.00     0.023 A 
ATOM     59  C   UNL A   1      39.692  33.704  35.449  1.00  0.00     0.031 A 
ATOM     60  C   UNL A   1      38.359  31.885  36.301  1.00  0.00     0.131 A 
ATOM     61  C   UNL A   1      39.336  34.459  36.577  1.00  0.00     0.055 A 
ATOM     62  C   UNL A   1      37.946  32.668  37.380  1.00  0.00     0.041 A 
ATOM     63  F   UNL A   1      37.906  30.624  36.238  1.00  0.00    -0.206 F 
ATOM     64  C   UNL A   1      38.447  33.958  37.532  1.00  0.00     0.022 A 
BRANCH  61  65
ATOM     65  S   UNL A   1      40.162  36.050  36.852  1.00  0.00     0.124 S 
ATOM     66  O   UNL A   1      41.549  35.633  37.048  1.00  0.00    -0.237 OA
ATOM     67  O   UNL A   1      39.881  36.770  35.616  1.00  0.00    -0.237 OA
ATOM     68  O   UNL A   1      39.504  36.576  38.047  1.00  0.00    -0.744 OA
ENDBRANCH  61  65
ENDBRANCH  44  58
BRANCH  45  69
ATOM     69  C   UNL A   1      41.994  26.916  27.431  1.00  0.00     0.023 A 
ATOM     70  C   UNL A   1      41.739  25.539  27.338  1.00  0.00     0.031 A 
ATOM     71  C   UNL A   1      42.756  27.518  26.415  1.00  0.00     0.131 A 
ATOM     72  C   UNL A   1      42.284  24.799  26.278  1.00  0.00     0.055 A 
ATOM     73  C   UNL A   1      43.255  26.786  25.336  1.00  0.00     0.041 A 
ATOM     74  F   UNL A   1      43.027  28.832  26.458  1.00  0.00    -0.206 F 
ATOM     75  C   UNL A   1      43.031  25.414  25.271  1.00  0.00     0.022 A 
BRANCH  72  76
ATOM     76  S   UNL A   1      42.070  22.997  26.275  1.00  0.00     0.124 S 
ATOM     77  O   UNL A   1      42.697  22.622  27.538  1.00  0.00    -0.237 OA
ATOM     78  O   UNL A   1      40.618  22.865  26.215  1.00  0.00    -0.237 OA
ATOM     79  O   UNL A   1      42.782  22.572  25.072  1.00  0.00    -0.744 OA
ENDBRANCH  72  76
ENDBRANCH  45  69
BRANCH  57  80
ATOM     80  C   UNL A   1      44.324  27.391  33.981  1.00  0.00     0.023 A 
ATOM     81  C   UNL A   1      44.074  26.182  34.654  1.00  0.00     0.031 A 
ATOM     82  C   UNL A   1      45.628  27.917  34.032  1.00  0.00     0.131 A 
ATOM     83  C   UNL A   1      45.096  25.570  35.398  1.00  0.00     0.055 A 
ATOM     84  C   UNL A   1      46.655  27.275  34.728  1.00  0.00     0.041 A 
ATOM     85  F   UNL A   1      45.926  29.068  33.408  1.00  0.00    -0.206 F 
ATOM     86  C   UNL A   1      46.387  26.102  35.428  1.00  0.00     0.022 A 
BRANCH  83  87
ATOM     87  S   UNL A   1      44.692  24.119  36.410  1.00  0.00     0.124 S 
ATOM     88  O   UNL A   1      44.194  24.730  37.637  1.00  0.00    -0.237 OA
ATOM     89  O   UNL A   1      43.699  23.435  35.589  1.00  0.00    -0.237 OA
ATOM     90  O   UNL A   1      45.973  23.424  36.540  1.00  0.00    -0.744 OA
ENDBRANCH  83  87
ENDBRANCH  57  80
ENDBRANCH  31  32
ENDBRANCH  24  26
ENDBRANCH  23  24
ENDBRANCH  22  23
ENDBRANCH   1  22
TORSDOF 18
ENDMDL
