MODEL 1
REMARK VINA RESULT:     -11.0      0.000      0.000
REMARK SMILES C[N@H+](Cc1cc(Cl)ccc1[N+](=O)[O-])[C@H]1COC[C@@H]1C(=O)OCCOCCOC(=O)c1ccc(-c2c3nc(c(-c4cc(S(=O)(=O)[O-])ccc4F)c4ccc([nH]4)c(-c4cc(S(=O)(=O)[O-])ccc4F)c4nc(c(-c5cc(S(=O)(=O)[O-])ccc5F)c5ccc2[nH]5)C=C4)C=C3)cc1
REMARK SMILES IDX 23 1 22 2 21 3 19 4 20 5 18 6 14 7 15 8 16 9 17 10 2 11 1 12
REMARK SMILES IDX 3 14 4 15 5 16 10 17 6 18 9 19 7 20 8 21 11 22 12 23 13 24
REMARK SMILES IDX 24 25 25 26 26 27 27 28 28 29 29 30 30 31 31 32 92 33 32 34
REMARK SMILES IDX 91 35 33 36 34 37 35 38 85 39 36 40 90 41 84 42 86 43 37 44
REMARK SMILES IDX 89 45 83 46 82 47 38 49 70 50 50 51 69 52 51 53 54 54 68 55
REMARK SMILES IDX 87 56 52 57 53 58 67 60 88 61 55 62 39 63 40 64 48 65 41 66
REMARK SMILES IDX 47 67 49 68 46 69 42 70 43 71 44 72 45 73 71 74 72 75 80 76
REMARK SMILES IDX 73 77 79 78 81 79 78 80 74 81 75 82 76 83 77 84 56 85 57 86
REMARK SMILES IDX 65 87 58 88 64 89 66 90 63 91 59 92 60 93 61 94 62 95
REMARK H PARENT 2 13 86 48 54 59
REMARK Flexibility Score: inf
ROOT
ATOM      1  C   UNL A   1      35.635  22.492  24.218  1.00  0.00     0.202 C 
ENDROOT
BRANCH   1   2
ATOM      2  C   UNL A   1      34.193  22.309  23.730  1.00  0.00     0.261 C 
BRANCH   2   3
ATOM      3  O   UNL A   1      33.417  21.562  24.686  1.00  0.00    -0.463 OA
BRANCH   3   4
ATOM      4  C   UNL A   1      32.873  22.274  25.715  1.00  0.00     0.317 C 
ATOM      5  O   UNL A   1      33.346  22.342  26.840  1.00  0.00    -0.252 OA
BRANCH   4   6
ATOM      6  C   UNL A   1      31.651  23.039  25.232  1.00  0.00     0.185 C 
ATOM      7  C   UNL A   1      31.954  24.537  25.091  1.00  0.00     0.227 C 
ATOM      8  C   UNL A   1      31.765  24.974  26.559  1.00  0.00     0.226 C 
ATOM      9  O   UNL A   1      30.757  24.131  27.140  1.00  0.00    -0.374 OA
ATOM     10  C   UNL A   1      30.569  22.995  26.285  1.00  0.00     0.182 C 
BRANCH   7  11
ATOM     11  N   UNL A   1      31.044  25.341  24.201  1.00  0.00    -0.328 N 
ATOM     12  C   UNL A   1      30.383  24.518  23.180  1.00  0.00     0.333 C 
ATOM     13  H   UNL A   1      30.309  25.729  24.793  1.00  0.00     0.348 HD
BRANCH  11  14
ATOM     14  C   UNL A   1      31.805  26.446  23.557  1.00  0.00     0.306 C 
BRANCH  14  15
ATOM     15  C   UNL A   1      31.607  27.789  24.243  1.00  0.00     0.085 A 
ATOM     16  C   UNL A   1      32.526  28.156  25.252  1.00  0.00     0.037 A 
ATOM     17  C   UNL A   1      30.622  28.737  23.896  1.00  0.00     0.278 A 
ATOM     18  C   UNL A   1      32.504  29.426  25.831  1.00  0.00     0.042 A 
ATOM     19  C   UNL A   1      30.597  30.015  24.491  1.00  0.00     0.088 A 
ATOM     20  Cl  UNL A   1      33.684  29.845  27.011  1.00  0.00    -0.084 Cl
ATOM     21  C   UNL A   1      31.551  30.361  25.448  1.00  0.00     0.027 A 
BRANCH  17  22
ATOM     22  N   UNL A   1      29.537  28.435  22.960  1.00  0.00     0.063 N 
ATOM     23  O   UNL A   1      29.384  29.206  22.002  1.00  0.00    -0.258 OA
ATOM     24  O   UNL A   1      28.778  27.499  23.245  1.00  0.00    -0.258 OA
ENDBRANCH  17  22
ENDBRANCH  14  15
ENDBRANCH  11  14
ENDBRANCH   7  11
ENDBRANCH   4   6
ENDBRANCH   3   4
ENDBRANCH   2   3
ENDBRANCH   1   2
BRANCH   1  25
ATOM     25  O   UNL A   1      36.057  21.578  25.233  1.00  0.00    -0.374 OA
BRANCH  25  26
ATOM     26  C   UNL A   1      36.434  20.273  24.798  1.00  0.00     0.202 C 
BRANCH  26  27
ATOM     27  C   UNL A   1      37.885  19.861  25.055  1.00  0.00     0.261 C 
BRANCH  27  28
ATOM     28  O   UNL A   1      38.729  21.009  25.243  1.00  0.00    -0.460 OA
BRANCH  28  29
ATOM     29  C   UNL A   1      39.696  20.841  26.174  1.00  0.00     0.338 C 
ATOM     30  O   UNL A   1      40.310  19.808  26.413  1.00  0.00    -0.246 OA
BRANCH  29  31
ATOM     31  C   UNL A   1      40.066  22.142  26.761  1.00  0.00     0.060 A 
ATOM     32  C   UNL A   1      39.390  23.273  26.287  1.00  0.00     0.016 A 
ATOM     33  C   UNL A   1      41.084  22.268  27.712  1.00  0.00     0.016 A 
ATOM     34  C   UNL A   1      39.767  24.541  26.716  1.00  0.00     0.010 A 
ATOM     35  C   UNL A   1      41.465  23.545  28.137  1.00  0.00     0.010 A 
ATOM     36  C   UNL A   1      40.835  24.687  27.611  1.00  0.00    -0.014 A 
BRANCH  36  37
ATOM     37  C   UNL A   1      41.392  26.039  27.860  1.00  0.00     0.031 A 
ATOM     38  C   UNL A   1      42.754  26.371  27.312  1.00  0.00     0.074 A 
ATOM     39  C   UNL A   1      40.679  26.968  28.521  1.00  0.00     0.049 A 
ATOM     40  N   UNL A   1      43.451  27.472  27.427  1.00  0.00    -0.248 NA
ATOM     41  C   UNL A   1      43.417  25.315  26.532  1.00  0.00     0.031 C 
ATOM     42  C   UNL A   1      39.329  26.774  29.050  1.00  0.00     0.029 A 
ATOM     43  N   UNL A   1      40.992  28.259  28.862  1.00  0.00    -0.354 N 
ATOM     44  C   UNL A   1      44.637  27.241  26.736  1.00  0.00     0.074 A 
ATOM     45  C   UNL A   1      44.578  25.881  26.244  1.00  0.00     0.031 C 
ATOM     46  C   UNL A   1      38.932  27.906  29.655  1.00  0.00     0.029 A 
ATOM     47  C   UNL A   1      40.012  28.889  29.592  1.00  0.00     0.049 A 
ATOM     48  H   UNL A   1      41.838  28.693  28.608  1.00  0.00     0.167 HD
ATOM     49  C   UNL A   1      45.673  28.090  26.524  1.00  0.00     0.034 A 
ATOM     50  C   UNL A   1      40.001  30.111  30.163  1.00  0.00     0.034 A 
ATOM     51  C   UNL A   1      45.717  29.440  27.034  1.00  0.00     0.049 A 
ATOM     52  C   UNL A   1      41.206  31.006  29.995  1.00  0.00     0.074 A 
ATOM     53  C   UNL A   1      46.711  30.390  26.874  1.00  0.00     0.029 A 
ATOM     54  N   UNL A   1      44.730  30.027  27.816  1.00  0.00    -0.354 N 
ATOM     55  N   UNL A   1      42.320  30.780  29.337  1.00  0.00    -0.248 NA
ATOM     56  C   UNL A   1      41.147  32.324  30.640  1.00  0.00     0.031 C 
ATOM     57  C   UNL A   1      46.359  31.521  27.619  1.00  0.00     0.029 A 
ATOM     58  C   UNL A   1      45.107  31.312  28.175  1.00  0.00     0.049 A 
ATOM     59  H   UNL A   1      43.885  29.595  28.076  1.00  0.00     0.167 HD
ATOM     60  C   UNL A   1      43.079  31.942  29.463  1.00  0.00     0.074 A 
ATOM     61  C   UNL A   1      42.289  32.868  30.248  1.00  0.00     0.031 C 
ATOM     62  C   UNL A   1      44.313  32.221  28.969  1.00  0.00     0.034 A 
BRANCH  49  63
ATOM     63  C   UNL A   1      46.858  27.559  25.755  1.00  0.00     0.023 A 
ATOM     64  C   UNL A   1      47.126  27.959  24.434  1.00  0.00     0.031 A 
ATOM     65  C   UNL A   1      47.714  26.609  26.340  1.00  0.00     0.131 A 
ATOM     66  C   UNL A   1      48.174  27.359  23.719  1.00  0.00     0.055 A 
ATOM     67  C   UNL A   1      48.805  26.076  25.651  1.00  0.00     0.041 A 
ATOM     68  F   UNL A   1      47.495  26.169  27.589  1.00  0.00    -0.206 F 
ATOM     69  C   UNL A   1      49.032  26.439  24.327  1.00  0.00     0.022 A 
BRANCH  66  70
ATOM     70  S   UNL A   1      48.310  27.686  21.939  1.00  0.00     0.124 S 
ATOM     71  O   UNL A   1      49.304  28.756  21.912  1.00  0.00    -0.237 OA
ATOM     72  O   UNL A   1      48.742  26.397  21.414  1.00  0.00    -0.237 OA
ATOM     73  O   UNL A   1      46.958  28.093  21.563  1.00  0.00    -0.744 OA
ENDBRANCH  66  70
ENDBRANCH  49  63
BRANCH  50  74
ATOM     74  C   UNL A   1      38.836  30.551  30.984  1.00  0.00     0.023 A 
ATOM     75  C   UNL A   1      37.749  31.223  30.403  1.00  0.00     0.031 A 
ATOM     76  C   UNL A   1      38.820  30.353  32.377  1.00  0.00     0.131 A 
ATOM     77  C   UNL A   1      36.715  31.713  31.216  1.00  0.00     0.055 A 
ATOM     78  C   UNL A   1      37.763  30.796  33.174  1.00  0.00     0.041 A 
ATOM     79  F   UNL A   1      39.835  29.718  32.984  1.00  0.00    -0.206 F 
ATOM     80  C   UNL A   1      36.708  31.493  32.595  1.00  0.00     0.022 A 
BRANCH  77  81
ATOM     81  S   UNL A   1      35.417  32.727  30.453  1.00  0.00     0.124 S 
ATOM     82  O   UNL A   1      34.855  31.802  29.476  1.00  0.00    -0.237 OA
ATOM     83  O   UNL A   1      34.570  33.042  31.600  1.00  0.00    -0.237 OA
ATOM     84  O   UNL A   1      36.154  33.858  29.894  1.00  0.00    -0.744 OA
ENDBRANCH  77  81
ENDBRANCH  50  74
BRANCH  62  85
ATOM     85  C   UNL A   1      44.859  33.606  29.227  1.00  0.00     0.023 A 
ATOM     86  C   UNL A   1      44.599  34.680  28.360  1.00  0.00     0.031 A 
ATOM     87  C   UNL A   1      45.659  33.849  30.358  1.00  0.00     0.131 A 
ATOM     88  C   UNL A   1      45.180  35.933  28.606  1.00  0.00     0.055 A 
ATOM     89  C   UNL A   1      46.183  35.112  30.631  1.00  0.00     0.041 A 
ATOM     90  F   UNL A   1      45.942  32.858  31.220  1.00  0.00    -0.206 F 
ATOM     91  C   UNL A   1      45.955  36.161  29.745  1.00  0.00     0.022 A 
BRANCH  88  92
ATOM     92  S   UNL A   1      44.985  37.244  27.366  1.00  0.00     0.124 S 
ATOM     93  O   UNL A   1      43.669  36.944  26.812  1.00  0.00    -0.237 OA
ATOM     94  O   UNL A   1      45.075  38.455  28.175  1.00  0.00    -0.237 OA
ATOM     95  O   UNL A   1      46.106  37.024  26.455  1.00  0.00    -0.744 OA
ENDBRANCH  88  92
ENDBRANCH  62  85
ENDBRANCH  36  37
ENDBRANCH  29  31
ENDBRANCH  28  29
ENDBRANCH  27  28
ENDBRANCH  26  27
ENDBRANCH  25  26
ENDBRANCH   1  25
TORSDOF 21
ENDMDL
MODEL 2
REMARK VINA RESULT:     -10.6      1.416      7.578
REMARK SMILES C[N@H+](Cc1cc(Cl)ccc1[N+](=O)[O-])[C@H]1COC[C@@H]1C(=O)OCCOCCOC(=O)c1ccc(-c2c3nc(c(-c4cc(S(=O)(=O)[O-])ccc4F)c4ccc([nH]4)c(-c4cc(S(=O)(=O)[O-])ccc4F)c4nc(c(-c5cc(S(=O)(=O)[O-])ccc5F)c5ccc2[nH]5)C=C4)C=C3)cc1
REMARK SMILES IDX 23 1 22 2 21 3 19 4 20 5 18 6 14 7 15 8 16 9 17 10 2 11 1 12
REMARK SMILES IDX 3 14 4 15 5 16 10 17 6 18 9 19 7 20 8 21 11 22 12 23 13 24
REMARK SMILES IDX 24 25 25 26 26 27 27 28 28 29 29 30 30 31 31 32 92 33 32 34
REMARK SMILES IDX 91 35 33 36 34 37 35 38 85 39 36 40 90 41 84 42 86 43 37 44
REMARK SMILES IDX 89 45 83 46 82 47 38 49 70 50 50 51 69 52 51 53 54 54 68 55
REMARK SMILES IDX 87 56 52 57 53 58 67 60 88 61 55 62 39 63 40 64 48 65 41 66
REMARK SMILES IDX 47 67 49 68 46 69 42 70 43 71 44 72 45 73 71 74 72 75 80 76
REMARK SMILES IDX 73 77 79 78 81 79 78 80 74 81 75 82 76 83 77 84 56 85 57 86
REMARK SMILES IDX 65 87 58 88 64 89 66 90 63 91 59 92 60 93 61 94 62 95
REMARK H PARENT 2 13 86 48 54 59
REMARK Flexibility Score: inf
ROOT
ATOM      1  C   UNL A   1      34.178  21.206  26.489  1.00  0.00     0.202 C 
ENDROOT
BRANCH   1   2
ATOM      2  C   UNL A   1      33.342  20.122  25.799  1.00  0.00     0.261 C 
BRANCH   2   3
ATOM      3  O   UNL A   1      32.519  20.690  24.762  1.00  0.00    -0.463 OA
BRANCH   3   4
ATOM      4  C   UNL A   1      31.807  21.805  25.094  1.00  0.00     0.317 C 
ATOM      5  O   UNL A   1      30.813  21.810  25.804  1.00  0.00    -0.252 OA
BRANCH   4   6
ATOM      6  C   UNL A   1      32.484  23.044  24.528  1.00  0.00     0.185 C 
ATOM      7  C   UNL A   1      31.789  24.325  25.010  1.00  0.00     0.227 C 
ATOM      8  C   UNL A   1      30.627  24.381  23.997  1.00  0.00     0.226 C 
ATOM      9  O   UNL A   1      31.094  23.810  22.763  1.00  0.00    -0.374 OA
ATOM     10  C   UNL A   1      32.305  23.088  23.029  1.00  0.00     0.182 C 
BRANCH   7  11
ATOM     11  N   UNL A   1      32.582  25.602  24.945  1.00  0.00    -0.328 N 
ATOM     12  C   UNL A   1      34.017  25.388  25.173  1.00  0.00     0.333 C 
ATOM     13  H   UNL A   1      32.482  25.971  23.999  1.00  0.00     0.348 HD
BRANCH  11  14
ATOM     14  C   UNL A   1      32.047  26.586  25.925  1.00  0.00     0.306 C 
BRANCH  14  15
ATOM     15  C   UNL A   1      31.575  27.880  25.280  1.00  0.00     0.085 A 
ATOM     16  C   UNL A   1      30.567  27.794  24.292  1.00  0.00     0.037 A 
ATOM     17  C   UNL A   1      32.007  29.171  25.646  1.00  0.00     0.278 A 
ATOM     18  C   UNL A   1      29.976  28.938  23.752  1.00  0.00     0.042 A 
ATOM     19  C   UNL A   1      31.414  30.324  25.091  1.00  0.00     0.088 A 
ATOM     20  Cl  UNL A   1      28.710  28.779  22.598  1.00  0.00    -0.084 Cl
ATOM     21  C   UNL A   1      30.387  30.203  24.155  1.00  0.00     0.027 A 
BRANCH  17  22
ATOM     22  N   UNL A   1      33.128  29.394  26.561  1.00  0.00     0.063 N 
ATOM     23  O   UNL A   1      34.193  28.815  26.303  1.00  0.00    -0.258 OA
ATOM     24  O   UNL A   1      32.910  30.053  27.587  1.00  0.00    -0.258 OA
ENDBRANCH  17  22
ENDBRANCH  14  15
ENDBRANCH  11  14
ENDBRANCH   7  11
ENDBRANCH   4   6
ENDBRANCH   3   4
ENDBRANCH   2   3
ENDBRANCH   1   2
BRANCH   1  25
ATOM     25  O   UNL A   1      35.565  21.224  26.139  1.00  0.00    -0.374 OA
BRANCH  25  26
ATOM     26  C   UNL A   1      35.965  20.355  25.082  1.00  0.00     0.202 C 
BRANCH  26  27
ATOM     27  C   UNL A   1      37.464  20.063  24.971  1.00  0.00     0.261 C 
BRANCH  27  28
ATOM     28  O   UNL A   1      38.248  21.224  25.293  1.00  0.00    -0.460 OA
BRANCH  28  29
ATOM     29  C   UNL A   1      39.330  20.967  26.063  1.00  0.00     0.338 C 
ATOM     30  O   UNL A   1      39.924  19.900  26.159  1.00  0.00    -0.246 OA
BRANCH  29  31
ATOM     31  C   UNL A   1      39.839  22.218  26.655  1.00  0.00     0.060 A 
ATOM     32  C   UNL A   1      39.263  23.416  26.213  1.00  0.00     0.016 A 
ATOM     33  C   UNL A   1      40.889  22.232  27.578  1.00  0.00     0.016 A 
ATOM     34  C   UNL A   1      39.773  24.636  26.646  1.00  0.00     0.010 A 
ATOM     35  C   UNL A   1      41.404  23.460  28.007  1.00  0.00     0.010 A 
ATOM     36  C   UNL A   1      40.873  24.665  27.512  1.00  0.00    -0.014 A 
BRANCH  36  37
ATOM     37  C   UNL A   1      41.565  25.953  27.761  1.00  0.00     0.031 A 
ATOM     38  C   UNL A   1      40.835  27.031  28.516  1.00  0.00     0.074 A 
ATOM     39  C   UNL A   1      42.836  26.141  27.363  1.00  0.00     0.049 A 
ATOM     40  N   UNL A   1      41.226  28.240  28.825  1.00  0.00    -0.248 NA
ATOM     41  C   UNL A   1      39.480  26.698  28.981  1.00  0.00     0.031 C 
ATOM     42  C   UNL A   1      43.658  25.148  26.671  1.00  0.00     0.029 A 
ATOM     43  N   UNL A   1      43.657  27.233  27.482  1.00  0.00    -0.354 N 
ATOM     44  C   UNL A   1      40.165  28.814  29.519  1.00  0.00     0.074 A 
ATOM     45  C   UNL A   1      39.101  27.832  29.545  1.00  0.00     0.031 C 
ATOM     46  C   UNL A   1      44.866  25.681  26.422  1.00  0.00     0.029 A 
ATOM     47  C   UNL A   1      44.890  27.063  26.899  1.00  0.00     0.049 A 
ATOM     48  H   UNL A   1      43.388  28.062  27.943  1.00  0.00     0.167 HD
ATOM     49  C   UNL A   1      40.090  30.042  30.090  1.00  0.00     0.034 A 
ATOM     50  C   UNL A   1      45.910  27.931  26.747  1.00  0.00     0.034 A 
ATOM     51  C   UNL A   1      41.159  31.012  30.042  1.00  0.00     0.049 A 
ATOM     52  C   UNL A   1      45.770  29.327  27.308  1.00  0.00     0.074 A 
ATOM     53  C   UNL A   1      41.196  32.281  30.591  1.00  0.00     0.029 A 
ATOM     54  N   UNL A   1      42.374  30.824  29.395  1.00  0.00    -0.354 N 
ATOM     55  N   UNL A   1      44.763  29.857  27.965  1.00  0.00    -0.248 NA
ATOM     56  C   UNL A   1      46.906  30.237  27.113  1.00  0.00     0.031 C 
ATOM     57  C   UNL A   1      42.400  32.886  30.214  1.00  0.00     0.029 A 
ATOM     58  C   UNL A   1      43.153  31.966  29.501  1.00  0.00     0.049 A 
ATOM     59  H   UNL A   1      42.644  30.000  28.930  1.00  0.00     0.167 HD
ATOM     60  C   UNL A   1      45.162  31.153  28.290  1.00  0.00     0.074 A 
ATOM     61  C   UNL A   1      46.503  31.316  27.767  1.00  0.00     0.031 C 
ATOM     62  C   UNL A   1      44.485  32.118  28.964  1.00  0.00     0.034 A 
BRANCH  49  63
ATOM     63  C   UNL A   1      38.791  30.416  30.761  1.00  0.00     0.023 A 
ATOM     64  C   UNL A   1      37.882  31.313  30.173  1.00  0.00     0.031 A 
ATOM     65  C   UNL A   1      38.472  29.895  32.028  1.00  0.00     0.131 A 
ATOM     66  C   UNL A   1      36.739  31.716  30.880  1.00  0.00     0.055 A 
ATOM     67  C   UNL A   1      37.292  30.236  32.691  1.00  0.00     0.041 A 
ATOM     68  F   UNL A   1      39.312  29.053  32.652  1.00  0.00    -0.206 F 
ATOM     69  C   UNL A   1      36.424  31.164  32.124  1.00  0.00     0.022 A 
BRANCH  66  70
ATOM     70  S   UNL A   1      35.746  33.083  30.217  1.00  0.00     0.124 S 
ATOM     71  O   UNL A   1      36.501  33.441  29.018  1.00  0.00    -0.237 OA
ATOM     72  O   UNL A   1      34.451  32.452  29.993  1.00  0.00    -0.237 OA
ATOM     73  O   UNL A   1      35.780  34.079  31.285  1.00  0.00    -0.744 OA
ENDBRANCH  66  70
ENDBRANCH  49  63
BRANCH  50  74
ATOM     74  C   UNL A   1      47.138  27.533  26.000  1.00  0.00     0.023 A 
ATOM     75  C   UNL A   1      47.298  27.850  24.642  1.00  0.00     0.031 A 
ATOM     76  C   UNL A   1      48.148  26.777  26.624  1.00  0.00     0.131 A 
ATOM     77  C   UNL A   1      48.417  27.375  23.941  1.00  0.00     0.055 A 
ATOM     78  C   UNL A   1      49.285  26.352  25.935  1.00  0.00     0.041 A 
ATOM     79  F   UNL A   1      48.043  26.444  27.920  1.00  0.00    -0.206 F 
ATOM     80  C   UNL A   1      49.417  26.640  24.580  1.00  0.00     0.022 A 
BRANCH  77  81
ATOM     81  S   UNL A   1      48.504  27.657  22.150  1.00  0.00     0.124 S 
ATOM     82  O   UNL A   1      49.741  28.418  22.029  1.00  0.00    -0.237 OA
ATOM     83  O   UNL A   1      48.536  26.292  21.633  1.00  0.00    -0.237 OA
ATOM     84  O   UNL A   1      47.279  28.401  21.863  1.00  0.00    -0.744 OA
ENDBRANCH  77  81
ENDBRANCH  50  74
BRANCH  62  85
ATOM     85  C   UNL A   1      45.210  33.419  29.214  1.00  0.00     0.023 A 
ATOM     86  C   UNL A   1      45.081  34.520  28.349  1.00  0.00     0.031 A 
ATOM     87  C   UNL A   1      46.049  33.555  30.335  1.00  0.00     0.131 A 
ATOM     88  C   UNL A   1      45.823  35.686  28.587  1.00  0.00     0.055 A 
ATOM     89  C   UNL A   1      46.736  34.740  30.600  1.00  0.00     0.041 A 
ATOM     90  F   UNL A   1      46.211  32.535  31.194  1.00  0.00    -0.206 F 
ATOM     91  C   UNL A   1      46.636  35.810  29.717  1.00  0.00     0.022 A 
BRANCH  88  92
ATOM     92  S   UNL A   1      45.785  37.012  27.349  1.00  0.00     0.124 S 
ATOM     93  O   UNL A   1      44.362  37.093  27.036  1.00  0.00    -0.237 OA
ATOM     94  O   UNL A   1      46.341  38.143  28.086  1.00  0.00    -0.237 OA
ATOM     95  O   UNL A   1      46.630  36.501  26.272  1.00  0.00    -0.744 OA
ENDBRANCH  88  92
ENDBRANCH  62  85
ENDBRANCH  36  37
ENDBRANCH  29  31
ENDBRANCH  28  29
ENDBRANCH  27  28
ENDBRANCH  26  27
ENDBRANCH  25  26
ENDBRANCH   1  25
TORSDOF 21
ENDMDL
MODEL 3
REMARK VINA RESULT:     -10.3      1.681      7.805
REMARK SMILES C[N@H+](Cc1cc(Cl)ccc1[N+](=O)[O-])[C@H]1COC[C@@H]1C(=O)OCCOCCOC(=O)c1ccc(-c2c3nc(c(-c4cc(S(=O)(=O)[O-])ccc4F)c4ccc([nH]4)c(-c4cc(S(=O)(=O)[O-])ccc4F)c4nc(c(-c5cc(S(=O)(=O)[O-])ccc5F)c5ccc2[nH]5)C=C4)C=C3)cc1
REMARK SMILES IDX 23 1 22 2 21 3 19 4 20 5 18 6 14 7 15 8 16 9 17 10 2 11 1 12
REMARK SMILES IDX 3 14 4 15 5 16 10 17 6 18 9 19 7 20 8 21 11 22 12 23 13 24
REMARK SMILES IDX 24 25 25 26 26 27 27 28 28 29 29 30 30 31 31 32 92 33 32 34
REMARK SMILES IDX 91 35 33 36 34 37 35 38 85 39 36 40 90 41 84 42 86 43 37 44
REMARK SMILES IDX 89 45 83 46 82 47 38 49 70 50 50 51 69 52 51 53 54 54 68 55
REMARK SMILES IDX 87 56 52 57 53 58 67 60 88 61 55 62 39 63 40 64 48 65 41 66
REMARK SMILES IDX 47 67 49 68 46 69 42 70 43 71 44 72 45 73 71 74 72 75 80 76
REMARK SMILES IDX 73 77 79 78 81 79 78 80 74 81 75 82 76 83 77 84 56 85 57 86
REMARK SMILES IDX 65 87 58 88 64 89 66 90 63 91 59 92 60 93 61 94 62 95
REMARK H PARENT 2 13 86 48 54 59
REMARK Flexibility Score: inf
ROOT
ATOM      1  C   UNL A   1      34.857  24.513  24.541  1.00  0.00     0.202 C 
ENDROOT
BRANCH   1   2
ATOM      2  C   UNL A   1      34.172  25.325  25.646  1.00  0.00     0.261 C 
BRANCH   2   3
ATOM      3  O   UNL A   1      34.531  26.718  25.558  1.00  0.00    -0.463 OA
BRANCH   3   4
ATOM      4  C   UNL A   1      33.733  27.593  26.235  1.00  0.00     0.317 C 
ATOM      5  O   UNL A   1      34.110  28.317  27.145  1.00  0.00    -0.252 OA
BRANCH   4   6
ATOM      6  C   UNL A   1      32.336  27.600  25.633  1.00  0.00     0.185 C 
ATOM      7  C   UNL A   1      32.330  28.272  24.253  1.00  0.00     0.227 C 
ATOM      8  C   UNL A   1      32.252  29.750  24.690  1.00  0.00     0.226 C 
ATOM      9  O   UNL A   1      31.504  29.805  25.917  1.00  0.00    -0.374 OA
ATOM     10  C   UNL A   1      31.426  28.479  26.458  1.00  0.00     0.182 C 
BRANCH   7  11
ATOM     11  N   UNL A   1      31.179  27.952  23.339  1.00  0.00    -0.328 N 
ATOM     12  C   UNL A   1      30.360  29.131  23.028  1.00  0.00     0.333 C 
ATOM     13  H   UNL A   1      31.575  27.624  22.458  1.00  0.00     0.348 HD
BRANCH  11  14
ATOM     14  C   UNL A   1      30.333  26.883  23.937  1.00  0.00     0.306 C 
BRANCH  14  15
ATOM     15  C   UNL A   1      30.948  25.496  23.820  1.00  0.00     0.085 A 
ATOM     16  C   UNL A   1      30.720  24.583  24.873  1.00  0.00     0.037 A 
ATOM     17  C   UNL A   1      31.665  25.022  22.701  1.00  0.00     0.278 A 
ATOM     18  C   UNL A   1      31.125  23.249  24.783  1.00  0.00     0.042 A 
ATOM     19  C   UNL A   1      32.081  23.677  22.619  1.00  0.00     0.088 A 
ATOM     20  Cl  UNL A   1      30.768  22.162  26.067  1.00  0.00    -0.084 Cl
ATOM     21  C   UNL A   1      31.795  22.789  23.656  1.00  0.00     0.027 A 
BRANCH  17  22
ATOM     22  N   UNL A   1      32.076  25.898  21.603  1.00  0.00     0.063 N 
ATOM     23  O   UNL A   1      33.255  26.281  21.595  1.00  0.00    -0.258 OA
ATOM     24  O   UNL A   1      31.199  26.287  20.820  1.00  0.00    -0.258 OA
ENDBRANCH  17  22
ENDBRANCH  14  15
ENDBRANCH  11  14
ENDBRANCH   7  11
ENDBRANCH   4   6
ENDBRANCH   3   4
ENDBRANCH   2   3
ENDBRANCH   1   2
BRANCH   1  25
ATOM     25  O   UNL A   1      35.864  23.600  24.986  1.00  0.00    -0.374 OA
BRANCH  25  26
ATOM     26  C   UNL A   1      35.986  22.382  24.256  1.00  0.00     0.202 C 
BRANCH  26  27
ATOM     27  C   UNL A   1      37.160  21.475  24.634  1.00  0.00     0.261 C 
BRANCH  27  28
ATOM     28  O   UNL A   1      37.614  21.739  25.972  1.00  0.00    -0.460 OA
BRANCH  28  29
ATOM     29  C   UNL A   1      38.940  21.539  26.158  1.00  0.00     0.338 C 
ATOM     30  O   UNL A   1      39.594  20.573  25.782  1.00  0.00    -0.246 OA
BRANCH  29  31
ATOM     31  C   UNL A   1      39.560  22.750  26.725  1.00  0.00     0.060 A 
ATOM     32  C   UNL A   1      39.052  23.986  26.305  1.00  0.00     0.016 A 
ATOM     33  C   UNL A   1      40.646  22.689  27.604  1.00  0.00     0.016 A 
ATOM     34  C   UNL A   1      39.664  25.166  26.714  1.00  0.00     0.010 A 
ATOM     35  C   UNL A   1      41.263  23.877  28.008  1.00  0.00     0.010 A 
ATOM     36  C   UNL A   1      40.799  25.117  27.534  1.00  0.00    -0.014 A 
BRANCH  36  37
ATOM     37  C   UNL A   1      41.590  26.353  27.751  1.00  0.00     0.031 A 
ATOM     38  C   UNL A   1      40.978  27.471  28.551  1.00  0.00     0.074 A 
ATOM     39  C   UNL A   1      42.847  26.458  27.285  1.00  0.00     0.049 A 
ATOM     40  N   UNL A   1      41.467  28.648  28.845  1.00  0.00    -0.248 NA
ATOM     41  C   UNL A   1      39.631  27.226  29.088  1.00  0.00     0.031 C 
ATOM     42  C   UNL A   1      43.560  25.418  26.543  1.00  0.00     0.029 A 
ATOM     43  N   UNL A   1      43.745  27.491  27.364  1.00  0.00    -0.354 N 
ATOM     44  C   UNL A   1      40.487  29.286  29.600  1.00  0.00     0.074 A 
ATOM     45  C   UNL A   1      39.362  28.378  29.680  1.00  0.00     0.031 C 
ATOM     46  C   UNL A   1      44.786  25.870  26.230  1.00  0.00     0.029 A 
ATOM     47  C   UNL A   1      44.931  27.242  26.713  1.00  0.00     0.049 A 
ATOM     48  H   UNL A   1      43.560  28.331  27.843  1.00  0.00     0.167 HD
ATOM     49  C   UNL A   1      40.528  30.511  30.181  1.00  0.00     0.034 A 
ATOM     50  C   UNL A   1      45.998  28.041  26.509  1.00  0.00     0.034 A 
ATOM     51  C   UNL A   1      41.656  31.406  30.079  1.00  0.00     0.049 A 
ATOM     52  C   UNL A   1      45.984  29.437  27.085  1.00  0.00     0.074 A 
ATOM     53  C   UNL A   1      41.810  32.665  30.632  1.00  0.00     0.029 A 
ATOM     54  N   UNL A   1      42.818  31.142  29.365  1.00  0.00    -0.354 N 
ATOM     55  N   UNL A   1      45.054  30.029  27.799  1.00  0.00    -0.248 NA
ATOM     56  C   UNL A   1      47.167  30.270  26.832  1.00  0.00     0.031 C 
ATOM     57  C   UNL A   1      43.030  33.190  30.193  1.00  0.00     0.029 A 
ATOM     58  C   UNL A   1      43.678  32.228  29.434  1.00  0.00     0.049 A 
ATOM     59  H   UNL A   1      43.005  30.306  28.881  1.00  0.00     0.167 HD
ATOM     60  C   UNL A   1      45.557  31.292  28.108  1.00  0.00     0.074 A 
ATOM     61  C   UNL A   1      46.875  31.368  27.513  1.00  0.00     0.031 C 
ATOM     62  C   UNL A   1      44.986  32.294  28.825  1.00  0.00     0.034 A 
BRANCH  49  63
ATOM     63  C   UNL A   1      39.296  30.966  30.925  1.00  0.00     0.023 A 
ATOM     64  C   UNL A   1      38.249  31.648  30.282  1.00  0.00     0.031 A 
ATOM     65  C   UNL A   1      39.183  30.745  32.310  1.00  0.00     0.131 A 
ATOM     66  C   UNL A   1      37.173  32.147  31.032  1.00  0.00     0.055 A 
ATOM     67  C   UNL A   1      38.071  31.173  33.037  1.00  0.00     0.041 A 
ATOM     68  F   UNL A   1      40.162  30.122  32.985  1.00  0.00    -0.206 F 
ATOM     69  C   UNL A   1      37.064  31.893  32.401  1.00  0.00     0.022 A 
BRANCH  66  70
ATOM     70  S   UNL A   1      35.994  33.263  30.220  1.00  0.00     0.124 S 
ATOM     71  O   UNL A   1      35.690  34.203  31.297  1.00  0.00    -0.237 OA
ATOM     72  O   UNL A   1      36.775  33.793  29.109  1.00  0.00    -0.237 OA
ATOM     73  O   UNL A   1      34.891  32.381  29.845  1.00  0.00    -0.744 OA
ENDBRANCH  66  70
ENDBRANCH  49  63
BRANCH  50  74
ATOM     74  C   UNL A   1      47.152  27.567  25.693  1.00  0.00     0.023 A 
ATOM     75  C   UNL A   1      47.280  27.920  24.340  1.00  0.00     0.031 A 
ATOM     76  C   UNL A   1      48.119  26.705  26.243  1.00  0.00     0.131 A 
ATOM     77  C   UNL A   1      48.322  27.377  23.572  1.00  0.00     0.055 A 
ATOM     78  C   UNL A   1      49.183  26.211  25.488  1.00  0.00     0.041 A 
ATOM     79  F   UNL A   1      48.043  26.335  27.531  1.00  0.00    -0.206 F 
ATOM     80  C   UNL A   1      49.282  26.536  24.140  1.00  0.00     0.022 A 
BRANCH  77  81
ATOM     81  S   UNL A   1      48.355  27.716  21.790  1.00  0.00     0.124 S 
ATOM     82  O   UNL A   1      48.544  26.380  21.237  1.00  0.00    -0.237 OA
ATOM     83  O   UNL A   1      47.044  28.321  21.574  1.00  0.00    -0.237 OA
ATOM     84  O   UNL A   1      49.490  28.624  21.637  1.00  0.00    -0.744 OA
ENDBRANCH  77  81
ENDBRANCH  50  74
BRANCH  62  85
ATOM     85  C   UNL A   1      45.810  33.541  29.041  1.00  0.00     0.023 A 
ATOM     86  C   UNL A   1      45.817  34.598  28.115  1.00  0.00     0.031 A 
ATOM     87  C   UNL A   1      46.608  33.667  30.193  1.00  0.00     0.131 A 
ATOM     88  C   UNL A   1      46.647  35.708  28.328  1.00  0.00     0.055 A 
ATOM     89  C   UNL A   1      47.384  34.802  30.430  1.00  0.00     0.041 A 
ATOM     90  F   UNL A   1      46.642  32.687  31.111  1.00  0.00    -0.206 F 
ATOM     91  C   UNL A   1      47.417  35.825  29.487  1.00  0.00     0.022 A 
BRANCH  88  92
ATOM     92  S   UNL A   1      46.781  36.960  27.022  1.00  0.00     0.124 S 
ATOM     93  O   UNL A   1      46.562  36.166  25.817  1.00  0.00    -0.237 OA
ATOM     94  O   UNL A   1      45.714  37.892  27.373  1.00  0.00    -0.237 OA
ATOM     95  O   UNL A   1      48.136  37.483  27.183  1.00  0.00    -0.744 OA
ENDBRANCH  88  92
ENDBRANCH  62  85
ENDBRANCH  36  37
ENDBRANCH  29  31
ENDBRANCH  28  29
ENDBRANCH  27  28
ENDBRANCH  26  27
ENDBRANCH  25  26
ENDBRANCH   1  25
TORSDOF 21
ENDMDL
