MODEL 1
REMARK VINA RESULT:      -9.9      0.000      0.000
REMARK SMILES CCN(CC)C(=O)[C@@H]1CC=CC[C@H]1C(=O)Nc1ccc(C(=O)OCCOCCOC(=O)c2ccc(-c3c4nc(c(-c5cc(S(=O)(=O)[O-])ccc5F)c5ccc([nH]5)c(-c5cc(S(=O)(=O)[O-])ccc5F)c5nc(c(-c6cc(S(=O)(=O)[O-])ccc6F)c6ccc3[nH]6)C=C5)C=C4)cc2)cc1
REMARK SMILES IDX 25 1 24 2 23 3 21 4 22 5 20 6 17 7 18 8 96 9 19 10 95 11
REMARK SMILES IDX 16 12 14 13 15 14 13 16 8 17 9 18 10 19 12 20 11 21 6 22
REMARK SMILES IDX 3 23 7 24 2 25 1 26 4 27 5 28 26 29 27 30 28 31 29 32 30 33
REMARK SMILES IDX 31 34 32 35 33 36 94 37 34 38 93 39 35 40 36 41 37 42 87 43
REMARK SMILES IDX 38 44 92 45 86 46 88 47 39 48 91 49 85 50 84 51 40 53 72 54
REMARK SMILES IDX 52 55 71 56 53 57 56 58 70 59 89 60 54 61 55 62 69 64 90 65
REMARK SMILES IDX 57 66 41 67 42 68 50 69 43 70 49 71 51 72 48 73 44 74 45 75
REMARK SMILES IDX 46 76 47 77 73 78 74 79 82 80 75 81 81 82 83 83 80 84 76 85
REMARK SMILES IDX 77 86 78 87 79 88 58 89 59 90 67 91 60 92 66 93 68 94 65 95
REMARK SMILES IDX 61 96 62 97 63 98 64 99
REMARK H PARENT 16 15 88 52 56 63
REMARK Flexibility Score: inf
ROOT
ATOM      1  C   UNL A   1      32.931  34.572  28.383  1.00  0.00     0.202 C 
ENDROOT
BRANCH   1   2
ATOM      2  C   UNL A   1      34.128  33.673  28.060  1.00  0.00     0.261 C 
BRANCH   2   3
ATOM      3  O   UNL A   1      33.818  32.302  28.339  1.00  0.00    -0.460 OA
BRANCH   3   4
ATOM      4  C   UNL A   1      34.670  31.396  27.803  1.00  0.00     0.338 C 
ATOM      5  O   UNL A   1      35.886  31.476  27.752  1.00  0.00    -0.246 OA
BRANCH   4   6
ATOM      6  C   UNL A   1      33.924  30.191  27.356  1.00  0.00     0.060 A 
ATOM      7  C   UNL A   1      32.393  27.941  26.765  1.00  0.00     0.041 A 
ATOM      8  C   UNL A   1      31.771  29.182  26.879  1.00  0.00     0.027 A 
ATOM      9  C   UNL A   1      33.781  27.871  26.719  1.00  0.00     0.027 A 
ATOM     10  C   UNL A   1      32.538  30.304  27.196  1.00  0.00     0.018 A 
ATOM     11  C   UNL A   1      34.555  28.982  27.051  1.00  0.00     0.018 A 
BRANCH   7  12
ATOM     12  N   UNL A   1      31.592  26.798  26.775  1.00  0.00    -0.326 N 
ATOM     13  C   UNL A   1      31.378  25.886  25.772  1.00  0.00     0.228 C 
ATOM     14  O   UNL A   1      30.700  24.890  26.062  1.00  0.00    -0.274 OA
ATOM     15  H   UNL A   1      31.116  26.622  27.618  1.00  0.00     0.169 HD
BRANCH  13  16
ATOM     16  C   UNL A   1      32.065  25.939  24.388  1.00  0.00     0.095 C 
ATOM     17  C   UNL A   1      32.793  24.673  23.855  1.00  0.00     0.095 C 
ATOM     18  C   UNL A   1      33.487  25.009  22.531  1.00  0.00     0.041 C 
ATOM     19  C   UNL A   1      32.574  25.675  21.544  1.00  0.00    -0.030 C 
ATOM     20  C   UNL A   1      31.136  26.613  23.353  1.00  0.00     0.041 C 
ATOM     21  C   UNL A   1      31.510  26.394  21.920  1.00  0.00    -0.030 C 
BRANCH  17  22
ATOM     22  C   UNL A   1      33.537  23.976  25.015  1.00  0.00     0.226 C 
ATOM     23  N   UNL A   1      33.519  22.617  25.280  1.00  0.00    -0.343 N 
ATOM     24  O   UNL A   1      34.210  24.707  25.759  1.00  0.00    -0.275 OA
BRANCH  23  25
ATOM     25  C   UNL A   1      34.495  22.141  26.275  1.00  0.00     0.116 C 
ATOM     26  C   UNL A   1      33.832  21.802  27.604  1.00  0.00     0.027 C 
ENDBRANCH  23  25
BRANCH  23  27
ATOM     27  C   UNL A   1      32.448  21.679  24.951  1.00  0.00     0.116 C 
ATOM     28  C   UNL A   1      32.370  21.421  23.454  1.00  0.00     0.027 C 
ENDBRANCH  23  27
ENDBRANCH  17  22
ENDBRANCH  13  16
ENDBRANCH   7  12
ENDBRANCH   4   6
ENDBRANCH   3   4
ENDBRANCH   2   3
ENDBRANCH   1   2
BRANCH   1  29
ATOM     29  O   UNL A   1      32.635  34.766  29.768  1.00  0.00    -0.374 OA
BRANCH  29  30
ATOM     30  C   UNL A   1      33.485  35.645  30.506  1.00  0.00     0.202 C 
BRANCH  30  31
ATOM     31  C   UNL A   1      34.311  35.045  31.649  1.00  0.00     0.261 C 
BRANCH  31  32
ATOM     32  O   UNL A   1      35.364  34.187  31.181  1.00  0.00    -0.460 OA
BRANCH  32  33
ATOM     33  C   UNL A   1      35.204  32.881  31.511  1.00  0.00     0.338 C 
ATOM     34  O   UNL A   1      34.162  32.325  31.809  1.00  0.00    -0.246 OA
BRANCH  33  35
ATOM     35  C   UNL A   1      36.461  32.143  31.278  1.00  0.00     0.060 A 
ATOM     36  C   UNL A   1      36.610  30.910  31.924  1.00  0.00     0.016 A 
ATOM     37  C   UNL A   1      37.500  32.675  30.510  1.00  0.00     0.016 A 
ATOM     38  C   UNL A   1      37.822  30.227  31.852  1.00  0.00     0.010 A 
ATOM     39  C   UNL A   1      38.719  31.989  30.444  1.00  0.00     0.010 A 
ATOM     40  C   UNL A   1      38.897  30.782  31.145  1.00  0.00    -0.014 A 
BRANCH  40  41
ATOM     41  C   UNL A   1      40.246  30.177  31.278  1.00  0.00     0.031 A 
ATOM     42  C   UNL A   1      41.152  30.655  32.380  1.00  0.00     0.074 A 
ATOM     43  C   UNL A   1      40.642  29.191  30.454  1.00  0.00     0.049 A 
ATOM     44  N   UNL A   1      42.378  30.295  32.664  1.00  0.00    -0.248 NA
ATOM     45  C   UNL A   1      40.600  31.680  33.277  1.00  0.00     0.031 C 
ATOM     46  C   UNL A   1      39.832  28.611  29.383  1.00  0.00     0.029 A 
ATOM     47  N   UNL A   1      41.827  28.501  30.391  1.00  0.00    -0.354 N 
ATOM     48  C   UNL A   1      42.747  31.053  33.771  1.00  0.00     0.074 A 
ATOM     49  C   UNL A   1      41.629  31.924  34.073  1.00  0.00     0.031 C 
ATOM     50  C   UNL A   1      40.546  27.654  28.766  1.00  0.00     0.029 A 
ATOM     51  C   UNL A   1      41.875  27.581  29.370  1.00  0.00     0.049 A 
ATOM     52  H   UNL A   1      42.571  28.652  31.016  1.00  0.00     0.167 HD
ATOM     53  C   UNL A   1      43.905  31.017  34.477  1.00  0.00     0.034 A 
ATOM     54  C   UNL A   1      42.885  26.790  28.957  1.00  0.00     0.034 A 
ATOM     55  C   UNL A   1      45.013  30.151  34.154  1.00  0.00     0.049 A 
ATOM     56  C   UNL A   1      44.201  26.833  29.697  1.00  0.00     0.074 A 
ATOM     57  C   UNL A   1      46.228  30.024  34.804  1.00  0.00     0.029 A 
ATOM     58  N   UNL A   1      45.048  29.271  33.078  1.00  0.00    -0.354 N 
ATOM     59  N   UNL A   1      44.538  27.553  30.743  1.00  0.00    -0.248 NA
ATOM     60  C   UNL A   1      45.266  25.950  29.205  1.00  0.00     0.031 C 
ATOM     61  C   UNL A   1      47.024  29.131  34.079  1.00  0.00     0.029 A 
ATOM     62  C   UNL A   1      46.277  28.628  33.025  1.00  0.00     0.049 A 
ATOM     63  H   UNL A   1      44.309  29.126  32.445  1.00  0.00     0.167 HD
ATOM     64  C   UNL A   1      45.844  27.180  31.055  1.00  0.00     0.074 A 
ATOM     65  C   UNL A   1      46.227  26.168  30.092  1.00  0.00     0.031 C 
ATOM     66  C   UNL A   1      46.652  27.629  32.051  1.00  0.00     0.034 A 
BRANCH  53  67
ATOM     67  C   UNL A   1      44.043  31.986  35.629  1.00  0.00     0.023 A 
ATOM     68  C   UNL A   1      43.823  31.591  36.962  1.00  0.00     0.031 A 
ATOM     69  C   UNL A   1      44.356  33.335  35.389  1.00  0.00     0.131 A 
ATOM     70  C   UNL A   1      43.836  32.549  37.987  1.00  0.00     0.055 A 
ATOM     71  C   UNL A   1      44.455  34.266  36.425  1.00  0.00     0.041 A 
ATOM     72  F   UNL A   1      44.553  33.779  34.137  1.00  0.00    -0.206 F 
ATOM     73  C   UNL A   1      44.176  33.879  37.732  1.00  0.00     0.022 A 
BRANCH  70  74
ATOM     74  S   UNL A   1      43.240  32.065  39.631  1.00  0.00     0.124 S 
ATOM     75  O   UNL A   1      43.955  30.809  39.847  1.00  0.00    -0.237 OA
ATOM     76  O   UNL A   1      43.656  33.189  40.460  1.00  0.00    -0.237 OA
ATOM     77  O   UNL A   1      41.797  31.926  39.445  1.00  0.00    -0.744 OA
ENDBRANCH  70  74
ENDBRANCH  53  67
BRANCH  54  78
ATOM     78  C   UNL A   1      42.713  25.911  27.765  1.00  0.00     0.023 A 
ATOM     79  C   UNL A   1      42.196  24.611  27.888  1.00  0.00     0.031 A 
ATOM     80  C   UNL A   1      43.106  26.345  26.486  1.00  0.00     0.131 A 
ATOM     81  C   UNL A   1      42.125  23.778  26.761  1.00  0.00     0.055 A 
ATOM     82  C   UNL A   1      42.984  25.531  25.359  1.00  0.00     0.041 A 
ATOM     83  F   UNL A   1      43.609  27.579  26.311  1.00  0.00    -0.206 F 
ATOM     84  C   UNL A   1      42.501  24.233  25.495  1.00  0.00     0.022 A 
BRANCH  81  85
ATOM     85  S   UNL A   1      41.604  22.055  26.985  1.00  0.00     0.124 S 
ATOM     86  O   UNL A   1      42.394  21.655  28.143  1.00  0.00    -0.237 OA
ATOM     87  O   UNL A   1      40.169  22.199  27.206  1.00  0.00    -0.237 OA
ATOM     88  O   UNL A   1      41.978  21.420  25.723  1.00  0.00    -0.744 OA
ENDBRANCH  81  85
ENDBRANCH  54  78
BRANCH  66  89
ATOM     89  C   UNL A   1      48.014  26.985  32.177  1.00  0.00     0.023 A 
ATOM     90  C   UNL A   1      48.245  25.892  33.030  1.00  0.00     0.031 A 
ATOM     91  C   UNL A   1      49.101  27.485  31.436  1.00  0.00     0.131 A 
ATOM     92  C   UNL A   1      49.542  25.373  33.166  1.00  0.00     0.055 A 
ATOM     93  C   UNL A   1      50.375  26.922  31.526  1.00  0.00     0.041 A 
ATOM     94  F   UNL A   1      48.942  28.530  30.608  1.00  0.00    -0.206 F 
ATOM     95  C   UNL A   1      50.605  25.869  32.407  1.00  0.00     0.022 A 
BRANCH  92  96
ATOM     96  S   UNL A   1      49.847  24.106  34.429  1.00  0.00     0.124 S 
ATOM     97  O   UNL A   1      48.947  24.523  35.500  1.00  0.00    -0.237 OA
ATOM     98  O   UNL A   1      49.480  22.877  33.733  1.00  0.00    -0.237 OA
ATOM     99  O   UNL A   1      51.271  24.250  34.725  1.00  0.00    -0.744 OA
ENDBRANCH  92  96
ENDBRANCH  66  89
ENDBRANCH  40  41
ENDBRANCH  33  35
ENDBRANCH  32  33
ENDBRANCH  31  32
ENDBRANCH  30  31
ENDBRANCH  29  30
ENDBRANCH   1  29
TORSDOF 22
ENDMDL
MODEL 2
REMARK VINA RESULT:      -9.8      4.872     10.872
REMARK SMILES CCN(CC)C(=O)[C@@H]1CC=CC[C@H]1C(=O)Nc1ccc(C(=O)OCCOCCOC(=O)c2ccc(-c3c4nc(c(-c5cc(S(=O)(=O)[O-])ccc5F)c5ccc([nH]5)c(-c5cc(S(=O)(=O)[O-])ccc5F)c5nc(c(-c6cc(S(=O)(=O)[O-])ccc6F)c6ccc3[nH]6)C=C5)C=C4)cc2)cc1
REMARK SMILES IDX 25 1 24 2 23 3 21 4 22 5 20 6 17 7 18 8 96 9 19 10 95 11
REMARK SMILES IDX 16 12 14 13 15 14 13 16 8 17 9 18 10 19 12 20 11 21 6 22
REMARK SMILES IDX 3 23 7 24 2 25 1 26 4 27 5 28 26 29 27 30 28 31 29 32 30 33
REMARK SMILES IDX 31 34 32 35 33 36 94 37 34 38 93 39 35 40 36 41 37 42 87 43
REMARK SMILES IDX 38 44 92 45 86 46 88 47 39 48 91 49 85 50 84 51 40 53 72 54
REMARK SMILES IDX 52 55 71 56 53 57 56 58 70 59 89 60 54 61 55 62 69 64 90 65
REMARK SMILES IDX 57 66 41 67 42 68 50 69 43 70 49 71 51 72 48 73 44 74 45 75
REMARK SMILES IDX 46 76 47 77 73 78 74 79 82 80 75 81 81 82 83 83 80 84 76 85
REMARK SMILES IDX 77 86 78 87 79 88 58 89 59 90 67 91 60 92 66 93 68 94 65 95
REMARK SMILES IDX 61 96 62 97 63 98 64 99
REMARK H PARENT 16 15 88 52 56 63
REMARK Flexibility Score: inf
ROOT
ATOM      1  C   UNL A   1      42.738  21.654  26.529  1.00  0.00     0.202 C 
ENDROOT
BRANCH   1   2
ATOM      2  C   UNL A   1      41.367  22.325  26.658  1.00  0.00     0.261 C 
BRANCH   2   3
ATOM      3  O   UNL A   1      41.433  23.692  26.231  1.00  0.00    -0.460 OA
BRANCH   3   4
ATOM      4  C   UNL A   1      40.386  24.465  26.605  1.00  0.00     0.338 C 
ATOM      5  O   UNL A   1      39.206  24.162  26.576  1.00  0.00    -0.246 OA
BRANCH   4   6
ATOM      6  C   UNL A   1      40.873  25.748  27.174  1.00  0.00     0.060 A 
ATOM      7  C   UNL A   1      41.541  28.170  28.377  1.00  0.00     0.041 A 
ATOM      8  C   UNL A   1      41.408  27.028  29.164  1.00  0.00     0.027 A 
ATOM      9  C   UNL A   1      41.566  28.050  26.993  1.00  0.00     0.027 A 
ATOM     10  C   UNL A   1      41.053  25.821  28.561  1.00  0.00     0.018 A 
ATOM     11  C   UNL A   1      41.196  26.853  26.381  1.00  0.00     0.018 A 
BRANCH   7  12
ATOM     12  N   UNL A   1      41.570  29.411  29.015  1.00  0.00    -0.326 N 
ATOM     13  C   UNL A   1      40.524  30.161  29.489  1.00  0.00     0.228 C 
ATOM     14  O   UNL A   1      40.817  31.190  30.117  1.00  0.00    -0.274 OA
ATOM     15  H   UNL A   1      42.465  29.800  29.143  1.00  0.00     0.169 HD
BRANCH  13  16
ATOM     16  C   UNL A   1      39.044  29.717  29.442  1.00  0.00     0.095 C 
ATOM     17  C   UNL A   1      38.123  30.018  30.658  1.00  0.00     0.095 C 
ATOM     18  C   UNL A   1      36.750  29.381  30.423  1.00  0.00     0.041 C 
ATOM     19  C   UNL A   1      36.165  29.730  29.085  1.00  0.00    -0.030 C 
ATOM     20  C   UNL A   1      38.419  30.077  28.075  1.00  0.00     0.041 C 
ATOM     21  C   UNL A   1      36.922  30.049  28.029  1.00  0.00    -0.030 C 
BRANCH  17  22
ATOM     22  C   UNL A   1      38.910  29.805  31.969  1.00  0.00     0.226 C 
ATOM     23  N   UNL A   1      39.047  30.734  32.985  1.00  0.00    -0.343 N 
ATOM     24  O   UNL A   1      39.452  28.697  32.114  1.00  0.00    -0.275 OA
BRANCH  23  25
ATOM     25  C   UNL A   1      39.622  30.234  34.246  1.00  0.00     0.116 C 
ATOM     26  C   UNL A   1      38.844  30.723  35.460  1.00  0.00     0.027 C 
ENDBRANCH  23  25
BRANCH  23  27
ATOM     27  C   UNL A   1      39.008  32.188  32.847  1.00  0.00     0.116 C 
ATOM     28  C   UNL A   1      37.580  32.701  32.736  1.00  0.00     0.027 C 
ENDBRANCH  23  27
ENDBRANCH  17  22
ENDBRANCH  13  16
ENDBRANCH   7  12
ENDBRANCH   4   6
ENDBRANCH   3   4
ENDBRANCH   2   3
ENDBRANCH   1   2
BRANCH   1  29
ATOM     29  O   UNL A   1      43.145  21.283  25.210  1.00  0.00    -0.374 OA
BRANCH  29  30
ATOM     30  C   UNL A   1      44.054  22.151  24.533  1.00  0.00     0.202 C 
BRANCH  30  31
ATOM     31  C   UNL A   1      45.502  21.678  24.366  1.00  0.00     0.261 C 
BRANCH  31  32
ATOM     32  O   UNL A   1      46.403  22.314  25.287  1.00  0.00    -0.460 OA
BRANCH  32  33
ATOM     33  C   UNL A   1      46.614  23.631  25.036  1.00  0.00     0.338 C 
ATOM     34  O   UNL A   1      46.917  24.131  23.968  1.00  0.00    -0.246 OA
BRANCH  33  35
ATOM     35  C   UNL A   1      46.237  24.437  26.214  1.00  0.00     0.060 A 
ATOM     36  C   UNL A   1      44.901  24.845  26.311  1.00  0.00     0.016 A 
ATOM     37  C   UNL A   1      47.177  24.848  27.162  1.00  0.00     0.016 A 
ATOM     38  C   UNL A   1      44.509  25.714  27.326  1.00  0.00     0.010 A 
ATOM     39  C   UNL A   1      46.781  25.726  28.178  1.00  0.00     0.010 A 
ATOM     40  C   UNL A   1      45.456  26.193  28.241  1.00  0.00    -0.014 A 
BRANCH  40  41
ATOM     41  C   UNL A   1      45.087  27.300  29.159  1.00  0.00     0.031 A 
ATOM     42  C   UNL A   1      45.178  28.717  28.661  1.00  0.00     0.074 A 
ATOM     43  C   UNL A   1      44.641  27.045  30.401  1.00  0.00     0.049 A 
ATOM     44  N   UNL A   1      44.939  29.838  29.292  1.00  0.00    -0.248 NA
ATOM     45  C   UNL A   1      45.600  28.890  27.263  1.00  0.00     0.031 C 
ATOM     46  C   UNL A   1      44.462  25.712  30.975  1.00  0.00     0.029 A 
ATOM     47  N   UNL A   1      44.256  27.898  31.404  1.00  0.00    -0.354 N 
ATOM     48  C   UNL A   1      45.187  30.851  28.371  1.00  0.00     0.074 A 
ATOM     49  C   UNL A   1      45.639  30.208  27.154  1.00  0.00     0.031 C 
ATOM     50  C   UNL A   1      44.004  25.838  32.233  1.00  0.00     0.029 A 
ATOM     51  C   UNL A   1      43.897  27.257  32.566  1.00  0.00     0.049 A 
ATOM     52  H   UNL A   1      44.239  28.877  31.302  1.00  0.00     0.167 HD
ATOM     53  C   UNL A   1      45.039  32.191  28.522  1.00  0.00     0.034 A 
ATOM     54  C   UNL A   1      43.546  27.759  33.767  1.00  0.00     0.034 A 
ATOM     55  C   UNL A   1      44.599  32.815  29.747  1.00  0.00     0.049 A 
ATOM     56  C   UNL A   1      43.479  29.257  33.944  1.00  0.00     0.074 A 
ATOM     57  C   UNL A   1      44.405  34.160  30.010  1.00  0.00     0.029 A 
ATOM     58  N   UNL A   1      44.297  32.136  30.922  1.00  0.00    -0.354 N 
ATOM     59  N   UNL A   1      43.714  30.205  33.066  1.00  0.00    -0.248 NA
ATOM     60  C   UNL A   1      43.091  29.749  35.272  1.00  0.00     0.031 C 
ATOM     61  C   UNL A   1      44.064  34.299  31.360  1.00  0.00     0.029 A 
ATOM     62  C   UNL A   1      43.956  33.036  31.921  1.00  0.00     0.049 A 
ATOM     63  H   UNL A   1      44.322  31.158  31.030  1.00  0.00     0.167 HD
ATOM     64  C   UNL A   1      43.466  31.406  33.728  1.00  0.00     0.074 A 
ATOM     65  C   UNL A   1      43.055  31.059  35.073  1.00  0.00     0.031 C 
ATOM     66  C   UNL A   1      43.561  32.680  33.264  1.00  0.00     0.034 A 
BRANCH  53  67
ATOM     67  C   UNL A   1      45.415  33.065  27.348  1.00  0.00     0.023 A 
ATOM     68  C   UNL A   1      46.731  33.522  27.154  1.00  0.00     0.031 A 
ATOM     69  C   UNL A   1      44.434  33.484  26.431  1.00  0.00     0.131 A 
ATOM     70  C   UNL A   1      47.012  34.434  26.125  1.00  0.00     0.055 A 
ATOM     71  C   UNL A   1      44.738  34.321  25.356  1.00  0.00     0.041 A 
ATOM     72  F   UNL A   1      43.155  33.101  26.576  1.00  0.00    -0.206 F 
ATOM     73  C   UNL A   1      46.030  34.816  25.209  1.00  0.00     0.022 A 
BRANCH  70  74
ATOM     74  S   UNL A   1      48.637  35.241  26.102  1.00  0.00     0.124 S 
ATOM     75  O   UNL A   1      49.313  34.511  25.031  1.00  0.00    -0.237 OA
ATOM     76  O   UNL A   1      48.296  36.628  25.814  1.00  0.00    -0.237 OA
ATOM     77  O   UNL A   1      49.162  34.990  27.442  1.00  0.00    -0.744 OA
ENDBRANCH  70  74
ENDBRANCH  53  67
BRANCH  54  78
ATOM     78  C   UNL A   1      43.261  26.845  34.910  1.00  0.00     0.023 A 
ATOM     79  C   UNL A   1      44.281  26.428  35.780  1.00  0.00     0.031 A 
ATOM     80  C   UNL A   1      41.967  26.336  35.122  1.00  0.00     0.131 A 
ATOM     81  C   UNL A   1      43.999  25.501  36.795  1.00  0.00     0.055 A 
ATOM     82  C   UNL A   1      41.679  25.456  36.165  1.00  0.00     0.041 A 
ATOM     83  F   UNL A   1      40.954  26.701  34.317  1.00  0.00    -0.206 F 
ATOM     84  C   UNL A   1      42.703  25.023  37.002  1.00  0.00     0.022 A 
BRANCH  81  85
ATOM     85  S   UNL A   1      45.369  24.864  37.797  1.00  0.00     0.124 S 
ATOM     86  O   UNL A   1      45.110  25.490  39.087  1.00  0.00    -0.237 OA
ATOM     87  O   UNL A   1      45.151  23.423  37.727  1.00  0.00    -0.237 OA
ATOM     88  O   UNL A   1      46.557  25.346  37.095  1.00  0.00    -0.744 OA
ENDBRANCH  81  85
ENDBRANCH  54  78
BRANCH  66  89
ATOM     89  C   UNL A   1      43.164  33.789  34.211  1.00  0.00     0.023 A 
ATOM     90  C   UNL A   1      41.830  33.985  34.610  1.00  0.00     0.031 A 
ATOM     91  C   UNL A   1      44.138  34.672  34.711  1.00  0.00     0.131 A 
ATOM     92  C   UNL A   1      41.499  35.072  35.435  1.00  0.00     0.055 A 
ATOM     93  C   UNL A   1      43.813  35.712  35.584  1.00  0.00     0.041 A 
ATOM     94  F   UNL A   1      45.428  34.537  34.362  1.00  0.00    -0.206 F 
ATOM     95  C   UNL A   1      42.484  35.926  35.939  1.00  0.00     0.022 A 
BRANCH  92  96
ATOM     96  S   UNL A   1      39.747  35.420  35.759  1.00  0.00     0.124 S 
ATOM     97  O   UNL A   1      39.356  34.272  36.570  1.00  0.00    -0.237 OA
ATOM     98  O   UNL A   1      39.808  36.701  36.454  1.00  0.00    -0.237 OA
ATOM     99  O   UNL A   1      39.154  35.467  34.424  1.00  0.00    -0.744 OA
ENDBRANCH  92  96
ENDBRANCH  66  89
ENDBRANCH  40  41
ENDBRANCH  33  35
ENDBRANCH  32  33
ENDBRANCH  31  32
ENDBRANCH  30  31
ENDBRANCH  29  30
ENDBRANCH   1  29
TORSDOF 22
ENDMDL
MODEL 3
REMARK VINA RESULT:      -9.7      5.019     10.513
REMARK SMILES CCN(CC)C(=O)[C@@H]1CC=CC[C@H]1C(=O)Nc1ccc(C(=O)OCCOCCOC(=O)c2ccc(-c3c4nc(c(-c5cc(S(=O)(=O)[O-])ccc5F)c5ccc([nH]5)c(-c5cc(S(=O)(=O)[O-])ccc5F)c5nc(c(-c6cc(S(=O)(=O)[O-])ccc6F)c6ccc3[nH]6)C=C5)C=C4)cc2)cc1
REMARK SMILES IDX 25 1 24 2 23 3 21 4 22 5 20 6 17 7 18 8 96 9 19 10 95 11
REMARK SMILES IDX 16 12 14 13 15 14 13 16 8 17 9 18 10 19 12 20 11 21 6 22
REMARK SMILES IDX 3 23 7 24 2 25 1 26 4 27 5 28 26 29 27 30 28 31 29 32 30 33
REMARK SMILES IDX 31 34 32 35 33 36 94 37 34 38 93 39 35 40 36 41 37 42 87 43
REMARK SMILES IDX 38 44 92 45 86 46 88 47 39 48 91 49 85 50 84 51 40 53 72 54
REMARK SMILES IDX 52 55 71 56 53 57 56 58 70 59 89 60 54 61 55 62 69 64 90 65
REMARK SMILES IDX 57 66 41 67 42 68 50 69 43 70 49 71 51 72 48 73 44 74 45 75
REMARK SMILES IDX 46 76 47 77 73 78 74 79 82 80 75 81 81 82 83 83 80 84 76 85
REMARK SMILES IDX 77 86 78 87 79 88 58 89 59 90 67 91 60 92 66 93 68 94 65 95
REMARK SMILES IDX 61 96 62 97 63 98 64 99
REMARK H PARENT 16 15 88 52 56 63
REMARK Flexibility Score: inf
ROOT
ATOM      1  C   UNL A   1      41.946  24.142  28.220  1.00  0.00     0.202 C 
ENDROOT
BRANCH   1   2
ATOM      2  C   UNL A   1      40.510  24.478  27.810  1.00  0.00     0.261 C 
BRANCH   2   3
ATOM      3  O   UNL A   1      40.307  25.897  27.801  1.00  0.00    -0.460 OA
BRANCH   3   4
ATOM      4  C   UNL A   1      39.563  26.381  28.823  1.00  0.00     0.338 C 
ATOM      5  O   UNL A   1      38.702  25.786  29.448  1.00  0.00    -0.246 OA
BRANCH   4   6
ATOM      6  C   UNL A   1      40.010  27.753  29.178  1.00  0.00     0.060 A 
ATOM      7  C   UNL A   1      40.613  30.346  29.996  1.00  0.00     0.041 A 
ATOM      8  C   UNL A   1      40.621  29.315  30.931  1.00  0.00     0.027 A 
ATOM      9  C   UNL A   1      40.532  30.045  28.641  1.00  0.00     0.027 A 
ATOM     10  C   UNL A   1      40.298  28.020  30.522  1.00  0.00     0.018 A 
ATOM     11  C   UNL A   1      40.192  28.759  28.224  1.00  0.00     0.018 A 
BRANCH   7  12
ATOM     12  N   UNL A   1      40.612  31.661  30.465  1.00  0.00    -0.326 N 
ATOM     13  C   UNL A   1      39.565  32.543  30.557  1.00  0.00     0.228 C 
ATOM     14  O   UNL A   1      39.799  33.628  31.110  1.00  0.00    -0.274 OA
ATOM     15  H   UNL A   1      41.483  32.002  30.771  1.00  0.00     0.169 HD
BRANCH  13  16
ATOM     16  C   UNL A   1      38.105  32.200  30.184  1.00  0.00     0.095 C 
ATOM     17  C   UNL A   1      37.037  32.100  31.310  1.00  0.00     0.095 C 
ATOM     18  C   UNL A   1      35.708  31.638  30.707  1.00  0.00     0.041 C 
ATOM     19  C   UNL A   1      35.292  32.449  29.514  1.00  0.00    -0.030 C 
ATOM     20  C   UNL A   1      37.654  33.034  28.963  1.00  0.00     0.041 C 
ATOM     21  C   UNL A   1      36.175  33.082  28.732  1.00  0.00    -0.030 C 
BRANCH  17  22
ATOM     22  C   UNL A   1      37.655  31.417  32.549  1.00  0.00     0.226 C 
ATOM     23  N   UNL A   1      37.788  31.991  33.802  1.00  0.00    -0.343 N 
ATOM     24  O   UNL A   1      38.053  30.251  32.396  1.00  0.00    -0.275 OA
BRANCH  23  25
ATOM     25  C   UNL A   1      38.170  31.079  34.893  1.00  0.00     0.116 C 
ATOM     26  C   UNL A   1      39.681  31.009  35.074  1.00  0.00     0.027 C 
ENDBRANCH  23  25
BRANCH  23  27
ATOM     27  C   UNL A   1      37.925  33.416  34.096  1.00  0.00     0.116 C 
ATOM     28  C   UNL A   1      37.297  33.773  35.435  1.00  0.00     0.027 C 
ENDBRANCH  23  27
ENDBRANCH  17  22
ENDBRANCH  13  16
ENDBRANCH   7  12
ENDBRANCH   4   6
ENDBRANCH   3   4
ENDBRANCH   2   3
ENDBRANCH   1   2
BRANCH   1  29
ATOM     29  O   UNL A   1      42.577  23.071  27.515  1.00  0.00    -0.374 OA
BRANCH  29  30
ATOM     30  C   UNL A   1      42.407  23.025  26.098  1.00  0.00     0.202 C 
BRANCH  30  31
ATOM     31  C   UNL A   1      43.664  23.110  25.225  1.00  0.00     0.261 C 
BRANCH  31  32
ATOM     32  O   UNL A   1      43.869  24.421  24.674  1.00  0.00    -0.460 OA
BRANCH  32  33
ATOM     33  C   UNL A   1      45.043  24.997  25.035  1.00  0.00     0.338 C 
ATOM     34  O   UNL A   1      46.146  24.760  24.576  1.00  0.00    -0.246 OA
BRANCH  33  35
ATOM     35  C   UNL A   1      44.790  26.121  25.958  1.00  0.00     0.060 A 
ATOM     36  C   UNL A   1      45.883  26.619  26.678  1.00  0.00     0.016 A 
ATOM     37  C   UNL A   1      43.506  26.629  26.172  1.00  0.00     0.016 A 
ATOM     38  C   UNL A   1      45.689  27.589  27.659  1.00  0.00     0.010 A 
ATOM     39  C   UNL A   1      43.314  27.599  27.163  1.00  0.00     0.010 A 
ATOM     40  C   UNL A   1      44.397  28.055  27.936  1.00  0.00    -0.014 A 
BRANCH  40  41
ATOM     41  C   UNL A   1      44.168  28.896  29.138  1.00  0.00     0.031 A 
ATOM     42  C   UNL A   1      44.057  30.386  28.971  1.00  0.00     0.074 A 
ATOM     43  C   UNL A   1      44.022  28.336  30.351  1.00  0.00     0.049 A 
ATOM     44  N   UNL A   1      43.890  31.315  29.878  1.00  0.00    -0.248 NA
ATOM     45  C   UNL A   1      44.151  30.896  27.595  1.00  0.00     0.031 C 
ATOM     46  C   UNL A   1      44.060  26.900  30.628  1.00  0.00     0.029 A 
ATOM     47  N   UNL A   1      43.813  28.910  31.580  1.00  0.00    -0.354 N 
ATOM     48  C   UNL A   1      43.865  32.521  29.184  1.00  0.00     0.074 A 
ATOM     49  C   UNL A   1      44.079  32.204  27.787  1.00  0.00     0.031 C 
ATOM     50  C   UNL A   1      43.882  26.706  31.945  1.00  0.00     0.029 A 
ATOM     51  C   UNL A   1      43.759  28.001  32.611  1.00  0.00     0.049 A 
ATOM     52  H   UNL A   1      43.711  29.880  31.711  1.00  0.00     0.167 HD
ATOM     53  C   UNL A   1      43.668  33.774  29.666  1.00  0.00     0.034 A 
ATOM     54  C   UNL A   1      43.648  28.196  33.940  1.00  0.00     0.034 A 
ATOM     55  C   UNL A   1      43.468  34.072  31.064  1.00  0.00     0.049 A 
ATOM     56  C   UNL A   1      43.526  29.606  34.467  1.00  0.00     0.074 A 
ATOM     57  C   UNL A   1      43.250  35.301  31.662  1.00  0.00     0.029 A 
ATOM     58  N   UNL A   1      43.475  33.131  32.087  1.00  0.00    -0.354 N 
ATOM     59  N   UNL A   1      43.501  30.738  33.802  1.00  0.00    -0.248 NA
ATOM     60  C   UNL A   1      43.407  29.760  35.922  1.00  0.00     0.031 C 
ATOM     61  C   UNL A   1      43.205  35.113  33.048  1.00  0.00     0.029 A 
ATOM     62  C   UNL A   1      43.304  33.756  33.314  1.00  0.00     0.049 A 
ATOM     63  H   UNL A   1      43.586  32.161  31.960  1.00  0.00     0.167 HD
ATOM     64  C   UNL A   1      43.327  31.737  34.758  1.00  0.00     0.074 A 
ATOM     65  C   UNL A   1      43.245  31.070  36.041  1.00  0.00     0.031 C 
ATOM     66  C   UNL A   1      43.237  33.082  34.590  1.00  0.00     0.034 A 
BRANCH  53  67
ATOM     67  C   UNL A   1      43.720  34.912  28.673  1.00  0.00     0.023 A 
ATOM     68  C   UNL A   1      44.938  35.489  28.269  1.00  0.00     0.031 A 
ATOM     69  C   UNL A   1      42.533  35.459  28.156  1.00  0.00     0.131 A 
ATOM     70  C   UNL A   1      44.936  36.625  27.446  1.00  0.00     0.055 A 
ATOM     71  C   UNL A   1      42.542  36.535  27.265  1.00  0.00     0.041 A 
ATOM     72  F   UNL A   1      41.338  34.968  28.522  1.00  0.00    -0.206 F 
ATOM     73  C   UNL A   1      43.748  37.136  26.920  1.00  0.00     0.022 A 
BRANCH  70  74
ATOM     74  S   UNL A   1      46.494  37.525  27.206  1.00  0.00     0.124 S 
ATOM     75  O   UNL A   1      46.746  37.305  25.784  1.00  0.00    -0.237 OA
ATOM     76  O   UNL A   1      46.135  38.884  27.590  1.00  0.00    -0.237 OA
ATOM     77  O   UNL A   1      47.423  36.845  28.107  1.00  0.00    -0.744 OA
ENDBRANCH  70  74
ENDBRANCH  53  67
BRANCH  54  78
ATOM     78  C   UNL A   1      43.680  27.035  34.875  1.00  0.00     0.023 A 
ATOM     79  C   UNL A   1      44.885  26.591  35.443  1.00  0.00     0.031 A 
ATOM     80  C   UNL A   1      42.506  26.322  35.181  1.00  0.00     0.131 A 
ATOM     81  C   UNL A   1      44.895  25.444  36.252  1.00  0.00     0.055 A 
ATOM     82  C   UNL A   1      42.513  25.214  36.028  1.00  0.00     0.041 A 
ATOM     83  F   UNL A   1      41.326  26.704  34.663  1.00  0.00    -0.206 F 
ATOM     84  C   UNL A   1      43.717  24.761  36.560  1.00  0.00     0.022 A 
BRANCH  81  85
ATOM     85  S   UNL A   1      46.489  24.806  36.835  1.00  0.00     0.124 S 
ATOM     86  O   UNL A   1      47.403  25.319  35.821  1.00  0.00    -0.237 OA
ATOM     87  O   UNL A   1      46.592  25.414  38.158  1.00  0.00    -0.237 OA
ATOM     88  O   UNL A   1      46.299  23.357  36.831  1.00  0.00    -0.744 OA
ENDBRANCH  81  85
ENDBRANCH  54  78
BRANCH  66  89
ATOM     89  C   UNL A   1      42.986  33.916  35.826  1.00  0.00     0.023 A 
ATOM     90  C   UNL A   1      41.714  34.431  36.131  1.00  0.00     0.031 A 
ATOM     91  C   UNL A   1      44.044  34.207  36.707  1.00  0.00     0.131 A 
ATOM     92  C   UNL A   1      41.545  35.258  37.252  1.00  0.00     0.055 A 
ATOM     93  C   UNL A   1      43.855  34.976  37.856  1.00  0.00     0.041 A 
ATOM     94  F   UNL A   1      45.281  33.745  36.466  1.00  0.00    -0.206 F 
ATOM     95  C   UNL A   1      42.603  35.519  38.127  1.00  0.00     0.022 A 
BRANCH  92  96
ATOM     96  S   UNL A   1      39.943  36.077  37.499  1.00  0.00     0.124 S 
ATOM     97  O   UNL A   1      39.156  35.019  38.124  1.00  0.00    -0.237 OA
ATOM     98  O   UNL A   1      40.297  37.200  38.360  1.00  0.00    -0.237 OA
ATOM     99  O   UNL A   1      39.531  36.439  36.145  1.00  0.00    -0.744 OA
ENDBRANCH  92  96
ENDBRANCH  66  89
ENDBRANCH  40  41
ENDBRANCH  33  35
ENDBRANCH  32  33
ENDBRANCH  31  32
ENDBRANCH  30  31
ENDBRANCH  29  30
ENDBRANCH   1  29
TORSDOF 22
ENDMDL
