MODEL 1
REMARK VINA RESULT:      -9.8      0.000      0.000
REMARK SMILES O=C(C[NH2+]Cc1cccs1)OCCOCCOC(=O)c1ccc(-c2c3nc(c(-c4cc(S(=O)(=O)[O-])ccc4F)c4ccc([nH]4)c(-c4cc(S(=O)(=O)[O-])ccc4F)c4nc(c(-c5cc(S(=O)(=O)[O-])ccc5F)c5ccc2[nH]5)C=C4)C=C3)cc1
REMARK SMILES IDX 14 1 13 2 12 3 11 4 2 5 1 6 3 7 4 8 5 11 6 12 7 13 10 14
REMARK SMILES IDX 8 15 9 16 15 17 16 18 17 19 18 20 19 21 20 22 21 23 82 24
REMARK SMILES IDX 22 25 81 26 23 27 24 28 25 29 75 30 26 31 80 32 74 33 76 34
REMARK SMILES IDX 27 35 79 36 73 37 72 38 28 40 60 41 40 42 59 43 41 44 44 45
REMARK SMILES IDX 58 46 77 47 42 48 43 49 57 51 78 52 45 53 29 54 30 55 38 56
REMARK SMILES IDX 31 57 37 58 39 59 36 60 32 61 33 62 34 63 35 64 61 65 62 66
REMARK SMILES IDX 70 67 63 68 69 69 71 70 68 71 64 72 65 73 66 74 67 75 46 76
REMARK SMILES IDX 47 77 55 78 48 79 54 80 56 81 53 82 49 83 50 84 51 85 52 86
REMARK H PARENT 4 9 4 10 76 39 44 50
REMARK Flexibility Score: inf
ROOT
ATOM      1  O   UNL A   1      33.092  27.894  25.388  1.00  0.00    -0.374 OA
ENDROOT
BRANCH   1   2
ATOM      2  C   UNL A   1      33.018  26.520  25.006  1.00  0.00     0.202 C 
BRANCH   2   3
ATOM      3  C   UNL A   1      33.013  25.522  26.158  1.00  0.00     0.261 C 
BRANCH   3   4
ATOM      4  O   UNL A   1      31.741  24.861  26.305  1.00  0.00    -0.459 OA
BRANCH   4   5
ATOM      5  C   UNL A   1      31.535  23.669  26.908  1.00  0.00     0.361 C 
ATOM      6  O   UNL A   1      30.414  23.391  27.340  1.00  0.00    -0.245 OA
BRANCH   5   7
ATOM      7  C   UNL A   1      32.707  22.747  27.188  1.00  0.00     0.385 C 
BRANCH   7   8
ATOM      8  N   UNL A   1      32.749  21.535  26.358  1.00  0.00    -0.333 N 
ATOM      9  H   UNL A   1      31.904  20.990  26.524  1.00  0.00     0.347 HD
ATOM     10  H   UNL A   1      33.582  21.005  26.613  1.00  0.00     0.347 HD
BRANCH   8  11
ATOM     11  C   UNL A   1      32.833  21.858  24.927  1.00  0.00     0.308 C 
BRANCH  11  12
ATOM     12  C   UNL A   1      34.236  22.095  24.447  1.00  0.00     0.059 A 
ATOM     13  C   UNL A   1      35.386  21.430  24.829  1.00  0.00     0.021 A 
ATOM     14  S   UNL A   1      34.578  23.262  23.232  1.00  0.00    -0.143 S 
ATOM     15  C   UNL A   1      36.553  21.962  24.210  1.00  0.00     0.012 A 
ATOM     16  C   UNL A   1      36.258  23.002  23.359  1.00  0.00     0.065 A 
ENDBRANCH  11  12
ENDBRANCH   8  11
ENDBRANCH   7   8
ENDBRANCH   5   7
ENDBRANCH   4   5
ENDBRANCH   3   4
ENDBRANCH   2   3
ENDBRANCH   1   2
BRANCH   1  17
ATOM     17  C   UNL A   1      31.835  28.579  25.464  1.00  0.00     0.202 C 
BRANCH  17  18
ATOM     18  C   UNL A   1      31.906  30.062  25.841  1.00  0.00     0.261 C 
BRANCH  18  19
ATOM     19  O   UNL A   1      32.517  30.246  27.125  1.00  0.00    -0.460 OA
BRANCH  19  20
ATOM     20  C   UNL A   1      33.137  31.437  27.305  1.00  0.00     0.338 C 
ATOM     21  O   UNL A   1      32.620  32.542  27.302  1.00  0.00    -0.246 OA
BRANCH  20  22
ATOM     22  C   UNL A   1      34.519  31.177  27.755  1.00  0.00     0.060 A 
ATOM     23  C   UNL A   1      34.915  29.844  27.931  1.00  0.00     0.016 A 
ATOM     24  C   UNL A   1      35.412  32.224  27.988  1.00  0.00     0.016 A 
ATOM     25  C   UNL A   1      36.194  29.553  28.399  1.00  0.00     0.010 A 
ATOM     26  C   UNL A   1      36.689  31.933  28.462  1.00  0.00     0.010 A 
ATOM     27  C   UNL A   1      37.067  30.601  28.711  1.00  0.00    -0.014 A 
BRANCH  27  28
ATOM     28  C   UNL A   1      38.289  30.351  29.507  1.00  0.00     0.031 A 
ATOM     29  C   UNL A   1      39.296  29.387  28.950  1.00  0.00     0.074 A 
ATOM     30  C   UNL A   1      38.469  30.924  30.707  1.00  0.00     0.049 A 
ATOM     31  N   UNL A   1      40.338  28.847  29.520  1.00  0.00    -0.248 NA
ATOM     32  C   UNL A   1      39.072  28.954  27.560  1.00  0.00     0.031 C 
ATOM     33  C   UNL A   1      37.578  31.911  31.314  1.00  0.00     0.029 A 
ATOM     34  N   UNL A   1      39.451  30.730  31.643  1.00  0.00    -0.354 N 
ATOM     35  C   UNL A   1      40.880  27.987  28.570  1.00  0.00     0.074 A 
ATOM     36  C   UNL A   1      40.027  28.053  27.405  1.00  0.00     0.031 C 
ATOM     37  C   UNL A   1      38.042  32.216  32.537  1.00  0.00     0.029 A 
ATOM     38  C   UNL A   1      39.226  31.406  32.819  1.00  0.00     0.049 A 
ATOM     39  H   UNL A   1      40.241  30.163  31.489  1.00  0.00     0.167 HD
ATOM     40  C   UNL A   1      41.991  27.216  28.669  1.00  0.00     0.034 A 
ATOM     41  C   UNL A   1      39.874  31.335  33.997  1.00  0.00     0.034 A 
ATOM     42  C   UNL A   1      42.809  27.163  29.855  1.00  0.00     0.049 A 
ATOM     43  C   UNL A   1      41.059  30.408  34.123  1.00  0.00     0.074 A 
ATOM     44  C   UNL A   1      43.966  26.438  30.074  1.00  0.00     0.029 A 
ATOM     45  N   UNL A   1      42.544  27.853  31.033  1.00  0.00    -0.354 N 
ATOM     46  N   UNL A   1      41.569  29.592  33.226  1.00  0.00    -0.248 NA
ATOM     47  C   UNL A   1      41.759  30.395  35.413  1.00  0.00     0.031 C 
ATOM     48  C   UNL A   1      44.349  26.620  31.406  1.00  0.00     0.029 A 
ATOM     49  C   UNL A   1      43.495  27.541  31.992  1.00  0.00     0.049 A 
ATOM     50  H   UNL A   1      41.790  28.472  31.166  1.00  0.00     0.167 HD
ATOM     51  C   UNL A   1      42.675  29.001  33.833  1.00  0.00     0.074 A 
ATOM     52  C   UNL A   1      42.754  29.552  35.171  1.00  0.00     0.031 C 
ATOM     53  C   UNL A   1      43.555  28.101  33.324  1.00  0.00     0.034 A 
BRANCH  40  54
ATOM     54  C   UNL A   1      42.324  26.330  27.491  1.00  0.00     0.023 A 
ATOM     55  C   UNL A   1      41.845  25.011  27.393  1.00  0.00     0.031 A 
ATOM     56  C   UNL A   1      43.191  26.787  26.482  1.00  0.00     0.131 A 
ATOM     57  C   UNL A   1      42.311  24.170  26.372  1.00  0.00     0.055 A 
ATOM     58  C   UNL A   1      43.572  25.976  25.412  1.00  0.00     0.041 A 
ATOM     59  F   UNL A   1      43.705  28.027  26.532  1.00  0.00    -0.206 F 
ATOM     60  C   UNL A   1      43.150  24.650  25.364  1.00  0.00     0.022 A 
BRANCH  57  61
ATOM     61  S   UNL A   1      41.961  22.393  26.489  1.00  0.00     0.124 S 
ATOM     62  O   UNL A   1      40.502  22.375  26.404  1.00  0.00    -0.237 OA
ATOM     63  O   UNL A   1      42.675  21.854  25.338  1.00  0.00    -0.237 OA
ATOM     64  O   UNL A   1      42.504  22.021  27.794  1.00  0.00    -0.744 OA
ENDBRANCH  57  61
ENDBRANCH  40  54
BRANCH  41  65
ATOM     65  C   UNL A   1      39.392  32.133  35.160  1.00  0.00     0.023 A 
ATOM     66  C   UNL A   1      39.859  33.435  35.390  1.00  0.00     0.031 A 
ATOM     67  C   UNL A   1      38.459  31.597  36.068  1.00  0.00     0.131 A 
ATOM     68  C   UNL A   1      39.414  34.150  36.515  1.00  0.00     0.055 A 
ATOM     69  C   UNL A   1      37.980  32.330  37.155  1.00  0.00     0.041 A 
ATOM     70  F   UNL A   1      37.981  30.354  35.894  1.00  0.00    -0.206 F 
ATOM     71  C   UNL A   1      38.465  33.612  37.388  1.00  0.00     0.022 A 
BRANCH  68  72
ATOM     72  S   UNL A   1      40.145  35.773  36.857  1.00  0.00     0.124 S 
ATOM     73  O   UNL A   1      41.571  35.464  36.848  1.00  0.00    -0.237 OA
ATOM     74  O   UNL A   1      39.654  36.569  35.738  1.00  0.00    -0.237 OA
ATOM     75  O   UNL A   1      39.591  36.127  38.162  1.00  0.00    -0.744 OA
ENDBRANCH  68  72
ENDBRANCH  41  65
BRANCH  53  76
ATOM     76  C   UNL A   1      44.731  27.710  34.189  1.00  0.00     0.023 A 
ATOM     77  C   UNL A   1      44.647  26.697  35.161  1.00  0.00     0.031 A 
ATOM     78  C   UNL A   1      45.970  28.353  34.009  1.00  0.00     0.131 A 
ATOM     79  C   UNL A   1      45.772  26.387  35.942  1.00  0.00     0.055 A 
ATOM     80  C   UNL A   1      47.100  27.995  34.742  1.00  0.00     0.041 A 
ATOM     81  F   UNL A   1      46.106  29.330  33.099  1.00  0.00    -0.206 F 
ATOM     82  C   UNL A   1      47.002  27.013  35.723  1.00  0.00     0.022 A 
BRANCH  79  83
ATOM     83  S   UNL A   1      45.590  25.208  37.308  1.00  0.00     0.124 S 
ATOM     84  O   UNL A   1      44.731  25.944  38.230  1.00  0.00    -0.237 OA
ATOM     85  O   UNL A   1      44.980  24.056  36.650  1.00  0.00    -0.237 OA
ATOM     86  O   UNL A   1      46.962  25.002  37.770  1.00  0.00    -0.744 OA
ENDBRANCH  79  83
ENDBRANCH  53  76
ENDBRANCH  27  28
ENDBRANCH  20  22
ENDBRANCH  19  20
ENDBRANCH  18  19
ENDBRANCH  17  18
ENDBRANCH   1  17
TORSDOF 20
ENDMDL
MODEL 2
REMARK VINA RESULT:      -9.5      1.748      2.011
REMARK SMILES O=C(C[NH2+]Cc1cccs1)OCCOCCOC(=O)c1ccc(-c2c3nc(c(-c4cc(S(=O)(=O)[O-])ccc4F)c4ccc([nH]4)c(-c4cc(S(=O)(=O)[O-])ccc4F)c4nc(c(-c5cc(S(=O)(=O)[O-])ccc5F)c5ccc2[nH]5)C=C4)C=C3)cc1
REMARK SMILES IDX 14 1 13 2 12 3 11 4 2 5 1 6 3 7 4 8 5 11 6 12 7 13 10 14
REMARK SMILES IDX 8 15 9 16 15 17 16 18 17 19 18 20 19 21 20 22 21 23 82 24
REMARK SMILES IDX 22 25 81 26 23 27 24 28 25 29 75 30 26 31 80 32 74 33 76 34
REMARK SMILES IDX 27 35 79 36 73 37 72 38 28 40 60 41 40 42 59 43 41 44 44 45
REMARK SMILES IDX 58 46 77 47 42 48 43 49 57 51 78 52 45 53 29 54 30 55 38 56
REMARK SMILES IDX 31 57 37 58 39 59 36 60 32 61 33 62 34 63 35 64 61 65 62 66
REMARK SMILES IDX 70 67 63 68 69 69 71 70 68 71 64 72 65 73 66 74 67 75 46 76
REMARK SMILES IDX 47 77 55 78 48 79 54 80 56 81 53 82 49 83 50 84 51 85 52 86
REMARK H PARENT 4 9 4 10 76 39 44 50
REMARK Flexibility Score: inf
ROOT
ATOM      1  O   UNL A   1      30.998  29.441  24.331  1.00  0.00    -0.374 OA
ENDROOT
BRANCH   1   2
ATOM      2  C   UNL A   1      31.394  28.534  23.302  1.00  0.00     0.202 C 
BRANCH   2   3
ATOM      3  C   UNL A   1      32.384  27.456  23.727  1.00  0.00     0.261 C 
BRANCH   3   4
ATOM      4  O   UNL A   1      31.745  26.185  23.958  1.00  0.00    -0.459 OA
BRANCH   4   5
ATOM      5  C   UNL A   1      31.870  25.085  23.182  1.00  0.00     0.361 C 
ATOM      6  O   UNL A   1      32.581  25.128  22.176  1.00  0.00    -0.245 OA
BRANCH   5   7
ATOM      7  C   UNL A   1      31.020  23.860  23.460  1.00  0.00     0.385 C 
BRANCH   7   8
ATOM      8  N   UNL A   1      31.640  22.871  24.355  1.00  0.00    -0.333 N 
ATOM      9  H   UNL A   1      30.924  22.220  24.674  1.00  0.00     0.347 HD
ATOM     10  H   UNL A   1      32.056  23.372  25.140  1.00  0.00     0.347 HD
BRANCH   8  11
ATOM     11  C   UNL A   1      32.703  22.117  23.678  1.00  0.00     0.308 C 
BRANCH  11  12
ATOM     12  C   UNL A   1      34.084  22.470  24.153  1.00  0.00     0.059 A 
ATOM     13  C   UNL A   1      35.157  22.897  23.394  1.00  0.00     0.021 A 
ATOM     14  S   UNL A   1      34.487  22.441  25.824  1.00  0.00    -0.143 S 
ATOM     15  C   UNL A   1      36.334  23.084  24.174  1.00  0.00     0.012 A 
ATOM     16  C   UNL A   1      36.120  22.815  25.506  1.00  0.00     0.065 A 
ENDBRANCH  11  12
ENDBRANCH   8  11
ENDBRANCH   7   8
ENDBRANCH   5   7
ENDBRANCH   4   5
ENDBRANCH   3   4
ENDBRANCH   2   3
ENDBRANCH   1   2
BRANCH   1  17
ATOM     17  C   UNL A   1      31.962  29.647  25.372  1.00  0.00     0.202 C 
BRANCH  17  18
ATOM     18  C   UNL A   1      31.756  30.896  26.234  1.00  0.00     0.261 C 
BRANCH  18  19
ATOM     19  O   UNL A   1      32.622  30.892  27.376  1.00  0.00    -0.460 OA
BRANCH  19  20
ATOM     20  C   UNL A   1      33.365  32.012  27.543  1.00  0.00     0.338 C 
ATOM     21  O   UNL A   1      32.966  33.166  27.537  1.00  0.00    -0.246 OA
BRANCH  20  22
ATOM     22  C   UNL A   1      34.717  31.613  27.980  1.00  0.00     0.060 A 
ATOM     23  C   UNL A   1      34.928  30.271  28.327  1.00  0.00     0.016 A 
ATOM     24  C   UNL A   1      35.761  32.537  28.037  1.00  0.00     0.016 A 
ATOM     25  C   UNL A   1      36.175  29.858  28.791  1.00  0.00     0.010 A 
ATOM     26  C   UNL A   1      37.006  32.126  28.506  1.00  0.00     0.010 A 
ATOM     27  C   UNL A   1      37.203  30.797  28.926  1.00  0.00    -0.014 A 
BRANCH  27  28
ATOM     28  C   UNL A   1      38.416  30.477  29.710  1.00  0.00     0.031 A 
ATOM     29  C   UNL A   1      39.367  29.466  29.137  1.00  0.00     0.074 A 
ATOM     30  C   UNL A   1      38.635  31.029  30.913  1.00  0.00     0.049 A 
ATOM     31  N   UNL A   1      40.384  28.867  29.694  1.00  0.00    -0.248 NA
ATOM     32  C   UNL A   1      39.110  29.057  27.746  1.00  0.00     0.031 C 
ATOM     33  C   UNL A   1      37.802  32.056  31.535  1.00  0.00     0.029 A 
ATOM     34  N   UNL A   1      39.613  30.776  31.839  1.00  0.00    -0.354 N 
ATOM     35  C   UNL A   1      40.872  27.988  28.733  1.00  0.00     0.074 A 
ATOM     36  C   UNL A   1      40.015  28.108  27.575  1.00  0.00     0.031 C 
ATOM     37  C   UNL A   1      38.291  32.326  32.757  1.00  0.00     0.029 A 
ATOM     38  C   UNL A   1      39.432  31.452  33.022  1.00  0.00     0.049 A 
ATOM     39  H   UNL A   1      40.370  30.170  31.674  1.00  0.00     0.167 HD
ATOM     40  C   UNL A   1      41.942  27.159  28.816  1.00  0.00     0.034 A 
ATOM     41  C   UNL A   1      40.085  31.338  34.195  1.00  0.00     0.034 A 
ATOM     42  C   UNL A   1      42.765  27.053  29.995  1.00  0.00     0.049 A 
ATOM     43  C   UNL A   1      41.220  30.348  34.303  1.00  0.00     0.074 A 
ATOM     44  C   UNL A   1      43.884  26.266  30.199  1.00  0.00     0.029 A 
ATOM     45  N   UNL A   1      42.546  27.745  31.181  1.00  0.00    -0.354 N 
ATOM     46  N   UNL A   1      41.680  29.515  33.396  1.00  0.00    -0.248 NA
ATOM     47  C   UNL A   1      41.929  30.288  35.588  1.00  0.00     0.031 C 
ATOM     48  C   UNL A   1      44.286  26.416  31.529  1.00  0.00     0.029 A 
ATOM     49  C   UNL A   1      43.486  27.376  32.130  1.00  0.00     0.049 A 
ATOM     50  H   UNL A   1      41.826  28.403  31.325  1.00  0.00     0.167 HD
ATOM     51  C   UNL A   1      42.758  28.862  33.989  1.00  0.00     0.074 A 
ATOM     52  C   UNL A   1      42.876  29.396  35.331  1.00  0.00     0.031 C 
ATOM     53  C   UNL A   1      43.586  27.920  33.466  1.00  0.00     0.034 A 
BRANCH  40  54
ATOM     54  C   UNL A   1      42.219  26.266  27.628  1.00  0.00     0.023 A 
ATOM     55  C   UNL A   1      41.705  24.960  27.544  1.00  0.00     0.031 A 
ATOM     56  C   UNL A   1      43.066  26.705  26.594  1.00  0.00     0.131 A 
ATOM     57  C   UNL A   1      42.121  24.109  26.509  1.00  0.00     0.055 A 
ATOM     58  C   UNL A   1      43.396  25.885  25.514  1.00  0.00     0.041 A 
ATOM     59  F   UNL A   1      43.611  27.931  26.630  1.00  0.00    -0.206 F 
ATOM     60  C   UNL A   1      42.941  24.571  25.477  1.00  0.00     0.022 A 
BRANCH  57  61
ATOM     61  S   UNL A   1      41.732  22.341  26.635  1.00  0.00     0.124 S 
ATOM     62  O   UNL A   1      40.279  22.370  26.791  1.00  0.00    -0.237 OA
ATOM     63  O   UNL A   1      42.230  21.817  25.369  1.00  0.00    -0.237 OA
ATOM     64  O   UNL A   1      42.468  21.911  27.823  1.00  0.00    -0.744 OA
ENDBRANCH  57  61
ENDBRANCH  40  54
BRANCH  41  65
ATOM     65  C   UNL A   1      39.654  32.150  35.369  1.00  0.00     0.023 A 
ATOM     66  C   UNL A   1      38.828  31.606  36.363  1.00  0.00     0.031 A 
ATOM     67  C   UNL A   1      40.058  33.491  35.507  1.00  0.00     0.131 A 
ATOM     68  C   UNL A   1      38.410  32.406  37.439  1.00  0.00     0.055 A 
ATOM     69  C   UNL A   1      39.683  34.266  36.605  1.00  0.00     0.041 A 
ATOM     70  F   UNL A   1      40.848  34.060  34.582  1.00  0.00    -0.206 F 
ATOM     71  C   UNL A   1      38.845  33.727  37.576  1.00  0.00     0.022 A 
BRANCH  68  72
ATOM     72  S   UNL A   1      37.230  31.713  38.629  1.00  0.00     0.124 S 
ATOM     73  O   UNL A   1      36.075  32.586  38.444  1.00  0.00    -0.237 OA
ATOM     74  O   UNL A   1      37.083  30.344  38.148  1.00  0.00    -0.237 OA
ATOM     75  O   UNL A   1      37.919  31.851  39.910  1.00  0.00    -0.744 OA
ENDBRANCH  68  72
ENDBRANCH  41  65
BRANCH  53  76
ATOM     76  C   UNL A   1      44.746  27.461  34.318  1.00  0.00     0.023 A 
ATOM     77  C   UNL A   1      44.648  26.370  35.198  1.00  0.00     0.031 A 
ATOM     78  C   UNL A   1      45.986  28.120  34.218  1.00  0.00     0.131 A 
ATOM     79  C   UNL A   1      45.759  25.997  35.973  1.00  0.00     0.055 A 
ATOM     80  C   UNL A   1      47.103  27.705  34.941  1.00  0.00     0.041 A 
ATOM     81  F   UNL A   1      46.135  29.172  33.397  1.00  0.00    -0.206 F 
ATOM     82  C   UNL A   1      46.990  26.643  35.833  1.00  0.00     0.022 A 
BRANCH  79  83
ATOM     83  S   UNL A   1      45.555  24.706  37.231  1.00  0.00     0.124 S 
ATOM     84  O   UNL A   1      44.337  25.136  37.911  1.00  0.00    -0.237 OA
ATOM     85  O   UNL A   1      45.441  23.496  36.423  1.00  0.00    -0.237 OA
ATOM     86  O   UNL A   1      46.777  24.806  38.027  1.00  0.00    -0.744 OA
ENDBRANCH  79  83
ENDBRANCH  53  76
ENDBRANCH  27  28
ENDBRANCH  20  22
ENDBRANCH  19  20
ENDBRANCH  18  19
ENDBRANCH  17  18
ENDBRANCH   1  17
TORSDOF 20
ENDMDL
MODEL 3
REMARK VINA RESULT:      -9.4      1.778      2.163
REMARK SMILES O=C(C[NH2+]Cc1cccs1)OCCOCCOC(=O)c1ccc(-c2c3nc(c(-c4cc(S(=O)(=O)[O-])ccc4F)c4ccc([nH]4)c(-c4cc(S(=O)(=O)[O-])ccc4F)c4nc(c(-c5cc(S(=O)(=O)[O-])ccc5F)c5ccc2[nH]5)C=C4)C=C3)cc1
REMARK SMILES IDX 14 1 13 2 12 3 11 4 2 5 1 6 3 7 4 8 5 11 6 12 7 13 10 14
REMARK SMILES IDX 8 15 9 16 15 17 16 18 17 19 18 20 19 21 20 22 21 23 82 24
REMARK SMILES IDX 22 25 81 26 23 27 24 28 25 29 75 30 26 31 80 32 74 33 76 34
REMARK SMILES IDX 27 35 79 36 73 37 72 38 28 40 60 41 40 42 59 43 41 44 44 45
REMARK SMILES IDX 58 46 77 47 42 48 43 49 57 51 78 52 45 53 29 54 30 55 38 56
REMARK SMILES IDX 31 57 37 58 39 59 36 60 32 61 33 62 34 63 35 64 61 65 62 66
REMARK SMILES IDX 70 67 63 68 69 69 71 70 68 71 64 72 65 73 66 74 67 75 46 76
REMARK SMILES IDX 47 77 55 78 48 79 54 80 56 81 53 82 49 83 50 84 51 85 52 86
REMARK H PARENT 4 9 4 10 76 39 44 50
REMARK Flexibility Score: inf
ROOT
ATOM      1  O   UNL A   1      31.247  28.666  24.785  1.00  0.00    -0.374 OA
ENDROOT
BRANCH   1   2
ATOM      2  C   UNL A   1      31.770  27.632  23.951  1.00  0.00     0.202 C 
BRANCH   2   3
ATOM      3  C   UNL A   1      32.807  26.727  24.607  1.00  0.00     0.261 C 
BRANCH   3   4
ATOM      4  O   UNL A   1      33.746  26.189  23.654  1.00  0.00    -0.459 OA
BRANCH   4   5
ATOM      5  C   UNL A   1      33.432  25.629  22.465  1.00  0.00     0.361 C 
ATOM      6  O   UNL A   1      33.626  26.261  21.425  1.00  0.00    -0.245 OA
BRANCH   5   7
ATOM      7  C   UNL A   1      32.704  24.299  22.421  1.00  0.00     0.385 C 
BRANCH   7   8
ATOM      8  N   UNL A   1      32.736  23.538  23.679  1.00  0.00    -0.333 N 
ATOM      9  H   UNL A   1      31.780  23.382  23.996  1.00  0.00     0.347 HD
ATOM     10  H   UNL A   1      33.265  24.080  24.363  1.00  0.00     0.347 HD
BRANCH   8  11
ATOM     11  C   UNL A   1      33.401  22.239  23.512  1.00  0.00     0.308 C 
BRANCH  11  12
ATOM     12  C   UNL A   1      34.794  22.201  24.073  1.00  0.00     0.059 A 
ATOM     13  C   UNL A   1      35.890  22.939  23.669  1.00  0.00     0.021 A 
ATOM     14  S   UNL A   1      35.185  21.209  25.421  1.00  0.00    -0.143 S 
ATOM     15  C   UNL A   1      37.070  22.600  24.390  1.00  0.00     0.012 A 
ATOM     16  C   UNL A   1      36.836  21.629  25.337  1.00  0.00     0.065 A 
ENDBRANCH  11  12
ENDBRANCH   8  11
ENDBRANCH   7   8
ENDBRANCH   5   7
ENDBRANCH   4   5
ENDBRANCH   3   4
ENDBRANCH   2   3
ENDBRANCH   1   2
BRANCH   1  17
ATOM     17  C   UNL A   1      32.182  29.245  25.705  1.00  0.00     0.202 C 
BRANCH  17  18
ATOM     18  C   UNL A   1      31.940  30.715  26.063  1.00  0.00     0.261 C 
BRANCH  18  19
ATOM     19  O   UNL A   1      32.406  31.012  27.387  1.00  0.00    -0.460 OA
BRANCH  19  20
ATOM     20  C   UNL A   1      33.157  32.134  27.497  1.00  0.00     0.338 C 
ATOM     21  O   UNL A   1      32.765  33.289  27.445  1.00  0.00    -0.246 OA
BRANCH  20  22
ATOM     22  C   UNL A   1      34.511  31.745  27.937  1.00  0.00     0.060 A 
ATOM     23  C   UNL A   1      34.709  30.427  28.373  1.00  0.00     0.016 A 
ATOM     24  C   UNL A   1      35.569  32.654  27.913  1.00  0.00     0.016 A 
ATOM     25  C   UNL A   1      35.958  30.028  28.842  1.00  0.00     0.010 A 
ATOM     26  C   UNL A   1      36.816  32.258  28.388  1.00  0.00     0.010 A 
ATOM     27  C   UNL A   1      37.002  30.958  28.895  1.00  0.00    -0.014 A 
BRANCH  27  28
ATOM     28  C   UNL A   1      38.224  30.674  29.678  1.00  0.00     0.031 A 
ATOM     29  C   UNL A   1      39.207  29.695  29.103  1.00  0.00     0.074 A 
ATOM     30  C   UNL A   1      38.426  31.230  30.883  1.00  0.00     0.049 A 
ATOM     31  N   UNL A   1      40.242  29.127  29.659  1.00  0.00    -0.248 NA
ATOM     32  C   UNL A   1      38.963  29.283  27.711  1.00  0.00     0.031 C 
ATOM     33  C   UNL A   1      37.561  32.229  31.508  1.00  0.00     0.029 A 
ATOM     34  N   UNL A   1      39.411  31.005  31.809  1.00  0.00    -0.354 N 
ATOM     35  C   UNL A   1      40.757  28.266  28.695  1.00  0.00     0.074 A 
ATOM     36  C   UNL A   1      39.897  28.363  27.538  1.00  0.00     0.031 C 
ATOM     37  C   UNL A   1      38.041  32.511  32.730  1.00  0.00     0.029 A 
ATOM     38  C   UNL A   1      39.209  31.673  32.993  1.00  0.00     0.049 A 
ATOM     39  H   UNL A   1      40.187  30.424  31.642  1.00  0.00     0.167 HD
ATOM     40  C   UNL A   1      41.853  27.471  28.777  1.00  0.00     0.034 A 
ATOM     41  C   UNL A   1      39.864  31.576  34.166  1.00  0.00     0.034 A 
ATOM     42  C   UNL A   1      42.679  27.388  29.955  1.00  0.00     0.049 A 
ATOM     43  C   UNL A   1      41.031  30.622  34.272  1.00  0.00     0.074 A 
ATOM     44  C   UNL A   1      43.822  26.636  30.157  1.00  0.00     0.029 A 
ATOM     45  N   UNL A   1      42.438  28.070  31.143  1.00  0.00    -0.354 N 
ATOM     46  N   UNL A   1      41.516  29.806  33.363  1.00  0.00    -0.248 NA
ATOM     47  C   UNL A   1      41.741  30.581  35.557  1.00  0.00     0.031 C 
ATOM     48  C   UNL A   1      44.219  26.796  31.488  1.00  0.00     0.029 A 
ATOM     49  C   UNL A   1      43.389  27.728  32.091  1.00  0.00     0.049 A 
ATOM     50  H   UNL A   1      41.698  28.704  31.289  1.00  0.00     0.167 HD
ATOM     51  C   UNL A   1      42.615  29.185  33.954  1.00  0.00     0.074 A 
ATOM     52  C   UNL A   1      42.716  29.720  35.297  1.00  0.00     0.031 C 
ATOM     53  C   UNL A   1      43.472  28.272  33.429  1.00  0.00     0.034 A 
BRANCH  40  54
ATOM     54  C   UNL A   1      42.158  26.591  27.587  1.00  0.00     0.023 A 
ATOM     55  C   UNL A   1      41.738  25.250  27.527  1.00  0.00     0.031 A 
ATOM     56  C   UNL A   1      42.939  27.080  26.524  1.00  0.00     0.131 A 
ATOM     57  C   UNL A   1      42.184  24.422  26.485  1.00  0.00     0.055 A 
ATOM     58  C   UNL A   1      43.294  26.278  25.439  1.00  0.00     0.041 A 
ATOM     59  F   UNL A   1      43.394  28.344  26.535  1.00  0.00    -0.206 F 
ATOM     60  C   UNL A   1      42.936  24.934  25.425  1.00  0.00     0.022 A 
BRANCH  57  61
ATOM     61  S   UNL A   1      41.929  22.632  26.635  1.00  0.00     0.124 S 
ATOM     62  O   UNL A   1      40.514  22.565  26.994  1.00  0.00    -0.237 OA
ATOM     63  O   UNL A   1      42.274  22.151  25.302  1.00  0.00    -0.237 OA
ATOM     64  O   UNL A   1      42.851  22.242  27.700  1.00  0.00    -0.744 OA
ENDBRANCH  57  61
ENDBRANCH  40  54
BRANCH  41  65
ATOM     65  C   UNL A   1      39.409  32.371  35.341  1.00  0.00     0.023 A 
ATOM     66  C   UNL A   1      39.850  33.687  35.543  1.00  0.00     0.031 A 
ATOM     67  C   UNL A   1      38.528  31.818  36.290  1.00  0.00     0.131 A 
ATOM     68  C   UNL A   1      39.432  34.399  36.679  1.00  0.00     0.055 A 
ATOM     69  C   UNL A   1      38.073  32.548  37.389  1.00  0.00     0.041 A 
ATOM     70  F   UNL A   1      38.076  30.562  36.145  1.00  0.00    -0.206 F 
ATOM     71  C   UNL A   1      38.533  33.845  37.594  1.00  0.00     0.022 A 
BRANCH  68  72
ATOM     72  S   UNL A   1      40.134  36.044  36.979  1.00  0.00     0.124 S 
ATOM     73  O   UNL A   1      39.297  36.528  38.073  1.00  0.00    -0.237 OA
ATOM     74  O   UNL A   1      41.516  35.727  37.320  1.00  0.00    -0.237 OA
ATOM     75  O   UNL A   1      39.950  36.730  35.702  1.00  0.00    -0.744 OA
ENDBRANCH  68  72
ENDBRANCH  41  65
BRANCH  53  76
ATOM     76  C   UNL A   1      44.645  27.847  34.280  1.00  0.00     0.023 A 
ATOM     77  C   UNL A   1      45.901  28.473  34.198  1.00  0.00     0.031 A 
ATOM     78  C   UNL A   1      44.485  26.808  35.216  1.00  0.00     0.131 A 
ATOM     79  C   UNL A   1      46.957  28.026  35.009  1.00  0.00     0.055 A 
ATOM     80  C   UNL A   1      45.518  26.413  36.064  1.00  0.00     0.041 A 
ATOM     81  F   UNL A   1      43.309  26.172  35.334  1.00  0.00    -0.206 F 
ATOM     82  C   UNL A   1      46.767  27.016  35.955  1.00  0.00     0.022 A 
BRANCH  79  83
ATOM     83  S   UNL A   1      48.611  28.725  34.755  1.00  0.00     0.124 S 
ATOM     84  O   UNL A   1      49.438  27.853  35.584  1.00  0.00    -0.237 OA
ATOM     85  O   UNL A   1      48.790  28.593  33.313  1.00  0.00    -0.237 OA
ATOM     86  O   UNL A   1      48.482  30.099  35.239  1.00  0.00    -0.744 OA
ENDBRANCH  79  83
ENDBRANCH  53  76
ENDBRANCH  27  28
ENDBRANCH  20  22
ENDBRANCH  19  20
ENDBRANCH  18  19
ENDBRANCH  17  18
ENDBRANCH   1  17
TORSDOF 20
ENDMDL
