MODEL 1
REMARK VINA RESULT:     -11.5      0.000      0.000
REMARK SMILES Cc1ccc([C@@H](C)Nc2ccccc2C(=O)OCCOCCOC(=O)c2ccc(-c3c4nc(c(-c5cc(S(=O)(=O)[O-])ccc5F)c5ccc([nH]5)c(-c5cc(S(=O)(=O)[O-])ccc5F)c5nc(c(-c6cc(S(=O)(=O)[O-])ccc6F)c6ccc3[nH]6)C=C5)C=C4)cc2)cc1F
REMARK SMILES IDX 20 1 19 2 18 3 17 4 15 5 16 6 14 7 9 8 10 9 11 10 13 11
REMARK SMILES IDX 12 12 8 13 6 15 7 16 5 17 1 18 2 19 3 20 90 21 4 22 89 23
REMARK SMILES IDX 91 24 21 25 22 26 23 27 24 28 25 29 26 30 27 31 88 32 28 33
REMARK SMILES IDX 87 34 29 35 30 36 31 37 81 38 32 39 86 40 80 41 82 42 33 43
REMARK SMILES IDX 85 44 79 45 78 46 34 48 66 49 46 50 65 51 47 52 50 53 64 54
REMARK SMILES IDX 83 55 48 56 49 57 63 59 84 60 51 61 35 62 36 63 44 64 37 65
REMARK SMILES IDX 43 66 45 67 42 68 38 69 39 70 40 71 41 72 67 73 68 74 76 75
REMARK SMILES IDX 69 76 75 77 77 78 74 79 70 80 71 81 72 82 73 83 52 84 53 85
REMARK SMILES IDX 61 86 54 87 60 88 62 89 59 90 55 91 56 92 57 93 58 94
REMARK H PARENT 8 14 82 47 50 58
REMARK Flexibility Score: inf
ROOT
ATOM      1  O   UNL A   1      38.531  22.097  26.216  1.00  0.00    -0.374 OA
ENDROOT
BRANCH   1   2
ATOM      2  C   UNL A   1      37.424  22.292  25.325  1.00  0.00     0.202 C 
BRANCH   2   3
ATOM      3  C   UNL A   1      36.833  23.701  25.312  1.00  0.00     0.261 C 
BRANCH   3   4
ATOM      4  O   UNL A   1      35.625  23.693  24.528  1.00  0.00    -0.460 OA
BRANCH   4   5
ATOM      5  C   UNL A   1      34.476  23.433  25.189  1.00  0.00     0.340 C 
ATOM      6  O   UNL A   1      34.042  24.026  26.161  1.00  0.00    -0.246 OA
BRANCH   5   7
ATOM      7  C   UNL A   1      33.682  22.473  24.391  1.00  0.00     0.083 A 
ATOM      8  C   UNL A   1      33.087  22.721  23.141  1.00  0.00     0.049 A 
ATOM      9  C   UNL A   1      32.368  21.639  22.577  1.00  0.00     0.026 A 
ATOM     10  C   UNL A   1      32.223  20.400  23.214  1.00  0.00     0.002 A 
ATOM     11  C   UNL A   1      33.536  21.220  25.034  1.00  0.00     0.018 A 
ATOM     12  C   UNL A   1      32.805  20.190  24.452  1.00  0.00     0.001 A 
BRANCH   8  13
ATOM     13  N   UNL A   1      33.170  23.846  22.341  1.00  0.00    -0.378 N 
ATOM     14  H   UNL A   1      33.970  23.888  21.768  1.00  0.00     0.161 HD
BRANCH  13  15
ATOM     15  C   UNL A   1      32.263  24.977  22.208  1.00  0.00     0.106 C 
ATOM     16  C   UNL A   1      32.593  25.777  20.949  1.00  0.00     0.036 C 
BRANCH  15  17
ATOM     17  C   UNL A   1      32.387  25.856  23.444  1.00  0.00    -0.023 A 
ATOM     18  C   UNL A   1      32.959  28.107  27.085  1.00  0.00     0.047 C 
ATOM     19  C   UNL A   1      32.756  27.373  25.797  1.00  0.00    -0.015 A 
ATOM     20  C   UNL A   1      33.721  27.394  24.785  1.00  0.00     0.007 A 
ATOM     21  C   UNL A   1      31.598  26.620  25.603  1.00  0.00     0.126 A 
ATOM     22  C   UNL A   1      33.534  26.648  23.618  1.00  0.00     0.006 A 
ATOM     23  C   UNL A   1      31.405  25.872  24.446  1.00  0.00     0.045 A 
ATOM     24  F   UNL A   1      30.652  26.598  26.553  1.00  0.00    -0.207 F 
ENDBRANCH  15  17
ENDBRANCH  13  15
ENDBRANCH   8  13
ENDBRANCH   5   7
ENDBRANCH   4   5
ENDBRANCH   3   4
ENDBRANCH   2   3
ENDBRANCH   1   2
BRANCH   1  25
ATOM     25  C   UNL A   1      39.526  21.132  25.885  1.00  0.00     0.202 C 
BRANCH  25  26
ATOM     26  C   UNL A   1      40.974  21.444  26.260  1.00  0.00     0.261 C 
BRANCH  26  27
ATOM     27  O   UNL A   1      41.082  22.360  27.345  1.00  0.00    -0.460 OA
BRANCH  27  28
ATOM     28  C   UNL A   1      41.648  23.526  26.962  1.00  0.00     0.338 C 
ATOM     29  O   UNL A   1      42.825  23.719  26.711  1.00  0.00    -0.246 OA
BRANCH  28  30
ATOM     30  C   UNL A   1      40.657  24.601  26.938  1.00  0.00     0.060 A 
ATOM     31  C   UNL A   1      40.952  25.716  26.144  1.00  0.00     0.016 A 
ATOM     32  C   UNL A   1      39.735  24.647  27.984  1.00  0.00     0.016 A 
ATOM     33  C   UNL A   1      40.566  26.966  26.585  1.00  0.00     0.010 A 
ATOM     34  C   UNL A   1      39.330  25.889  28.410  1.00  0.00     0.010 A 
ATOM     35  C   UNL A   1      39.888  27.025  27.798  1.00  0.00    -0.014 A 
BRANCH  35  36
ATOM     36  C   UNL A   1      40.073  28.147  28.702  1.00  0.00     0.031 A 
ATOM     37  C   UNL A   1      39.177  29.300  28.697  1.00  0.00     0.074 A 
ATOM     38  C   UNL A   1      41.047  28.012  29.631  1.00  0.00     0.049 A 
ATOM     39  N   UNL A   1      39.455  30.421  29.267  1.00  0.00    -0.248 NA
ATOM     40  C   UNL A   1      37.906  29.289  27.993  1.00  0.00     0.031 C 
ATOM     41  C   UNL A   1      41.182  28.728  30.890  1.00  0.00     0.029 A 
ATOM     42  N   UNL A   1      42.238  27.280  29.517  1.00  0.00    -0.354 N 
ATOM     43  C   UNL A   1      38.297  31.162  29.276  1.00  0.00     0.074 A 
ATOM     44  C   UNL A   1      37.404  30.468  28.370  1.00  0.00     0.031 C 
ATOM     45  C   UNL A   1      42.451  28.609  31.312  1.00  0.00     0.029 A 
ATOM     46  C   UNL A   1      43.209  27.992  30.234  1.00  0.00     0.049 A 
ATOM     47  H   UNL A   1      42.366  26.435  29.030  1.00  0.00     0.167 HD
ATOM     48  C   UNL A   1      38.173  32.176  30.181  1.00  0.00     0.034 A 
ATOM     49  C   UNL A   1      44.331  28.516  29.658  1.00  0.00     0.034 A 
ATOM     50  C   UNL A   1      39.421  32.390  30.925  1.00  0.00     0.049 A 
ATOM     51  C   UNL A   1      44.432  30.025  29.796  1.00  0.00     0.074 A 
ATOM     52  C   UNL A   1      39.865  32.018  32.184  1.00  0.00     0.029 A 
ATOM     53  N   UNL A   1      40.550  32.816  30.240  1.00  0.00    -0.354 N 
ATOM     54  N   UNL A   1      43.534  30.779  30.366  1.00  0.00    -0.248 NA
ATOM     55  C   UNL A   1      45.505  30.809  29.181  1.00  0.00     0.031 C 
ATOM     56  C   UNL A   1      41.273  32.220  32.245  1.00  0.00     0.029 A 
ATOM     57  C   UNL A   1      41.688  32.730  31.029  1.00  0.00     0.049 A 
ATOM     58  H   UNL A   1      40.545  33.139  29.310  1.00  0.00     0.167 HD
ATOM     59  C   UNL A   1      43.819  32.094  30.116  1.00  0.00     0.074 A 
ATOM     60  C   UNL A   1      45.076  32.063  29.391  1.00  0.00     0.031 C 
ATOM     61  C   UNL A   1      42.976  33.110  30.462  1.00  0.00     0.034 A 
BRANCH  48  62
ATOM     62  C   UNL A   1      36.826  32.750  30.580  1.00  0.00     0.023 A 
ATOM     63  C   UNL A   1      36.064  33.605  29.757  1.00  0.00     0.031 A 
ATOM     64  C   UNL A   1      36.201  32.372  31.786  1.00  0.00     0.131 A 
ATOM     65  C   UNL A   1      34.720  33.909  30.040  1.00  0.00     0.055 A 
ATOM     66  C   UNL A   1      34.885  32.733  32.107  1.00  0.00     0.041 A 
ATOM     67  F   UNL A   1      36.821  31.604  32.693  1.00  0.00    -0.206 F 
ATOM     68  C   UNL A   1      34.123  33.473  31.216  1.00  0.00     0.022 A 
BRANCH  65  69
ATOM     69  S   UNL A   1      33.684  34.771  28.820  1.00  0.00     0.124 S 
ATOM     70  O   UNL A   1      34.652  35.638  28.148  1.00  0.00    -0.237 OA
ATOM     71  O   UNL A   1      33.167  33.670  28.013  1.00  0.00    -0.237 OA
ATOM     72  O   UNL A   1      32.698  35.475  29.636  1.00  0.00    -0.744 OA
ENDBRANCH  65  69
ENDBRANCH  48  62
BRANCH  49  73
ATOM     73  C   UNL A   1      44.835  27.774  28.470  1.00  0.00     0.023 A 
ATOM     74  C   UNL A   1      45.930  26.902  28.582  1.00  0.00     0.031 A 
ATOM     75  C   UNL A   1      44.425  28.169  27.182  1.00  0.00     0.131 A 
ATOM     76  C   UNL A   1      46.625  26.507  27.428  1.00  0.00     0.055 A 
ATOM     77  C   UNL A   1      45.124  27.779  26.039  1.00  0.00     0.041 A 
ATOM     78  F   UNL A   1      43.387  29.010  27.029  1.00  0.00    -0.206 F 
ATOM     79  C   UNL A   1      46.244  26.961  26.162  1.00  0.00     0.022 A 
BRANCH  76  80
ATOM     80  S   UNL A   1      48.139  25.515  27.570  1.00  0.00     0.124 S 
ATOM     81  O   UNL A   1      47.698  24.229  27.041  1.00  0.00    -0.237 OA
ATOM     82  O   UNL A   1      49.091  26.246  26.737  1.00  0.00    -0.237 OA
ATOM     83  O   UNL A   1      48.425  25.556  29.000  1.00  0.00    -0.744 OA
ENDBRANCH  76  80
ENDBRANCH  49  73
BRANCH  61  84
ATOM     84  C   UNL A   1      43.293  34.568  30.256  1.00  0.00     0.023 A 
ATOM     85  C   UNL A   1      43.143  35.147  28.978  1.00  0.00     0.031 A 
ATOM     86  C   UNL A   1      43.606  35.447  31.307  1.00  0.00     0.131 A 
ATOM     87  C   UNL A   1      43.334  36.518  28.773  1.00  0.00     0.055 A 
ATOM     88  C   UNL A   1      43.844  36.810  31.095  1.00  0.00     0.041 A 
ATOM     89  F   UNL A   1      43.638  35.025  32.581  1.00  0.00    -0.206 F 
ATOM     90  C   UNL A   1      43.708  37.352  29.823  1.00  0.00     0.022 A 
BRANCH  87  91
ATOM     91  S   UNL A   1      43.016  37.269  27.153  1.00  0.00     0.124 S 
ATOM     92  O   UNL A   1      42.671  36.102  26.343  1.00  0.00    -0.237 OA
ATOM     93  O   UNL A   1      41.906  38.169  27.454  1.00  0.00    -0.237 OA
ATOM     94  O   UNL A   1      44.276  37.917  26.812  1.00  0.00    -0.744 OA
ENDBRANCH  87  91
ENDBRANCH  61  84
ENDBRANCH  35  36
ENDBRANCH  28  30
ENDBRANCH  27  28
ENDBRANCH  26  27
ENDBRANCH  25  26
ENDBRANCH   1  25
TORSDOF 20
ENDMDL
MODEL 2
REMARK VINA RESULT:     -11.2      4.132     10.296
REMARK SMILES Cc1ccc([C@@H](C)Nc2ccccc2C(=O)OCCOCCOC(=O)c2ccc(-c3c4nc(c(-c5cc(S(=O)(=O)[O-])ccc5F)c5ccc([nH]5)c(-c5cc(S(=O)(=O)[O-])ccc5F)c5nc(c(-c6cc(S(=O)(=O)[O-])ccc6F)c6ccc3[nH]6)C=C5)C=C4)cc2)cc1F
REMARK SMILES IDX 20 1 19 2 18 3 17 4 15 5 16 6 14 7 9 8 10 9 11 10 13 11
REMARK SMILES IDX 12 12 8 13 6 15 7 16 5 17 1 18 2 19 3 20 90 21 4 22 89 23
REMARK SMILES IDX 91 24 21 25 22 26 23 27 24 28 25 29 26 30 27 31 88 32 28 33
REMARK SMILES IDX 87 34 29 35 30 36 31 37 81 38 32 39 86 40 80 41 82 42 33 43
REMARK SMILES IDX 85 44 79 45 78 46 34 48 66 49 46 50 65 51 47 52 50 53 64 54
REMARK SMILES IDX 83 55 48 56 49 57 63 59 84 60 51 61 35 62 36 63 44 64 37 65
REMARK SMILES IDX 43 66 45 67 42 68 38 69 39 70 40 71 41 72 67 73 68 74 76 75
REMARK SMILES IDX 69 76 75 77 77 78 74 79 70 80 71 81 72 82 73 83 52 84 53 85
REMARK SMILES IDX 61 86 54 87 60 88 62 89 59 90 55 91 56 92 57 93 58 94
REMARK H PARENT 8 14 82 47 50 58
REMARK Flexibility Score: inf
ROOT
ATOM      1  O   UNL A   1      33.212  31.682  27.365  1.00  0.00    -0.374 OA
ENDROOT
BRANCH   1   2
ATOM      2  C   UNL A   1      32.231  30.849  26.732  1.00  0.00     0.202 C 
BRANCH   2   3
ATOM      3  C   UNL A   1      32.148  29.417  27.258  1.00  0.00     0.261 C 
BRANCH   3   4
ATOM      4  O   UNL A   1      32.392  28.506  26.171  1.00  0.00    -0.460 OA
BRANCH   4   5
ATOM      5  C   UNL A   1      31.721  27.334  26.199  1.00  0.00     0.340 C 
ATOM      6  O   UNL A   1      31.101  26.871  27.141  1.00  0.00    -0.246 OA
BRANCH   5   7
ATOM      7  C   UNL A   1      31.631  26.811  24.819  1.00  0.00     0.083 A 
ATOM      8  C   UNL A   1      31.829  25.477  24.420  1.00  0.00     0.049 A 
ATOM      9  C   UNL A   1      31.694  25.224  23.032  1.00  0.00     0.026 A 
ATOM     10  C   UNL A   1      31.408  26.225  22.095  1.00  0.00     0.002 A 
ATOM     11  C   UNL A   1      31.341  27.822  23.871  1.00  0.00     0.018 A 
ATOM     12  C   UNL A   1      31.236  27.532  22.515  1.00  0.00     0.001 A 
BRANCH   8  13
ATOM     13  N   UNL A   1      32.057  24.356  25.197  1.00  0.00    -0.378 N 
ATOM     14  H   UNL A   1      31.257  23.814  25.386  1.00  0.00     0.161 HD
BRANCH  13  15
ATOM     15  C   UNL A   1      33.290  23.848  25.778  1.00  0.00     0.106 C 
ATOM     16  C   UNL A   1      34.474  24.716  25.356  1.00  0.00     0.036 C 
BRANCH  15  17
ATOM     17  C   UNL A   1      33.496  22.411  25.319  1.00  0.00    -0.023 A 
ATOM     18  C   UNL A   1      33.962  18.231  24.336  1.00  0.00     0.047 C 
ATOM     19  C   UNL A   1      33.788  19.689  24.626  1.00  0.00    -0.015 A 
ATOM     20  C   UNL A   1      32.529  20.296  24.589  1.00  0.00     0.007 A 
ATOM     21  C   UNL A   1      34.895  20.463  24.975  1.00  0.00     0.126 A 
ATOM     22  C   UNL A   1      32.386  21.645  24.925  1.00  0.00     0.006 A 
ATOM     23  C   UNL A   1      34.762  21.806  25.314  1.00  0.00     0.045 A 
ATOM     24  F   UNL A   1      36.114  19.907  25.001  1.00  0.00    -0.207 F 
ENDBRANCH  15  17
ENDBRANCH  13  15
ENDBRANCH   8  13
ENDBRANCH   5   7
ENDBRANCH   4   5
ENDBRANCH   3   4
ENDBRANCH   2   3
ENDBRANCH   1   2
BRANCH   1  25
ATOM     25  C   UNL A   1      34.505  31.147  27.636  1.00  0.00     0.202 C 
BRANCH  25  26
ATOM     26  C   UNL A   1      35.602  32.118  28.074  1.00  0.00     0.261 C 
BRANCH  26  27
ATOM     27  O   UNL A   1      36.274  31.698  29.257  1.00  0.00    -0.460 OA
BRANCH  27  28
ATOM     28  C   UNL A   1      37.568  31.388  29.015  1.00  0.00     0.338 C 
ATOM     29  O   UNL A   1      38.530  32.127  29.131  1.00  0.00    -0.246 OA
BRANCH  28  30
ATOM     30  C   UNL A   1      37.688  30.018  28.517  1.00  0.00     0.060 A 
ATOM     31  C   UNL A   1      37.412  28.989  29.425  1.00  0.00     0.016 A 
ATOM     32  C   UNL A   1      38.448  29.818  27.365  1.00  0.00     0.016 A 
ATOM     33  C   UNL A   1      38.154  27.827  29.356  1.00  0.00     0.010 A 
ATOM     34  C   UNL A   1      39.169  28.652  27.281  1.00  0.00     0.010 A 
ATOM     35  C   UNL A   1      39.126  27.756  28.364  1.00  0.00    -0.014 A 
BRANCH  35  36
ATOM     36  C   UNL A   1      40.376  27.053  28.593  1.00  0.00     0.031 A 
ATOM     37  C   UNL A   1      40.501  25.612  28.388  1.00  0.00     0.074 A 
ATOM     38  C   UNL A   1      41.450  27.822  28.888  1.00  0.00     0.049 A 
ATOM     39  N   UNL A   1      41.484  24.912  28.838  1.00  0.00    -0.248 NA
ATOM     40  C   UNL A   1      39.484  24.838  27.697  1.00  0.00     0.031 C 
ATOM     41  C   UNL A   1      42.856  27.480  28.745  1.00  0.00     0.029 A 
ATOM     42  N   UNL A   1      41.457  29.053  29.559  1.00  0.00    -0.354 N 
ATOM     43  C   UNL A   1      41.397  23.675  28.244  1.00  0.00     0.074 A 
ATOM     44  C   UNL A   1      40.078  23.642  27.645  1.00  0.00     0.031 C 
ATOM     45  C   UNL A   1      43.577  28.320  29.504  1.00  0.00     0.029 A 
ATOM     46  C   UNL A   1      42.639  29.086  30.311  1.00  0.00     0.049 A 
ATOM     47  H   UNL A   1      40.769  29.755  29.511  1.00  0.00     0.167 HD
ATOM     48  C   UNL A   1      42.515  22.895  28.182  1.00  0.00     0.034 A 
ATOM     49  C   UNL A   1      42.657  29.171  31.674  1.00  0.00     0.034 A 
ATOM     50  C   UNL A   1      43.631  23.494  28.926  1.00  0.00     0.049 A 
ATOM     51  C   UNL A   1      43.340  27.990  32.343  1.00  0.00     0.074 A 
ATOM     52  C   UNL A   1      44.751  24.223  28.555  1.00  0.00     0.029 A 
ATOM     53  N   UNL A   1      43.521  23.649  30.300  1.00  0.00    -0.354 N 
ATOM     54  N   UNL A   1      43.833  26.963  31.710  1.00  0.00    -0.248 NA
ATOM     55  C   UNL A   1      43.400  27.827  33.797  1.00  0.00     0.031 C 
ATOM     56  C   UNL A   1      45.307  24.820  29.723  1.00  0.00     0.029 A 
ATOM     57  C   UNL A   1      44.537  24.445  30.807  1.00  0.00     0.049 A 
ATOM     58  H   UNL A   1      42.810  23.244  30.848  1.00  0.00     0.167 HD
ATOM     59  C   UNL A   1      44.161  25.987  32.612  1.00  0.00     0.074 A 
ATOM     60  C   UNL A   1      43.894  26.584  33.908  1.00  0.00     0.031 C 
ATOM     61  C   UNL A   1      44.565  24.739  32.234  1.00  0.00     0.034 A 
BRANCH  48  62
ATOM     62  C   UNL A   1      42.656  21.752  27.195  1.00  0.00     0.023 A 
ATOM     63  C   UNL A   1      43.668  21.683  26.215  1.00  0.00     0.031 A 
ATOM     64  C   UNL A   1      41.819  20.619  27.267  1.00  0.00     0.131 A 
ATOM     65  C   UNL A   1      43.928  20.504  25.493  1.00  0.00     0.055 A 
ATOM     66  C   UNL A   1      42.030  19.467  26.496  1.00  0.00     0.041 A 
ATOM     67  F   UNL A   1      40.782  20.559  28.114  1.00  0.00    -0.206 F 
ATOM     68  C   UNL A   1      43.111  19.389  25.631  1.00  0.00     0.022 A 
BRANCH  65  69
ATOM     69  S   UNL A   1      45.412  20.357  24.454  1.00  0.00     0.124 S 
ATOM     70  O   UNL A   1      44.898  20.702  23.128  1.00  0.00    -0.237 OA
ATOM     71  O   UNL A   1      46.311  21.341  25.050  1.00  0.00    -0.237 OA
ATOM     72  O   UNL A   1      45.810  18.961  24.609  1.00  0.00    -0.744 OA
ENDBRANCH  65  69
ENDBRANCH  48  62
BRANCH  49  73
ATOM     73  C   UNL A   1      41.501  29.888  32.276  1.00  0.00     0.023 A 
ATOM     74  C   UNL A   1      41.645  31.197  32.764  1.00  0.00     0.031 A 
ATOM     75  C   UNL A   1      40.350  29.163  32.640  1.00  0.00     0.131 A 
ATOM     76  C   UNL A   1      40.688  31.718  33.650  1.00  0.00     0.055 A 
ATOM     77  C   UNL A   1      39.405  29.683  33.526  1.00  0.00     0.041 A 
ATOM     78  F   UNL A   1      40.176  27.903  32.203  1.00  0.00    -0.206 F 
ATOM     79  C   UNL A   1      39.585  30.959  34.052  1.00  0.00     0.022 A 
BRANCH  76  80
ATOM     80  S   UNL A   1      40.946  33.343  34.416  1.00  0.00     0.124 S 
ATOM     81  O   UNL A   1      40.161  34.208  33.542  1.00  0.00    -0.237 OA
ATOM     82  O   UNL A   1      40.411  33.159  35.764  1.00  0.00    -0.237 OA
ATOM     83  O   UNL A   1      42.393  33.510  34.353  1.00  0.00    -0.744 OA
ENDBRANCH  76  80
ENDBRANCH  49  73
BRANCH  61  84
ATOM     84  C   UNL A   1      44.991  23.668  33.204  1.00  0.00     0.023 A 
ATOM     85  C   UNL A   1      46.316  23.645  33.690  1.00  0.00     0.031 A 
ATOM     86  C   UNL A   1      44.099  22.748  33.780  1.00  0.00     0.131 A 
ATOM     87  C   UNL A   1      46.717  22.725  34.665  1.00  0.00     0.055 A 
ATOM     88  C   UNL A   1      44.510  21.796  34.719  1.00  0.00     0.041 A 
ATOM     89  F   UNL A   1      42.788  22.774  33.490  1.00  0.00    -0.206 F 
ATOM     90  C   UNL A   1      45.826  21.781  35.168  1.00  0.00     0.022 A 
BRANCH  87  91
ATOM     91  S   UNL A   1      48.387  22.787  35.371  1.00  0.00     0.124 S 
ATOM     92  O   UNL A   1      49.182  23.222  34.223  1.00  0.00    -0.237 OA
ATOM     93  O   UNL A   1      48.227  23.780  36.429  1.00  0.00    -0.237 OA
ATOM     94  O   UNL A   1      48.630  21.422  35.819  1.00  0.00    -0.744 OA
ENDBRANCH  87  91
ENDBRANCH  61  84
ENDBRANCH  35  36
ENDBRANCH  28  30
ENDBRANCH  27  28
ENDBRANCH  26  27
ENDBRANCH  25  26
ENDBRANCH   1  25
TORSDOF 20
ENDMDL
MODEL 3
REMARK VINA RESULT:     -11.2      1.360      3.152
REMARK SMILES Cc1ccc([C@@H](C)Nc2ccccc2C(=O)OCCOCCOC(=O)c2ccc(-c3c4nc(c(-c5cc(S(=O)(=O)[O-])ccc5F)c5ccc([nH]5)c(-c5cc(S(=O)(=O)[O-])ccc5F)c5nc(c(-c6cc(S(=O)(=O)[O-])ccc6F)c6ccc3[nH]6)C=C5)C=C4)cc2)cc1F
REMARK SMILES IDX 20 1 19 2 18 3 17 4 15 5 16 6 14 7 9 8 10 9 11 10 13 11
REMARK SMILES IDX 12 12 8 13 6 15 7 16 5 17 1 18 2 19 3 20 90 21 4 22 89 23
REMARK SMILES IDX 91 24 21 25 22 26 23 27 24 28 25 29 26 30 27 31 88 32 28 33
REMARK SMILES IDX 87 34 29 35 30 36 31 37 81 38 32 39 86 40 80 41 82 42 33 43
REMARK SMILES IDX 85 44 79 45 78 46 34 48 66 49 46 50 65 51 47 52 50 53 64 54
REMARK SMILES IDX 83 55 48 56 49 57 63 59 84 60 51 61 35 62 36 63 44 64 37 65
REMARK SMILES IDX 43 66 45 67 42 68 38 69 39 70 40 71 41 72 67 73 68 74 76 75
REMARK SMILES IDX 69 76 75 77 77 78 74 79 70 80 71 81 72 82 73 83 52 84 53 85
REMARK SMILES IDX 61 86 54 87 60 88 62 89 59 90 55 91 56 92 57 93 58 94
REMARK H PARENT 8 14 82 47 50 58
REMARK Flexibility Score: inf
ROOT
ATOM      1  O   UNL A   1      38.036  21.624  25.054  1.00  0.00    -0.374 OA
ENDROOT
BRANCH   1   2
ATOM      2  C   UNL A   1      36.764  22.215  25.358  1.00  0.00     0.202 C 
BRANCH   2   3
ATOM      3  C   UNL A   1      36.660  23.717  25.100  1.00  0.00     0.261 C 
BRANCH   3   4
ATOM      4  O   UNL A   1      35.269  24.081  25.020  1.00  0.00    -0.460 OA
BRANCH   4   5
ATOM      5  C   UNL A   1      34.738  24.176  23.782  1.00  0.00     0.340 C 
ATOM      6  O   UNL A   1      35.194  23.708  22.753  1.00  0.00    -0.246 OA
BRANCH   5   7
ATOM      7  C   UNL A   1      33.367  24.719  23.900  1.00  0.00     0.083 A 
ATOM      8  C   UNL A   1      32.173  23.973  23.902  1.00  0.00     0.049 A 
ATOM      9  C   UNL A   1      30.979  24.726  24.021  1.00  0.00     0.026 A 
ATOM     10  C   UNL A   1      30.959  26.124  24.106  1.00  0.00     0.002 A 
ATOM     11  C   UNL A   1      33.346  26.132  23.987  1.00  0.00     0.018 A 
ATOM     12  C   UNL A   1      32.149  26.832  24.084  1.00  0.00     0.001 A 
BRANCH   8  13
ATOM     13  N   UNL A   1      31.999  22.602  23.887  1.00  0.00    -0.378 N 
ATOM     14  H   UNL A   1      31.980  22.197  22.989  1.00  0.00     0.161 HD
BRANCH  13  15
ATOM     15  C   UNL A   1      31.842  21.660  24.985  1.00  0.00     0.106 C 
ATOM     16  C   UNL A   1      32.649  22.118  26.198  1.00  0.00     0.036 C 
BRANCH  15  17
ATOM     17  C   UNL A   1      32.308  20.286  24.526  1.00  0.00    -0.023 A 
ATOM     18  C   UNL A   1      33.956  16.523  23.192  1.00  0.00     0.047 C 
ATOM     19  C   UNL A   1      33.351  17.800  23.685  1.00  0.00    -0.015 A 
ATOM     20  C   UNL A   1      33.515  18.223  25.007  1.00  0.00     0.007 A 
ATOM     21  C   UNL A   1      32.633  18.611  22.806  1.00  0.00     0.126 A 
ATOM     22  C   UNL A   1      32.991  19.451  25.424  1.00  0.00     0.006 A 
ATOM     23  C   UNL A   1      32.112  19.835  23.211  1.00  0.00     0.045 A 
ATOM     24  F   UNL A   1      32.449  18.217  21.538  1.00  0.00    -0.207 F 
ENDBRANCH  15  17
ENDBRANCH  13  15
ENDBRANCH   8  13
ENDBRANCH   5   7
ENDBRANCH   4   5
ENDBRANCH   3   4
ENDBRANCH   2   3
ENDBRANCH   1   2
BRANCH   1  25
ATOM     25  C   UNL A   1      38.939  21.338  26.119  1.00  0.00     0.202 C 
BRANCH  25  26
ATOM     26  C   UNL A   1      40.394  21.776  25.956  1.00  0.00     0.261 C 
BRANCH  26  27
ATOM     27  O   UNL A   1      40.947  22.319  27.151  1.00  0.00    -0.460 OA
BRANCH  27  28
ATOM     28  C   UNL A   1      41.536  23.516  26.933  1.00  0.00     0.338 C 
ATOM     29  O   UNL A   1      42.727  23.728  26.786  1.00  0.00    -0.246 OA
BRANCH  28  30
ATOM     30  C   UNL A   1      40.546  24.592  26.951  1.00  0.00     0.060 A 
ATOM     31  C   UNL A   1      40.811  25.709  26.149  1.00  0.00     0.016 A 
ATOM     32  C   UNL A   1      39.666  24.636  28.033  1.00  0.00     0.016 A 
ATOM     33  C   UNL A   1      40.444  26.958  26.610  1.00  0.00     0.010 A 
ATOM     34  C   UNL A   1      39.280  25.877  28.479  1.00  0.00     0.010 A 
ATOM     35  C   UNL A   1      39.815  27.014  27.849  1.00  0.00    -0.014 A 
BRANCH  35  36
ATOM     36  C   UNL A   1      40.037  28.132  28.749  1.00  0.00     0.031 A 
ATOM     37  C   UNL A   1      39.142  29.286  28.784  1.00  0.00     0.074 A 
ATOM     38  C   UNL A   1      41.048  27.993  29.637  1.00  0.00     0.049 A 
ATOM     39  N   UNL A   1      39.444  30.405  29.346  1.00  0.00    -0.248 NA
ATOM     40  C   UNL A   1      37.844  29.278  28.131  1.00  0.00     0.031 C 
ATOM     41  C   UNL A   1      41.234  28.705  30.892  1.00  0.00     0.029 A 
ATOM     42  N   UNL A   1      42.232  27.262  29.473  1.00  0.00    -0.354 N 
ATOM     43  C   UNL A   1      38.288  31.147  29.404  1.00  0.00     0.074 A 
ATOM     44  C   UNL A   1      37.359  30.457  28.532  1.00  0.00     0.031 C 
ATOM     45  C   UNL A   1      42.518  28.584  31.262  1.00  0.00     0.029 A 
ATOM     46  C   UNL A   1      43.232  27.970  30.152  1.00  0.00     0.049 A 
ATOM     47  H   UNL A   1      42.340  26.417  28.978  1.00  0.00     0.167 HD
ATOM     48  C   UNL A   1      38.201  32.157  30.317  1.00  0.00     0.034 A 
ATOM     49  C   UNL A   1      44.330  28.495  29.534  1.00  0.00     0.034 A 
ATOM     50  C   UNL A   1      39.478  32.368  31.011  1.00  0.00     0.049 A 
ATOM     51  C   UNL A   1      44.438  30.004  29.673  1.00  0.00     0.074 A 
ATOM     52  C   UNL A   1      39.972  31.991  32.250  1.00  0.00     0.029 A 
ATOM     53  N   UNL A   1      40.579  32.795  30.283  1.00  0.00    -0.354 N 
ATOM     54  N   UNL A   1      43.565  30.757  30.281  1.00  0.00    -0.248 NA
ATOM     55  C   UNL A   1      45.486  30.789  29.018  1.00  0.00     0.031 C 
ATOM     56  C   UNL A   1      41.382  32.192  32.254  1.00  0.00     0.029 A 
ATOM     57  C   UNL A   1      41.748  32.706  31.024  1.00  0.00     0.049 A 
ATOM     58  H   UNL A   1      40.537  33.122  29.355  1.00  0.00     0.167 HD
ATOM     59  C   UNL A   1      43.840  32.072  30.025  1.00  0.00     0.074 A 
ATOM     60  C   UNL A   1      45.067  32.043  29.250  1.00  0.00     0.031 C 
ATOM     61  C   UNL A   1      43.012  33.087  30.408  1.00  0.00     0.034 A 
BRANCH  48  62
ATOM     62  C   UNL A   1      36.872  32.730  30.771  1.00  0.00     0.023 A 
ATOM     63  C   UNL A   1      36.156  33.712  30.056  1.00  0.00     0.031 A 
ATOM     64  C   UNL A   1      36.215  32.230  31.915  1.00  0.00     0.131 A 
ATOM     65  C   UNL A   1      34.821  34.033  30.361  1.00  0.00     0.055 A 
ATOM     66  C   UNL A   1      34.909  32.601  32.265  1.00  0.00     0.041 A 
ATOM     67  F   UNL A   1      36.791  31.329  32.723  1.00  0.00    -0.206 F 
ATOM     68  C   UNL A   1      34.189  33.477  31.467  1.00  0.00     0.022 A 
BRANCH  65  69
ATOM     69  S   UNL A   1      33.838  35.083  29.251  1.00  0.00     0.124 S 
ATOM     70  O   UNL A   1      32.681  34.235  28.964  1.00  0.00    -0.237 OA
ATOM     71  O   UNL A   1      33.564  36.250  30.084  1.00  0.00    -0.237 OA
ATOM     72  O   UNL A   1      34.724  35.313  28.112  1.00  0.00    -0.744 OA
ENDBRANCH  65  69
ENDBRANCH  48  62
BRANCH  49  73
ATOM     73  C   UNL A   1      44.785  27.757  28.324  1.00  0.00     0.023 A 
ATOM     74  C   UNL A   1      45.878  26.877  28.390  1.00  0.00     0.031 A 
ATOM     75  C   UNL A   1      44.331  28.162  27.054  1.00  0.00     0.131 A 
ATOM     76  C   UNL A   1      46.528  26.485  27.210  1.00  0.00     0.055 A 
ATOM     77  C   UNL A   1      44.985  27.774  25.884  1.00  0.00     0.041 A 
ATOM     78  F   UNL A   1      43.294  29.011  26.944  1.00  0.00    -0.206 F 
ATOM     79  C   UNL A   1      46.103  26.949  25.961  1.00  0.00     0.022 A 
BRANCH  76  80
ATOM     80  S   UNL A   1      48.039  25.483  27.291  1.00  0.00     0.124 S 
ATOM     81  O   UNL A   1      48.504  25.761  28.645  1.00  0.00    -0.237 OA
ATOM     82  O   UNL A   1      47.546  24.126  27.062  1.00  0.00    -0.237 OA
ATOM     83  O   UNL A   1      48.852  26.026  26.209  1.00  0.00    -0.744 OA
ENDBRANCH  76  80
ENDBRANCH  49  73
BRANCH  61  84
ATOM     84  C   UNL A   1      43.322  34.546  30.194  1.00  0.00     0.023 A 
ATOM     85  C   UNL A   1      43.158  35.120  28.915  1.00  0.00     0.031 A 
ATOM     86  C   UNL A   1      43.641  35.430  31.239  1.00  0.00     0.131 A 
ATOM     87  C   UNL A   1      43.342  36.491  28.704  1.00  0.00     0.055 A 
ATOM     88  C   UNL A   1      43.873  36.792  31.021  1.00  0.00     0.041 A 
ATOM     89  F   UNL A   1      43.687  35.012  32.514  1.00  0.00    -0.206 F 
ATOM     90  C   UNL A   1      43.722  37.330  29.748  1.00  0.00     0.022 A 
BRANCH  87  91
ATOM     91  S   UNL A   1      43.006  37.236  27.085  1.00  0.00     0.124 S 
ATOM     92  O   UNL A   1      41.839  38.069  27.374  1.00  0.00    -0.237 OA
ATOM     93  O   UNL A   1      44.244  37.967  26.830  1.00  0.00    -0.237 OA
ATOM     94  O   UNL A   1      42.758  36.093  26.217  1.00  0.00    -0.744 OA
ENDBRANCH  87  91
ENDBRANCH  61  84
ENDBRANCH  35  36
ENDBRANCH  28  30
ENDBRANCH  27  28
ENDBRANCH  26  27
ENDBRANCH  25  26
ENDBRANCH   1  25
TORSDOF 20
ENDMDL
