MODEL 1
REMARK VINA RESULT:     -10.8      0.000      0.000
REMARK SMILES CC[C@]1(C(=O)OCCOCCOC(=O)c2ccc(-c3c4nc(c(-c5cc(S(=O)(=O)[O-])ccc5F)c5ccc([nH]5)c(-c5cc(S(=O)(=O)[O-])ccc5F)c5nc(c(-c6cc(S(=O)(=O)[O-])ccc6F)c6ccc3[nH]6)C=C5)C=C4)cc2)CCN(C(=O)[C@]2(C)CCCO2)C1
REMARK SMILES IDX 10 1 9 2 8 3 7 4 6 5 4 6 5 7 3 8 78 9 89 10 79 11 80 12 2 13
REMARK SMILES IDX 1 14 81 15 82 16 83 17 85 18 88 19 84 20 86 21 87 22 11 23
REMARK SMILES IDX 12 24 13 25 14 26 15 27 16 28 77 29 17 30 76 31 18 32 19 33
REMARK SMILES IDX 20 34 70 35 21 36 75 37 69 38 71 39 22 40 74 41 68 42 67 43
REMARK SMILES IDX 23 45 55 46 35 47 54 48 36 49 39 50 53 51 72 52 37 53 38 54
REMARK SMILES IDX 52 56 73 57 40 58 24 59 25 60 33 61 26 62 32 63 34 64 31 65
REMARK SMILES IDX 27 66 28 67 29 68 30 69 56 70 57 71 65 72 58 73 64 74 66 75
REMARK SMILES IDX 63 76 59 77 60 78 61 79 62 80 41 81 42 82 50 83 43 84 49 85
REMARK SMILES IDX 51 86 48 87 44 88 45 89 46 90 47 91
REMARK H PARENT 71 44 39 55
REMARK Flexibility Score: inf
ROOT
ATOM      1  C   UNL A   1      35.946  21.082  24.628  1.00  0.00     0.202 C 
ENDROOT
BRANCH   1   2
ATOM      2  O   UNL A   1      34.873  21.080  25.565  1.00  0.00    -0.374 OA
BRANCH   2   3
ATOM      3  C   UNL A   1      33.633  20.497  25.169  1.00  0.00     0.202 C 
BRANCH   3   4
ATOM      4  C   UNL A   1      32.844  21.170  24.044  1.00  0.00     0.261 C 
BRANCH   4   5
ATOM      5  O   UNL A   1      32.667  22.575  24.278  1.00  0.00    -0.463 OA
BRANCH   5   6
ATOM      6  C   UNL A   1      33.119  23.385  23.288  1.00  0.00     0.314 C 
ATOM      7  O   UNL A   1      34.139  23.188  22.636  1.00  0.00    -0.252 OA
BRANCH   6   8
ATOM      8  C   UNL A   1      32.234  24.606  23.068  1.00  0.00     0.087 C 
ATOM      9  C   UNL A   1      30.707  24.436  23.252  1.00  0.00     0.042 C 
ATOM     10  C   UNL A   1      32.592  25.582  24.217  1.00  0.00     0.138 C 
ATOM     11  C   UNL A   1      30.287  25.809  23.745  1.00  0.00     0.121 C 
ATOM     12  N   UNL A   1      31.314  26.091  24.710  1.00  0.00    -0.339 N 
BRANCH   8  13
ATOM     13  C   UNL A   1      32.533  25.186  21.657  1.00  0.00     0.017 C 
ATOM     14  C   UNL A   1      33.196  26.568  21.676  1.00  0.00     0.005 C 
ENDBRANCH   8  13
BRANCH  12  15
ATOM     15  C   UNL A   1      31.184  26.581  25.996  1.00  0.00     0.254 C 
ATOM     16  O   UNL A   1      30.418  26.016  26.785  1.00  0.00    -0.272 OA
BRANCH  15  17
ATOM     17  C   UNL A   1      31.960  27.874  26.430  1.00  0.00     0.144 C 
ATOM     18  C   UNL A   1      31.847  29.011  25.399  1.00  0.00     0.048 C 
ATOM     19  O   UNL A   1      33.362  27.640  26.646  1.00  0.00    -0.365 OA
ATOM     20  C   UNL A   1      31.364  28.351  27.767  1.00  0.00     0.053 C 
ATOM     21  C   UNL A   1      33.261  29.290  24.947  1.00  0.00     0.032 C 
ATOM     22  C   UNL A   1      34.111  28.705  26.052  1.00  0.00     0.162 C 
ENDBRANCH  15  17
ENDBRANCH  12  15
ENDBRANCH   6   8
ENDBRANCH   5   6
ENDBRANCH   4   5
ENDBRANCH   3   4
ENDBRANCH   2   3
ENDBRANCH   1   2
BRANCH   1  23
ATOM     23  C   UNL A   1      37.369  20.775  25.116  1.00  0.00     0.261 C 
BRANCH  23  24
ATOM     24  O   UNL A   1      38.126  21.943  25.462  1.00  0.00    -0.460 OA
BRANCH  24  25
ATOM     25  C   UNL A   1      39.278  21.684  26.130  1.00  0.00     0.338 C 
ATOM     26  O   UNL A   1      39.965  20.674  26.047  1.00  0.00    -0.246 OA
BRANCH  25  27
ATOM     27  C   UNL A   1      39.716  22.894  26.844  1.00  0.00     0.060 A 
ATOM     28  C   UNL A   1      39.121  24.116  26.501  1.00  0.00     0.016 A 
ATOM     29  C   UNL A   1      40.743  22.837  27.786  1.00  0.00     0.016 A 
ATOM     30  C   UNL A   1      39.578  25.300  27.076  1.00  0.00     0.010 A 
ATOM     31  C   UNL A   1      41.211  24.027  28.347  1.00  0.00     0.010 A 
ATOM     32  C   UNL A   1      40.653  25.263  27.968  1.00  0.00    -0.014 A 
BRANCH  32  33
ATOM     33  C   UNL A   1      41.344  26.514  28.360  1.00  0.00     0.031 A 
ATOM     34  C   UNL A   1      40.533  27.588  29.027  1.00  0.00     0.074 A 
ATOM     35  C   UNL A   1      42.650  26.697  28.104  1.00  0.00     0.049 A 
ATOM     36  N   UNL A   1      40.850  28.826  29.296  1.00  0.00    -0.248 NA
ATOM     37  C   UNL A   1      39.169  27.211  29.432  1.00  0.00     0.031 C 
ATOM     38  C   UNL A   1      43.546  25.697  27.527  1.00  0.00     0.029 A 
ATOM     39  N   UNL A   1      43.443  27.803  28.277  1.00  0.00    -0.354 N 
ATOM     40  C   UNL A   1      39.719  29.386  29.880  1.00  0.00     0.074 A 
ATOM     41  C   UNL A   1      38.700  28.358  29.898  1.00  0.00     0.031 C 
ATOM     42  C   UNL A   1      44.764  26.246  27.369  1.00  0.00     0.029 A 
ATOM     43  C   UNL A   1      44.716  27.648  27.779  1.00  0.00     0.049 A 
ATOM     44  H   UNL A   1      43.131  28.628  28.714  1.00  0.00     0.167 HD
ATOM     45  C   UNL A   1      39.551  30.644  30.354  1.00  0.00     0.034 A 
ATOM     46  C   UNL A   1      45.708  28.550  27.630  1.00  0.00     0.034 A 
ATOM     47  C   UNL A   1      40.582  31.651  30.313  1.00  0.00     0.049 A 
ATOM     48  C   UNL A   1      45.469  29.975  28.074  1.00  0.00     0.074 A 
ATOM     49  C   UNL A   1      40.530  32.958  30.762  1.00  0.00     0.029 A 
ATOM     50  N   UNL A   1      41.852  31.465  29.779  1.00  0.00    -0.354 N 
ATOM     51  N   UNL A   1      44.390  30.507  28.603  1.00  0.00    -0.248 NA
ATOM     52  C   UNL A   1      46.580  30.921  27.906  1.00  0.00     0.031 C 
ATOM     53  C   UNL A   1      41.736  33.583  30.430  1.00  0.00     0.029 A 
ATOM     54  C   UNL A   1      42.580  32.641  29.861  1.00  0.00     0.049 A 
ATOM     55  H   UNL A   1      42.186  30.621  29.399  1.00  0.00     0.167 HD
ATOM     56  C   UNL A   1      44.712  31.835  28.874  1.00  0.00     0.074 A 
ATOM     57  C   UNL A   1      46.082  32.024  28.445  1.00  0.00     0.031 C 
ATOM     58  C   UNL A   1      43.951  32.807  29.439  1.00  0.00     0.034 A 
BRANCH  45  59
ATOM     59  C   UNL A   1      38.189  31.010  30.891  1.00  0.00     0.023 A 
ATOM     60  C   UNL A   1      37.209  31.618  30.087  1.00  0.00     0.031 A 
ATOM     61  C   UNL A   1      37.877  30.778  32.243  1.00  0.00     0.131 A 
ATOM     62  C   UNL A   1      35.999  32.041  30.657  1.00  0.00     0.055 A 
ATOM     63  C   UNL A   1      36.636  31.121  32.783  1.00  0.00     0.041 A 
ATOM     64  F   UNL A   1      38.780  30.226  33.069  1.00  0.00    -0.206 F 
ATOM     65  C   UNL A   1      35.694  31.770  31.993  1.00  0.00     0.022 A 
BRANCH  62  66
ATOM     66  S   UNL A   1      34.894  33.086  29.668  1.00  0.00     0.124 S 
ATOM     67  O   UNL A   1      34.195  33.841  30.706  1.00  0.00    -0.237 OA
ATOM     68  O   UNL A   1      35.829  33.846  28.847  1.00  0.00    -0.237 OA
ATOM     69  O   UNL A   1      34.067  32.123  28.945  1.00  0.00    -0.744 OA
ENDBRANCH  62  66
ENDBRANCH  45  59
BRANCH  46  70
ATOM     70  C   UNL A   1      46.998  28.157  26.993  1.00  0.00     0.023 A 
ATOM     71  C   UNL A   1      47.137  28.129  25.597  1.00  0.00     0.031 A 
ATOM     72  C   UNL A   1      48.098  27.751  27.772  1.00  0.00     0.131 A 
ATOM     73  C   UNL A   1      48.327  27.658  25.021  1.00  0.00     0.055 A 
ATOM     74  C   UNL A   1      49.300  27.341  27.194  1.00  0.00     0.041 A 
ATOM     75  F   UNL A   1      48.019  27.752  29.112  1.00  0.00    -0.206 F 
ATOM     76  C   UNL A   1      49.416  27.280  25.809  1.00  0.00     0.022 A 
BRANCH  73  77
ATOM     77  S   UNL A   1      48.395  27.450  23.220  1.00  0.00     0.124 S 
ATOM     78  O   UNL A   1      47.160  28.104  22.802  1.00  0.00    -0.237 OA
ATOM     79  O   UNL A   1      49.634  28.143  22.883  1.00  0.00    -0.237 OA
ATOM     80  O   UNL A   1      48.426  26.001  23.046  1.00  0.00    -0.744 OA
ENDBRANCH  73  77
ENDBRANCH  46  70
BRANCH  58  81
ATOM     81  C   UNL A   1      44.607  34.139  29.713  1.00  0.00     0.023 A 
ATOM     82  C   UNL A   1      44.525  35.217  28.817  1.00  0.00     0.031 A 
ATOM     83  C   UNL A   1      45.304  34.333  30.921  1.00  0.00     0.131 A 
ATOM     84  C   UNL A   1      45.160  36.430  29.126  1.00  0.00     0.055 A 
ATOM     85  C   UNL A   1      45.881  35.558  31.250  1.00  0.00     0.041 A 
ATOM     86  F   UNL A   1      45.415  33.335  31.813  1.00  0.00    -0.206 F 
ATOM     87  C   UNL A   1      45.820  36.614  30.345  1.00  0.00     0.022 A 
BRANCH  84  88
ATOM     88  S   UNL A   1      45.177  37.752  27.883  1.00  0.00     0.124 S 
ATOM     89  O   UNL A   1      46.175  38.666  28.426  1.00  0.00    -0.237 OA
ATOM     90  O   UNL A   1      45.561  37.035  26.671  1.00  0.00    -0.237 OA
ATOM     91  O   UNL A   1      43.804  38.253  27.896  1.00  0.00    -0.744 OA
ENDBRANCH  84  88
ENDBRANCH  58  81
ENDBRANCH  32  33
ENDBRANCH  25  27
ENDBRANCH  24  25
ENDBRANCH  23  24
ENDBRANCH   1  23
TORSDOF 20
ENDMDL
MODEL 2
REMARK VINA RESULT:     -10.7      1.737      2.175
REMARK SMILES CC[C@]1(C(=O)OCCOCCOC(=O)c2ccc(-c3c4nc(c(-c5cc(S(=O)(=O)[O-])ccc5F)c5ccc([nH]5)c(-c5cc(S(=O)(=O)[O-])ccc5F)c5nc(c(-c6cc(S(=O)(=O)[O-])ccc6F)c6ccc3[nH]6)C=C5)C=C4)cc2)CCN(C(=O)[C@]2(C)CCCO2)C1
REMARK SMILES IDX 10 1 9 2 8 3 7 4 6 5 4 6 5 7 3 8 78 9 89 10 79 11 80 12 2 13
REMARK SMILES IDX 1 14 81 15 82 16 83 17 85 18 88 19 84 20 86 21 87 22 11 23
REMARK SMILES IDX 12 24 13 25 14 26 15 27 16 28 77 29 17 30 76 31 18 32 19 33
REMARK SMILES IDX 20 34 70 35 21 36 75 37 69 38 71 39 22 40 74 41 68 42 67 43
REMARK SMILES IDX 23 45 55 46 35 47 54 48 36 49 39 50 53 51 72 52 37 53 38 54
REMARK SMILES IDX 52 56 73 57 40 58 24 59 25 60 33 61 26 62 32 63 34 64 31 65
REMARK SMILES IDX 27 66 28 67 29 68 30 69 56 70 57 71 65 72 58 73 64 74 66 75
REMARK SMILES IDX 63 76 59 77 60 78 61 79 62 80 41 81 42 82 50 83 43 84 49 85
REMARK SMILES IDX 51 86 48 87 44 88 45 89 46 90 47 91
REMARK H PARENT 71 44 39 55
REMARK Flexibility Score: inf
ROOT
ATOM      1  C   UNL A   1      35.715  20.629  24.746  1.00  0.00     0.202 C 
ENDROOT
BRANCH   1   2
ATOM      2  O   UNL A   1      34.715  20.750  25.753  1.00  0.00    -0.374 OA
BRANCH   2   3
ATOM      3  C   UNL A   1      34.405  22.053  26.244  1.00  0.00     0.202 C 
BRANCH   3   4
ATOM      4  C   UNL A   1      35.384  23.190  25.942  1.00  0.00     0.261 C 
BRANCH   4   5
ATOM      5  O   UNL A   1      34.742  24.290  25.282  1.00  0.00    -0.463 OA
BRANCH   5   6
ATOM      6  C   UNL A   1      34.522  24.117  23.954  1.00  0.00     0.314 C 
ATOM      7  O   UNL A   1      35.376  23.770  23.146  1.00  0.00    -0.252 OA
BRANCH   6   8
ATOM      8  C   UNL A   1      33.087  24.423  23.544  1.00  0.00     0.087 C 
ATOM      9  C   UNL A   1      32.001  24.417  24.646  1.00  0.00     0.042 C 
ATOM     10  C   UNL A   1      33.095  25.910  23.107  1.00  0.00     0.138 C 
ATOM     11  C   UNL A   1      31.017  25.454  24.136  1.00  0.00     0.121 C 
ATOM     12  N   UNL A   1      31.903  26.502  23.710  1.00  0.00    -0.339 N 
BRANCH   8  13
ATOM     13  C   UNL A   1      32.682  23.452  22.400  1.00  0.00     0.017 C 
ATOM     14  C   UNL A   1      32.465  22.004  22.855  1.00  0.00     0.005 C 
ENDBRANCH   8  13
BRANCH  12  15
ATOM     15  C   UNL A   1      31.822  27.859  23.957  1.00  0.00     0.254 C 
ATOM     16  O   UNL A   1      31.166  28.576  23.191  1.00  0.00    -0.272 OA
BRANCH  15  17
ATOM     17  C   UNL A   1      32.599  28.490  25.165  1.00  0.00     0.144 C 
ATOM     18  C   UNL A   1      32.235  27.842  26.512  1.00  0.00     0.048 C 
ATOM     19  O   UNL A   1      32.369  29.903  25.302  1.00  0.00    -0.365 OA
ATOM     20  C   UNL A   1      34.104  28.294  24.907  1.00  0.00     0.053 C 
ATOM     21  C   UNL A   1      31.649  28.954  27.351  1.00  0.00     0.032 C 
ATOM     22  C   UNL A   1      32.159  30.211  26.684  1.00  0.00     0.162 C 
ENDBRANCH  15  17
ENDBRANCH  12  15
ENDBRANCH   6   8
ENDBRANCH   5   6
ENDBRANCH   4   5
ENDBRANCH   3   4
ENDBRANCH   2   3
ENDBRANCH   1   2
BRANCH   1  23
ATOM     23  C   UNL A   1      37.084  20.037  25.115  1.00  0.00     0.261 C 
BRANCH  23  24
ATOM     24  O   UNL A   1      38.151  20.995  25.097  1.00  0.00    -0.460 OA
BRANCH  24  25
ATOM     25  C   UNL A   1      39.185  20.694  25.921  1.00  0.00     0.338 C 
ATOM     26  O   UNL A   1      39.765  19.618  26.012  1.00  0.00    -0.246 OA
BRANCH  25  27
ATOM     27  C   UNL A   1      39.668  21.920  26.576  1.00  0.00     0.060 A 
ATOM     28  C   UNL A   1      39.159  23.150  26.132  1.00  0.00     0.016 A 
ATOM     29  C   UNL A   1      40.652  21.866  27.562  1.00  0.00     0.016 A 
ATOM     30  C   UNL A   1      39.664  24.340  26.650  1.00  0.00     0.010 A 
ATOM     31  C   UNL A   1      41.169  23.061  28.066  1.00  0.00     0.010 A 
ATOM     32  C   UNL A   1      40.701  24.300  27.587  1.00  0.00    -0.014 A 
BRANCH  32  33
ATOM     33  C   UNL A   1      41.450  25.532  27.928  1.00  0.00     0.031 A 
ATOM     34  C   UNL A   1      40.720  26.620  28.662  1.00  0.00     0.074 A 
ATOM     35  C   UNL A   1      42.736  25.687  27.570  1.00  0.00     0.049 A 
ATOM     36  N   UNL A   1      41.086  27.849  28.910  1.00  0.00    -0.248 NA
ATOM     37  C   UNL A   1      39.383  26.273  29.172  1.00  0.00     0.031 C 
ATOM     38  C   UNL A   1      43.560  24.669  26.921  1.00  0.00     0.029 A 
ATOM     39  N   UNL A   1      43.566  26.773  27.685  1.00  0.00    -0.354 N 
ATOM     40  C   UNL A   1      40.019  28.432  29.584  1.00  0.00     0.074 A 
ATOM     41  C   UNL A   1      38.980  27.428  29.679  1.00  0.00     0.031 C 
ATOM     42  C   UNL A   1      44.774  25.190  26.668  1.00  0.00     0.029 A 
ATOM     43  C   UNL A   1      44.792  26.591  27.087  1.00  0.00     0.049 A 
ATOM     44  H   UNL A   1      43.309  27.602  28.148  1.00  0.00     0.167 HD
ATOM     45  C   UNL A   1      39.918  29.691  30.075  1.00  0.00     0.034 A 
ATOM     46  C   UNL A   1      45.789  27.470  26.864  1.00  0.00     0.034 A 
ATOM     47  C   UNL A   1      40.966  30.674  29.957  1.00  0.00     0.049 A 
ATOM     48  C   UNL A   1      45.620  28.898  27.332  1.00  0.00     0.074 A 
ATOM     49  C   UNL A   1      40.981  31.979  30.414  1.00  0.00     0.029 A 
ATOM     50  N   UNL A   1      42.186  30.461  29.323  1.00  0.00    -0.354 N 
ATOM     51  N   UNL A   1      44.599  29.452  27.946  1.00  0.00    -0.248 NA
ATOM     52  C   UNL A   1      46.736  29.819  27.080  1.00  0.00     0.031 C 
ATOM     53  C   UNL A   1      42.171  32.578  29.990  1.00  0.00     0.029 A 
ATOM     54  C   UNL A   1      42.945  31.620  29.353  1.00  0.00     0.049 A 
ATOM     55  H   UNL A   1      42.468  29.612  28.914  1.00  0.00     0.167 HD
ATOM     56  C   UNL A   1      44.972  30.771  28.196  1.00  0.00     0.074 A 
ATOM     57  C   UNL A   1      46.309  30.930  27.661  1.00  0.00     0.031 C 
ATOM     58  C   UNL A   1      44.282  31.756  28.824  1.00  0.00     0.034 A 
BRANCH  45  59
ATOM     59  C   UNL A   1      38.612  30.085  30.720  1.00  0.00     0.023 A 
ATOM     60  C   UNL A   1      37.596  30.744  30.005  1.00  0.00     0.031 A 
ATOM     61  C   UNL A   1      38.392  29.828  32.086  1.00  0.00     0.131 A 
ATOM     62  C   UNL A   1      36.445  31.189  30.673  1.00  0.00     0.055 A 
ATOM     63  C   UNL A   1      37.206  30.196  32.724  1.00  0.00     0.041 A 
ATOM     64  F   UNL A   1      39.335  29.228  32.830  1.00  0.00    -0.206 F 
ATOM     65  C   UNL A   1      36.230  30.894  32.021  1.00  0.00     0.022 A 
BRANCH  62  66
ATOM     66  S   UNL A   1      35.306  32.293  29.793  1.00  0.00     0.124 S 
ATOM     67  O   UNL A   1      34.780  31.407  28.756  1.00  0.00    -0.237 OA
ATOM     68  O   UNL A   1      34.368  32.679  30.840  1.00  0.00    -0.237 OA
ATOM     69  O   UNL A   1      36.173  33.363  29.306  1.00  0.00    -0.744 OA
ENDBRANCH  62  66
ENDBRANCH  45  59
BRANCH  46  70
ATOM     70  C   UNL A   1      47.015  27.051  26.125  1.00  0.00     0.023 A 
ATOM     71  C   UNL A   1      48.082  26.426  26.789  1.00  0.00     0.031 A 
ATOM     72  C   UNL A   1      47.162  27.318  24.751  1.00  0.00     0.131 A 
ATOM     73  C   UNL A   1      49.265  26.134  26.092  1.00  0.00     0.055 A 
ATOM     74  C   UNL A   1      48.317  26.970  24.050  1.00  0.00     0.041 A 
ATOM     75  F   UNL A   1      46.174  27.920  24.067  1.00  0.00    -0.206 F 
ATOM     76  C   UNL A   1      49.384  26.387  24.725  1.00  0.00     0.022 A 
BRANCH  73  77
ATOM     77  S   UNL A   1      50.689  25.511  27.028  1.00  0.00     0.124 S 
ATOM     78  O   UNL A   1      50.156  24.275  27.588  1.00  0.00    -0.237 OA
ATOM     79  O   UNL A   1      51.695  25.361  25.982  1.00  0.00    -0.237 OA
ATOM     80  O   UNL A   1      50.952  26.574  27.995  1.00  0.00    -0.744 OA
ENDBRANCH  73  77
ENDBRANCH  46  70
BRANCH  58  81
ATOM     81  C   UNL A   1      44.989  33.071  29.051  1.00  0.00     0.023 A 
ATOM     82  C   UNL A   1      44.938  34.123  28.121  1.00  0.00     0.031 A 
ATOM     83  C   UNL A   1      45.703  33.277  30.247  1.00  0.00     0.131 A 
ATOM     84  C   UNL A   1      45.621  35.321  28.387  1.00  0.00     0.055 A 
ATOM     85  C   UNL A   1      46.328  34.489  30.532  1.00  0.00     0.041 A 
ATOM     86  F   UNL A   1      45.785  32.304  31.168  1.00  0.00    -0.206 F 
ATOM     87  C   UNL A   1      46.298  35.518  29.594  1.00  0.00     0.022 A 
BRANCH  84  88
ATOM     88  S   UNL A   1      45.675  36.601  27.103  1.00  0.00     0.124 S 
ATOM     89  O   UNL A   1      46.498  37.628  27.733  1.00  0.00    -0.237 OA
ATOM     90  O   UNL A   1      46.286  35.893  25.982  1.00  0.00    -0.237 OA
ATOM     91  O   UNL A   1      44.270  36.960  26.917  1.00  0.00    -0.744 OA
ENDBRANCH  84  88
ENDBRANCH  58  81
ENDBRANCH  32  33
ENDBRANCH  25  27
ENDBRANCH  24  25
ENDBRANCH  23  24
ENDBRANCH   1  23
TORSDOF 20
ENDMDL
MODEL 3
REMARK VINA RESULT:     -10.7      4.913      9.975
REMARK SMILES CC[C@]1(C(=O)OCCOCCOC(=O)c2ccc(-c3c4nc(c(-c5cc(S(=O)(=O)[O-])ccc5F)c5ccc([nH]5)c(-c5cc(S(=O)(=O)[O-])ccc5F)c5nc(c(-c6cc(S(=O)(=O)[O-])ccc6F)c6ccc3[nH]6)C=C5)C=C4)cc2)CCN(C(=O)[C@]2(C)CCCO2)C1
REMARK SMILES IDX 10 1 9 2 8 3 7 4 6 5 4 6 5 7 3 8 78 9 89 10 79 11 80 12 2 13
REMARK SMILES IDX 1 14 81 15 82 16 83 17 85 18 88 19 84 20 86 21 87 22 11 23
REMARK SMILES IDX 12 24 13 25 14 26 15 27 16 28 77 29 17 30 76 31 18 32 19 33
REMARK SMILES IDX 20 34 70 35 21 36 75 37 69 38 71 39 22 40 74 41 68 42 67 43
REMARK SMILES IDX 23 45 55 46 35 47 54 48 36 49 39 50 53 51 72 52 37 53 38 54
REMARK SMILES IDX 52 56 73 57 40 58 24 59 25 60 33 61 26 62 32 63 34 64 31 65
REMARK SMILES IDX 27 66 28 67 29 68 30 69 56 70 57 71 65 72 58 73 64 74 66 75
REMARK SMILES IDX 63 76 59 77 60 78 61 79 62 80 41 81 42 82 50 83 43 84 49 85
REMARK SMILES IDX 51 86 48 87 44 88 45 89 46 90 47 91
REMARK H PARENT 71 44 39 55
REMARK Flexibility Score: inf
ROOT
ATOM      1  C   UNL A   1      31.569  29.960  25.279  1.00  0.00     0.202 C 
ENDROOT
BRANCH   1   2
ATOM      2  O   UNL A   1      31.400  28.987  24.252  1.00  0.00    -0.374 OA
BRANCH   2   3
ATOM      3  C   UNL A   1      32.342  28.965  23.181  1.00  0.00     0.202 C 
BRANCH   3   4
ATOM      4  C   UNL A   1      33.045  27.643  22.864  1.00  0.00     0.261 C 
BRANCH   4   5
ATOM      5  O   UNL A   1      32.319  26.514  23.373  1.00  0.00    -0.463 OA
BRANCH   5   6
ATOM      6  C   UNL A   1      32.900  25.308  23.151  1.00  0.00     0.314 C 
ATOM      7  O   UNL A   1      33.894  25.130  22.455  1.00  0.00    -0.252 OA
BRANCH   6   8
ATOM      8  C   UNL A   1      32.174  24.162  23.846  1.00  0.00     0.087 C 
ATOM      9  C   UNL A   1      32.076  22.810  23.103  1.00  0.00     0.042 C 
ATOM     10  C   UNL A   1      33.059  23.799  25.066  1.00  0.00     0.138 C 
ATOM     11  C   UNL A   1      32.075  21.811  24.247  1.00  0.00     0.121 C 
ATOM     12  N   UNL A   1      33.116  22.339  25.085  1.00  0.00    -0.339 N 
BRANCH   8  13
ATOM     13  C   UNL A   1      30.753  24.649  24.245  1.00  0.00     0.017 C 
ATOM     14  C   UNL A   1      30.573  24.893  25.748  1.00  0.00     0.005 C 
ENDBRANCH   8  13
BRANCH  12  15
ATOM     15  C   UNL A   1      34.161  21.669  25.694  1.00  0.00     0.254 C 
ATOM     16  O   UNL A   1      33.963  21.083  26.764  1.00  0.00    -0.272 OA
BRANCH  15  17
ATOM     17  C   UNL A   1      35.595  21.701  25.058  1.00  0.00     0.144 C 
ATOM     18  C   UNL A   1      36.588  22.555  25.867  1.00  0.00     0.048 C 
ATOM     19  O   UNL A   1      35.601  22.210  23.713  1.00  0.00    -0.365 OA
ATOM     20  C   UNL A   1      36.114  20.252  25.001  1.00  0.00     0.053 C 
ATOM     21  C   UNL A   1      37.028  23.657  24.932  1.00  0.00     0.032 C 
ATOM     22  C   UNL A   1      36.699  23.115  23.560  1.00  0.00     0.162 C 
ENDBRANCH  15  17
ENDBRANCH  12  15
ENDBRANCH   6   8
ENDBRANCH   5   6
ENDBRANCH   4   5
ENDBRANCH   3   4
ENDBRANCH   2   3
ENDBRANCH   1   2
BRANCH   1  23
ATOM     23  C   UNL A   1      32.899  30.020  26.045  1.00  0.00     0.261 C 
BRANCH  23  24
ATOM     24  O   UNL A   1      32.782  30.572  27.363  1.00  0.00    -0.460 OA
BRANCH  24  25
ATOM     25  C   UNL A   1      33.542  31.675  27.576  1.00  0.00     0.338 C 
ATOM     26  O   UNL A   1      33.157  32.838  27.615  1.00  0.00    -0.246 OA
BRANCH  25  27
ATOM     27  C   UNL A   1      34.903  31.270  27.962  1.00  0.00     0.060 A 
ATOM     28  C   UNL A   1      35.110  29.940  28.355  1.00  0.00     0.016 A 
ATOM     29  C   UNL A   1      35.943  32.199  28.002  1.00  0.00     0.016 A 
ATOM     30  C   UNL A   1      36.357  29.539  28.828  1.00  0.00     0.010 A 
ATOM     31  C   UNL A   1      37.187  31.799  28.494  1.00  0.00     0.010 A 
ATOM     32  C   UNL A   1      37.387  30.478  28.940  1.00  0.00    -0.014 A 
BRANCH  32  33
ATOM     33  C   UNL A   1      38.614  30.156  29.706  1.00  0.00     0.031 A 
ATOM     34  C   UNL A   1      39.554  29.134  29.134  1.00  0.00     0.074 A 
ATOM     35  C   UNL A   1      38.868  30.739  30.890  1.00  0.00     0.049 A 
ATOM     36  N   UNL A   1      40.583  28.548  29.685  1.00  0.00    -0.248 NA
ATOM     37  C   UNL A   1      39.281  28.705  27.753  1.00  0.00     0.031 C 
ATOM     38  C   UNL A   1      38.062  31.793  31.502  1.00  0.00     0.029 A 
ATOM     39  N   UNL A   1      39.868  30.505  31.799  1.00  0.00    -0.354 N 
ATOM     40  C   UNL A   1      41.069  27.664  28.729  1.00  0.00     0.074 A 
ATOM     41  C   UNL A   1      40.203  27.770  27.575  1.00  0.00     0.031 C 
ATOM     42  C   UNL A   1      38.587  32.098  32.703  1.00  0.00     0.029 A 
ATOM     43  C   UNL A   1      39.727  31.222  32.965  1.00  0.00     0.049 A 
ATOM     44  H   UNL A   1      40.614  29.885  31.634  1.00  0.00     0.167 HD
ATOM     45  C   UNL A   1      42.141  26.838  28.812  1.00  0.00     0.034 A 
ATOM     46  C   UNL A   1      40.413  31.141  34.123  1.00  0.00     0.034 A 
ATOM     47  C   UNL A   1      42.981  26.745  29.980  1.00  0.00     0.049 A 
ATOM     48  C   UNL A   1      41.544  30.144  34.232  1.00  0.00     0.074 A 
ATOM     49  C   UNL A   1      44.093  25.948  30.182  1.00  0.00     0.029 A 
ATOM     50  N   UNL A   1      42.794  27.469  31.152  1.00  0.00    -0.354 N 
ATOM     51  N   UNL A   1      41.984  29.291  33.335  1.00  0.00    -0.248 NA
ATOM     52  C   UNL A   1      42.272  30.099  35.507  1.00  0.00     0.031 C 
ATOM     53  C   UNL A   1      44.529  26.130  31.498  1.00  0.00     0.029 A 
ATOM     54  C   UNL A   1      43.751  27.114  32.088  1.00  0.00     0.049 A 
ATOM     55  H   UNL A   1      42.085  28.137  31.295  1.00  0.00     0.167 HD
ATOM     56  C   UNL A   1      43.071  28.645  33.922  1.00  0.00     0.074 A 
ATOM     57  C   UNL A   1      43.215  29.203  35.251  1.00  0.00     0.031 C 
ATOM     58  C   UNL A   1      43.886  27.691  33.405  1.00  0.00     0.034 A 
BRANCH  45  59
ATOM     59  C   UNL A   1      42.415  25.932  27.637  1.00  0.00     0.023 A 
ATOM     60  C   UNL A   1      41.847  24.650  27.536  1.00  0.00     0.031 A 
ATOM     61  C   UNL A   1      43.290  26.344  26.615  1.00  0.00     0.131 A 
ATOM     62  C   UNL A   1      42.217  23.801  26.481  1.00  0.00     0.055 A 
ATOM     63  C   UNL A   1      43.585  25.528  25.522  1.00  0.00     0.041 A 
ATOM     64  F   UNL A   1      43.886  27.546  26.669  1.00  0.00    -0.206 F 
ATOM     65  C   UNL A   1      43.060  24.242  25.459  1.00  0.00     0.022 A 
BRANCH  62  66
ATOM     66  S   UNL A   1      41.705  22.062  26.549  1.00  0.00     0.124 S 
ATOM     67  O   UNL A   1      42.265  21.640  27.831  1.00  0.00    -0.237 OA
ATOM     68  O   UNL A   1      40.251  22.158  26.488  1.00  0.00    -0.237 OA
ATOM     69  O   UNL A   1      42.342  21.471  25.375  1.00  0.00    -0.744 OA
ENDBRANCH  62  66
ENDBRANCH  45  59
BRANCH  46  70
ATOM     70  C   UNL A   1      40.029  31.987  35.290  1.00  0.00     0.023 A 
ATOM     71  C   UNL A   1      39.135  31.515  36.263  1.00  0.00     0.031 A 
ATOM     72  C   UNL A   1      40.508  33.304  35.421  1.00  0.00     0.131 A 
ATOM     73  C   UNL A   1      38.710  32.366  37.295  1.00  0.00     0.055 A 
ATOM     74  C   UNL A   1      40.130  34.125  36.484  1.00  0.00     0.041 A 
ATOM     75  F   UNL A   1      41.362  33.810  34.516  1.00  0.00    -0.206 F 
ATOM     76  C   UNL A   1      39.213  33.662  37.422  1.00  0.00     0.022 A 
BRANCH  73  77
ATOM     77  S   UNL A   1      37.406  31.785  38.415  1.00  0.00     0.124 S 
ATOM     78  O   UNL A   1      38.046  31.936  39.716  1.00  0.00    -0.237 OA
ATOM     79  O   UNL A   1      36.320  32.714  38.122  1.00  0.00    -0.237 OA
ATOM     80  O   UNL A   1      37.178  30.408  37.985  1.00  0.00    -0.744 OA
ENDBRANCH  73  77
ENDBRANCH  46  70
BRANCH  58  81
ATOM     81  C   UNL A   1      45.063  27.249  34.241  1.00  0.00     0.023 A 
ATOM     82  C   UNL A   1      45.002  26.141  35.103  1.00  0.00     0.031 A 
ATOM     83  C   UNL A   1      46.284  27.943  34.142  1.00  0.00     0.131 A 
ATOM     84  C   UNL A   1      46.129  25.781  35.858  1.00  0.00     0.055 A 
ATOM     85  C   UNL A   1      47.418  27.546  34.848  1.00  0.00     0.041 A 
ATOM     86  F   UNL A   1      46.397  29.011  33.335  1.00  0.00    -0.206 F 
ATOM     87  C   UNL A   1      47.342  26.464  35.721  1.00  0.00     0.022 A 
BRANCH  84  88
ATOM     88  S   UNL A   1      45.977  24.450  37.080  1.00  0.00     0.124 S 
ATOM     89  O   UNL A   1      45.658  25.190  38.297  1.00  0.00    -0.237 OA
ATOM     90  O   UNL A   1      44.897  23.639  36.526  1.00  0.00    -0.237 OA
ATOM     91  O   UNL A   1      47.295  23.818  37.066  1.00  0.00    -0.744 OA
ENDBRANCH  84  88
ENDBRANCH  58  81
ENDBRANCH  32  33
ENDBRANCH  25  27
ENDBRANCH  24  25
ENDBRANCH  23  24
ENDBRANCH   1  23
TORSDOF 20
ENDMDL
