MODEL 1
REMARK VINA RESULT:     -11.2      0.000      0.000
REMARK SMILES COc1ccc(/C=C(/Sc2nc(C)n[nH]2)C(=O)OCCOCCOC(=O)c2ccc(-c3c4nc(c(-c5cc(S(=O)(=O)[O-])ccc5F)c5ccc([nH]5)c(-c5cc(S(=O)(=O)[O-])ccc5F)c5nc(c(-c6cc(S(=O)(=O)[O-])ccc6F)c6ccc3[nH]6)C=C5)C=C4)cc2)cc1OC
REMARK SMILES IDX 22 1 21 2 20 3 19 4 18 5 16 6 17 7 8 8 7 9 6 10 3 11 4 12
REMARK SMILES IDX 91 13 5 14 90 15 2 16 1 17 92 18 93 19 9 20 10 21 11 22
REMARK SMILES IDX 15 23 12 24 14 25 13 27 23 28 24 29 25 30 26 31 27 32 28 33
REMARK SMILES IDX 89 34 29 35 88 36 30 37 31 38 32 39 82 40 33 41 87 42 81 43
REMARK SMILES IDX 83 44 34 45 86 46 80 47 79 48 35 50 67 51 47 52 66 53 48 54
REMARK SMILES IDX 51 55 65 56 84 57 49 58 50 59 64 61 85 62 52 63 36 64 37 65
REMARK SMILES IDX 45 66 38 67 44 68 46 69 43 70 39 71 40 72 41 73 42 74 68 75
REMARK SMILES IDX 69 76 77 77 70 78 76 79 78 80 75 81 71 82 72 83 73 84 74 85
REMARK SMILES IDX 53 86 54 87 62 88 55 89 61 90 63 91 60 92 56 93 57 94 58 95
REMARK SMILES IDX 59 96
REMARK H PARENT 15 26 83 49 51 60
REMARK Flexibility Score: inf
ROOT
ATOM      1  C   UNL A   1      39.966  21.130  26.204  1.00  0.00     0.202 C 
ENDROOT
BRANCH   1   2
ATOM      2  O   UNL A   1      38.665  21.278  25.635  1.00  0.00    -0.374 OA
BRANCH   2   3
ATOM      3  C   UNL A   1      37.940  22.493  25.844  1.00  0.00     0.202 C 
BRANCH   3   4
ATOM      4  C   UNL A   1      37.074  22.996  24.688  1.00  0.00     0.261 C 
BRANCH   4   5
ATOM      5  O   UNL A   1      35.691  22.714  24.941  1.00  0.00    -0.459 OA
BRANCH   5   6
ATOM      6  C   UNL A   1      34.981  23.698  25.555  1.00  0.00     0.345 C 
ATOM      7  O   UNL A   1      35.179  24.899  25.463  1.00  0.00    -0.246 OA
BRANCH   6   8
ATOM      8  C   UNL A   1      33.825  23.077  26.256  1.00  0.00     0.101 C 
ATOM      9  C   UNL A   1      32.586  23.605  26.160  1.00  0.00     0.031 C 
BRANCH   9  10
ATOM     10  C   UNL A   1      32.028  24.804  25.475  1.00  0.00    -0.020 A 
ATOM     11  C   UNL A   1      31.422  27.098  23.914  1.00  0.00     0.160 A 
ATOM     12  C   UNL A   1      31.516  27.185  25.304  1.00  0.00     0.051 A 
ATOM     13  C   UNL A   1      31.587  25.858  23.292  1.00  0.00     0.161 A 
ATOM     14  C   UNL A   1      31.777  26.042  26.073  1.00  0.00     0.012 A 
ATOM     15  C   UNL A   1      31.900  24.736  24.077  1.00  0.00     0.058 A 
BRANCH  11  16
ATOM     16  O   UNL A   1      31.301  28.239  23.170  1.00  0.00    -0.493 OA
ATOM     17  C   UNL A   1      29.945  28.615  22.940  1.00  0.00     0.278 C 
ENDBRANCH  11  16
BRANCH  13  18
ATOM     18  O   UNL A   1      31.523  25.583  21.950  1.00  0.00    -0.493 OA
ATOM     19  C   UNL A   1      32.717  25.752  21.200  1.00  0.00     0.278 C 
ENDBRANCH  13  18
ENDBRANCH   9  10
BRANCH   8  20
ATOM     20  S   UNL A   1      34.209  21.520  26.948  1.00  0.00    -0.043 SA
BRANCH  20  21
ATOM     21  C   UNL A   1      33.435  20.391  25.910  1.00  0.00     0.188 A 
ATOM     22  N   UNL A   1      33.266  20.398  24.611  1.00  0.00    -0.206 NA
ATOM     23  N   UNL A   1      32.921  19.241  26.428  1.00  0.00    -0.254 N 
ATOM     24  C   UNL A   1      32.667  19.188  24.368  1.00  0.00     0.148 A 
ATOM     25  N   UNL A   1      32.412  18.455  25.461  1.00  0.00    -0.158 NA
ATOM     26  H   UNL A   1      32.921  19.014  27.386  1.00  0.00     0.192 HD
ATOM     27  C   UNL A   1      32.376  18.722  23.000  1.00  0.00     0.092 C 
ENDBRANCH  20  21
ENDBRANCH   8  20
ENDBRANCH   6   8
ENDBRANCH   5   6
ENDBRANCH   4   5
ENDBRANCH   3   4
ENDBRANCH   2   3
ENDBRANCH   1   2
BRANCH   1  28
ATOM     28  C   UNL A   1      40.423  22.081  27.289  1.00  0.00     0.261 C 
BRANCH  28  29
ATOM     29  O   UNL A   1      41.757  22.484  27.064  1.00  0.00    -0.460 OA
BRANCH  29  30
ATOM     30  C   UNL A   1      41.867  23.752  26.607  1.00  0.00     0.338 C 
ATOM     31  O   UNL A   1      42.384  24.125  25.572  1.00  0.00    -0.246 OA
BRANCH  30  32
ATOM     32  C   UNL A   1      41.398  24.632  27.676  1.00  0.00     0.060 A 
ATOM     33  C   UNL A   1      40.255  25.368  27.369  1.00  0.00     0.016 A 
ATOM     34  C   UNL A   1      42.287  24.993  28.700  1.00  0.00     0.016 A 
ATOM     35  C   UNL A   1      40.156  26.629  27.896  1.00  0.00     0.010 A 
ATOM     36  C   UNL A   1      42.215  26.270  29.182  1.00  0.00     0.010 A 
ATOM     37  C   UNL A   1      41.198  27.091  28.705  1.00  0.00    -0.014 A 
BRANCH  37  38
ATOM     38  C   UNL A   1      41.127  28.451  29.173  1.00  0.00     0.031 A 
ATOM     39  C   UNL A   1      42.178  29.282  28.565  1.00  0.00     0.074 A 
ATOM     40  C   UNL A   1      40.136  28.901  29.958  1.00  0.00     0.049 A 
ATOM     41  N   UNL A   1      43.275  29.684  29.112  1.00  0.00    -0.248 NA
ATOM     42  C   UNL A   1      42.136  29.453  27.101  1.00  0.00     0.031 C 
ATOM     43  C   UNL A   1      38.900  28.219  30.340  1.00  0.00     0.029 A 
ATOM     44  N   UNL A   1      39.983  30.142  30.483  1.00  0.00    -0.354 N 
ATOM     45  C   UNL A   1      43.917  30.402  28.113  1.00  0.00     0.074 A 
ATOM     46  C   UNL A   1      43.351  29.947  26.878  1.00  0.00     0.031 C 
ATOM     47  C   UNL A   1      38.032  29.133  30.832  1.00  0.00     0.029 A 
ATOM     48  C   UNL A   1      38.690  30.431  30.894  1.00  0.00     0.049 A 
ATOM     49  H   UNL A   1      40.726  30.783  30.565  1.00  0.00     0.167 HD
ATOM     50  C   UNL A   1      44.586  31.549  28.403  1.00  0.00     0.034 A 
ATOM     51  C   UNL A   1      38.192  31.670  31.152  1.00  0.00     0.034 A 
ATOM     52  C   UNL A   1      44.888  31.622  29.821  1.00  0.00     0.049 A 
ATOM     53  C   UNL A   1      39.355  32.572  31.384  1.00  0.00     0.074 A 
ATOM     54  C   UNL A   1      45.531  30.776  30.708  1.00  0.00     0.029 A 
ATOM     55  N   UNL A   1      44.153  32.484  30.607  1.00  0.00    -0.354 N 
ATOM     56  N   UNL A   1      40.157  32.461  32.407  1.00  0.00    -0.248 NA
ATOM     57  C   UNL A   1      39.927  33.267  30.236  1.00  0.00     0.031 C 
ATOM     58  C   UNL A   1      44.771  30.851  31.913  1.00  0.00     0.029 A 
ATOM     59  C   UNL A   1      43.761  31.798  31.732  1.00  0.00     0.049 A 
ATOM     60  H   UNL A   1      43.945  33.425  30.400  1.00  0.00     0.167 HD
ATOM     61  C   UNL A   1      41.432  32.659  31.896  1.00  0.00     0.074 A 
ATOM     62  C   UNL A   1      41.219  33.257  30.579  1.00  0.00     0.031 C 
ATOM     63  C   UNL A   1      42.523  32.050  32.453  1.00  0.00     0.034 A 
BRANCH  50  64
ATOM     64  C   UNL A   1      44.591  32.764  27.495  1.00  0.00     0.023 A 
ATOM     65  C   UNL A   1      43.879  33.884  27.950  1.00  0.00     0.031 A 
ATOM     66  C   UNL A   1      44.998  32.814  26.137  1.00  0.00     0.131 A 
ATOM     67  C   UNL A   1      43.494  34.905  27.065  1.00  0.00     0.055 A 
ATOM     68  C   UNL A   1      44.670  33.865  25.277  1.00  0.00     0.041 A 
ATOM     69  F   UNL A   1      45.663  31.832  25.523  1.00  0.00    -0.206 F 
ATOM     70  C   UNL A   1      43.880  34.902  25.729  1.00  0.00     0.022 A 
BRANCH  67  71
ATOM     71  S   UNL A   1      42.320  36.142  27.660  1.00  0.00     0.124 S 
ATOM     72  O   UNL A   1      42.489  37.200  26.670  1.00  0.00    -0.237 OA
ATOM     73  O   UNL A   1      41.062  35.403  27.608  1.00  0.00    -0.237 OA
ATOM     74  O   UNL A   1      42.809  36.452  29.000  1.00  0.00    -0.744 OA
ENDBRANCH  67  71
ENDBRANCH  50  64
BRANCH  51  75
ATOM     75  C   UNL A   1      36.815  32.160  30.869  1.00  0.00     0.023 A 
ATOM     76  C   UNL A   1      35.984  32.708  31.868  1.00  0.00     0.031 A 
ATOM     77  C   UNL A   1      36.376  32.306  29.532  1.00  0.00     0.131 A 
ATOM     78  C   UNL A   1      34.778  33.358  31.514  1.00  0.00     0.055 A 
ATOM     79  C   UNL A   1      35.178  32.936  29.190  1.00  0.00     0.041 A 
ATOM     80  F   UNL A   1      37.139  31.918  28.499  1.00  0.00    -0.206 F 
ATOM     81  C   UNL A   1      34.376  33.475  30.181  1.00  0.00     0.022 A 
BRANCH  78  82
ATOM     82  S   UNL A   1      33.752  34.164  32.787  1.00  0.00     0.124 S 
ATOM     83  O   UNL A   1      34.755  34.745  33.672  1.00  0.00    -0.237 OA
ATOM     84  O   UNL A   1      32.956  35.101  32.003  1.00  0.00    -0.237 OA
ATOM     85  O   UNL A   1      32.992  33.054  33.364  1.00  0.00    -0.744 OA
ENDBRANCH  78  82
ENDBRANCH  51  75
BRANCH  63  86
ATOM     86  C   UNL A   1      42.368  31.406  33.822  1.00  0.00     0.023 A 
ATOM     87  C   UNL A   1      42.149  30.027  34.048  1.00  0.00     0.031 A 
ATOM     88  C   UNL A   1      42.540  32.226  34.951  1.00  0.00     0.131 A 
ATOM     89  C   UNL A   1      42.081  29.526  35.364  1.00  0.00     0.055 A 
ATOM     90  C   UNL A   1      42.497  31.723  36.252  1.00  0.00     0.041 A 
ATOM     91  F   UNL A   1      42.781  33.540  34.810  1.00  0.00    -0.206 F 
ATOM     92  C   UNL A   1      42.256  30.371  36.464  1.00  0.00     0.022 A 
BRANCH  89  93
ATOM     93  S   UNL A   1      41.721  27.767  35.676  1.00  0.00     0.124 S 
ATOM     94  O   UNL A   1      40.845  27.793  36.840  1.00  0.00    -0.237 OA
ATOM     95  O   UNL A   1      41.103  27.348  34.420  1.00  0.00    -0.237 OA
ATOM     96  O   UNL A   1      43.046  27.191  35.922  1.00  0.00    -0.744 OA
ENDBRANCH  89  93
ENDBRANCH  63  86
ENDBRANCH  37  38
ENDBRANCH  30  32
ENDBRANCH  29  30
ENDBRANCH  28  29
ENDBRANCH   1  28
TORSDOF 22
ENDMDL
MODEL 2
REMARK VINA RESULT:     -11.1      3.505      7.996
REMARK SMILES COc1ccc(/C=C(/Sc2nc(C)n[nH]2)C(=O)OCCOCCOC(=O)c2ccc(-c3c4nc(c(-c5cc(S(=O)(=O)[O-])ccc5F)c5ccc([nH]5)c(-c5cc(S(=O)(=O)[O-])ccc5F)c5nc(c(-c6cc(S(=O)(=O)[O-])ccc6F)c6ccc3[nH]6)C=C5)C=C4)cc2)cc1OC
REMARK SMILES IDX 22 1 21 2 20 3 19 4 18 5 16 6 17 7 8 8 7 9 6 10 3 11 4 12
REMARK SMILES IDX 91 13 5 14 90 15 2 16 1 17 92 18 93 19 9 20 10 21 11 22
REMARK SMILES IDX 15 23 12 24 14 25 13 27 23 28 24 29 25 30 26 31 27 32 28 33
REMARK SMILES IDX 89 34 29 35 88 36 30 37 31 38 32 39 82 40 33 41 87 42 81 43
REMARK SMILES IDX 83 44 34 45 86 46 80 47 79 48 35 50 67 51 47 52 66 53 48 54
REMARK SMILES IDX 51 55 65 56 84 57 49 58 50 59 64 61 85 62 52 63 36 64 37 65
REMARK SMILES IDX 45 66 38 67 44 68 46 69 43 70 39 71 40 72 41 73 42 74 68 75
REMARK SMILES IDX 69 76 77 77 70 78 76 79 78 80 75 81 71 82 72 83 73 84 74 85
REMARK SMILES IDX 53 86 54 87 62 88 55 89 61 90 63 91 60 92 56 93 57 94 58 95
REMARK SMILES IDX 59 96
REMARK H PARENT 15 26 83 49 51 60
REMARK Flexibility Score: inf
ROOT
ATOM      1  C   UNL A   1      33.855  30.013  26.896  1.00  0.00     0.202 C 
ENDROOT
BRANCH   1   2
ATOM      2  O   UNL A   1      33.378  28.956  26.064  1.00  0.00    -0.374 OA
BRANCH   2   3
ATOM      3  C   UNL A   1      33.995  27.667  26.140  1.00  0.00     0.202 C 
BRANCH   3   4
ATOM      4  C   UNL A   1      33.375  26.547  25.302  1.00  0.00     0.261 C 
BRANCH   4   5
ATOM      5  O   UNL A   1      32.094  26.951  24.800  1.00  0.00    -0.459 OA
BRANCH   5   6
ATOM      6  C   UNL A   1      31.020  26.263  25.272  1.00  0.00     0.345 C 
ATOM      7  O   UNL A   1      30.691  26.150  26.442  1.00  0.00    -0.246 OA
BRANCH   6   8
ATOM      8  C   UNL A   1      30.224  25.779  24.113  1.00  0.00     0.101 C 
ATOM      9  C   UNL A   1      30.643  24.734  23.367  1.00  0.00     0.031 C 
BRANCH   9  10
ATOM     10  C   UNL A   1      31.853  23.867  23.398  1.00  0.00    -0.020 A 
ATOM     11  C   UNL A   1      34.253  22.441  23.920  1.00  0.00     0.160 A 
ATOM     12  C   UNL A   1      34.161  23.309  22.832  1.00  0.00     0.051 A 
ATOM     13  C   UNL A   1      33.136  22.242  24.734  1.00  0.00     0.161 A 
ATOM     14  C   UNL A   1      32.961  23.980  22.555  1.00  0.00     0.012 A 
ATOM     15  C   UNL A   1      31.960  22.964  24.471  1.00  0.00     0.058 A 
BRANCH  11  16
ATOM     16  O   UNL A   1      35.463  21.898  24.254  1.00  0.00    -0.493 OA
ATOM     17  C   UNL A   1      36.509  22.863  24.320  1.00  0.00     0.278 C 
ENDBRANCH  11  16
BRANCH  13  18
ATOM     18  O   UNL A   1      33.040  21.428  25.834  1.00  0.00    -0.493 OA
ATOM     19  C   UNL A   1      33.089  20.026  25.605  1.00  0.00     0.278 C 
ENDBRANCH  13  18
ENDBRANCH   9  10
BRANCH   8  20
ATOM     20  S   UNL A   1      28.643  26.517  24.022  1.00  0.00    -0.043 SA
BRANCH  20  21
ATOM     21  C   UNL A   1      28.891  27.937  23.087  1.00  0.00     0.188 A 
ATOM     22  N   UNL A   1      28.108  28.963  22.864  1.00  0.00    -0.206 NA
ATOM     23  N   UNL A   1      30.091  28.140  22.475  1.00  0.00    -0.254 N 
ATOM     24  C   UNL A   1      28.902  29.806  22.129  1.00  0.00     0.148 A 
ATOM     25  N   UNL A   1      30.121  29.329  21.844  1.00  0.00    -0.158 NA
ATOM     26  H   UNL A   1      30.839  27.501  22.492  1.00  0.00     0.192 HD
ATOM     27  C   UNL A   1      28.450  31.153  21.731  1.00  0.00     0.092 C 
ENDBRANCH  20  21
ENDBRANCH   8  20
ENDBRANCH   6   8
ENDBRANCH   5   6
ENDBRANCH   4   5
ENDBRANCH   3   4
ENDBRANCH   2   3
ENDBRANCH   1   2
BRANCH   1  28
ATOM     28  C   UNL A   1      32.901  31.093  27.358  1.00  0.00     0.261 C 
BRANCH  28  29
ATOM     29  O   UNL A   1      33.393  32.369  27.008  1.00  0.00    -0.460 OA
BRANCH  29  30
ATOM     30  C   UNL A   1      33.149  33.316  27.942  1.00  0.00     0.338 C 
ATOM     31  O   UNL A   1      32.168  34.028  28.038  1.00  0.00    -0.246 OA
BRANCH  30  32
ATOM     32  C   UNL A   1      34.370  33.458  28.733  1.00  0.00     0.060 A 
ATOM     33  C   UNL A   1      35.435  34.057  28.062  1.00  0.00     0.016 A 
ATOM     34  C   UNL A   1      34.538  32.662  29.875  1.00  0.00     0.016 A 
ATOM     35  C   UNL A   1      36.698  33.619  28.365  1.00  0.00     0.010 A 
ATOM     36  C   UNL A   1      35.792  32.186  30.140  1.00  0.00     0.010 A 
ATOM     37  C   UNL A   1      36.837  32.611  29.323  1.00  0.00    -0.014 A 
BRANCH  37  38
ATOM     38  C   UNL A   1      38.158  32.093  29.562  1.00  0.00     0.031 A 
ATOM     39  C   UNL A   1      38.228  30.651  29.278  1.00  0.00     0.074 A 
ATOM     40  C   UNL A   1      39.203  32.877  29.872  1.00  0.00     0.049 A 
ATOM     41  N   UNL A   1      38.244  29.684  30.131  1.00  0.00    -0.248 NA
ATOM     42  C   UNL A   1      37.973  30.228  27.890  1.00  0.00     0.031 C 
ATOM     43  C   UNL A   1      39.277  34.338  29.862  1.00  0.00     0.029 A 
ATOM     44  N   UNL A   1      40.476  32.502  30.149  1.00  0.00    -0.354 N 
ATOM     45  C   UNL A   1      38.286  28.536  29.353  1.00  0.00     0.074 A 
ATOM     46  C   UNL A   1      37.795  28.920  28.062  1.00  0.00     0.031 C 
ATOM     47  C   UNL A   1      40.577  34.709  29.889  1.00  0.00     0.029 A 
ATOM     48  C   UNL A   1      41.409  33.521  30.024  1.00  0.00     0.049 A 
ATOM     49  H   UNL A   1      40.718  31.586  30.414  1.00  0.00     0.167 HD
ATOM     50  C   UNL A   1      39.051  27.475  29.720  1.00  0.00     0.034 A 
ATOM     51  C   UNL A   1      42.757  33.363  29.930  1.00  0.00     0.034 A 
ATOM     52  C   UNL A   1      39.386  27.549  31.131  1.00  0.00     0.049 A 
ATOM     53  C   UNL A   1      43.079  32.006  30.453  1.00  0.00     0.074 A 
ATOM     54  C   UNL A   1      38.637  27.678  32.288  1.00  0.00     0.029 A 
ATOM     55  N   UNL A   1      40.668  27.912  31.485  1.00  0.00    -0.354 N 
ATOM     56  N   UNL A   1      42.924  31.663  31.702  1.00  0.00    -0.248 NA
ATOM     57  C   UNL A   1      43.089  30.890  29.514  1.00  0.00     0.031 C 
ATOM     58  C   UNL A   1      39.380  28.570  33.116  1.00  0.00     0.029 A 
ATOM     59  C   UNL A   1      40.580  28.870  32.467  1.00  0.00     0.049 A 
ATOM     60  H   UNL A   1      41.500  27.550  31.102  1.00  0.00     0.167 HD
ATOM     61  C   UNL A   1      42.385  30.385  31.668  1.00  0.00     0.074 A 
ATOM     62  C   UNL A   1      42.610  29.921  30.301  1.00  0.00     0.031 C 
ATOM     63  C   UNL A   1      41.545  29.941  32.654  1.00  0.00     0.034 A 
BRANCH  50  64
ATOM     64  C   UNL A   1      39.822  26.619  28.733  1.00  0.00     0.023 A 
ATOM     65  C   UNL A   1      40.905  27.236  28.089  1.00  0.00     0.031 A 
ATOM     66  C   UNL A   1      39.423  25.372  28.190  1.00  0.00     0.131 A 
ATOM     67  C   UNL A   1      41.446  26.698  26.910  1.00  0.00     0.055 A 
ATOM     68  C   UNL A   1      40.010  24.807  27.055  1.00  0.00     0.041 A 
ATOM     69  F   UNL A   1      38.398  24.651  28.655  1.00  0.00    -0.206 F 
ATOM     70  C   UNL A   1      41.004  25.490  26.384  1.00  0.00     0.022 A 
BRANCH  67  71
ATOM     71  S   UNL A   1      42.617  27.711  25.979  1.00  0.00     0.124 S 
ATOM     72  O   UNL A   1      43.892  27.144  26.405  1.00  0.00    -0.237 OA
ATOM     73  O   UNL A   1      42.215  27.436  24.603  1.00  0.00    -0.237 OA
ATOM     74  O   UNL A   1      42.342  29.064  26.452  1.00  0.00    -0.744 OA
ENDBRANCH  67  71
ENDBRANCH  50  64
BRANCH  51  75
ATOM     75  C   UNL A   1      43.700  34.172  29.108  1.00  0.00     0.023 A 
ATOM     76  C   UNL A   1      44.184  33.735  27.858  1.00  0.00     0.031 A 
ATOM     77  C   UNL A   1      43.963  35.519  29.452  1.00  0.00     0.131 A 
ATOM     78  C   UNL A   1      44.897  34.625  27.020  1.00  0.00     0.055 A 
ATOM     79  C   UNL A   1      44.679  36.388  28.627  1.00  0.00     0.041 A 
ATOM     80  F   UNL A   1      43.457  36.068  30.567  1.00  0.00    -0.206 F 
ATOM     81  C   UNL A   1      45.142  35.946  27.400  1.00  0.00     0.022 A 
BRANCH  78  82
ATOM     82  S   UNL A   1      45.432  34.102  25.357  1.00  0.00     0.124 S 
ATOM     83  O   UNL A   1      46.801  34.599  25.301  1.00  0.00    -0.237 OA
ATOM     84  O   UNL A   1      45.267  32.654  25.416  1.00  0.00    -0.237 OA
ATOM     85  O   UNL A   1      44.493  34.786  24.467  1.00  0.00    -0.744 OA
ENDBRANCH  78  82
ENDBRANCH  51  75
BRANCH  63  86
ATOM     86  C   UNL A   1      41.458  30.745  33.941  1.00  0.00     0.023 A 
ATOM     87  C   UNL A   1      40.586  31.837  34.157  1.00  0.00     0.031 A 
ATOM     88  C   UNL A   1      42.239  30.319  35.030  1.00  0.00     0.131 A 
ATOM     89  C   UNL A   1      40.543  32.474  35.413  1.00  0.00     0.055 A 
ATOM     90  C   UNL A   1      42.177  30.936  36.280  1.00  0.00     0.041 A 
ATOM     91  F   UNL A   1      43.069  29.270  34.905  1.00  0.00    -0.206 F 
ATOM     92  C   UNL A   1      41.336  32.024  36.473  1.00  0.00     0.022 A 
BRANCH  89  93
ATOM     93  S   UNL A   1      39.484  33.932  35.686  1.00  0.00     0.124 S 
ATOM     94  O   UNL A   1      38.147  33.455  35.355  1.00  0.00    -0.237 OA
ATOM     95  O   UNL A   1      39.724  34.233  37.095  1.00  0.00    -0.237 OA
ATOM     96  O   UNL A   1      40.026  34.921  34.752  1.00  0.00    -0.744 OA
ENDBRANCH  89  93
ENDBRANCH  63  86
ENDBRANCH  37  38
ENDBRANCH  30  32
ENDBRANCH  29  30
ENDBRANCH  28  29
ENDBRANCH   1  28
TORSDOF 22
ENDMDL
MODEL 3
REMARK VINA RESULT:     -10.9      3.905      9.584
REMARK SMILES COc1ccc(/C=C(/Sc2nc(C)n[nH]2)C(=O)OCCOCCOC(=O)c2ccc(-c3c4nc(c(-c5cc(S(=O)(=O)[O-])ccc5F)c5ccc([nH]5)c(-c5cc(S(=O)(=O)[O-])ccc5F)c5nc(c(-c6cc(S(=O)(=O)[O-])ccc6F)c6ccc3[nH]6)C=C5)C=C4)cc2)cc1OC
REMARK SMILES IDX 22 1 21 2 20 3 19 4 18 5 16 6 17 7 8 8 7 9 6 10 3 11 4 12
REMARK SMILES IDX 91 13 5 14 90 15 2 16 1 17 92 18 93 19 9 20 10 21 11 22
REMARK SMILES IDX 15 23 12 24 14 25 13 27 23 28 24 29 25 30 26 31 27 32 28 33
REMARK SMILES IDX 89 34 29 35 88 36 30 37 31 38 32 39 82 40 33 41 87 42 81 43
REMARK SMILES IDX 83 44 34 45 86 46 80 47 79 48 35 50 67 51 47 52 66 53 48 54
REMARK SMILES IDX 51 55 65 56 84 57 49 58 50 59 64 61 85 62 52 63 36 64 37 65
REMARK SMILES IDX 45 66 38 67 44 68 46 69 43 70 39 71 40 72 41 73 42 74 68 75
REMARK SMILES IDX 69 76 77 77 70 78 76 79 78 80 75 81 71 82 72 83 73 84 74 85
REMARK SMILES IDX 53 86 54 87 62 88 55 89 61 90 63 91 60 92 56 93 57 94 58 95
REMARK SMILES IDX 59 96
REMARK H PARENT 15 26 83 49 51 60
REMARK Flexibility Score: inf
ROOT
ATOM      1  C   UNL A   1      33.028  30.426  26.750  1.00  0.00     0.202 C 
ENDROOT
BRANCH   1   2
ATOM      2  O   UNL A   1      33.228  29.013  26.744  1.00  0.00    -0.374 OA
BRANCH   2   3
ATOM      3  C   UNL A   1      33.310  28.319  25.495  1.00  0.00     0.202 C 
BRANCH   3   4
ATOM      4  C   UNL A   1      32.577  26.981  25.392  1.00  0.00     0.261 C 
BRANCH   4   5
ATOM      5  O   UNL A   1      31.159  27.183  25.458  1.00  0.00    -0.459 OA
BRANCH   5   6
ATOM      6  C   UNL A   1      30.406  26.076  25.700  1.00  0.00     0.345 C 
ATOM      7  O   UNL A   1      30.108  25.628  26.796  1.00  0.00    -0.246 OA
BRANCH   6   8
ATOM      8  C   UNL A   1      29.881  25.571  24.403  1.00  0.00     0.101 C 
ATOM      9  C   UNL A   1      30.394  24.462  23.828  1.00  0.00     0.031 C 
BRANCH   9  10
ATOM     10  C   UNL A   1      31.496  23.529  24.192  1.00  0.00    -0.020 A 
ATOM     11  C   UNL A   1      33.573  21.602  24.386  1.00  0.00     0.160 A 
ATOM     12  C   UNL A   1      32.391  21.453  25.113  1.00  0.00     0.051 A 
ATOM     13  C   UNL A   1      33.749  22.735  23.589  1.00  0.00     0.161 A 
ATOM     14  C   UNL A   1      31.385  22.427  25.044  1.00  0.00     0.012 A 
ATOM     15  C   UNL A   1      32.708  23.673  23.492  1.00  0.00     0.058 A 
BRANCH  11  16
ATOM     16  O   UNL A   1      34.485  20.583  24.360  1.00  0.00    -0.493 OA
ATOM     17  C   UNL A   1      35.525  20.739  25.322  1.00  0.00     0.278 C 
ENDBRANCH  11  16
BRANCH  13  18
ATOM     18  O   UNL A   1      34.838  23.050  22.817  1.00  0.00    -0.493 OA
ATOM     19  C   UNL A   1      35.986  23.546  23.492  1.00  0.00     0.278 C 
ENDBRANCH  13  18
ENDBRANCH   9  10
BRANCH   8  20
ATOM     20  S   UNL A   1      28.426  26.392  23.895  1.00  0.00    -0.043 SA
BRANCH  20  21
ATOM     21  C   UNL A   1      28.991  27.821  23.124  1.00  0.00     0.188 A 
ATOM     22  N   UNL A   1      28.396  28.966  22.903  1.00  0.00    -0.206 NA
ATOM     23  N   UNL A   1      30.275  27.882  22.677  1.00  0.00    -0.254 N 
ATOM     24  C   UNL A   1      29.389  29.729  22.343  1.00  0.00     0.148 A 
ATOM     25  N   UNL A   1      30.554  29.093  22.160  1.00  0.00    -0.158 NA
ATOM     26  H   UNL A   1      30.917  27.137  22.724  1.00  0.00     0.192 HD
ATOM     27  C   UNL A   1      29.188  31.153  22.015  1.00  0.00     0.092 C 
ENDBRANCH  20  21
ENDBRANCH   8  20
ENDBRANCH   6   8
ENDBRANCH   5   6
ENDBRANCH   4   5
ENDBRANCH   3   4
ENDBRANCH   2   3
ENDBRANCH   1   2
BRANCH   1  28
ATOM     28  C   UNL A   1      33.857  31.297  27.670  1.00  0.00     0.261 C 
BRANCH  28  29
ATOM     29  O   UNL A   1      35.201  30.868  27.679  1.00  0.00    -0.460 OA
BRANCH  29  30
ATOM     30  C   UNL A   1      36.055  31.781  28.194  1.00  0.00     0.338 C 
ATOM     31  O   UNL A   1      36.193  32.941  27.859  1.00  0.00    -0.246 OA
BRANCH  30  32
ATOM     32  C   UNL A   1      36.924  31.069  29.131  1.00  0.00     0.060 A 
ATOM     33  C   UNL A   1      38.125  31.714  29.420  1.00  0.00     0.016 A 
ATOM     34  C   UNL A   1      36.727  29.695  29.332  1.00  0.00     0.016 A 
ATOM     35  C   UNL A   1      39.226  30.928  29.638  1.00  0.00     0.010 A 
ATOM     36  C   UNL A   1      37.835  28.912  29.495  1.00  0.00     0.010 A 
ATOM     37  C   UNL A   1      39.075  29.541  29.561  1.00  0.00    -0.014 A 
BRANCH  37  38
ATOM     38  C   UNL A   1      40.258  28.731  29.695  1.00  0.00     0.031 A 
ATOM     39  C   UNL A   1      40.635  28.564  31.108  1.00  0.00     0.074 A 
ATOM     40  C   UNL A   1      40.839  28.112  28.656  1.00  0.00     0.049 A 
ATOM     41  N   UNL A   1      41.586  29.162  31.741  1.00  0.00    -0.248 NA
ATOM     42  C   UNL A   1      39.676  27.862  31.980  1.00  0.00     0.031 C 
ATOM     43  C   UNL A   1      40.343  27.977  27.287  1.00  0.00     0.029 A 
ATOM     44  N   UNL A   1      41.965  27.357  28.656  1.00  0.00    -0.354 N 
ATOM     45  C   UNL A   1      41.498  28.675  33.038  1.00  0.00     0.074 A 
ATOM     46  C   UNL A   1      40.163  28.175  33.179  1.00  0.00     0.031 C 
ATOM     47  C   UNL A   1      41.041  27.000  26.664  1.00  0.00     0.029 A 
ATOM     48  C   UNL A   1      42.091  26.523  27.554  1.00  0.00     0.049 A 
ATOM     49  H   UNL A   1      42.635  27.395  29.376  1.00  0.00     0.167 HD
ATOM     50  C   UNL A   1      42.620  28.396  33.753  1.00  0.00     0.034 A 
ATOM     51  C   UNL A   1      42.929  25.457  27.451  1.00  0.00     0.034 A 
ATOM     52  C   UNL A   1      43.772  29.070  33.182  1.00  0.00     0.049 A 
ATOM     53  C   UNL A   1      43.988  25.628  28.485  1.00  0.00     0.074 A 
ATOM     54  C   UNL A   1      44.050  30.387  32.863  1.00  0.00     0.029 A 
ATOM     55  N   UNL A   1      44.686  28.321  32.470  1.00  0.00    -0.354 N 
ATOM     56  N   UNL A   1      44.875  26.584  28.452  1.00  0.00    -0.248 NA
ATOM     57  C   UNL A   1      43.758  25.057  29.807  1.00  0.00     0.031 C 
ATOM     58  C   UNL A   1      44.759  30.330  31.626  1.00  0.00     0.029 A 
ATOM     59  C   UNL A   1      44.954  28.987  31.297  1.00  0.00     0.049 A 
ATOM     60  H   UNL A   1      45.078  27.463  32.752  1.00  0.00     0.167 HD
ATOM     61  C   UNL A   1      44.982  27.030  29.762  1.00  0.00     0.074 A 
ATOM     62  C   UNL A   1      44.353  25.983  30.565  1.00  0.00     0.031 C 
ATOM     63  C   UNL A   1      45.296  28.331  30.045  1.00  0.00     0.034 A 
BRANCH  50  64
ATOM     64  C   UNL A   1      42.739  27.210  34.690  1.00  0.00     0.023 A 
ATOM     65  C   UNL A   1      43.536  26.144  34.247  1.00  0.00     0.031 A 
ATOM     66  C   UNL A   1      41.937  26.936  35.828  1.00  0.00     0.131 A 
ATOM     67  C   UNL A   1      43.424  24.869  34.825  1.00  0.00     0.055 A 
ATOM     68  C   UNL A   1      41.879  25.683  36.441  1.00  0.00     0.041 A 
ATOM     69  F   UNL A   1      41.097  27.819  36.377  1.00  0.00    -0.206 F 
ATOM     70  C   UNL A   1      42.597  24.627  35.916  1.00  0.00     0.022 A 
BRANCH  67  71
ATOM     71  S   UNL A   1      44.245  23.490  33.995  1.00  0.00     0.124 S 
ATOM     72  O   UNL A   1      43.163  22.963  33.171  1.00  0.00    -0.237 OA
ATOM     73  O   UNL A   1      45.323  24.172  33.287  1.00  0.00    -0.237 OA
ATOM     74  O   UNL A   1      44.666  22.635  35.101  1.00  0.00    -0.744 OA
ENDBRANCH  67  71
ENDBRANCH  50  64
BRANCH  51  75
ATOM     75  C   UNL A   1      42.659  24.168  26.756  1.00  0.00     0.023 A 
ATOM     76  C   UNL A   1      43.604  23.547  25.913  1.00  0.00     0.031 A 
ATOM     77  C   UNL A   1      41.522  23.400  27.103  1.00  0.00     0.131 A 
ATOM     78  C   UNL A   1      43.391  22.226  25.454  1.00  0.00     0.055 A 
ATOM     79  C   UNL A   1      41.310  22.102  26.635  1.00  0.00     0.041 A 
ATOM     80  F   UNL A   1      40.615  23.852  27.983  1.00  0.00    -0.206 F 
ATOM     81  C   UNL A   1      42.250  21.504  25.815  1.00  0.00     0.022 A 
BRANCH  78  82
ATOM     82  S   UNL A   1      44.657  21.377  24.455  1.00  0.00     0.124 S 
ATOM     83  O   UNL A   1      44.253  19.981  24.562  1.00  0.00    -0.237 OA
ATOM     84  O   UNL A   1      44.496  22.003  23.147  1.00  0.00    -0.237 OA
ATOM     85  O   UNL A   1      45.908  21.709  25.139  1.00  0.00    -0.744 OA
ENDBRANCH  78  82
ENDBRANCH  51  75
BRANCH  63  86
ATOM     86  C   UNL A   1      45.831  29.204  28.922  1.00  0.00     0.023 A 
ATOM     87  C   UNL A   1      45.140  30.294  28.343  1.00  0.00     0.031 A 
ATOM     88  C   UNL A   1      47.146  28.968  28.483  1.00  0.00     0.131 A 
ATOM     89  C   UNL A   1      45.756  31.077  27.346  1.00  0.00     0.055 A 
ATOM     90  C   UNL A   1      47.763  29.760  27.513  1.00  0.00     0.041 A 
ATOM     91  F   UNL A   1      47.872  27.968  29.010  1.00  0.00    -0.206 F 
ATOM     92  C   UNL A   1      47.065  30.811  26.933  1.00  0.00     0.022 A 
BRANCH  89  93
ATOM     93  S   UNL A   1      44.853  32.435  26.534  1.00  0.00     0.124 S 
ATOM     94  O   UNL A   1      44.389  33.256  27.644  1.00  0.00    -0.237 OA
ATOM     95  O   UNL A   1      45.882  33.030  25.685  1.00  0.00    -0.237 OA
ATOM     96  O   UNL A   1      43.789  31.741  25.803  1.00  0.00    -0.744 OA
ENDBRANCH  89  93
ENDBRANCH  63  86
ENDBRANCH  37  38
ENDBRANCH  30  32
ENDBRANCH  29  30
ENDBRANCH  28  29
ENDBRANCH   1  28
TORSDOF 22
ENDMDL
