MODEL 1
REMARK VINA RESULT:     -10.9      0.000      0.000
REMARK SMILES CNc1nccc(-c2cc(C(=O)OCCOCCOC(=O)c3ccc(-c4c5nc(c(-c6cc(S(=O)(=O)[O-])ccc6F)c6ccc([nH]6)c(-c6cc(S(=O)(=O)[O-])ccc6F)c6nc(c(-c7cc(S(=O)(=O)[O-])ccc7F)c7ccc4[nH]7)C=C6)C=C5)cc3)ccn2)n1
REMARK SMILES IDX 17 1 16 2 15 3 14 4 13 5 11 6 12 7 10 8 8 9 9 10 87 11 86 12
REMARK SMILES IDX 85 13 7 14 3 15 4 16 88 17 5 18 6 19 2 20 1 21 18 23 19 24
REMARK SMILES IDX 20 25 21 26 22 27 23 28 84 29 24 30 83 31 25 32 26 33 27 34
REMARK SMILES IDX 77 35 28 36 82 37 76 38 78 39 29 40 81 41 75 42 74 43 30 45
REMARK SMILES IDX 62 46 42 47 61 48 43 49 46 50 60 51 79 52 44 53 45 54 59 56
REMARK SMILES IDX 80 57 47 58 31 59 32 60 40 61 33 62 39 63 41 64 38 65 34 66
REMARK SMILES IDX 35 67 36 68 37 69 63 70 64 71 72 72 65 73 71 74 73 75 70 76
REMARK SMILES IDX 66 77 67 78 68 79 69 80 48 81 49 82 57 83 50 84 56 85 58 86
REMARK SMILES IDX 55 87 51 88 52 89 53 90 54 91
REMARK H PARENT 2 22 78 44 46 55
REMARK Flexibility Score: inf
ROOT
ATOM      1  C   UNL A   1      36.131  19.936  24.986  1.00  0.00     0.202 C 
ENDROOT
BRANCH   1   2
ATOM      2  O   UNL A   1      35.476  21.161  25.316  1.00  0.00    -0.374 OA
BRANCH   2   3
ATOM      3  C   UNL A   1      34.059  21.214  25.160  1.00  0.00     0.202 C 
BRANCH   3   4
ATOM      4  C   UNL A   1      33.423  22.608  25.100  1.00  0.00     0.261 C 
BRANCH   4   5
ATOM      5  O   UNL A   1      34.414  23.638  24.945  1.00  0.00    -0.460 OA
BRANCH   5   6
ATOM      6  C   UNL A   1      34.532  24.140  23.695  1.00  0.00     0.338 C 
ATOM      7  O   UNL A   1      35.134  23.647  22.752  1.00  0.00    -0.246 OA
BRANCH   6   8
ATOM      8  C   UNL A   1      33.662  25.327  23.546  1.00  0.00     0.063 A 
ATOM      9  C   UNL A   1      32.781  27.438  24.260  1.00  0.00     0.090 A 
ATOM     10  C   UNL A   1      33.593  26.332  24.510  1.00  0.00     0.046 A 
ATOM     11  N   UNL A   1      32.015  27.518  23.136  1.00  0.00    -0.255 NA
ATOM     12  C   UNL A   1      32.078  26.513  22.240  1.00  0.00     0.112 A 
ATOM     13  C   UNL A   1      32.894  25.415  22.386  1.00  0.00     0.036 A 
BRANCH   9  14
ATOM     14  C   UNL A   1      32.818  28.649  25.109  1.00  0.00     0.094 A 
ATOM     15  C   UNL A   1      33.973  29.970  26.601  1.00  0.00     0.222 A 
ATOM     16  N   UNL A   1      32.900  30.730  26.852  1.00  0.00    -0.222 NA
ATOM     17  N   UNL A   1      33.976  28.932  25.753  1.00  0.00    -0.211 NA
ATOM     18  C   UNL A   1      31.779  30.452  26.172  1.00  0.00     0.117 A 
ATOM     19  C   UNL A   1      31.682  29.419  25.278  1.00  0.00     0.051 A 
BRANCH  15  20
ATOM     20  N   UNL A   1      35.108  30.367  27.255  1.00  0.00    -0.357 N 
ATOM     21  C   UNL A   1      36.122  29.426  27.630  1.00  0.00     0.143 C 
ATOM     22  H   UNL A   1      35.231  31.319  27.473  1.00  0.00     0.163 HD
ENDBRANCH  15  20
ENDBRANCH   9  14
ENDBRANCH   6   8
ENDBRANCH   5   6
ENDBRANCH   4   5
ENDBRANCH   3   4
ENDBRANCH   2   3
ENDBRANCH   1   2
BRANCH   1  23
ATOM     23  C   UNL A   1      37.665  19.919  25.001  1.00  0.00     0.261 C 
BRANCH  23  24
ATOM     24  O   UNL A   1      38.234  21.166  25.432  1.00  0.00    -0.460 OA
BRANCH  24  25
ATOM     25  C   UNL A   1      39.398  21.044  26.116  1.00  0.00     0.338 C 
ATOM     26  O   UNL A   1      40.120  20.059  26.163  1.00  0.00    -0.246 OA
BRANCH  25  27
ATOM     27  C   UNL A   1      39.798  22.350  26.671  1.00  0.00     0.060 A 
ATOM     28  C   UNL A   1      39.156  23.488  26.167  1.00  0.00     0.016 A 
ATOM     29  C   UNL A   1      40.827  22.472  27.608  1.00  0.00     0.016 A 
ATOM     30  C   UNL A   1      39.572  24.757  26.562  1.00  0.00     0.010 A 
ATOM     31  C   UNL A   1      41.247  23.748  27.997  1.00  0.00     0.010 A 
ATOM     32  C   UNL A   1      40.645  24.897  27.450  1.00  0.00    -0.014 A 
BRANCH  32  33
ATOM     33  C   UNL A   1      41.221  26.244  27.698  1.00  0.00     0.031 A 
ATOM     34  C   UNL A   1      42.568  26.581  27.118  1.00  0.00     0.074 A 
ATOM     35  C   UNL A   1      40.537  27.163  28.405  1.00  0.00     0.049 A 
ATOM     36  N   UNL A   1      43.276  27.674  27.242  1.00  0.00    -0.248 NA
ATOM     37  C   UNL A   1      43.204  25.542  26.292  1.00  0.00     0.031 C 
ATOM     38  C   UNL A   1      39.207  26.964  28.981  1.00  0.00     0.029 A 
ATOM     39  N   UNL A   1      40.871  28.444  28.769  1.00  0.00    -0.354 N 
ATOM     40  C   UNL A   1      44.447  27.451  26.524  1.00  0.00     0.074 A 
ATOM     41  C   UNL A   1      44.364  26.107  25.993  1.00  0.00     0.031 C 
ATOM     42  C   UNL A   1      38.845  28.080  29.636  1.00  0.00     0.029 A 
ATOM     43  C   UNL A   1      39.931  29.055  29.565  1.00  0.00     0.049 A 
ATOM     44  H   UNL A   1      41.705  28.883  28.486  1.00  0.00     0.167 HD
ATOM     45  C   UNL A   1      45.490  28.293  26.324  1.00  0.00     0.034 A 
ATOM     46  C   UNL A   1      39.957  30.250  30.191  1.00  0.00     0.034 A 
ATOM     47  C   UNL A   1      45.554  29.632  26.861  1.00  0.00     0.049 A 
ATOM     48  C   UNL A   1      41.163  31.143  30.010  1.00  0.00     0.074 A 
ATOM     49  C   UNL A   1      46.545  30.581  26.685  1.00  0.00     0.029 A 
ATOM     50  N   UNL A   1      44.599  30.205  27.690  1.00  0.00    -0.354 N 
ATOM     51  N   UNL A   1      42.251  30.932  29.304  1.00  0.00    -0.248 NA
ATOM     52  C   UNL A   1      41.138  32.439  30.699  1.00  0.00     0.031 C 
ATOM     53  C   UNL A   1      46.233  31.693  27.474  1.00  0.00     0.029 A 
ATOM     54  C   UNL A   1      45.000  31.477  28.069  1.00  0.00     0.049 A 
ATOM     55  H   UNL A   1      43.760  29.771  27.968  1.00  0.00     0.167 HD
ATOM     56  C   UNL A   1      43.022  32.084  29.440  1.00  0.00     0.074 A 
ATOM     57  C   UNL A   1      42.267  32.991  30.280  1.00  0.00     0.031 C 
ATOM     58  C   UNL A   1      44.242  32.370  28.916  1.00  0.00     0.034 A 
BRANCH  45  59
ATOM     59  C   UNL A   1      46.673  27.773  25.542  1.00  0.00     0.023 A 
ATOM     60  C   UNL A   1      46.896  28.121  24.199  1.00  0.00     0.031 A 
ATOM     61  C   UNL A   1      47.594  26.903  26.157  1.00  0.00     0.131 A 
ATOM     62  C   UNL A   1      47.974  27.559  23.499  1.00  0.00     0.055 A 
ATOM     63  C   UNL A   1      48.708  26.409  25.477  1.00  0.00     0.041 A 
ATOM     64  F   UNL A   1      47.421  26.514  27.429  1.00  0.00    -0.206 F 
ATOM     65  C   UNL A   1      48.897  26.727  24.136  1.00  0.00     0.022 A 
BRANCH  62  66
ATOM     66  S   UNL A   1      48.084  27.827  21.707  1.00  0.00     0.124 S 
ATOM     67  O   UNL A   1      46.781  28.421  21.418  1.00  0.00    -0.237 OA
ATOM     68  O   UNL A   1      49.231  28.718  21.591  1.00  0.00    -0.237 OA
ATOM     69  O   UNL A   1      48.279  26.482  21.171  1.00  0.00    -0.744 OA
ENDBRANCH  62  66
ENDBRANCH  45  59
BRANCH  46  70
ATOM     70  C   UNL A   1      38.839  30.658  31.092  1.00  0.00     0.023 A 
ATOM     71  C   UNL A   1      37.709  31.328  30.598  1.00  0.00     0.031 A 
ATOM     72  C   UNL A   1      38.919  30.443  32.481  1.00  0.00     0.131 A 
ATOM     73  C   UNL A   1      36.735  31.809  31.488  1.00  0.00     0.055 A 
ATOM     74  C   UNL A   1      37.918  30.867  33.354  1.00  0.00     0.041 A 
ATOM     75  F   UNL A   1      39.979  29.810  33.010  1.00  0.00    -0.206 F 
ATOM     76  C   UNL A   1      36.825  31.570  32.860  1.00  0.00     0.022 A 
BRANCH  73  77
ATOM     77  S   UNL A   1      35.399  32.847  30.835  1.00  0.00     0.124 S 
ATOM     78  O   UNL A   1      36.017  34.168  30.848  1.00  0.00    -0.237 OA
ATOM     79  O   UNL A   1      35.173  32.256  29.519  1.00  0.00    -0.237 OA
ATOM     80  O   UNL A   1      34.317  32.653  31.797  1.00  0.00    -0.744 OA
ENDBRANCH  73  77
ENDBRANCH  46  70
BRANCH  58  81
ATOM     81  C   UNL A   1      44.810  33.743  29.195  1.00  0.00     0.023 A 
ATOM     82  C   UNL A   1      44.527  34.847  28.372  1.00  0.00     0.031 A 
ATOM     83  C   UNL A   1      45.656  33.944  30.301  1.00  0.00     0.131 A 
ATOM     84  C   UNL A   1      45.134  36.086  28.631  1.00  0.00     0.055 A 
ATOM     85  C   UNL A   1      46.201  35.196  30.592  1.00  0.00     0.041 A 
ATOM     86  F   UNL A   1      45.965  32.927  31.120  1.00  0.00    -0.206 F 
ATOM     87  C   UNL A   1      45.953  36.272  29.747  1.00  0.00     0.022 A 
BRANCH  84  88
ATOM     88  S   UNL A   1      44.920  37.429  27.429  1.00  0.00     0.124 S 
ATOM     89  O   UNL A   1      45.043  38.613  28.272  1.00  0.00    -0.237 OA
ATOM     90  O   UNL A   1      46.018  37.191  26.498  1.00  0.00    -0.237 OA
ATOM     91  O   UNL A   1      43.584  37.191  26.884  1.00  0.00    -0.744 OA
ENDBRANCH  84  88
ENDBRANCH  58  81
ENDBRANCH  32  33
ENDBRANCH  25  27
ENDBRANCH  24  25
ENDBRANCH  23  24
ENDBRANCH   1  23
TORSDOF 19
ENDMDL
MODEL 2
REMARK VINA RESULT:     -10.7      1.675      7.876
REMARK SMILES CNc1nccc(-c2cc(C(=O)OCCOCCOC(=O)c3ccc(-c4c5nc(c(-c6cc(S(=O)(=O)[O-])ccc6F)c6ccc([nH]6)c(-c6cc(S(=O)(=O)[O-])ccc6F)c6nc(c(-c7cc(S(=O)(=O)[O-])ccc7F)c7ccc4[nH]7)C=C6)C=C5)cc3)ccn2)n1
REMARK SMILES IDX 17 1 16 2 15 3 14 4 13 5 11 6 12 7 10 8 8 9 9 10 87 11 86 12
REMARK SMILES IDX 85 13 7 14 3 15 4 16 88 17 5 18 6 19 2 20 1 21 18 23 19 24
REMARK SMILES IDX 20 25 21 26 22 27 23 28 84 29 24 30 83 31 25 32 26 33 27 34
REMARK SMILES IDX 77 35 28 36 82 37 76 38 78 39 29 40 81 41 75 42 74 43 30 45
REMARK SMILES IDX 62 46 42 47 61 48 43 49 46 50 60 51 79 52 44 53 45 54 59 56
REMARK SMILES IDX 80 57 47 58 31 59 32 60 40 61 33 62 39 63 41 64 38 65 34 66
REMARK SMILES IDX 35 67 36 68 37 69 63 70 64 71 72 72 65 73 71 74 73 75 70 76
REMARK SMILES IDX 66 77 67 78 68 79 69 80 48 81 49 82 57 83 50 84 56 85 58 86
REMARK SMILES IDX 55 87 51 88 52 89 53 90 54 91
REMARK H PARENT 2 22 78 44 46 55
REMARK Flexibility Score: inf
ROOT
ATOM      1  C   UNL A   1      35.385  20.482  24.941  1.00  0.00     0.202 C 
ENDROOT
BRANCH   1   2
ATOM      2  O   UNL A   1      34.951  21.715  24.369  1.00  0.00    -0.374 OA
BRANCH   2   3
ATOM      3  C   UNL A   1      34.014  22.494  25.111  1.00  0.00     0.202 C 
BRANCH   3   4
ATOM      4  C   UNL A   1      34.024  24.007  24.865  1.00  0.00     0.261 C 
BRANCH   4   5
ATOM      5  O   UNL A   1      32.880  24.429  24.104  1.00  0.00    -0.460 OA
BRANCH   5   6
ATOM      6  C   UNL A   1      33.154  24.901  22.866  1.00  0.00     0.338 C 
ATOM      7  O   UNL A   1      33.529  24.260  21.895  1.00  0.00    -0.246 OA
BRANCH   6   8
ATOM      8  C   UNL A   1      32.761  26.324  22.773  1.00  0.00     0.063 A 
ATOM      9  C   UNL A   1      31.168  28.090  22.482  1.00  0.00     0.090 A 
ATOM     10  C   UNL A   1      31.453  26.724  22.503  1.00  0.00     0.046 A 
ATOM     11  N   UNL A   1      32.145  29.023  22.653  1.00  0.00    -0.255 NA
ATOM     12  C   UNL A   1      33.406  28.603  22.878  1.00  0.00     0.112 A 
ATOM     13  C   UNL A   1      33.760  27.276  22.967  1.00  0.00     0.036 A 
BRANCH   9  14
ATOM     14  C   UNL A   1      29.781  28.602  22.431  1.00  0.00     0.094 A 
ATOM     15  C   UNL A   1      28.299  30.193  21.671  1.00  0.00     0.222 A 
ATOM     16  N   UNL A   1      27.311  29.733  22.450  1.00  0.00    -0.222 NA
ATOM     17  N   UNL A   1      29.531  29.669  21.633  1.00  0.00    -0.211 NA
ATOM     18  C   UNL A   1      27.575  28.654  23.200  1.00  0.00     0.117 A 
ATOM     19  C   UNL A   1      28.798  28.040  23.225  1.00  0.00     0.051 A 
BRANCH  15  20
ATOM     20  N   UNL A   1      27.936  31.236  20.861  1.00  0.00    -0.357 N 
ATOM     21  C   UNL A   1      28.036  32.596  21.303  1.00  0.00     0.143 C 
ATOM     22  H   UNL A   1      27.599  31.047  19.955  1.00  0.00     0.163 HD
ENDBRANCH  15  20
ENDBRANCH   9  14
ENDBRANCH   6   8
ENDBRANCH   5   6
ENDBRANCH   4   5
ENDBRANCH   3   4
ENDBRANCH   2   3
ENDBRANCH   1   2
BRANCH   1  23
ATOM     23  C   UNL A   1      36.895  20.258  25.099  1.00  0.00     0.261 C 
BRANCH  23  24
ATOM     24  O   UNL A   1      37.585  21.422  25.582  1.00  0.00    -0.460 OA
BRANCH  24  25
ATOM     25  C   UNL A   1      38.868  21.195  25.958  1.00  0.00     0.338 C 
ATOM     26  O   UNL A   1      39.537  20.202  25.718  1.00  0.00    -0.246 OA
BRANCH  25  27
ATOM     27  C   UNL A   1      39.442  22.414  26.557  1.00  0.00     0.060 A 
ATOM     28  C   UNL A   1      38.953  23.646  26.104  1.00  0.00     0.016 A 
ATOM     29  C   UNL A   1      40.483  22.363  27.486  1.00  0.00     0.016 A 
ATOM     30  C   UNL A   1      39.538  24.833  26.541  1.00  0.00     0.010 A 
ATOM     31  C   UNL A   1      41.072  23.556  27.918  1.00  0.00     0.010 A 
ATOM     32  C   UNL A   1      40.625  24.795  27.422  1.00  0.00    -0.014 A 
BRANCH  32  33
ATOM     33  C   UNL A   1      41.376  26.043  27.713  1.00  0.00     0.031 A 
ATOM     34  C   UNL A   1      40.692  27.146  28.476  1.00  0.00     0.074 A 
ATOM     35  C   UNL A   1      42.658  26.178  27.328  1.00  0.00     0.049 A 
ATOM     36  N   UNL A   1      41.139  28.331  28.803  1.00  0.00    -0.248 NA
ATOM     37  C   UNL A   1      39.317  26.877  28.925  1.00  0.00     0.031 C 
ATOM     38  C   UNL A   1      43.437  25.161  26.621  1.00  0.00     0.029 A 
ATOM     39  N   UNL A   1      43.531  27.228  27.470  1.00  0.00    -0.354 N 
ATOM     40  C   UNL A   1      40.098  28.956  29.481  1.00  0.00     0.074 A 
ATOM     41  C   UNL A   1      38.988  28.028  29.493  1.00  0.00     0.031 C 
ATOM     42  C   UNL A   1      44.666  25.645  26.378  1.00  0.00     0.029 A 
ATOM     43  C   UNL A   1      44.751  27.017  26.873  1.00  0.00     0.049 A 
ATOM     44  H   UNL A   1      43.303  28.056  27.952  1.00  0.00     0.167 HD
ATOM     45  C   UNL A   1      40.075  30.188  30.047  1.00  0.00     0.034 A 
ATOM     46  C   UNL A   1      45.804  27.846  26.716  1.00  0.00     0.034 A 
ATOM     47  C   UNL A   1      41.194  31.100  30.026  1.00  0.00     0.049 A 
ATOM     48  C   UNL A   1      45.728  29.240  27.294  1.00  0.00     0.074 A 
ATOM     49  C   UNL A   1      41.290  32.355  30.602  1.00  0.00     0.029 A 
ATOM     50  N   UNL A   1      42.403  30.866  29.384  1.00  0.00    -0.354 N 
ATOM     51  N   UNL A   1      44.748  29.808  27.959  1.00  0.00    -0.248 NA
ATOM     52  C   UNL A   1      46.905  30.100  27.110  1.00  0.00     0.031 C 
ATOM     53  C   UNL A   1      42.520  32.912  30.237  1.00  0.00     0.029 A 
ATOM     54  C   UNL A   1      43.232  31.969  29.513  1.00  0.00     0.049 A 
ATOM     55  H   UNL A   1      42.637  30.036  28.907  1.00  0.00     0.167 HD
ATOM     56  C   UNL A   1      45.206  31.080  28.300  1.00  0.00     0.074 A 
ATOM     57  C   UNL A   1      46.555  31.186  27.783  1.00  0.00     0.031 C 
ATOM     58  C   UNL A   1      44.573  32.068  28.983  1.00  0.00     0.034 A 
BRANCH  45  59
ATOM     59  C   UNL A   1      38.783  30.646  30.680  1.00  0.00     0.023 A 
ATOM     60  C   UNL A   1      37.842  31.426  29.984  1.00  0.00     0.031 A 
ATOM     61  C   UNL A   1      38.490  30.298  32.012  1.00  0.00     0.131 A 
ATOM     62  C   UNL A   1      36.687  31.879  30.638  1.00  0.00     0.055 A 
ATOM     63  C   UNL A   1      37.302  30.687  32.632  1.00  0.00     0.041 A 
ATOM     64  F   UNL A   1      39.360  29.576  32.735  1.00  0.00    -0.206 F 
ATOM     65  C   UNL A   1      36.397  31.492  31.949  1.00  0.00     0.022 A 
BRANCH  62  66
ATOM     66  S   UNL A   1      35.628  33.088  29.797  1.00  0.00     0.124 S 
ATOM     67  O   UNL A   1      35.488  34.120  30.821  1.00  0.00    -0.237 OA
ATOM     68  O   UNL A   1      36.425  33.449  28.631  1.00  0.00    -0.237 OA
ATOM     69  O   UNL A   1      34.408  32.335  29.511  1.00  0.00    -0.744 OA
ENDBRANCH  62  66
ENDBRANCH  45  59
BRANCH  46  70
ATOM     70  C   UNL A   1      47.001  27.412  25.936  1.00  0.00     0.023 A 
ATOM     71  C   UNL A   1      47.185  27.805  24.601  1.00  0.00     0.031 A 
ATOM     72  C   UNL A   1      47.946  26.535  26.498  1.00  0.00     0.131 A 
ATOM     73  C   UNL A   1      48.253  27.278  23.857  1.00  0.00     0.055 A 
ATOM     74  C   UNL A   1      49.042  26.064  25.774  1.00  0.00     0.041 A 
ATOM     75  F   UNL A   1      47.819  26.124  27.771  1.00  0.00    -0.206 F 
ATOM     76  C   UNL A   1      49.191  26.423  24.439  1.00  0.00     0.022 A 
BRANCH  73  77
ATOM     77  S   UNL A   1      48.340  27.643  22.083  1.00  0.00     0.124 S 
ATOM     78  O   UNL A   1      47.058  28.298  21.852  1.00  0.00    -0.237 OA
ATOM     79  O   UNL A   1      49.521  28.498  22.008  1.00  0.00    -0.237 OA
ATOM     80  O   UNL A   1      48.488  26.325  21.472  1.00  0.00    -0.744 OA
ENDBRANCH  73  77
ENDBRANCH  46  70
BRANCH  58  81
ATOM     81  C   UNL A   1      45.356  33.332  29.254  1.00  0.00     0.023 A 
ATOM     82  C   UNL A   1      45.330  34.428  28.372  1.00  0.00     0.031 A 
ATOM     83  C   UNL A   1      46.150  33.437  30.411  1.00  0.00     0.131 A 
ATOM     84  C   UNL A   1      46.129  35.553  28.630  1.00  0.00     0.055 A 
ATOM     85  C   UNL A   1      46.888  34.586  30.697  1.00  0.00     0.041 A 
ATOM     86  F   UNL A   1      46.217  32.422  31.288  1.00  0.00    -0.206 F 
ATOM     87  C   UNL A   1      46.892  35.646  29.797  1.00  0.00     0.022 A 
BRANCH  84  88
ATOM     88  S   UNL A   1      46.238  36.851  27.368  1.00  0.00     0.124 S 
ATOM     89  O   UNL A   1      47.271  37.722  27.918  1.00  0.00    -0.237 OA
ATOM     90  O   UNL A   1      46.609  36.097  26.175  1.00  0.00    -0.237 OA
ATOM     91  O   UNL A   1      44.892  37.421  27.346  1.00  0.00    -0.744 OA
ENDBRANCH  84  88
ENDBRANCH  58  81
ENDBRANCH  32  33
ENDBRANCH  25  27
ENDBRANCH  24  25
ENDBRANCH  23  24
ENDBRANCH   1  23
TORSDOF 19
ENDMDL
MODEL 3
REMARK VINA RESULT:     -10.7      2.724      4.372
REMARK SMILES CNc1nccc(-c2cc(C(=O)OCCOCCOC(=O)c3ccc(-c4c5nc(c(-c6cc(S(=O)(=O)[O-])ccc6F)c6ccc([nH]6)c(-c6cc(S(=O)(=O)[O-])ccc6F)c6nc(c(-c7cc(S(=O)(=O)[O-])ccc7F)c7ccc4[nH]7)C=C6)C=C5)cc3)ccn2)n1
REMARK SMILES IDX 17 1 16 2 15 3 14 4 13 5 11 6 12 7 10 8 8 9 9 10 87 11 86 12
REMARK SMILES IDX 85 13 7 14 3 15 4 16 88 17 5 18 6 19 2 20 1 21 18 23 19 24
REMARK SMILES IDX 20 25 21 26 22 27 23 28 84 29 24 30 83 31 25 32 26 33 27 34
REMARK SMILES IDX 77 35 28 36 82 37 76 38 78 39 29 40 81 41 75 42 74 43 30 45
REMARK SMILES IDX 62 46 42 47 61 48 43 49 46 50 60 51 79 52 44 53 45 54 59 56
REMARK SMILES IDX 80 57 47 58 31 59 32 60 40 61 33 62 39 63 41 64 38 65 34 66
REMARK SMILES IDX 35 67 36 68 37 69 63 70 64 71 72 72 65 73 71 74 73 75 70 76
REMARK SMILES IDX 66 77 67 78 68 79 69 80 48 81 49 82 57 83 50 84 56 85 58 86
REMARK SMILES IDX 55 87 51 88 52 89 53 90 54 91
REMARK H PARENT 2 22 78 44 46 55
REMARK Flexibility Score: inf
ROOT
ATOM      1  C   UNL A   1      37.449  20.075  24.729  1.00  0.00     0.202 C 
ENDROOT
BRANCH   1   2
ATOM      2  O   UNL A   1      37.454  21.467  24.413  1.00  0.00    -0.374 OA
BRANCH   2   3
ATOM      3  C   UNL A   1      36.593  22.319  25.167  1.00  0.00     0.202 C 
BRANCH   3   4
ATOM      4  C   UNL A   1      36.308  23.707  24.582  1.00  0.00     0.261 C 
BRANCH   4   5
ATOM      5  O   UNL A   1      35.207  23.678  23.657  1.00  0.00    -0.460 OA
BRANCH   5   6
ATOM      6  C   UNL A   1      34.059  24.231  24.112  1.00  0.00     0.338 C 
ATOM      7  O   UNL A   1      33.726  25.406  24.047  1.00  0.00    -0.246 OA
BRANCH   6   8
ATOM      8  C   UNL A   1      33.134  23.169  24.564  1.00  0.00     0.063 A 
ATOM      9  C   UNL A   1      32.309  20.920  24.593  1.00  0.00     0.090 A 
ATOM     10  C   UNL A   1      33.191  21.866  24.071  1.00  0.00     0.046 A 
ATOM     11  N   UNL A   1      31.365  21.259  25.514  1.00  0.00    -0.255 NA
ATOM     12  C   UNL A   1      31.314  22.536  25.945  1.00  0.00     0.112 A 
ATOM     13  C   UNL A   1      32.182  23.516  25.521  1.00  0.00     0.036 A 
BRANCH   9  14
ATOM     14  C   UNL A   1      32.443  19.476  24.302  1.00  0.00     0.094 A 
ATOM     15  C   UNL A   1      32.699  17.326  25.089  1.00  0.00     0.222 A 
ATOM     16  N   UNL A   1      32.902  16.835  23.861  1.00  0.00    -0.222 NA
ATOM     17  N   UNL A   1      32.473  18.620  25.353  1.00  0.00    -0.211 NA
ATOM     18  C   UNL A   1      32.829  17.697  22.837  1.00  0.00     0.117 A 
ATOM     19  C   UNL A   1      32.594  19.036  23.000  1.00  0.00     0.051 A 
BRANCH  15  20
ATOM     20  N   UNL A   1      32.692  16.380  26.079  1.00  0.00    -0.357 N 
ATOM     21  C   UNL A   1      32.793  14.982  25.777  1.00  0.00     0.143 C 
ATOM     22  H   UNL A   1      32.616  16.665  27.018  1.00  0.00     0.163 HD
ENDBRANCH  15  20
ENDBRANCH   9  14
ENDBRANCH   6   8
ENDBRANCH   5   6
ENDBRANCH   4   5
ENDBRANCH   3   4
ENDBRANCH   2   3
ENDBRANCH   1   2
BRANCH   1  23
ATOM     23  C   UNL A   1      38.670  19.503  25.459  1.00  0.00     0.261 C 
BRANCH  23  24
ATOM     24  O   UNL A   1      39.755  20.441  25.553  1.00  0.00    -0.460 OA
BRANCH  24  25
ATOM     25  C   UNL A   1      40.404  20.427  26.744  1.00  0.00     0.338 C 
ATOM     26  O   UNL A   1      40.881  19.454  27.307  1.00  0.00    -0.246 OA
BRANCH  25  27
ATOM     27  C   UNL A   1      40.637  21.807  27.209  1.00  0.00     0.060 A 
ATOM     28  C   UNL A   1      39.962  22.835  26.538  1.00  0.00     0.016 A 
ATOM     29  C   UNL A   1      41.547  22.102  28.226  1.00  0.00     0.016 A 
ATOM     30  C   UNL A   1      40.231  24.166  26.849  1.00  0.00     0.010 A 
ATOM     31  C   UNL A   1      41.819  23.440  28.531  1.00  0.00     0.010 A 
ATOM     32  C   UNL A   1      41.188  24.479  27.821  1.00  0.00    -0.014 A 
BRANCH  32  33
ATOM     33  C   UNL A   1      41.624  25.888  27.995  1.00  0.00     0.031 A 
ATOM     34  C   UNL A   1      42.962  26.311  27.453  1.00  0.00     0.074 A 
ATOM     35  C   UNL A   1      40.823  26.783  28.602  1.00  0.00     0.049 A 
ATOM     36  N   UNL A   1      43.559  27.473  27.527  1.00  0.00    -0.248 NA
ATOM     37  C   UNL A   1      43.732  25.284  26.733  1.00  0.00     0.031 C 
ATOM     38  C   UNL A   1      39.489  26.499  29.131  1.00  0.00     0.029 A 
ATOM     39  N   UNL A   1      41.018  28.113  28.886  1.00  0.00    -0.354 N 
ATOM     40  C   UNL A   1      44.780  27.314  26.880  1.00  0.00     0.074 A 
ATOM     41  C   UNL A   1      44.849  25.935  26.446  1.00  0.00     0.031 C 
ATOM     42  C   UNL A   1      38.993  27.617  29.686  1.00  0.00     0.029 A 
ATOM     43  C   UNL A   1      39.987  28.684  29.592  1.00  0.00     0.049 A 
ATOM     44  H   UNL A   1      41.822  28.609  28.609  1.00  0.00     0.167 HD
ATOM     45  C   UNL A   1      45.751  28.237  26.665  1.00  0.00     0.034 A 
ATOM     46  C   UNL A   1      39.870  29.916  30.130  1.00  0.00     0.034 A 
ATOM     47  C   UNL A   1      45.663  29.609  27.105  1.00  0.00     0.049 A 
ATOM     48  C   UNL A   1      40.996  30.906  29.938  1.00  0.00     0.074 A 
ATOM     49  C   UNL A   1      46.571  30.634  26.905  1.00  0.00     0.029 A 
ATOM     50  N   UNL A   1      44.619  30.144  27.847  1.00  0.00    -0.354 N 
ATOM     51  N   UNL A   1      42.134  30.751  29.298  1.00  0.00    -0.248 NA
ATOM     52  C   UNL A   1      40.817  32.238  30.529  1.00  0.00     0.031 C 
ATOM     53  C   UNL A   1      46.117  31.762  27.596  1.00  0.00     0.029 A 
ATOM     54  C   UNL A   1      44.880  31.471  28.150  1.00  0.00     0.049 A 
ATOM     55  H   UNL A   1      43.810  29.652  28.119  1.00  0.00     0.167 HD
ATOM     56  C   UNL A   1      42.788  31.979  29.384  1.00  0.00     0.074 A 
ATOM     57  C   UNL A   1      41.911  32.865  30.120  1.00  0.00     0.031 C 
ATOM     58  C   UNL A   1      44.001  32.343  28.894  1.00  0.00     0.034 A 
BRANCH  45  59
ATOM     59  C   UNL A   1      47.014  27.779  25.977  1.00  0.00     0.023 A 
ATOM     60  C   UNL A   1      47.245  28.001  24.608  1.00  0.00     0.031 A 
ATOM     61  C   UNL A   1      48.007  27.100  26.709  1.00  0.00     0.131 A 
ATOM     62  C   UNL A   1      48.408  27.499  24.003  1.00  0.00     0.055 A 
ATOM     63  C   UNL A   1      49.196  26.672  26.117  1.00  0.00     0.041 A 
ATOM     64  F   UNL A   1      47.833  26.837  28.013  1.00  0.00    -0.206 F 
ATOM     65  C   UNL A   1      49.397  26.859  24.754  1.00  0.00     0.022 A 
BRANCH  62  66
ATOM     66  S   UNL A   1      48.552  27.577  22.196  1.00  0.00     0.124 S 
ATOM     67  O   UNL A   1      47.251  28.126  21.820  1.00  0.00    -0.237 OA
ATOM     68  O   UNL A   1      49.696  28.461  22.009  1.00  0.00    -0.237 OA
ATOM     69  O   UNL A   1      48.768  26.185  21.809  1.00  0.00    -0.744 OA
ENDBRANCH  62  66
ENDBRANCH  45  59
BRANCH  46  70
ATOM     70  C   UNL A   1      38.675  30.276  30.949  1.00  0.00     0.023 A 
ATOM     71  C   UNL A   1      37.595  30.980  30.394  1.00  0.00     0.031 A 
ATOM     72  C   UNL A   1      38.629  29.980  32.323  1.00  0.00     0.131 A 
ATOM     73  C   UNL A   1      36.543  31.413  31.218  1.00  0.00     0.055 A 
ATOM     74  C   UNL A   1      37.553  30.358  33.126  1.00  0.00     0.041 A 
ATOM     75  F   UNL A   1      39.637  29.312  32.909  1.00  0.00    -0.206 F 
ATOM     76  C   UNL A   1      36.508  31.093  32.577  1.00  0.00     0.022 A 
BRANCH  73  77
ATOM     77  S   UNL A   1      35.272  32.494  30.509  1.00  0.00     0.124 S 
ATOM     78  O   UNL A   1      34.365  32.665  31.637  1.00  0.00    -0.237 OA
ATOM     79  O   UNL A   1      36.053  33.668  30.128  1.00  0.00    -0.237 OA
ATOM     80  O   UNL A   1      34.744  31.711  29.394  1.00  0.00    -0.744 OA
ENDBRANCH  73  77
ENDBRANCH  46  70
BRANCH  58  81
ATOM     81  C   UNL A   1      44.425  33.780  29.097  1.00  0.00     0.023 A 
ATOM     82  C   UNL A   1      45.161  34.188  30.224  1.00  0.00     0.031 A 
ATOM     83  C   UNL A   1      44.076  34.759  28.149  1.00  0.00     0.131 A 
ATOM     84  C   UNL A   1      45.470  35.545  30.404  1.00  0.00     0.055 A 
ATOM     85  C   UNL A   1      44.447  36.096  28.299  1.00  0.00     0.041 A 
ATOM     86  F   UNL A   1      43.371  34.431  27.054  1.00  0.00    -0.206 F 
ATOM     87  C   UNL A   1      45.135  36.498  29.439  1.00  0.00     0.022 A 
BRANCH  84  88
ATOM     88  S   UNL A   1      46.228  36.065  31.969  1.00  0.00     0.124 S 
ATOM     89  O   UNL A   1      46.585  34.786  32.572  1.00  0.00    -0.237 OA
ATOM     90  O   UNL A   1      47.342  36.891  31.516  1.00  0.00    -0.237 OA
ATOM     91  O   UNL A   1      45.153  36.791  32.644  1.00  0.00    -0.744 OA
ENDBRANCH  84  88
ENDBRANCH  58  81
ENDBRANCH  32  33
ENDBRANCH  25  27
ENDBRANCH  24  25
ENDBRANCH  23  24
ENDBRANCH   1  23
TORSDOF 19
ENDMDL
