MODEL 1
REMARK VINA RESULT:     -11.2      0.000      0.000
REMARK SMILES Cc1cc(/C=C2\C(=O)N(Cc3ccco3)C(=O)N=C2OCCOCCOC(=O)c2ccc(-c3c4nc(c(-c5cc(S(=O)(=O)[O-])ccc5F)c5ccc([nH]5)c(-c5cc(S(=O)(=O)[O-])ccc5F)c5nc(c(-c6cc(S(=O)(=O)[O-])ccc6F)c6ccc3[nH]6)C=C5)C=C4)cc2)c(C)n1-c1ccc(Cl)c(C(=O)[O-])c1
REMARK SMILES IDX 24 1 23 2 22 3 21 4 20 5 19 6 5 7 6 8 7 9 8 10 9 11 18 12
REMARK SMILES IDX 16 13 17 14 4 15 1 16 2 17 3 18 94 19 92 20 93 21 95 22
REMARK SMILES IDX 96 23 104 24 97 25 100 26 98 27 99 28 101 29 102 30 103 31
REMARK SMILES IDX 10 32 11 33 12 34 15 35 13 36 14 37 25 38 26 39 27 40 28 41
REMARK SMILES IDX 29 42 30 43 91 44 31 45 90 46 32 47 33 48 34 49 84 50 35 51
REMARK SMILES IDX 89 52 83 53 85 54 36 55 88 56 82 57 81 58 37 60 69 61 49 62
REMARK SMILES IDX 68 63 50 64 53 65 67 66 86 67 51 68 52 69 66 71 87 72 54 73
REMARK SMILES IDX 38 74 39 75 47 76 40 77 46 78 48 79 45 80 41 81 42 82 43 83
REMARK SMILES IDX 44 84 70 85 71 86 79 87 72 88 78 89 80 90 77 91 73 92 74 93
REMARK SMILES IDX 75 94 76 95 55 96 56 97 64 98 57 99 63 100 65 101 62 102
REMARK SMILES IDX 58 103 59 104 60 105 61 106
REMARK H PARENT 85 59 53 70
REMARK Flexibility Score: inf
ROOT
ATOM      1  C   UNL A   1      34.541  32.688  31.509  1.00  0.00     0.202 C 
ENDROOT
BRANCH   1   2
ATOM      2  O   UNL A   1      33.826  33.298  32.597  1.00  0.00    -0.374 OA
BRANCH   2   3
ATOM      3  C   UNL A   1      34.612  33.639  33.739  1.00  0.00     0.202 C 
BRANCH   3   4
ATOM      4  C   UNL A   1      36.045  34.116  33.429  1.00  0.00     0.260 C 
BRANCH   4   5
ATOM      5  O   UNL A   1      36.908  34.144  34.588  1.00  0.00    -0.475 OA
BRANCH   5   6
ATOM      6  C   UNL A   1      37.766  33.103  34.725  1.00  0.00     0.231 C 
ATOM      7  C   UNL A   1      37.577  33.253  37.184  1.00  0.00     0.029 C 
ATOM      8  C   UNL A   1      37.802  32.521  36.074  1.00  0.00     0.103 C 
ATOM      9  C   UNL A   1      38.311  31.124  36.062  1.00  0.00     0.267 C 
ATOM     10  O   UNL A   1      37.867  30.254  36.763  1.00  0.00    -0.268 OA
ATOM     11  N   UNL A   1      39.355  30.987  35.155  1.00  0.00    -0.250 N 
ATOM     12  N   UNL A   1      38.487  32.678  33.744  1.00  0.00    -0.156 NA
ATOM     13  C   UNL A   1      39.448  31.747  34.004  1.00  0.00     0.354 C 
ATOM     14  O   UNL A   1      40.392  31.597  33.219  1.00  0.00    -0.245 OA
BRANCH   7  15
ATOM     15  C   UNL A   1      37.788  32.955  38.579  1.00  0.00    -0.003 A 
ATOM     16  C   UNL A   1      36.887  31.292  41.796  1.00  0.00     0.065 C 
ATOM     17  C   UNL A   1      37.448  32.023  40.625  1.00  0.00     0.020 A 
ATOM     18  C   UNL A   1      36.947  32.101  39.338  1.00  0.00     0.031 A 
ATOM     19  N   UNL A   1      38.580  32.817  40.686  1.00  0.00    -0.318 N 
ATOM     20  C   UNL A   1      38.716  33.489  39.467  1.00  0.00     0.027 A 
ATOM     21  C   UNL A   1      39.796  34.487  39.244  1.00  0.00     0.065 C 
BRANCH  19  22
ATOM     22  C   UNL A   1      39.538  32.840  41.741  1.00  0.00     0.046 A 
ATOM     23  C   UNL A   1      39.755  34.005  42.476  1.00  0.00     0.028 A 
ATOM     24  C   UNL A   1      40.386  31.737  41.911  1.00  0.00     0.038 A 
ATOM     25  C   UNL A   1      40.885  34.115  43.282  1.00  0.00     0.023 A 
ATOM     26  C   UNL A   1      41.521  31.833  42.744  1.00  0.00     0.018 A 
ATOM     27  C   UNL A   1      41.783  33.047  43.401  1.00  0.00     0.050 A 
ATOM     28  Cl  UNL A   1      43.188  33.350  44.362  1.00  0.00    -0.084 Cl
BRANCH  26  29
ATOM     29  C   UNL A   1      42.433  30.663  42.864  1.00  0.00     0.073 C 
ATOM     30  O   UNL A   1      42.431  29.782  43.712  1.00  0.00    -0.545 OA
ATOM     31  O   UNL A   1      43.343  30.622  41.873  1.00  0.00    -0.545 OA
ENDBRANCH  26  29
ENDBRANCH  19  22
ENDBRANCH   7  15
BRANCH  11  32
ATOM     32  C   UNL A   1      40.402  30.026  35.437  1.00  0.00     0.206 C 
BRANCH  32  33
ATOM     33  C   UNL A   1      41.446  30.592  36.317  1.00  0.00     0.123 A 
ATOM     34  C   UNL A   1      42.773  30.289  36.529  1.00  0.00     0.047 A 
ATOM     35  O   UNL A   1      41.083  31.672  37.064  1.00  0.00    -0.467 OA
ATOM     36  C   UNL A   1      43.242  31.223  37.481  1.00  0.00     0.042 A 
ATOM     37  C   UNL A   1      42.177  32.042  37.773  1.00  0.00     0.195 A 
ENDBRANCH  32  33
ENDBRANCH  11  32
ENDBRANCH   5   6
ENDBRANCH   4   5
ENDBRANCH   3   4
ENDBRANCH   2   3
ENDBRANCH   1   2
BRANCH   1  38
ATOM     38  C   UNL A   1      34.512  33.461  30.163  1.00  0.00     0.261 C 
BRANCH  38  39
ATOM     39  O   UNL A   1      35.590  33.163  29.196  1.00  0.00    -0.460 OA
BRANCH  39  40
ATOM     40  C   UNL A   1      35.621  31.882  28.697  1.00  0.00     0.338 C 
ATOM     41  O   UNL A   1      34.616  31.331  28.265  1.00  0.00    -0.246 OA
BRANCH  40  42
ATOM     42  C   UNL A   1      36.992  31.192  28.599  1.00  0.00     0.060 A 
ATOM     43  C   UNL A   1      37.122  30.186  27.657  1.00  0.00     0.016 A 
ATOM     44  C   UNL A   1      38.090  31.300  29.484  1.00  0.00     0.016 A 
ATOM     45  C   UNL A   1      38.297  29.364  27.588  1.00  0.00     0.010 A 
ATOM     46  C   UNL A   1      39.260  30.377  29.463  1.00  0.00     0.010 A 
ATOM     47  C   UNL A   1      39.406  29.343  28.519  1.00  0.00    -0.014 A 
BRANCH  47  48
ATOM     48  C   UNL A   1      40.362  27.971  28.528  1.00  0.00     0.031 A 
ATOM     49  C   UNL A   1      41.282  28.245  29.674  1.00  0.00     0.074 A 
ATOM     50  C   UNL A   1      40.713  26.781  27.853  1.00  0.00     0.049 A 
ATOM     51  N   UNL A   1      41.980  29.347  29.678  1.00  0.00    -0.248 NA
ATOM     52  C   UNL A   1      41.148  27.611  30.988  1.00  0.00     0.031 C 
ATOM     53  C   UNL A   1      40.212  26.287  26.556  1.00  0.00     0.029 A 
ATOM     54  N   UNL A   1      41.634  25.695  28.155  1.00  0.00    -0.354 N 
ATOM     55  C   UNL A   1      42.630  29.397  30.882  1.00  0.00     0.074 A 
ATOM     56  C   UNL A   1      41.906  28.442  31.715  1.00  0.00     0.031 C 
ATOM     57  C   UNL A   1      40.672  25.030  26.261  1.00  0.00     0.029 A 
ATOM     58  C   UNL A   1      41.594  24.525  27.283  1.00  0.00     0.049 A 
ATOM     59  H   UNL A   1      42.258  25.747  28.916  1.00  0.00     0.167 HD
ATOM     60  C   UNL A   1      43.973  29.620  30.817  1.00  0.00     0.034 A 
ATOM     61  C   UNL A   1      42.278  23.292  27.297  1.00  0.00     0.034 A 
ATOM     62  C   UNL A   1      44.708  28.392  30.966  1.00  0.00     0.049 A 
ATOM     63  C   UNL A   1      43.541  23.499  28.006  1.00  0.00     0.074 A 
ATOM     64  C   UNL A   1      44.600  27.331  31.842  1.00  0.00     0.029 A 
ATOM     65  N   UNL A   1      45.355  27.917  29.844  1.00  0.00    -0.354 N 
ATOM     66  N   UNL A   1      44.551  24.076  27.438  1.00  0.00    -0.248 NA
ATOM     67  C   UNL A   1      43.770  23.019  29.363  1.00  0.00     0.031 C 
ATOM     68  C   UNL A   1      44.706  26.184  31.023  1.00  0.00     0.029 A 
ATOM     69  C   UNL A   1      45.251  26.543  29.795  1.00  0.00     0.049 A 
ATOM     70  H   UNL A   1      45.820  28.474  29.179  1.00  0.00     0.167 HD
ATOM     71  C   UNL A   1      45.262  24.532  28.502  1.00  0.00     0.074 A 
ATOM     72  C   UNL A   1      44.934  23.630  29.593  1.00  0.00     0.031 C 
ATOM     73  C   UNL A   1      45.508  25.866  28.538  1.00  0.00     0.034 A 
BRANCH  60  74
ATOM     74  C   UNL A   1      44.361  30.734  29.876  1.00  0.00     0.023 A 
ATOM     75  C   UNL A   1      45.352  30.504  28.915  1.00  0.00     0.031 A 
ATOM     76  C   UNL A   1      43.863  32.052  29.998  1.00  0.00     0.131 A 
ATOM     77  C   UNL A   1      45.868  31.579  28.171  1.00  0.00     0.055 A 
ATOM     78  C   UNL A   1      44.425  33.126  29.311  1.00  0.00     0.041 A 
ATOM     79  F   UNL A   1      42.815  32.318  30.794  1.00  0.00    -0.206 F 
ATOM     80  C   UNL A   1      45.443  32.894  28.396  1.00  0.00     0.022 A 
BRANCH  77  81
ATOM     81  S   UNL A   1      47.081  31.234  26.871  1.00  0.00     0.124 S 
ATOM     82  O   UNL A   1      47.995  32.367  26.985  1.00  0.00    -0.237 OA
ATOM     83  O   UNL A   1      47.623  29.944  27.289  1.00  0.00    -0.237 OA
ATOM     84  O   UNL A   1      46.283  31.200  25.646  1.00  0.00    -0.744 OA
ENDBRANCH  77  81
ENDBRANCH  60  74
BRANCH  61  85
ATOM     85  C   UNL A   1      42.290  21.827  26.713  1.00  0.00     0.023 A 
ATOM     86  C   UNL A   1      43.336  21.319  25.827  1.00  0.00     0.031 A 
ATOM     87  C   UNL A   1      41.533  20.820  27.326  1.00  0.00     0.131 A 
ATOM     88  C   UNL A   1      43.591  19.920  25.640  1.00  0.00     0.055 A 
ATOM     89  C   UNL A   1      41.786  19.437  27.129  1.00  0.00     0.041 A 
ATOM     90  F   UNL A   1      40.594  21.140  28.228  1.00  0.00    -0.206 F 
ATOM     91  C   UNL A   1      42.814  18.983  26.306  1.00  0.00     0.022 A 
BRANCH  88  92
ATOM     92  S   UNL A   1      45.033  19.268  24.668  1.00  0.00     0.124 S 
ATOM     93  O   UNL A   1      45.999  20.357  24.733  1.00  0.00    -0.237 OA
ATOM     94  O   UNL A   1      45.379  18.043  25.382  1.00  0.00    -0.237 OA
ATOM     95  O   UNL A   1      44.474  19.038  23.332  1.00  0.00    -0.744 OA
ENDBRANCH  88  92
ENDBRANCH  61  85
BRANCH  73  96
ATOM     96  C   UNL A   1      45.841  26.558  27.209  1.00  0.00     0.023 A 
ATOM     97  C   UNL A   1      47.087  26.520  26.525  1.00  0.00     0.031 A 
ATOM     98  C   UNL A   1      44.847  27.367  26.633  1.00  0.00     0.131 A 
ATOM     99  C   UNL A   1      47.308  27.290  25.363  1.00  0.00     0.055 A 
ATOM    100  C   UNL A   1      45.047  28.086  25.452  1.00  0.00     0.041 A 
ATOM    101  F   UNL A   1      43.643  27.475  27.217  1.00  0.00    -0.206 F 
ATOM    102  C   UNL A   1      46.285  28.064  24.822  1.00  0.00     0.022 A 
BRANCH  99 103
ATOM    103  S   UNL A   1      48.963  27.354  24.589  1.00  0.00     0.124 S 
ATOM    104  O   UNL A   1      49.673  28.341  25.393  1.00  0.00    -0.237 OA
ATOM    105  O   UNL A   1      49.429  25.976  24.714  1.00  0.00    -0.237 OA
ATOM    106  O   UNL A   1      48.680  27.781  23.217  1.00  0.00    -0.744 OA
ENDBRANCH  99 103
ENDBRANCH  73  96
ENDBRANCH  47  48
ENDBRANCH  40  42
ENDBRANCH  39  40
ENDBRANCH  38  39
ENDBRANCH   1  38
TORSDOF 21
ENDMDL
MODEL 2
REMARK VINA RESULT:     -10.9      1.926      2.553
REMARK SMILES Cc1cc(/C=C2\C(=O)N(Cc3ccco3)C(=O)N=C2OCCOCCOC(=O)c2ccc(-c3c4nc(c(-c5cc(S(=O)(=O)[O-])ccc5F)c5ccc([nH]5)c(-c5cc(S(=O)(=O)[O-])ccc5F)c5nc(c(-c6cc(S(=O)(=O)[O-])ccc6F)c6ccc3[nH]6)C=C5)C=C4)cc2)c(C)n1-c1ccc(Cl)c(C(=O)[O-])c1
REMARK SMILES IDX 24 1 23 2 22 3 21 4 20 5 19 6 5 7 6 8 7 9 8 10 9 11 18 12
REMARK SMILES IDX 16 13 17 14 4 15 1 16 2 17 3 18 94 19 92 20 93 21 95 22
REMARK SMILES IDX 96 23 104 24 97 25 100 26 98 27 99 28 101 29 102 30 103 31
REMARK SMILES IDX 10 32 11 33 12 34 15 35 13 36 14 37 25 38 26 39 27 40 28 41
REMARK SMILES IDX 29 42 30 43 91 44 31 45 90 46 32 47 33 48 34 49 84 50 35 51
REMARK SMILES IDX 89 52 83 53 85 54 36 55 88 56 82 57 81 58 37 60 69 61 49 62
REMARK SMILES IDX 68 63 50 64 53 65 67 66 86 67 51 68 52 69 66 71 87 72 54 73
REMARK SMILES IDX 38 74 39 75 47 76 40 77 46 78 48 79 45 80 41 81 42 82 43 83
REMARK SMILES IDX 44 84 70 85 71 86 79 87 72 88 78 89 80 90 77 91 73 92 74 93
REMARK SMILES IDX 75 94 76 95 55 96 56 97 64 98 57 99 63 100 65 101 62 102
REMARK SMILES IDX 58 103 59 104 60 105 61 106
REMARK H PARENT 85 59 53 70
REMARK Flexibility Score: inf
ROOT
ATOM      1  C   UNL A   1      34.574  32.696  31.353  1.00  0.00     0.202 C 
ENDROOT
BRANCH   1   2
ATOM      2  O   UNL A   1      34.224  34.049  31.690  1.00  0.00    -0.374 OA
BRANCH   2   3
ATOM      3  C   UNL A   1      34.617  34.484  32.991  1.00  0.00     0.202 C 
BRANCH   3   4
ATOM      4  C   UNL A   1      35.198  33.382  33.902  1.00  0.00     0.260 C 
BRANCH   4   5
ATOM      5  O   UNL A   1      36.408  33.777  34.586  1.00  0.00    -0.475 OA
BRANCH   5   6
ATOM      6  C   UNL A   1      37.346  32.813  34.755  1.00  0.00     0.231 C 
ATOM      7  C   UNL A   1      37.355  33.230  37.191  1.00  0.00     0.029 C 
ATOM      8  C   UNL A   1      37.537  32.391  36.151  1.00  0.00     0.103 C 
ATOM      9  C   UNL A   1      38.139  31.036  36.243  1.00  0.00     0.267 C 
ATOM     10  O   UNL A   1      37.819  30.226  37.073  1.00  0.00    -0.268 OA
ATOM     11  N   UNL A   1      39.111  30.859  35.264  1.00  0.00    -0.250 N 
ATOM     12  N   UNL A   1      38.009  32.322  33.764  1.00  0.00    -0.156 NA
ATOM     13  C   UNL A   1      39.052  31.487  34.034  1.00  0.00     0.354 C 
ATOM     14  O   UNL A   1      39.935  31.306  33.187  1.00  0.00    -0.245 OA
BRANCH   7  15
ATOM     15  C   UNL A   1      37.704  33.107  38.584  1.00  0.00    -0.003 A 
ATOM     16  C   UNL A   1      40.089  33.343  41.446  1.00  0.00     0.065 C 
ATOM     17  C   UNL A   1      38.970  33.204  40.471  1.00  0.00     0.020 A 
ATOM     18  C   UNL A   1      38.988  33.416  39.105  1.00  0.00     0.031 A 
ATOM     19  N   UNL A   1      37.704  32.761  40.813  1.00  0.00    -0.318 N 
ATOM     20  C   UNL A   1      36.966  32.580  39.639  1.00  0.00     0.027 A 
ATOM     21  C   UNL A   1      35.585  32.029  39.665  1.00  0.00     0.065 C 
BRANCH  19  22
ATOM     22  C   UNL A   1      37.176  32.654  42.133  1.00  0.00     0.046 A 
ATOM     23  C   UNL A   1      36.668  33.777  42.784  1.00  0.00     0.028 A 
ATOM     24  C   UNL A   1      37.339  31.452  42.834  1.00  0.00     0.038 A 
ATOM     25  C   UNL A   1      36.441  33.738  44.158  1.00  0.00     0.023 A 
ATOM     26  C   UNL A   1      37.090  31.397  44.221  1.00  0.00     0.018 A 
ATOM     27  C   UNL A   1      36.674  32.563  44.886  1.00  0.00     0.050 A 
ATOM     28  Cl  UNL A   1      36.438  32.679  46.595  1.00  0.00    -0.084 Cl
BRANCH  26  29
ATOM     29  C   UNL A   1      37.323  30.120  44.950  1.00  0.00     0.073 C 
ATOM     30  O   UNL A   1      36.980  29.820  46.084  1.00  0.00    -0.545 OA
ATOM     31  O   UNL A   1      37.987  29.220  44.202  1.00  0.00    -0.545 OA
ENDBRANCH  26  29
ENDBRANCH  19  22
ENDBRANCH   7  15
BRANCH  11  32
ATOM     32  C   UNL A   1      40.243  30.002  35.552  1.00  0.00     0.206 C 
BRANCH  32  33
ATOM     33  C   UNL A   1      41.406  30.772  36.041  1.00  0.00     0.123 A 
ATOM     34  C   UNL A   1      42.643  31.060  35.508  1.00  0.00     0.047 A 
ATOM     35  O   UNL A   1      41.257  31.385  37.248  1.00  0.00    -0.467 OA
ATOM     36  C   UNL A   1      43.300  31.875  36.457  1.00  0.00     0.042 A 
ATOM     37  C   UNL A   1      42.415  32.045  37.496  1.00  0.00     0.195 A 
ENDBRANCH  32  33
ENDBRANCH  11  32
ENDBRANCH   5   6
ENDBRANCH   4   5
ENDBRANCH   3   4
ENDBRANCH   2   3
ENDBRANCH   1   2
BRANCH   1  38
ATOM     38  C   UNL A   1      35.158  32.481  29.931  1.00  0.00     0.261 C 
BRANCH  38  39
ATOM     39  O   UNL A   1      36.178  33.449  29.472  1.00  0.00    -0.460 OA
BRANCH  39  40
ATOM     40  C   UNL A   1      37.362  33.458  30.169  1.00  0.00     0.338 C 
ATOM     41  O   UNL A   1      37.526  34.160  31.159  1.00  0.00    -0.246 OA
BRANCH  40  42
ATOM     42  C   UNL A   1      38.453  32.468  29.725  1.00  0.00     0.060 A 
ATOM     43  C   UNL A   1      38.031  31.323  29.070  1.00  0.00     0.016 A 
ATOM     44  C   UNL A   1      39.823  32.462  30.074  1.00  0.00     0.016 A 
ATOM     45  C   UNL A   1      38.938  30.254  28.758  1.00  0.00     0.010 A 
ATOM     46  C   UNL A   1      40.731  31.306  29.830  1.00  0.00     0.010 A 
ATOM     47  C   UNL A   1      40.320  30.130  29.175  1.00  0.00    -0.014 A 
BRANCH  47  48
ATOM     48  C   UNL A   1      40.984  28.596  29.145  1.00  0.00     0.031 A 
ATOM     49  C   UNL A   1      41.610  28.506  30.500  1.00  0.00     0.074 A 
ATOM     50  C   UNL A   1      41.283  27.462  28.358  1.00  0.00     0.049 A 
ATOM     51  N   UNL A   1      42.466  29.419  30.866  1.00  0.00    -0.248 NA
ATOM     52  C   UNL A   1      41.031  27.742  31.608  1.00  0.00     0.031 C 
ATOM     53  C   UNL A   1      41.056  27.269  26.914  1.00  0.00     0.029 A 
ATOM     54  N   UNL A   1      41.890  26.172  28.655  1.00  0.00    -0.354 N 
ATOM     55  C   UNL A   1      42.780  29.163  32.174  1.00  0.00     0.074 A 
ATOM     56  C   UNL A   1      41.710  28.282  32.630  1.00  0.00     0.031 C 
ATOM     57  C   UNL A   1      41.349  25.995  26.502  1.00  0.00     0.029 A 
ATOM     58  C   UNL A   1      41.872  25.168  27.594  1.00  0.00     0.049 A 
ATOM     59  H   UNL A   1      42.294  25.983  29.532  1.00  0.00     0.167 HD
ATOM     60  C   UNL A   1      44.112  29.098  32.456  1.00  0.00     0.034 A 
ATOM     61  C   UNL A   1      42.301  23.826  27.534  1.00  0.00     0.034 A 
ATOM     62  C   UNL A   1      44.556  27.732  32.538  1.00  0.00     0.049 A 
ATOM     63  C   UNL A   1      43.353  23.657  28.536  1.00  0.00     0.074 A 
ATOM     64  C   UNL A   1      44.041  26.610  33.154  1.00  0.00     0.029 A 
ATOM     65  N   UNL A   1      45.377  27.285  31.523  1.00  0.00    -0.354 N 
ATOM     66  N   UNL A   1      44.561  24.074  28.328  1.00  0.00    -0.248 NA
ATOM     67  C   UNL A   1      43.136  22.958  29.796  1.00  0.00     0.031 C 
ATOM     68  C   UNL A   1      44.151  25.589  32.182  1.00  0.00     0.029 A 
ATOM     69  C   UNL A   1      45.049  25.987  31.198  1.00  0.00     0.049 A 
ATOM     70  H   UNL A   1      46.089  27.815  31.095  1.00  0.00     0.167 HD
ATOM     71  C   UNL A   1      45.041  24.217  29.591  1.00  0.00     0.074 A 
ATOM     72  C   UNL A   1      44.289  23.267  30.392  1.00  0.00     0.031 C 
ATOM     73  C   UNL A   1      45.500  25.448  29.928  1.00  0.00     0.034 A 
BRANCH  60  74
ATOM     74  C   UNL A   1      44.920  30.220  31.851  1.00  0.00     0.023 A 
ATOM     75  C   UNL A   1      44.951  30.367  30.459  1.00  0.00     0.031 A 
ATOM     76  C   UNL A   1      45.760  31.062  32.616  1.00  0.00     0.131 A 
ATOM     77  C   UNL A   1      45.852  31.271  29.872  1.00  0.00     0.055 A 
ATOM     78  C   UNL A   1      46.702  31.905  32.029  1.00  0.00     0.041 A 
ATOM     79  F   UNL A   1      45.678  31.078  33.956  1.00  0.00    -0.206 F 
ATOM     80  C   UNL A   1      46.759  32.006  30.645  1.00  0.00     0.022 A 
BRANCH  77  81
ATOM     81  S   UNL A   1      45.802  31.506  28.076  1.00  0.00     0.124 S 
ATOM     82  O   UNL A   1      44.804  30.527  27.659  1.00  0.00    -0.237 OA
ATOM     83  O   UNL A   1      45.400  32.905  27.959  1.00  0.00    -0.237 OA
ATOM     84  O   UNL A   1      47.170  31.220  27.648  1.00  0.00    -0.744 OA
ENDBRANCH  77  81
ENDBRANCH  60  74
BRANCH  61  85
ATOM     85  C   UNL A   1      42.205  22.487  26.706  1.00  0.00     0.023 A 
ATOM     86  C   UNL A   1      43.340  21.890  26.002  1.00  0.00     0.031 A 
ATOM     87  C   UNL A   1      41.151  21.593  26.934  1.00  0.00     0.131 A 
ATOM     88  C   UNL A   1      43.384  20.508  25.621  1.00  0.00     0.055 A 
ATOM     89  C   UNL A   1      41.199  20.229  26.546  1.00  0.00     0.041 A 
ATOM     90  F   UNL A   1      40.082  21.983  27.643  1.00  0.00    -0.206 F 
ATOM     91  C   UNL A   1      42.309  19.680  25.908  1.00  0.00     0.022 A 
BRANCH  88  92
ATOM     92  S   UNL A   1      44.890  19.699  24.897  1.00  0.00     0.124 S 
ATOM     93  O   UNL A   1      44.829  18.343  25.428  1.00  0.00    -0.237 OA
ATOM     94  O   UNL A   1      44.681  19.849  23.460  1.00  0.00    -0.237 OA
ATOM     95  O   UNL A   1      46.000  20.501  25.421  1.00  0.00    -0.744 OA
ENDBRANCH  88  92
ENDBRANCH  61  85
BRANCH  73  96
ATOM     96  C   UNL A   1      46.281  26.226  28.860  1.00  0.00     0.023 A 
ATOM     97  C   UNL A   1      45.746  26.814  27.681  1.00  0.00     0.031 A 
ATOM     98  C   UNL A   1      47.674  26.317  29.014  1.00  0.00     0.131 A 
ATOM     99  C   UNL A   1      46.584  27.410  26.715  1.00  0.00     0.055 A 
ATOM    100  C   UNL A   1      48.499  26.956  28.085  1.00  0.00     0.041 A 
ATOM    101  F   UNL A   1      48.271  25.778  30.090  1.00  0.00    -0.206 F 
ATOM    102  C   UNL A   1      47.959  27.490  26.922  1.00  0.00     0.022 A 
BRANCH  99 103
ATOM    103  S   UNL A   1      45.896  28.016  25.133  1.00  0.00     0.124 S 
ATOM    104  O   UNL A   1      46.451  27.095  24.149  1.00  0.00    -0.237 OA
ATOM    105  O   UNL A   1      44.456  27.921  25.352  1.00  0.00    -0.237 OA
ATOM    106  O   UNL A   1      46.411  29.384  25.041  1.00  0.00    -0.744 OA
ENDBRANCH  99 103
ENDBRANCH  73  96
ENDBRANCH  47  48
ENDBRANCH  40  42
ENDBRANCH  39  40
ENDBRANCH  38  39
ENDBRANCH   1  38
TORSDOF 21
ENDMDL
MODEL 3
REMARK VINA RESULT:     -10.8      1.954      2.582
REMARK SMILES Cc1cc(/C=C2\C(=O)N(Cc3ccco3)C(=O)N=C2OCCOCCOC(=O)c2ccc(-c3c4nc(c(-c5cc(S(=O)(=O)[O-])ccc5F)c5ccc([nH]5)c(-c5cc(S(=O)(=O)[O-])ccc5F)c5nc(c(-c6cc(S(=O)(=O)[O-])ccc6F)c6ccc3[nH]6)C=C5)C=C4)cc2)c(C)n1-c1ccc(Cl)c(C(=O)[O-])c1
REMARK SMILES IDX 24 1 23 2 22 3 21 4 20 5 19 6 5 7 6 8 7 9 8 10 9 11 18 12
REMARK SMILES IDX 16 13 17 14 4 15 1 16 2 17 3 18 94 19 92 20 93 21 95 22
REMARK SMILES IDX 96 23 104 24 97 25 100 26 98 27 99 28 101 29 102 30 103 31
REMARK SMILES IDX 10 32 11 33 12 34 15 35 13 36 14 37 25 38 26 39 27 40 28 41
REMARK SMILES IDX 29 42 30 43 91 44 31 45 90 46 32 47 33 48 34 49 84 50 35 51
REMARK SMILES IDX 89 52 83 53 85 54 36 55 88 56 82 57 81 58 37 60 69 61 49 62
REMARK SMILES IDX 68 63 50 64 53 65 67 66 86 67 51 68 52 69 66 71 87 72 54 73
REMARK SMILES IDX 38 74 39 75 47 76 40 77 46 78 48 79 45 80 41 81 42 82 43 83
REMARK SMILES IDX 44 84 70 85 71 86 79 87 72 88 78 89 80 90 77 91 73 92 74 93
REMARK SMILES IDX 75 94 76 95 55 96 56 97 64 98 57 99 63 100 65 101 62 102
REMARK SMILES IDX 58 103 59 104 60 105 61 106
REMARK H PARENT 85 59 53 70
REMARK Flexibility Score: inf
ROOT
ATOM      1  C   UNL A   1      35.410  32.451  32.290  1.00  0.00     0.202 C 
ENDROOT
BRANCH   1   2
ATOM      2  O   UNL A   1      34.777  33.736  32.161  1.00  0.00    -0.374 OA
BRANCH   2   3
ATOM      3  C   UNL A   1      34.735  34.526  33.349  1.00  0.00     0.202 C 
BRANCH   3   4
ATOM      4  C   UNL A   1      35.583  33.992  34.522  1.00  0.00     0.260 C 
BRANCH   4   5
ATOM      5  O   UNL A   1      36.944  34.479  34.519  1.00  0.00    -0.475 OA
BRANCH   5   6
ATOM      6  C   UNL A   1      37.917  33.546  34.654  1.00  0.00     0.231 C 
ATOM      7  C   UNL A   1      37.837  33.799  37.111  1.00  0.00     0.029 C 
ATOM      8  C   UNL A   1      38.086  33.041  36.024  1.00  0.00     0.103 C 
ATOM      9  C   UNL A   1      38.744  31.708  36.047  1.00  0.00     0.267 C 
ATOM     10  O   UNL A   1      38.436  30.832  36.811  1.00  0.00    -0.268 OA
ATOM     11  N   UNL A   1      39.751  31.638  35.090  1.00  0.00    -0.250 N 
ATOM     12  N   UNL A   1      38.630  33.151  33.655  1.00  0.00    -0.156 NA
ATOM     13  C   UNL A   1      39.701  32.344  33.902  1.00  0.00     0.354 C 
ATOM     14  O   UNL A   1      40.615  32.257  33.074  1.00  0.00    -0.245 OA
BRANCH   7  15
ATOM     15  C   UNL A   1      38.151  33.598  38.503  1.00  0.00    -0.003 A 
ATOM     16  C   UNL A   1      40.412  33.810  41.465  1.00  0.00     0.065 C 
ATOM     17  C   UNL A   1      39.342  33.654  40.440  1.00  0.00     0.020 A 
ATOM     18  C   UNL A   1      39.385  33.972  39.095  1.00  0.00     0.031 A 
ATOM     19  N   UNL A   1      38.109  33.082  40.699  1.00  0.00    -0.318 N 
ATOM     20  C   UNL A   1      37.427  32.931  39.487  1.00  0.00     0.027 A 
ATOM     21  C   UNL A   1      36.099  32.266  39.417  1.00  0.00     0.065 C 
BRANCH  19  22
ATOM     22  C   UNL A   1      37.549  32.828  41.985  1.00  0.00     0.046 A 
ATOM     23  C   UNL A   1      37.667  31.569  42.572  1.00  0.00     0.028 A 
ATOM     24  C   UNL A   1      36.727  33.799  42.571  1.00  0.00     0.038 A 
ATOM     25  C   UNL A   1      36.872  31.238  43.667  1.00  0.00     0.023 A 
ATOM     26  C   UNL A   1      35.934  33.480  43.694  1.00  0.00     0.018 A 
ATOM     27  C   UNL A   1      35.987  32.176  44.216  1.00  0.00     0.050 A 
ATOM     28  Cl  UNL A   1      34.997  31.605  45.512  1.00  0.00    -0.084 Cl
BRANCH  26  29
ATOM     29  C   UNL A   1      35.030  34.515  44.262  1.00  0.00     0.073 C 
ATOM     30  O   UNL A   1      35.252  35.302  45.171  1.00  0.00    -0.545 OA
ATOM     31  O   UNL A   1      33.837  34.547  43.640  1.00  0.00    -0.545 OA
ENDBRANCH  26  29
ENDBRANCH  19  22
ENDBRANCH   7  15
BRANCH  11  32
ATOM     32  C   UNL A   1      40.911  30.811  35.357  1.00  0.00     0.206 C 
BRANCH  32  33
ATOM     33  C   UNL A   1      41.865  31.480  36.266  1.00  0.00     0.123 A 
ATOM     34  C   UNL A   1      42.637  32.616  36.160  1.00  0.00     0.047 A 
ATOM     35  O   UNL A   1      42.014  30.922  37.500  1.00  0.00    -0.467 OA
ATOM     36  C   UNL A   1      43.319  32.744  37.392  1.00  0.00     0.042 A 
ATOM     37  C   UNL A   1      42.904  31.691  38.172  1.00  0.00     0.195 A 
ENDBRANCH  32  33
ENDBRANCH  11  32
ENDBRANCH   5   6
ENDBRANCH   4   5
ENDBRANCH   3   4
ENDBRANCH   2   3
ENDBRANCH   1   2
BRANCH   1  38
ATOM     38  C   UNL A   1      35.268  31.501  31.070  1.00  0.00     0.261 C 
BRANCH  38  39
ATOM     39  O   UNL A   1      35.274  32.126  29.730  1.00  0.00    -0.460 OA
BRANCH  39  40
ATOM     40  C   UNL A   1      36.415  32.810  29.385  1.00  0.00     0.338 C 
ATOM     41  O   UNL A   1      36.446  34.033  29.332  1.00  0.00    -0.246 OA
BRANCH  40  42
ATOM     42  C   UNL A   1      37.696  31.987  29.167  1.00  0.00     0.060 A 
ATOM     43  C   UNL A   1      37.620  30.933  28.271  1.00  0.00     0.016 A 
ATOM     44  C   UNL A   1      38.898  32.026  29.911  1.00  0.00     0.016 A 
ATOM     45  C   UNL A   1      38.698  29.999  28.112  1.00  0.00     0.010 A 
ATOM     46  C   UNL A   1      39.968  30.994  29.805  1.00  0.00     0.010 A 
ATOM     47  C   UNL A   1      39.905  29.911  28.908  1.00  0.00    -0.014 A 
BRANCH  47  48
ATOM     48  C   UNL A   1      40.726  28.455  28.881  1.00  0.00     0.031 A 
ATOM     49  C   UNL A   1      41.616  28.582  30.076  1.00  0.00     0.074 A 
ATOM     50  C   UNL A   1      40.994  27.272  28.157  1.00  0.00     0.049 A 
ATOM     51  N   UNL A   1      42.413  29.609  30.168  1.00  0.00    -0.248 NA
ATOM     52  C   UNL A   1      41.364  27.898  31.347  1.00  0.00     0.031 C 
ATOM     53  C   UNL A   1      40.507  26.894  26.817  1.00  0.00     0.029 A 
ATOM     54  N   UNL A   1      41.795  26.089  28.437  1.00  0.00    -0.354 N 
ATOM     55  C   UNL A   1      43.010  29.536  31.398  1.00  0.00     0.074 A 
ATOM     56  C   UNL A   1      42.163  28.615  32.149  1.00  0.00     0.031 C 
ATOM     57  C   UNL A   1      40.860  25.615  26.472  1.00  0.00     0.029 A 
ATOM     58  C   UNL A   1      41.684  24.973  27.502  1.00  0.00     0.049 A 
ATOM     59  H   UNL A   1      42.385  26.042  29.224  1.00  0.00     0.167 HD
ATOM     60  C   UNL A   1      44.370  29.632  31.398  1.00  0.00     0.034 A 
ATOM     61  C   UNL A   1      42.248  23.680  27.477  1.00  0.00     0.034 A 
ATOM     62  C   UNL A   1      44.979  28.334  31.510  1.00  0.00     0.049 A 
ATOM     63  C   UNL A   1      43.491  23.730  28.246  1.00  0.00     0.074 A 
ATOM     64  C   UNL A   1      44.733  27.245  32.323  1.00  0.00     0.029 A 
ATOM     65  N   UNL A   1      45.628  27.855  30.391  1.00  0.00    -0.354 N 
ATOM     66  N   UNL A   1      44.576  24.234  27.751  1.00  0.00    -0.248 NA
ATOM     67  C   UNL A   1      43.613  23.162  29.583  1.00  0.00     0.031 C 
ATOM     68  C   UNL A   1      44.766  26.136  31.448  1.00  0.00     0.029 A 
ATOM     69  C   UNL A   1      45.397  26.502  30.264  1.00  0.00     0.049 A 
ATOM     70  H   UNL A   1      46.173  28.397  29.776  1.00  0.00     0.167 HD
ATOM     71  C   UNL A   1      45.277  24.566  28.865  1.00  0.00     0.074 A 
ATOM     72  C   UNL A   1      44.818  23.647  29.892  1.00  0.00     0.031 C 
ATOM     73  C   UNL A   1      45.646  25.867  28.983  1.00  0.00     0.034 A 
BRANCH  60  74
ATOM     74  C   UNL A   1      44.903  30.750  30.535  1.00  0.00     0.023 A 
ATOM     75  C   UNL A   1      44.485  30.843  29.203  1.00  0.00     0.031 A 
ATOM     76  C   UNL A   1      45.912  31.642  30.968  1.00  0.00     0.131 A 
ATOM     77  C   UNL A   1      45.120  31.747  28.333  1.00  0.00     0.055 A 
ATOM     78  C   UNL A   1      46.588  32.484  30.088  1.00  0.00     0.041 A 
ATOM     79  F   UNL A   1      46.259  31.708  32.264  1.00  0.00    -0.206 F 
ATOM     80  C   UNL A   1      46.199  32.533  28.756  1.00  0.00     0.022 A 
BRANCH  77  81
ATOM     81  S   UNL A   1      44.495  31.911  26.641  1.00  0.00     0.124 S 
ATOM     82  O   UNL A   1      43.954  33.266  26.635  1.00  0.00    -0.237 OA
ATOM     83  O   UNL A   1      45.704  31.711  25.845  1.00  0.00    -0.237 OA
ATOM     84  O   UNL A   1      43.502  30.844  26.530  1.00  0.00    -0.744 OA
ENDBRANCH  77  81
ENDBRANCH  60  74
BRANCH  61  85
ATOM     85  C   UNL A   1      42.147  22.252  26.816  1.00  0.00     0.023 A 
ATOM     86  C   UNL A   1      43.162  21.706  25.915  1.00  0.00     0.031 A 
ATOM     87  C   UNL A   1      41.301  21.280  27.365  1.00  0.00     0.131 A 
ATOM     88  C   UNL A   1      43.304  20.303  25.656  1.00  0.00     0.055 A 
ATOM     89  C   UNL A   1      41.443  19.894  27.097  1.00  0.00     0.041 A 
ATOM     90  F   UNL A   1      40.378  21.629  28.273  1.00  0.00    -0.206 F 
ATOM     91  C   UNL A   1      42.443  19.400  26.262  1.00  0.00     0.022 A 
BRANCH  88  92
ATOM     92  S   UNL A   1      44.702  19.586  24.666  1.00  0.00     0.124 S 
ATOM     93  O   UNL A   1      44.425  18.155  24.686  1.00  0.00    -0.237 OA
ATOM     94  O   UNL A   1      44.568  20.261  23.378  1.00  0.00    -0.237 OA
ATOM     95  O   UNL A   1      45.897  19.978  25.419  1.00  0.00    -0.744 OA
ENDBRANCH  88  92
ENDBRANCH  61  85
BRANCH  73  96
ATOM     96  C   UNL A   1      46.102  26.589  27.708  1.00  0.00     0.023 A 
ATOM     97  C   UNL A   1      47.378  26.489  27.090  1.00  0.00     0.031 A 
ATOM     98  C   UNL A   1      45.203  27.493  27.119  1.00  0.00     0.131 A 
ATOM     99  C   UNL A   1      47.719  27.290  25.978  1.00  0.00     0.055 A 
ATOM    100  C   UNL A   1      45.519  28.246  25.985  1.00  0.00     0.041 A 
ATOM    101  F   UNL A   1      43.978  27.665  27.642  1.00  0.00    -0.206 F 
ATOM    102  C   UNL A   1      46.786  28.160  25.421  1.00  0.00     0.022 A 
BRANCH  99 103
ATOM    103  S   UNL A   1      49.415  27.265  25.298  1.00  0.00     0.124 S 
ATOM    104  O   UNL A   1      49.268  27.914  24.001  1.00  0.00    -0.237 OA
ATOM    105  O   UNL A   1      50.174  28.009  26.300  1.00  0.00    -0.237 OA
ATOM    106  O   UNL A   1      49.733  25.837  25.228  1.00  0.00    -0.744 OA
ENDBRANCH  99 103
ENDBRANCH  73  96
ENDBRANCH  47  48
ENDBRANCH  40  42
ENDBRANCH  39  40
ENDBRANCH  38  39
ENDBRANCH   1  38
TORSDOF 21
ENDMDL
