MODEL 1
REMARK VINA RESULT:     -10.4      0.000      0.000
REMARK SMILES CC[C@@H](C)S(=O)(=O)c1cc(C(=O)OCCOCCOC(=O)c2ccc(-c3c4nc(c(-c5cc(S(=O)(=O)[O-])ccc5F)c5ccc([nH]5)c(-c5cc(S(=O)(=O)[O-])ccc5F)c5nc(c(-c6cc(S(=O)(=O)[O-])ccc6F)c6ccc3[nH]6)C=C5)C=C4)cc2)c(C)cc1C
REMARK SMILES IDX 16 1 15 2 14 3 13 4 11 5 12 6 10 7 8 8 9 9 88 10 87 11 89 12
REMARK SMILES IDX 85 13 86 14 5 15 6 16 7 17 3 18 4 19 2 20 1 21 17 22 18 23
REMARK SMILES IDX 19 24 20 25 21 26 22 27 23 28 84 29 24 30 83 31 25 32 26 33
REMARK SMILES IDX 27 34 77 35 28 36 82 37 76 38 78 39 29 40 81 41 75 42 74 43
REMARK SMILES IDX 30 45 62 46 42 47 61 48 43 49 46 50 60 51 79 52 44 53 45 54
REMARK SMILES IDX 59 56 80 57 47 58 31 59 32 60 40 61 33 62 39 63 41 64 38 65
REMARK SMILES IDX 34 66 35 67 36 68 37 69 63 70 64 71 72 72 65 73 71 74 73 75
REMARK SMILES IDX 70 76 66 77 67 78 68 79 69 80 48 81 49 82 57 83 50 84 56 85
REMARK SMILES IDX 58 86 55 87 51 88 52 89 53 90 54 91
REMARK H PARENT 78 44 46 55
REMARK Flexibility Score: inf
ROOT
ATOM      1  O   UNL A   1      32.237  30.202  27.419  1.00  0.00    -0.374 OA
ENDROOT
BRANCH   1   2
ATOM      2  C   UNL A   1      33.536  29.635  27.233  1.00  0.00     0.202 C 
BRANCH   2   3
ATOM      3  C   UNL A   1      33.623  28.529  26.182  1.00  0.00     0.261 C 
BRANCH   3   4
ATOM      4  O   UNL A   1      32.936  27.355  26.651  1.00  0.00    -0.460 OA
BRANCH   4   5
ATOM      5  C   UNL A   1      32.179  26.723  25.732  1.00  0.00     0.338 C 
ATOM      6  O   UNL A   1      31.052  27.033  25.372  1.00  0.00    -0.246 OA
BRANCH   5   7
ATOM      7  C   UNL A   1      32.972  25.708  24.992  1.00  0.00     0.064 A 
ATOM      8  C   UNL A   1      34.078  23.544  25.260  1.00  0.00     0.071 A 
ATOM      9  C   UNL A   1      33.227  24.541  25.731  1.00  0.00     0.036 A 
ATOM     10  C   UNL A   1      34.678  23.699  23.998  1.00  0.00    -0.032 A 
ATOM     11  C   UNL A   1      34.365  24.845  23.236  1.00  0.00     0.009 A 
ATOM     12  C   UNL A   1      35.700  22.744  23.439  1.00  0.00     0.046 C 
ATOM     13  C   UNL A   1      33.490  25.847  23.700  1.00  0.00    -0.036 A 
ATOM     14  C   UNL A   1      33.231  27.035  22.817  1.00  0.00     0.045 C 
BRANCH   8  15
ATOM     15  S   UNL A   1      34.398  22.092  26.256  1.00  0.00     0.181 S 
ATOM     16  O   UNL A   1      33.754  22.327  27.538  1.00  0.00    -0.223 OA
ATOM     17  O   UNL A   1      35.835  21.894  26.197  1.00  0.00    -0.223 OA
BRANCH  15  18
ATOM     18  C   UNL A   1      33.608  20.629  25.578  1.00  0.00     0.110 C 
ATOM     19  C   UNL A   1      34.563  19.690  24.837  1.00  0.00     0.025 C 
BRANCH  18  20
ATOM     20  C   UNL A   1      32.301  20.956  24.836  1.00  0.00     0.016 C 
ATOM     21  C   UNL A   1      32.317  20.579  23.362  1.00  0.00     0.005 C 
ENDBRANCH  18  20
ENDBRANCH  15  18
ENDBRANCH   8  15
ENDBRANCH   5   7
ENDBRANCH   4   5
ENDBRANCH   3   4
ENDBRANCH   2   3
ENDBRANCH   1   2
BRANCH   1  22
ATOM     22  C   UNL A   1      31.833  31.228  26.512  1.00  0.00     0.202 C 
BRANCH  22  23
ATOM     23  C   UNL A   1      31.853  32.668  27.038  1.00  0.00     0.261 C 
BRANCH  23  24
ATOM     24  O   UNL A   1      33.185  33.142  27.299  1.00  0.00    -0.460 OA
BRANCH  24  25
ATOM     25  C   UNL A   1      33.269  34.087  28.267  1.00  0.00     0.338 C 
ATOM     26  O   UNL A   1      32.508  35.031  28.436  1.00  0.00    -0.246 OA
BRANCH  25  27
ATOM     27  C   UNL A   1      34.315  33.725  29.241  1.00  0.00     0.060 A 
ATOM     28  C   UNL A   1      35.591  34.270  29.053  1.00  0.00     0.016 A 
ATOM     29  C   UNL A   1      34.075  32.825  30.282  1.00  0.00     0.016 A 
ATOM     30  C   UNL A   1      36.646  33.882  29.874  1.00  0.00     0.010 A 
ATOM     31  C   UNL A   1      35.140  32.430  31.102  1.00  0.00     0.010 A 
ATOM     32  C   UNL A   1      36.436  32.932  30.882  1.00  0.00    -0.014 A 
BRANCH  32  33
ATOM     33  C   UNL A   1      37.600  32.358  31.601  1.00  0.00     0.031 A 
ATOM     34  C   UNL A   1      38.370  31.234  30.963  1.00  0.00     0.074 A 
ATOM     35  C   UNL A   1      37.985  32.852  32.792  1.00  0.00     0.049 A 
ATOM     36  N   UNL A   1      39.396  30.564  31.419  1.00  0.00    -0.248 NA
ATOM     37  C   UNL A   1      37.914  30.808  29.632  1.00  0.00     0.031 C 
ATOM     38  C   UNL A   1      37.346  33.969  33.486  1.00  0.00     0.029 A 
ATOM     39  N   UNL A   1      39.006  32.475  33.627  1.00  0.00    -0.354 N 
ATOM     40  C   UNL A   1      39.708  29.632  30.434  1.00  0.00     0.074 A 
ATOM     41  C   UNL A   1      38.734  29.801  29.375  1.00  0.00     0.031 C 
ATOM     42  C   UNL A   1      37.989  34.183  34.648  1.00  0.00     0.029 A 
ATOM     43  C   UNL A   1      39.056  33.196  34.797  1.00  0.00     0.049 A 
ATOM     44  H   UNL A   1      39.642  31.756  33.410  1.00  0.00     0.167 HD
ATOM     45  C   UNL A   1      40.718  28.727  30.411  1.00  0.00     0.034 A 
ATOM     46  C   UNL A   1      39.857  33.059  35.872  1.00  0.00     0.034 A 
ATOM     47  C   UNL A   1      41.675  28.565  31.481  1.00  0.00     0.049 A 
ATOM     48  C   UNL A   1      40.918  31.985  35.866  1.00  0.00     0.074 A 
ATOM     49  C   UNL A   1      42.749  27.697  31.552  1.00  0.00     0.029 A 
ATOM     50  N   UNL A   1      41.660  29.275  32.675  1.00  0.00    -0.354 N 
ATOM     51  N   UNL A   1      41.211  31.117  34.924  1.00  0.00    -0.248 NA
ATOM     52  C   UNL A   1      41.757  31.876  37.066  1.00  0.00     0.031 C 
ATOM     53  C   UNL A   1      43.337  27.827  32.816  1.00  0.00     0.029 A 
ATOM     54  C   UNL A   1      42.682  28.837  33.504  1.00  0.00     0.049 A 
ATOM     55  H   UNL A   1      41.018  29.987  32.900  1.00  0.00     0.167 HD
ATOM     56  C   UNL A   1      42.292  30.382  35.408  1.00  0.00     0.074 A 
ATOM     57  C   UNL A   1      42.602  30.915  36.719  1.00  0.00     0.031 C 
ATOM     58  C   UNL A   1      42.970  29.365  34.819  1.00  0.00     0.034 A 
BRANCH  45  59
ATOM     59  C   UNL A   1      40.796  27.809  29.214  1.00  0.00     0.023 A 
ATOM     60  C   UNL A   1      41.731  28.009  28.182  1.00  0.00     0.031 A 
ATOM     61  C   UNL A   1      39.891  26.741  29.081  1.00  0.00     0.131 A 
ATOM     62  C   UNL A   1      41.688  27.208  27.031  1.00  0.00     0.055 A 
ATOM     63  C   UNL A   1      39.907  25.895  27.971  1.00  0.00     0.041 A 
ATOM     64  F   UNL A   1      38.960  26.512  30.021  1.00  0.00    -0.206 F 
ATOM     65  C   UNL A   1      40.798  26.136  26.929  1.00  0.00     0.022 A 
BRANCH  62  66
ATOM     66  S   UNL A   1      42.700  27.684  25.604  1.00  0.00     0.124 S 
ATOM     67  O   UNL A   1      41.965  28.838  25.092  1.00  0.00    -0.237 OA
ATOM     68  O   UNL A   1      43.993  27.971  26.217  1.00  0.00    -0.237 OA
ATOM     69  O   UNL A   1      42.663  26.501  24.747  1.00  0.00    -0.744 OA
ENDBRANCH  62  66
ENDBRANCH  45  59
BRANCH  46  70
ATOM     70  C   UNL A   1      39.671  33.934  37.065  1.00  0.00     0.023 A 
ATOM     71  C   UNL A   1      39.028  33.462  38.221  1.00  0.00     0.031 A 
ATOM     72  C   UNL A   1      40.097  35.275  37.047  1.00  0.00     0.131 A 
ATOM     73  C   UNL A   1      38.794  34.333  39.296  1.00  0.00     0.055 A 
ATOM     74  C   UNL A   1      39.905  36.123  38.139  1.00  0.00     0.041 A 
ATOM     75  F   UNL A   1      40.716  35.776  35.967  1.00  0.00    -0.206 F 
ATOM     76  C   UNL A   1      39.241  35.657  39.268  1.00  0.00     0.022 A 
BRANCH  73  77
ATOM     77  S   UNL A   1      37.833  33.729  40.710  1.00  0.00     0.124 S 
ATOM     78  O   UNL A   1      37.558  34.967  41.432  1.00  0.00    -0.237 OA
ATOM     79  O   UNL A   1      36.692  33.100  40.055  1.00  0.00    -0.237 OA
ATOM     80  O   UNL A   1      38.752  32.808  41.377  1.00  0.00    -0.744 OA
ENDBRANCH  73  77
ENDBRANCH  46  70
BRANCH  58  81
ATOM     81  C   UNL A   1      44.147  28.794  35.575  1.00  0.00     0.023 A 
ATOM     82  C   UNL A   1      44.003  27.726  36.477  1.00  0.00     0.031 A 
ATOM     83  C   UNL A   1      45.432  29.337  35.395  1.00  0.00     0.131 A 
ATOM     84  C   UNL A   1      45.113  27.271  37.207  1.00  0.00     0.055 A 
ATOM     85  C   UNL A   1      46.544  28.839  36.077  1.00  0.00     0.041 A 
ATOM     86  F   UNL A   1      45.630  30.359  34.547  1.00  0.00    -0.206 F 
ATOM     87  C   UNL A   1      46.385  27.809  36.999  1.00  0.00     0.022 A 
BRANCH  84  88
ATOM     88  S   UNL A   1      44.856  26.025  38.500  1.00  0.00     0.124 S 
ATOM     89  O   UNL A   1      44.226  26.810  39.557  1.00  0.00    -0.237 OA
ATOM     90  O   UNL A   1      43.999  25.051  37.831  1.00  0.00    -0.237 OA
ATOM     91  O   UNL A   1      46.208  25.556  38.799  1.00  0.00    -0.744 OA
ENDBRANCH  84  88
ENDBRANCH  58  81
ENDBRANCH  32  33
ENDBRANCH  25  27
ENDBRANCH  24  25
ENDBRANCH  23  24
ENDBRANCH  22  23
ENDBRANCH   1  22
TORSDOF 20
ENDMDL
MODEL 2
REMARK VINA RESULT:     -10.3      2.491      7.932
REMARK SMILES CC[C@@H](C)S(=O)(=O)c1cc(C(=O)OCCOCCOC(=O)c2ccc(-c3c4nc(c(-c5cc(S(=O)(=O)[O-])ccc5F)c5ccc([nH]5)c(-c5cc(S(=O)(=O)[O-])ccc5F)c5nc(c(-c6cc(S(=O)(=O)[O-])ccc6F)c6ccc3[nH]6)C=C5)C=C4)cc2)c(C)cc1C
REMARK SMILES IDX 16 1 15 2 14 3 13 4 11 5 12 6 10 7 8 8 9 9 88 10 87 11 89 12
REMARK SMILES IDX 85 13 86 14 5 15 6 16 7 17 3 18 4 19 2 20 1 21 17 22 18 23
REMARK SMILES IDX 19 24 20 25 21 26 22 27 23 28 84 29 24 30 83 31 25 32 26 33
REMARK SMILES IDX 27 34 77 35 28 36 82 37 76 38 78 39 29 40 81 41 75 42 74 43
REMARK SMILES IDX 30 45 62 46 42 47 61 48 43 49 46 50 60 51 79 52 44 53 45 54
REMARK SMILES IDX 59 56 80 57 47 58 31 59 32 60 40 61 33 62 39 63 41 64 38 65
REMARK SMILES IDX 34 66 35 67 36 68 37 69 63 70 64 71 72 72 65 73 71 74 73 75
REMARK SMILES IDX 70 76 66 77 67 78 68 79 69 80 48 81 49 82 57 83 50 84 56 85
REMARK SMILES IDX 58 86 55 87 51 88 52 89 53 90 54 91
REMARK H PARENT 78 44 46 55
REMARK Flexibility Score: inf
ROOT
ATOM      1  O   UNL A   1      32.606  28.382  25.071  1.00  0.00    -0.374 OA
ENDROOT
BRANCH   1   2
ATOM      2  C   UNL A   1      31.314  27.866  25.402  1.00  0.00     0.202 C 
BRANCH   2   3
ATOM      3  C   UNL A   1      31.293  26.824  26.521  1.00  0.00     0.261 C 
BRANCH   3   4
ATOM      4  O   UNL A   1      30.253  25.862  26.272  1.00  0.00    -0.460 OA
BRANCH   4   5
ATOM      5  C   UNL A   1      30.596  24.575  26.473  1.00  0.00     0.338 C 
ATOM      6  O   UNL A   1      30.065  23.787  27.243  1.00  0.00    -0.246 OA
BRANCH   5   7
ATOM      7  C   UNL A   1      31.572  24.115  25.451  1.00  0.00     0.064 A 
ATOM      8  C   UNL A   1      33.795  23.128  25.205  1.00  0.00     0.071 A 
ATOM      9  C   UNL A   1      32.706  23.489  25.994  1.00  0.00     0.036 A 
ATOM     10  C   UNL A   1      33.747  23.372  23.822  1.00  0.00    -0.032 A 
ATOM     11  C   UNL A   1      32.575  23.943  23.277  1.00  0.00     0.009 A 
ATOM     12  C   UNL A   1      34.905  23.129  22.891  1.00  0.00     0.046 C 
ATOM     13  C   UNL A   1      31.464  24.293  24.068  1.00  0.00    -0.036 A 
ATOM     14  C   UNL A   1      30.270  24.906  23.393  1.00  0.00     0.045 C 
BRANCH   8  15
ATOM     15  S   UNL A   1      35.232  22.365  25.951  1.00  0.00     0.181 S 
ATOM     16  O   UNL A   1      34.755  21.665  27.132  1.00  0.00    -0.223 OA
ATOM     17  O   UNL A   1      36.206  23.432  26.091  1.00  0.00    -0.223 OA
BRANCH  15  18
ATOM     18  C   UNL A   1      35.943  21.101  24.892  1.00  0.00     0.110 C 
ATOM     19  C   UNL A   1      35.237  19.746  24.977  1.00  0.00     0.025 C 
BRANCH  18  20
ATOM     20  C   UNL A   1      37.478  21.049  24.985  1.00  0.00     0.016 C 
ATOM     21  C   UNL A   1      38.049  19.638  24.976  1.00  0.00     0.005 C 
ENDBRANCH  18  20
ENDBRANCH  15  18
ENDBRANCH   8  15
ENDBRANCH   5   7
ENDBRANCH   4   5
ENDBRANCH   3   4
ENDBRANCH   2   3
ENDBRANCH   1   2
BRANCH   1  22
ATOM     22  C   UNL A   1      32.788  29.796  25.156  1.00  0.00     0.202 C 
BRANCH  22  23
ATOM     23  C   UNL A   1      31.842  30.563  26.088  1.00  0.00     0.261 C 
BRANCH  23  24
ATOM     24  O   UNL A   1      32.415  30.796  27.386  1.00  0.00    -0.460 OA
BRANCH  24  25
ATOM     25  C   UNL A   1      33.254  31.859  27.451  1.00  0.00     0.338 C 
ATOM     26  O   UNL A   1      32.950  33.038  27.325  1.00  0.00    -0.246 OA
BRANCH  25  27
ATOM     27  C   UNL A   1      34.592  31.426  27.893  1.00  0.00     0.060 A 
ATOM     28  C   UNL A   1      34.777  30.062  28.152  1.00  0.00     0.016 A 
ATOM     29  C   UNL A   1      35.629  32.336  28.111  1.00  0.00     0.016 A 
ATOM     30  C   UNL A   1      35.985  29.607  28.675  1.00  0.00     0.010 A 
ATOM     31  C   UNL A   1      36.840  31.878  28.645  1.00  0.00     0.010 A 
ATOM     32  C   UNL A   1      37.011  30.516  28.960  1.00  0.00    -0.014 A 
BRANCH  32  33
ATOM     33  C   UNL A   1      38.202  30.062  29.721  1.00  0.00     0.031 A 
ATOM     34  C   UNL A   1      38.425  30.594  31.110  1.00  0.00     0.074 A 
ATOM     35  C   UNL A   1      39.055  29.165  29.193  1.00  0.00     0.049 A 
ATOM     36  N   UNL A   1      39.406  30.360  31.943  1.00  0.00    -0.248 NA
ATOM     37  C   UNL A   1      37.403  31.517  31.625  1.00  0.00     0.031 C 
ATOM     38  C   UNL A   1      38.916  28.545  27.877  1.00  0.00     0.029 A 
ATOM     39  N   UNL A   1      40.207  28.622  29.703  1.00  0.00    -0.354 N 
ATOM     40  C   UNL A   1      39.124  31.111  33.080  1.00  0.00     0.074 A 
ATOM     41  C   UNL A   1      37.900  31.837  32.809  1.00  0.00     0.031 C 
ATOM     42  C   UNL A   1      39.951  27.709  27.679  1.00  0.00     0.029 A 
ATOM     43  C   UNL A   1      40.842  27.763  28.836  1.00  0.00     0.049 A 
ATOM     44  H   UNL A   1      40.547  28.828  30.603  1.00  0.00     0.167 HD
ATOM     45  C   UNL A   1      39.817  31.181  34.244  1.00  0.00     0.034 A 
ATOM     46  C   UNL A   1      42.018  27.115  28.956  1.00  0.00     0.034 A 
ATOM     47  C   UNL A   1      41.042  30.458  34.493  1.00  0.00     0.049 A 
ATOM     48  C   UNL A   1      42.820  27.278  30.225  1.00  0.00     0.074 A 
ATOM     49  C   UNL A   1      41.813  30.438  35.642  1.00  0.00     0.029 A 
ATOM     50  N   UNL A   1      41.685  29.642  33.571  1.00  0.00    -0.354 N 
ATOM     51  N   UNL A   1      42.538  27.982  31.297  1.00  0.00    -0.248 NA
ATOM     52  C   UNL A   1      44.096  26.555  30.298  1.00  0.00     0.031 C 
ATOM     53  C   UNL A   1      42.958  29.673  35.390  1.00  0.00     0.029 A 
ATOM     54  C   UNL A   1      42.863  29.146  34.111  1.00  0.00     0.049 A 
ATOM     55  H   UNL A   1      41.354  29.443  32.665  1.00  0.00     0.167 HD
ATOM     56  C   UNL A   1      43.588  27.757  32.185  1.00  0.00     0.074 A 
ATOM     57  C   UNL A   1      44.502  26.847  31.525  1.00  0.00     0.031 C 
ATOM     58  C   UNL A   1      43.776  28.252  33.435  1.00  0.00     0.034 A 
BRANCH  45  59
ATOM     59  C   UNL A   1      39.290  32.116  35.307  1.00  0.00     0.023 A 
ATOM     60  C   UNL A   1      39.712  33.455  35.397  1.00  0.00     0.031 A 
ATOM     61  C   UNL A   1      38.382  31.648  36.273  1.00  0.00     0.131 A 
ATOM     62  C   UNL A   1      39.290  34.252  36.472  1.00  0.00     0.055 A 
ATOM     63  C   UNL A   1      37.901  32.470  37.293  1.00  0.00     0.041 A 
ATOM     64  F   UNL A   1      37.959  30.374  36.255  1.00  0.00    -0.206 F 
ATOM     65  C   UNL A   1      38.369  33.776  37.407  1.00  0.00     0.022 A 
BRANCH  62  66
ATOM     66  S   UNL A   1      40.086  35.863  36.721  1.00  0.00     0.124 S 
ATOM     67  O   UNL A   1      41.455  35.469  37.045  1.00  0.00    -0.237 OA
ATOM     68  O   UNL A   1      39.897  36.511  35.427  1.00  0.00    -0.237 OA
ATOM     69  O   UNL A   1      39.336  36.449  37.829  1.00  0.00    -0.744 OA
ENDBRANCH  62  66
ENDBRANCH  45  59
BRANCH  46  70
ATOM     70  C   UNL A   1      42.533  26.280  27.834  1.00  0.00     0.023 A 
ATOM     71  C   UNL A   1      42.084  24.964  27.641  1.00  0.00     0.031 A 
ATOM     72  C   UNL A   1      43.521  26.776  26.963  1.00  0.00     0.131 A 
ATOM     73  C   UNL A   1      42.649  24.175  26.626  1.00  0.00     0.055 A 
ATOM     74  C   UNL A   1      44.043  26.002  25.925  1.00  0.00     0.041 A 
ATOM     75  F   UNL A   1      43.985  28.027  27.104  1.00  0.00    -0.206 F 
ATOM     76  C   UNL A   1      43.615  24.690  25.758  1.00  0.00     0.022 A 
BRANCH  73  77
ATOM     77  S   UNL A   1      42.151  22.436  26.500  1.00  0.00     0.124 S 
ATOM     78  O   UNL A   1      40.696  22.543  26.498  1.00  0.00    -0.237 OA
ATOM     79  O   UNL A   1      42.767  22.034  25.240  1.00  0.00    -0.237 OA
ATOM     80  O   UNL A   1      42.731  21.828  27.697  1.00  0.00    -0.744 OA
ENDBRANCH  73  77
ENDBRANCH  46  70
BRANCH  58  81
ATOM     81  C   UNL A   1      44.999  27.779  34.186  1.00  0.00     0.023 A 
ATOM     82  C   UNL A   1      44.984  26.611  34.969  1.00  0.00     0.031 A 
ATOM     83  C   UNL A   1      46.195  28.515  34.122  1.00  0.00     0.131 A 
ATOM     84  C   UNL A   1      46.125  26.245  35.701  1.00  0.00     0.055 A 
ATOM     85  C   UNL A   1      47.346  28.113  34.802  1.00  0.00     0.041 A 
ATOM     86  F   UNL A   1      46.268  29.640  33.391  1.00  0.00    -0.206 F 
ATOM     87  C   UNL A   1      47.310  26.979  35.608  1.00  0.00     0.022 A 
BRANCH  84  88
ATOM     88  S   UNL A   1      46.013  24.846  36.850  1.00  0.00     0.124 S 
ATOM     89  O   UNL A   1      47.162  25.074  37.719  1.00  0.00    -0.237 OA
ATOM     90  O   UNL A   1      44.702  25.047  37.460  1.00  0.00    -0.237 OA
ATOM     91  O   UNL A   1      46.116  23.677  35.979  1.00  0.00    -0.744 OA
ENDBRANCH  84  88
ENDBRANCH  58  81
ENDBRANCH  32  33
ENDBRANCH  25  27
ENDBRANCH  24  25
ENDBRANCH  23  24
ENDBRANCH  22  23
ENDBRANCH   1  22
TORSDOF 20
ENDMDL
MODEL 3
REMARK VINA RESULT:     -10.0      1.173      7.882
REMARK SMILES CC[C@@H](C)S(=O)(=O)c1cc(C(=O)OCCOCCOC(=O)c2ccc(-c3c4nc(c(-c5cc(S(=O)(=O)[O-])ccc5F)c5ccc([nH]5)c(-c5cc(S(=O)(=O)[O-])ccc5F)c5nc(c(-c6cc(S(=O)(=O)[O-])ccc6F)c6ccc3[nH]6)C=C5)C=C4)cc2)c(C)cc1C
REMARK SMILES IDX 16 1 15 2 14 3 13 4 11 5 12 6 10 7 8 8 9 9 88 10 87 11 89 12
REMARK SMILES IDX 85 13 86 14 5 15 6 16 7 17 3 18 4 19 2 20 1 21 17 22 18 23
REMARK SMILES IDX 19 24 20 25 21 26 22 27 23 28 84 29 24 30 83 31 25 32 26 33
REMARK SMILES IDX 27 34 77 35 28 36 82 37 76 38 78 39 29 40 81 41 75 42 74 43
REMARK SMILES IDX 30 45 62 46 42 47 61 48 43 49 46 50 60 51 79 52 44 53 45 54
REMARK SMILES IDX 59 56 80 57 47 58 31 59 32 60 40 61 33 62 39 63 41 64 38 65
REMARK SMILES IDX 34 66 35 67 36 68 37 69 63 70 64 71 72 72 65 73 71 74 73 75
REMARK SMILES IDX 70 76 66 77 67 78 68 79 69 80 48 81 49 82 57 83 50 84 56 85
REMARK SMILES IDX 58 86 55 87 51 88 52 89 53 90 54 91
REMARK H PARENT 78 44 46 55
REMARK Flexibility Score: inf
ROOT
ATOM      1  O   UNL A   1      33.385  30.083  27.320  1.00  0.00    -0.374 OA
ENDROOT
BRANCH   1   2
ATOM      2  C   UNL A   1      34.248  29.184  26.619  1.00  0.00     0.202 C 
BRANCH   2   3
ATOM      3  C   UNL A   1      33.727  27.753  26.478  1.00  0.00     0.261 C 
BRANCH   3   4
ATOM      4  O   UNL A   1      32.455  27.762  25.807  1.00  0.00    -0.460 OA
BRANCH   4   5
ATOM      5  C   UNL A   1      31.545  26.887  26.282  1.00  0.00     0.338 C 
ATOM      6  O   UNL A   1      30.797  27.053  27.235  1.00  0.00    -0.246 OA
BRANCH   5   7
ATOM      7  C   UNL A   1      31.363  25.746  25.349  1.00  0.00     0.064 A 
ATOM      8  C   UNL A   1      31.988  23.407  25.007  1.00  0.00     0.071 A 
ATOM      9  C   UNL A   1      31.928  24.544  25.808  1.00  0.00     0.036 A 
ATOM     10  C   UNL A   1      31.445  23.454  23.712  1.00  0.00    -0.032 A 
ATOM     11  C   UNL A   1      30.821  24.647  23.284  1.00  0.00     0.009 A 
ATOM     12  C   UNL A   1      31.553  22.326  22.720  1.00  0.00     0.046 C 
ATOM     13  C   UNL A   1      30.741  25.794  24.096  1.00  0.00    -0.036 A 
ATOM     14  C   UNL A   1      30.068  27.017  23.542  1.00  0.00     0.045 C 
BRANCH   8  15
ATOM     15  S   UNL A   1      32.751  21.911  25.627  1.00  0.00     0.181 S 
ATOM     16  O   UNL A   1      31.780  20.847  25.433  1.00  0.00    -0.223 OA
ATOM     17  O   UNL A   1      33.206  22.237  26.967  1.00  0.00    -0.223 OA
BRANCH  15  18
ATOM     18  C   UNL A   1      34.186  21.440  24.654  1.00  0.00     0.110 C 
ATOM     19  C   UNL A   1      34.749  20.060  24.999  1.00  0.00     0.025 C 
BRANCH  18  20
ATOM     20  C   UNL A   1      35.227  22.569  24.556  1.00  0.00     0.016 C 
ATOM     21  C   UNL A   1      35.173  23.346  23.249  1.00  0.00     0.005 C 
ENDBRANCH  18  20
ENDBRANCH  15  18
ENDBRANCH   8  15
ENDBRANCH   5   7
ENDBRANCH   4   5
ENDBRANCH   3   4
ENDBRANCH   2   3
ENDBRANCH   1   2
BRANCH   1  22
ATOM     22  C   UNL A   1      33.851  31.418  27.517  1.00  0.00     0.202 C 
BRANCH  22  23
ATOM     23  C   UNL A   1      32.786  32.517  27.623  1.00  0.00     0.261 C 
BRANCH  23  24
ATOM     24  O   UNL A   1      33.353  33.838  27.622  1.00  0.00    -0.460 OA
BRANCH  24  25
ATOM     25  C   UNL A   1      33.382  34.442  28.835  1.00  0.00     0.338 C 
ATOM     26  O   UNL A   1      32.533  35.192  29.298  1.00  0.00    -0.246 OA
BRANCH  25  27
ATOM     27  C   UNL A   1      34.505  33.922  29.635  1.00  0.00     0.060 A 
ATOM     28  C   UNL A   1      35.802  34.178  29.173  1.00  0.00     0.016 A 
ATOM     29  C   UNL A   1      34.301  33.147  30.779  1.00  0.00     0.016 A 
ATOM     30  C   UNL A   1      36.900  33.623  29.825  1.00  0.00     0.010 A 
ATOM     31  C   UNL A   1      35.406  32.582  31.429  1.00  0.00     0.010 A 
ATOM     32  C   UNL A   1      36.708  32.791  30.935  1.00  0.00    -0.014 A 
BRANCH  32  33
ATOM     33  C   UNL A   1      37.855  32.026  31.484  1.00  0.00     0.031 A 
ATOM     34  C   UNL A   1      38.408  32.407  32.830  1.00  0.00     0.074 A 
ATOM     35  C   UNL A   1      38.376  30.985  30.807  1.00  0.00     0.049 A 
ATOM     36  N   UNL A   1      39.419  31.901  33.488  1.00  0.00    -0.248 NA
ATOM     37  C   UNL A   1      37.730  33.513  33.522  1.00  0.00     0.031 C 
ATOM     38  C   UNL A   1      37.893  30.494  29.518  1.00  0.00     0.029 A 
ATOM     39  N   UNL A   1      39.426  30.158  31.112  1.00  0.00    -0.354 N 
ATOM     40  C   UNL A   1      39.503  32.629  34.671  1.00  0.00     0.074 A 
ATOM     41  C   UNL A   1      38.464  33.637  34.616  1.00  0.00     0.031 C 
ATOM     42  C   UNL A   1      38.653  29.451  29.139  1.00  0.00     0.029 A 
ATOM     43  C   UNL A   1      39.696  29.227  30.137  1.00  0.00     0.049 A 
ATOM     44  H   UNL A   1      39.939  30.225  31.950  1.00  0.00     0.167 HD
ATOM     45  C   UNL A   1      40.361  32.466  35.709  1.00  0.00     0.034 A 
ATOM     46  C   UNL A   1      40.684  28.315  30.052  1.00  0.00     0.034 A 
ATOM     47  C   UNL A   1      41.399  31.462  35.741  1.00  0.00     0.049 A 
ATOM     48  C   UNL A   1      41.686  28.209  31.177  1.00  0.00     0.074 A 
ATOM     49  C   UNL A   1      42.307  31.194  36.750  1.00  0.00     0.029 A 
ATOM     50  N   UNL A   1      41.678  30.573  34.711  1.00  0.00    -0.354 N 
ATOM     51  N   UNL A   1      41.749  28.895  32.296  1.00  0.00    -0.248 NA
ATOM     52  C   UNL A   1      42.745  27.204  31.028  1.00  0.00     0.031 C 
ATOM     53  C   UNL A   1      43.182  30.198  36.300  1.00  0.00     0.029 A 
ATOM     54  C   UNL A   1      42.769  29.783  35.043  1.00  0.00     0.049 A 
ATOM     55  H   UNL A   1      41.174  30.511  33.867  1.00  0.00     0.167 HD
ATOM     56  C   UNL A   1      42.836  28.379  32.997  1.00  0.00     0.074 A 
ATOM     57  C   UNL A   1      43.391  27.320  32.179  1.00  0.00     0.031 C 
ATOM     58  C   UNL A   1      43.326  28.741  34.210  1.00  0.00     0.034 A 
BRANCH  45  59
ATOM     59  C   UNL A   1      40.243  33.435  36.862  1.00  0.00     0.023 A 
ATOM     60  C   UNL A   1      39.589  33.091  38.058  1.00  0.00     0.031 A 
ATOM     61  C   UNL A   1      40.756  34.739  36.745  1.00  0.00     0.131 A 
ATOM     62  C   UNL A   1      39.395  34.060  39.055  1.00  0.00     0.055 A 
ATOM     63  C   UNL A   1      40.632  35.674  37.774  1.00  0.00     0.041 A 
ATOM     64  F   UNL A   1      41.370  35.134  35.619  1.00  0.00    -0.206 F 
ATOM     65  C   UNL A   1      39.933  35.343  38.931  1.00  0.00     0.022 A 
BRANCH  62  66
ATOM     66  S   UNL A   1      38.292  33.669  40.441  1.00  0.00     0.124 S 
ATOM     67  O   UNL A   1      37.112  33.161  39.746  1.00  0.00    -0.237 OA
ATOM     68  O   UNL A   1      39.066  32.685  41.191  1.00  0.00    -0.237 OA
ATOM     69  O   UNL A   1      38.107  34.957  41.106  1.00  0.00    -0.744 OA
ENDBRANCH  62  66
ENDBRANCH  45  59
BRANCH  46  70
ATOM     70  C   UNL A   1      40.806  27.449  28.844  1.00  0.00     0.023 A 
ATOM     71  C   UNL A   1      41.774  27.706  27.859  1.00  0.00     0.031 A 
ATOM     72  C   UNL A   1      39.923  26.374  28.637  1.00  0.00     0.131 A 
ATOM     73  C   UNL A   1      41.810  26.923  26.695  1.00  0.00     0.055 A 
ATOM     74  C   UNL A   1      39.995  25.569  27.500  1.00  0.00     0.041 A 
ATOM     75  F   UNL A   1      38.979  26.086  29.547  1.00  0.00    -0.206 F 
ATOM     76  C   UNL A   1      40.936  25.848  26.515  1.00  0.00     0.022 A 
BRANCH  73  77
ATOM     77  S   UNL A   1      42.975  27.375  25.381  1.00  0.00     0.124 S 
ATOM     78  O   UNL A   1      43.092  26.122  24.644  1.00  0.00    -0.237 OA
ATOM     79  O   UNL A   1      42.265  28.455  24.704  1.00  0.00    -0.237 OA
ATOM     80  O   UNL A   1      44.172  27.783  26.114  1.00  0.00    -0.744 OA
ENDBRANCH  73  77
ENDBRANCH  46  70
BRANCH  58  81
ATOM     81  C   UNL A   1      44.497  27.951  34.743  1.00  0.00     0.023 A 
ATOM     82  C   UNL A   1      44.321  26.812  35.548  1.00  0.00     0.031 A 
ATOM     83  C   UNL A   1      45.813  28.351  34.446  1.00  0.00     0.131 A 
ATOM     84  C   UNL A   1      45.439  26.146  36.075  1.00  0.00     0.055 A 
ATOM     85  C   UNL A   1      46.922  27.649  34.921  1.00  0.00     0.041 A 
ATOM     86  F   UNL A   1      46.043  29.432  33.684  1.00  0.00    -0.206 F 
ATOM     87  C   UNL A   1      46.738  26.548  35.752  1.00  0.00     0.022 A 
BRANCH  84  88
ATOM     88  S   UNL A   1      45.175  24.802  37.264  1.00  0.00     0.124 S 
ATOM     89  O   UNL A   1      46.540  24.367  37.539  1.00  0.00    -0.237 OA
ATOM     90  O   UNL A   1      44.489  25.482  38.358  1.00  0.00    -0.237 OA
ATOM     91  O   UNL A   1      44.357  23.843  36.522  1.00  0.00    -0.744 OA
ENDBRANCH  84  88
ENDBRANCH  58  81
ENDBRANCH  32  33
ENDBRANCH  25  27
ENDBRANCH  24  25
ENDBRANCH  23  24
ENDBRANCH  22  23
ENDBRANCH   1  22
TORSDOF 20
ENDMDL
