MODEL 1
REMARK VINA RESULT:      -9.2      0.000      0.000
REMARK SMILES COCC[C@H](NC(=O)N1CC[C@H](C(=O)OC)C1)C(=O)OCCOCCOC(=O)c1ccc(-c2c3nc(c(-c4cc(S(=O)(=O)[O-])ccc4F)c4ccc([nH]4)c(-c4cc(S(=O)(=O)[O-])ccc4F)c4nc(c(-c5cc(S(=O)(=O)[O-])ccc5F)c5ccc2[nH]5)C=C4)C=C3)cc1
REMARK SMILES IDX 22 1 21 2 20 3 18 4 19 5 5 6 4 7 3 8 2 9 1 10 6 11 7 12 8 14
REMARK SMILES IDX 9 15 10 16 17 17 11 18 12 19 13 20 14 21 15 22 16 23 23 24
REMARK SMILES IDX 24 25 25 26 26 27 27 28 28 29 29 30 30 31 91 32 31 33 90 34
REMARK SMILES IDX 32 35 33 36 34 37 84 38 35 39 89 40 83 41 85 42 36 43 88 44
REMARK SMILES IDX 82 45 81 46 37 48 69 49 49 50 68 51 50 52 53 53 67 54 86 55
REMARK SMILES IDX 51 56 52 57 66 59 87 60 54 61 38 62 39 63 47 64 40 65 46 66
REMARK SMILES IDX 48 67 45 68 41 69 42 70 43 71 44 72 70 73 71 74 79 75 72 76
REMARK SMILES IDX 78 77 80 78 77 79 73 80 74 81 75 82 76 83 55 84 56 85 64 86
REMARK SMILES IDX 57 87 63 88 65 89 62 90 58 91 59 92 60 93 61 94
REMARK H PARENT 6 13 85 47 53 58
REMARK Flexibility Score: inf
ROOT
ATOM      1  C   UNL A   1      36.577  22.166  25.374  1.00  0.00     0.202 C 
ENDROOT
BRANCH   1   2
ATOM      2  C   UNL A   1      36.804  23.652  25.090  1.00  0.00     0.261 C 
BRANCH   2   3
ATOM      3  O   UNL A   1      35.606  24.443  25.109  1.00  0.00    -0.462 OA
BRANCH   3   4
ATOM      4  C   UNL A   1      34.649  23.988  24.253  1.00  0.00     0.328 C 
ATOM      5  O   UNL A   1      34.843  23.697  23.079  1.00  0.00    -0.250 OA
BRANCH   4   6
ATOM      6  C   UNL A   1      33.276  23.916  24.908  1.00  0.00     0.196 C 
BRANCH   6   7
ATOM      7  C   UNL A   1      33.169  22.763  25.912  1.00  0.00     0.065 C 
BRANCH   7   8
ATOM      8  C   UNL A   1      32.242  21.625  25.486  1.00  0.00     0.162 C 
BRANCH   8   9
ATOM      9  O   UNL A   1      32.703  20.969  24.307  1.00  0.00    -0.385 OA
ATOM     10  C   UNL A   1      33.516  19.823  24.539  1.00  0.00     0.194 C 
ENDBRANCH   8   9
ENDBRANCH   7   8
ENDBRANCH   6   7
BRANCH   6  11
ATOM     11  N   UNL A   1      32.216  23.819  23.892  1.00  0.00    -0.324 N 
ATOM     12  C   UNL A   1      31.426  24.834  23.458  1.00  0.00     0.318 C 
ATOM     13  H   UNL A   1      32.065  22.933  23.488  1.00  0.00     0.166 HD
ATOM     14  O   UNL A   1      30.255  24.601  23.171  1.00  0.00    -0.249 OA
BRANCH  12  15
ATOM     15  N   UNL A   1      31.946  26.088  23.446  1.00  0.00    -0.324 N 
ATOM     16  C   UNL A   1      32.769  26.703  22.425  1.00  0.00     0.122 C 
ATOM     17  C   UNL A   1      31.577  27.075  24.442  1.00  0.00     0.136 C 
ATOM     18  C   UNL A   1      33.631  27.639  23.246  1.00  0.00     0.039 C 
ATOM     19  C   UNL A   1      32.642  28.168  24.300  1.00  0.00     0.120 C 
BRANCH  19  20
ATOM     20  C   UNL A   1      33.322  28.495  25.606  1.00  0.00     0.310 C 
ATOM     21  O   UNL A   1      34.009  27.689  26.221  1.00  0.00    -0.252 OA
BRANCH  20  22
ATOM     22  O   UNL A   1      33.048  29.760  26.022  1.00  0.00    -0.469 OA
ATOM     23  C   UNL A   1      31.996  29.848  26.983  1.00  0.00     0.282 C 
ENDBRANCH  20  22
ENDBRANCH  19  20
ENDBRANCH  12  15
ENDBRANCH   6  11
ENDBRANCH   4   6
ENDBRANCH   3   4
ENDBRANCH   2   3
ENDBRANCH   1   2
BRANCH   1  24
ATOM     24  O   UNL A   1      37.214  21.209  24.535  1.00  0.00    -0.374 OA
BRANCH  24  25
ATOM     25  C   UNL A   1      37.204  19.838  24.929  1.00  0.00     0.202 C 
BRANCH  25  26
ATOM     26  C   UNL A   1      38.508  19.213  25.438  1.00  0.00     0.261 C 
BRANCH  26  27
ATOM     27  O   UNL A   1      39.614  20.129  25.392  1.00  0.00    -0.460 OA
BRANCH  27  28
ATOM     28  C   UNL A   1      40.383  20.113  26.505  1.00  0.00     0.338 C 
ATOM     29  O   UNL A   1      40.990  19.147  26.961  1.00  0.00    -0.246 OA
BRANCH  28  30
ATOM     30  C   UNL A   1      40.597  21.480  27.009  1.00  0.00     0.060 A 
ATOM     31  C   UNL A   1      40.064  22.525  26.244  1.00  0.00     0.016 A 
ATOM     32  C   UNL A   1      41.360  21.747  28.149  1.00  0.00     0.016 A 
ATOM     33  C   UNL A   1      40.369  23.842  26.559  1.00  0.00     0.010 A 
ATOM     34  C   UNL A   1      41.671  23.075  28.462  1.00  0.00     0.010 A 
ATOM     35  C   UNL A   1      41.224  24.121  27.634  1.00  0.00    -0.014 A 
BRANCH  35  36
ATOM     36  C   UNL A   1      41.798  25.485  27.725  1.00  0.00     0.031 A 
ATOM     37  C   UNL A   1      40.995  26.557  28.414  1.00  0.00     0.074 A 
ATOM     38  C   UNL A   1      43.054  25.726  27.312  1.00  0.00     0.049 A 
ATOM     39  N   UNL A   1      41.326  27.788  28.705  1.00  0.00    -0.248 NA
ATOM     40  C   UNL A   1      39.635  26.184  28.837  1.00  0.00     0.031 C 
ATOM     41  C   UNL A   1      43.935  24.745  26.678  1.00  0.00     0.029 A 
ATOM     42  N   UNL A   1      43.815  26.864  27.386  1.00  0.00    -0.354 N 
ATOM     43  C   UNL A   1      40.220  28.335  29.348  1.00  0.00     0.074 A 
ATOM     44  C   UNL A   1      39.193  27.317  29.360  1.00  0.00     0.031 C 
ATOM     45  C   UNL A   1      45.122  25.322  26.431  1.00  0.00     0.029 A 
ATOM     46  C   UNL A   1      45.077  26.718  26.863  1.00  0.00     0.049 A 
ATOM     47  H   UNL A   1      43.487  27.706  27.775  1.00  0.00     0.167 HD
ATOM     48  C   UNL A   1      40.082  29.569  29.893  1.00  0.00     0.034 A 
ATOM     49  C   UNL A   1      46.079  27.612  26.744  1.00  0.00     0.034 A 
ATOM     50  C   UNL A   1      41.115  30.577  29.856  1.00  0.00     0.049 A 
ATOM     51  C   UNL A   1      45.878  29.002  27.298  1.00  0.00     0.074 A 
ATOM     52  C   UNL A   1      41.086  31.864  30.364  1.00  0.00     0.029 A 
ATOM     53  N   UNL A   1      42.363  30.413  29.266  1.00  0.00    -0.354 N 
ATOM     54  N   UNL A   1      44.829  29.507  27.911  1.00  0.00    -0.248 NA
ATOM     55  C   UNL A   1      47.004  29.934  27.165  1.00  0.00     0.031 C 
ATOM     56  C   UNL A   1      42.285  32.499  30.020  1.00  0.00     0.029 A 
ATOM     57  C   UNL A   1      43.100  31.583  29.372  1.00  0.00     0.049 A 
ATOM     58  H   UNL A   1      42.678  29.585  28.835  1.00  0.00     0.167 HD
ATOM     59  C   UNL A   1      45.186  30.807  28.264  1.00  0.00     0.074 A 
ATOM     60  C   UNL A   1      46.551  30.995  27.814  1.00  0.00     0.031 C 
ATOM     61  C   UNL A   1      44.456  31.758  28.903  1.00  0.00     0.034 A 
BRANCH  48  62
ATOM     62  C   UNL A   1      38.747  29.904  30.518  1.00  0.00     0.023 A 
ATOM     63  C   UNL A   1      37.759  30.626  29.823  1.00  0.00     0.031 A 
ATOM     64  C   UNL A   1      38.474  29.532  31.846  1.00  0.00     0.131 A 
ATOM     65  C   UNL A   1      36.580  31.014  30.481  1.00  0.00     0.055 A 
ATOM     66  C   UNL A   1      37.265  29.851  32.469  1.00  0.00     0.041 A 
ATOM     67  F   UNL A   1      39.387  28.866  32.571  1.00  0.00    -0.206 F 
ATOM     68  C   UNL A   1      36.317  30.610  31.791  1.00  0.00     0.022 A 
BRANCH  65  69
ATOM     69  S   UNL A   1      35.465  32.181  29.651  1.00  0.00     0.124 S 
ATOM     70  O   UNL A   1      34.699  32.709  30.777  1.00  0.00    -0.237 OA
ATOM     71  O   UNL A   1      36.394  33.109  29.018  1.00  0.00    -0.237 OA
ATOM     72  O   UNL A   1      34.706  31.335  28.734  1.00  0.00    -0.744 OA
ENDBRANCH  65  69
ENDBRANCH  48  62
BRANCH  49  73
ATOM     73  C   UNL A   1      47.351  27.236  26.063  1.00  0.00     0.023 A 
ATOM     74  C   UNL A   1      48.354  26.513  26.729  1.00  0.00     0.031 A 
ATOM     75  C   UNL A   1      47.601  27.640  24.739  1.00  0.00     0.131 A 
ATOM     76  C   UNL A   1      49.576  26.258  26.087  1.00  0.00     0.055 A 
ATOM     77  C   UNL A   1      48.796  27.338  24.086  1.00  0.00     0.041 A 
ATOM     78  F   UNL A   1      46.675  28.332  24.054  1.00  0.00    -0.206 F 
ATOM     79  C   UNL A   1      49.799  26.654  24.766  1.00  0.00     0.022 A 
BRANCH  76  80
ATOM     80  S   UNL A   1      50.908  25.468  27.032  1.00  0.00     0.124 S 
ATOM     81  O   UNL A   1      51.854  25.121  25.978  1.00  0.00    -0.237 OA
ATOM     82  O   UNL A   1      51.316  26.541  27.933  1.00  0.00    -0.237 OA
ATOM     83  O   UNL A   1      50.244  24.337  27.675  1.00  0.00    -0.744 OA
ENDBRANCH  76  80
ENDBRANCH  49  73
BRANCH  61  84
ATOM     84  C   UNL A   1      45.150  33.070  29.191  1.00  0.00     0.023 A 
ATOM     85  C   UNL A   1      45.101  34.148  28.289  1.00  0.00     0.031 A 
ATOM     86  C   UNL A   1      45.905  33.228  30.367  1.00  0.00     0.131 A 
ATOM     87  C   UNL A   1      45.860  35.301  28.536  1.00  0.00     0.055 A 
ATOM     88  C   UNL A   1      46.599  34.407  30.643  1.00  0.00     0.041 A 
ATOM     89  F   UNL A   1      45.989  32.233  31.265  1.00  0.00    -0.206 F 
ATOM     90  C   UNL A   1      46.595  35.445  29.716  1.00  0.00     0.022 A 
BRANCH  87  91
ATOM     91  S   UNL A   1      45.984  36.555  27.231  1.00  0.00     0.124 S 
ATOM     92  O   UNL A   1      44.604  37.015  27.119  1.00  0.00    -0.237 OA
ATOM     93  O   UNL A   1      46.930  37.507  27.803  1.00  0.00    -0.237 OA
ATOM     94  O   UNL A   1      46.481  35.802  26.080  1.00  0.00    -0.744 OA
ENDBRANCH  87  91
ENDBRANCH  61  84
ENDBRANCH  35  36
ENDBRANCH  28  30
ENDBRANCH  27  28
ENDBRANCH  26  27
ENDBRANCH  25  26
ENDBRANCH  24  25
ENDBRANCH   1  24
TORSDOF 24
ENDMDL
MODEL 2
REMARK VINA RESULT:      -9.1      4.980     10.520
REMARK SMILES COCC[C@H](NC(=O)N1CC[C@H](C(=O)OC)C1)C(=O)OCCOCCOC(=O)c1ccc(-c2c3nc(c(-c4cc(S(=O)(=O)[O-])ccc4F)c4ccc([nH]4)c(-c4cc(S(=O)(=O)[O-])ccc4F)c4nc(c(-c5cc(S(=O)(=O)[O-])ccc5F)c5ccc2[nH]5)C=C4)C=C3)cc1
REMARK SMILES IDX 22 1 21 2 20 3 18 4 19 5 5 6 4 7 3 8 2 9 1 10 6 11 7 12 8 14
REMARK SMILES IDX 9 15 10 16 17 17 11 18 12 19 13 20 14 21 15 22 16 23 23 24
REMARK SMILES IDX 24 25 25 26 26 27 27 28 28 29 29 30 30 31 91 32 31 33 90 34
REMARK SMILES IDX 32 35 33 36 34 37 84 38 35 39 89 40 83 41 85 42 36 43 88 44
REMARK SMILES IDX 82 45 81 46 37 48 69 49 49 50 68 51 50 52 53 53 67 54 86 55
REMARK SMILES IDX 51 56 52 57 66 59 87 60 54 61 38 62 39 63 47 64 40 65 46 66
REMARK SMILES IDX 48 67 45 68 41 69 42 70 43 71 44 72 70 73 71 74 79 75 72 76
REMARK SMILES IDX 78 77 80 78 77 79 73 80 74 81 75 82 76 83 55 84 56 85 64 86
REMARK SMILES IDX 57 87 63 88 65 89 62 90 58 91 59 92 60 93 61 94
REMARK H PARENT 6 13 85 47 53 58
REMARK Flexibility Score: inf
ROOT
ATOM      1  C   UNL A   1      33.262  30.155  26.808  1.00  0.00     0.202 C 
ENDROOT
BRANCH   1   2
ATOM      2  C   UNL A   1      32.780  28.823  27.385  1.00  0.00     0.261 C 
BRANCH   2   3
ATOM      3  O   UNL A   1      32.027  28.022  26.462  1.00  0.00    -0.462 OA
BRANCH   3   4
ATOM      4  C   UNL A   1      32.625  26.834  26.171  1.00  0.00     0.328 C 
ATOM      5  O   UNL A   1      33.835  26.636  26.197  1.00  0.00    -0.250 OA
BRANCH   4   6
ATOM      6  C   UNL A   1      31.620  25.766  25.762  1.00  0.00     0.196 C 
BRANCH   6   7
ATOM      7  C   UNL A   1      30.325  26.367  25.204  1.00  0.00     0.065 C 
BRANCH   7   8
ATOM      8  C   UNL A   1      29.699  25.585  24.050  1.00  0.00     0.162 C 
BRANCH   8   9
ATOM      9  O   UNL A   1      29.050  26.439  23.111  1.00  0.00    -0.385 OA
ATOM     10  C   UNL A   1      28.947  27.801  23.512  1.00  0.00     0.194 C 
ENDBRANCH   8   9
ENDBRANCH   7   8
ENDBRANCH   6   7
BRANCH   6  11
ATOM     11  N   UNL A   1      31.330  24.862  26.886  1.00  0.00    -0.324 N 
ATOM     12  C   UNL A   1      31.405  23.507  26.865  1.00  0.00     0.318 C 
ATOM     13  H   UNL A   1      31.054  25.280  27.735  1.00  0.00     0.166 HD
ATOM     14  O   UNL A   1      30.592  22.852  27.512  1.00  0.00    -0.249 OA
BRANCH  12  15
ATOM     15  N   UNL A   1      32.327  22.931  26.052  1.00  0.00    -0.324 N 
ATOM     16  C   UNL A   1      33.675  22.518  26.383  1.00  0.00     0.122 C 
ATOM     17  C   UNL A   1      31.988  22.482  24.715  1.00  0.00     0.136 C 
ATOM     18  C   UNL A   1      34.394  22.728  25.066  1.00  0.00     0.039 C 
ATOM     19  C   UNL A   1      33.346  22.270  24.036  1.00  0.00     0.120 C 
BRANCH  19  20
ATOM     20  C   UNL A   1      33.470  23.013  22.729  1.00  0.00     0.310 C 
ATOM     21  O   UNL A   1      32.915  22.649  21.699  1.00  0.00    -0.252 OA
BRANCH  20  22
ATOM     22  O   UNL A   1      34.290  24.092  22.831  1.00  0.00    -0.469 OA
ATOM     23  C   UNL A   1      33.633  25.349  22.666  1.00  0.00     0.282 C 
ENDBRANCH  20  22
ENDBRANCH  19  20
ENDBRANCH  12  15
ENDBRANCH   6  11
ENDBRANCH   4   6
ENDBRANCH   3   4
ENDBRANCH   2   3
ENDBRANCH   1   2
BRANCH   1  24
ATOM     24  O   UNL A   1      32.375  30.898  25.978  1.00  0.00    -0.374 OA
BRANCH  24  25
ATOM     25  C   UNL A   1      31.458  31.803  26.591  1.00  0.00     0.202 C 
BRANCH  25  26
ATOM     26  C   UNL A   1      31.866  33.273  26.736  1.00  0.00     0.261 C 
BRANCH  26  27
ATOM     27  O   UNL A   1      32.253  33.609  28.078  1.00  0.00    -0.460 OA
BRANCH  27  28
ATOM     28  C   UNL A   1      33.393  34.333  28.153  1.00  0.00     0.338 C 
ATOM     29  O   UNL A   1      33.486  35.558  28.122  1.00  0.00    -0.246 OA
BRANCH  28  30
ATOM     30  C   UNL A   1      34.534  33.472  28.508  1.00  0.00     0.060 A 
ATOM     31  C   UNL A   1      34.241  32.286  29.193  1.00  0.00     0.016 A 
ATOM     32  C   UNL A   1      35.858  33.840  28.253  1.00  0.00     0.016 A 
ATOM     33  C   UNL A   1      35.269  31.511  29.710  1.00  0.00     0.010 A 
ATOM     34  C   UNL A   1      36.894  33.060  28.780  1.00  0.00     0.010 A 
ATOM     35  C   UNL A   1      36.599  31.926  29.559  1.00  0.00    -0.014 A 
BRANCH  35  36
ATOM     36  C   UNL A   1      37.627  31.276  30.406  1.00  0.00     0.031 A 
ATOM     37  C   UNL A   1      38.516  30.232  29.783  1.00  0.00     0.074 A 
ATOM     38  C   UNL A   1      37.841  31.697  31.664  1.00  0.00     0.049 A 
ATOM     39  N   UNL A   1      39.543  29.602  30.289  1.00  0.00    -0.248 NA
ATOM     40  C   UNL A   1      38.202  29.851  28.395  1.00  0.00     0.031 C 
ATOM     41  C   UNL A   1      37.071  32.737  32.346  1.00  0.00     0.029 A 
ATOM     42  N   UNL A   1      38.784  31.318  32.584  1.00  0.00    -0.354 N 
ATOM     43  C   UNL A   1      40.003  28.757  29.284  1.00  0.00     0.074 A 
ATOM     44  C   UNL A   1      39.110  28.919  28.157  1.00  0.00     0.031 C 
ATOM     45  C   UNL A   1      37.581  32.921  33.575  1.00  0.00     0.029 A 
ATOM     46  C   UNL A   1      38.695  31.995  33.777  1.00  0.00     0.049 A 
ATOM     47  H   UNL A   1      39.461  30.626  32.408  1.00  0.00     0.167 HD
ATOM     48  C   UNL A   1      41.081  27.934  29.296  1.00  0.00     0.034 A 
ATOM     49  C   UNL A   1      39.428  31.877  34.902  1.00  0.00     0.034 A 
ATOM     50  C   UNL A   1      41.949  27.775  30.438  1.00  0.00     0.049 A 
ATOM     51  C   UNL A   1      40.582  30.904  34.915  1.00  0.00     0.074 A 
ATOM     52  C   UNL A   1      43.063  26.965  30.571  1.00  0.00     0.029 A 
ATOM     53  N   UNL A   1      41.794  28.436  31.652  1.00  0.00    -0.354 N 
ATOM     54  N   UNL A   1      41.011  30.113  33.956  1.00  0.00    -0.248 NA
ATOM     55  C   UNL A   1      41.363  30.825  36.155  1.00  0.00     0.031 C 
ATOM     56  C   UNL A   1      43.537  27.082  31.883  1.00  0.00     0.029 A 
ATOM     57  C   UNL A   1      42.773  28.030  32.545  1.00  0.00     0.049 A 
ATOM     58  H   UNL A   1      41.091  29.097  31.847  1.00  0.00     0.167 HD
ATOM     59  C   UNL A   1      42.134  29.468  34.470  1.00  0.00     0.074 A 
ATOM     60  C   UNL A   1      42.323  29.981  35.812  1.00  0.00     0.031 C 
ATOM     61  C   UNL A   1      42.938  28.540  33.888  1.00  0.00     0.034 A 
BRANCH  48  62
ATOM     62  C   UNL A   1      41.333  27.106  28.057  1.00  0.00     0.023 A 
ATOM     63  C   UNL A   1      40.964  25.751  27.977  1.00  0.00     0.031 A 
ATOM     64  C   UNL A   1      41.993  27.672  26.951  1.00  0.00     0.131 A 
ATOM     65  C   UNL A   1      41.320  24.991  26.851  1.00  0.00     0.055 A 
ATOM     66  C   UNL A   1      42.272  26.930  25.801  1.00  0.00     0.041 A 
ATOM     67  F   UNL A   1      42.395  28.952  26.976  1.00  0.00    -0.206 F 
ATOM     68  C   UNL A   1      41.950  25.578  25.753  1.00  0.00     0.022 A 
BRANCH  65  69
ATOM     69  S   UNL A   1      41.085  23.192  26.906  1.00  0.00     0.124 S 
ATOM     70  O   UNL A   1      41.527  22.877  28.262  1.00  0.00    -0.237 OA
ATOM     71  O   UNL A   1      39.656  23.053  26.651  1.00  0.00    -0.237 OA
ATOM     72  O   UNL A   1      41.959  22.700  25.844  1.00  0.00    -0.744 OA
ENDBRANCH  65  69
ENDBRANCH  48  62
BRANCH  49  73
ATOM     73  C   UNL A   1      39.089  32.680  36.112  1.00  0.00     0.023 A 
ATOM     74  C   UNL A   1      39.555  33.995  36.273  1.00  0.00     0.031 A 
ATOM     75  C   UNL A   1      38.327  32.120  37.153  1.00  0.00     0.131 A 
ATOM     76  C   UNL A   1      39.295  34.688  37.466  1.00  0.00     0.055 A 
ATOM     77  C   UNL A   1      38.026  32.831  38.314  1.00  0.00     0.041 A 
ATOM     78  F   UNL A   1      37.855  30.867  37.050  1.00  0.00    -0.206 F 
ATOM     79  C   UNL A   1      38.523  34.119  38.483  1.00  0.00     0.022 A 
BRANCH  76  80
ATOM     80  S   UNL A   1      40.050  36.319  37.709  1.00  0.00     0.124 S 
ATOM     81  O   UNL A   1      41.324  35.968  38.326  1.00  0.00    -0.237 OA
ATOM     82  O   UNL A   1      40.117  36.827  36.342  1.00  0.00    -0.237 OA
ATOM     83  O   UNL A   1      39.101  37.007  38.580  1.00  0.00    -0.744 OA
ENDBRANCH  76  80
ENDBRANCH  49  73
BRANCH  61  84
ATOM     84  C   UNL A   1      44.122  28.062  34.696  1.00  0.00     0.023 A 
ATOM     85  C   UNL A   1      43.996  27.063  35.677  1.00  0.00     0.031 A 
ATOM     86  C   UNL A   1      45.389  28.646  34.509  1.00  0.00     0.131 A 
ATOM     87  C   UNL A   1      45.092  26.738  36.489  1.00  0.00     0.055 A 
ATOM     88  C   UNL A   1      46.494  28.265  35.270  1.00  0.00     0.041 A 
ATOM     89  F   UNL A   1      45.570  29.605  33.587  1.00  0.00    -0.206 F 
ATOM     90  C   UNL A   1      46.345  27.319  36.281  1.00  0.00     0.022 A 
BRANCH  87  91
ATOM     91  S   UNL A   1      44.824  25.645  37.912  1.00  0.00     0.124 S 
ATOM     92  O   UNL A   1      46.148  25.611  38.524  1.00  0.00    -0.237 OA
ATOM     93  O   UNL A   1      43.793  26.356  38.661  1.00  0.00    -0.237 OA
ATOM     94  O   UNL A   1      44.391  24.389  37.301  1.00  0.00    -0.744 OA
ENDBRANCH  87  91
ENDBRANCH  61  84
ENDBRANCH  35  36
ENDBRANCH  28  30
ENDBRANCH  27  28
ENDBRANCH  26  27
ENDBRANCH  25  26
ENDBRANCH  24  25
ENDBRANCH   1  24
TORSDOF 24
ENDMDL
MODEL 3
REMARK VINA RESULT:      -8.9      4.635      8.248
REMARK SMILES COCC[C@H](NC(=O)N1CC[C@H](C(=O)OC)C1)C(=O)OCCOCCOC(=O)c1ccc(-c2c3nc(c(-c4cc(S(=O)(=O)[O-])ccc4F)c4ccc([nH]4)c(-c4cc(S(=O)(=O)[O-])ccc4F)c4nc(c(-c5cc(S(=O)(=O)[O-])ccc5F)c5ccc2[nH]5)C=C4)C=C3)cc1
REMARK SMILES IDX 22 1 21 2 20 3 18 4 19 5 5 6 4 7 3 8 2 9 1 10 6 11 7 12 8 14
REMARK SMILES IDX 9 15 10 16 17 17 11 18 12 19 13 20 14 21 15 22 16 23 23 24
REMARK SMILES IDX 24 25 25 26 26 27 27 28 28 29 29 30 30 31 91 32 31 33 90 34
REMARK SMILES IDX 32 35 33 36 34 37 84 38 35 39 89 40 83 41 85 42 36 43 88 44
REMARK SMILES IDX 82 45 81 46 37 48 69 49 49 50 68 51 50 52 53 53 67 54 86 55
REMARK SMILES IDX 51 56 52 57 66 59 87 60 54 61 38 62 39 63 47 64 40 65 46 66
REMARK SMILES IDX 48 67 45 68 41 69 42 70 43 71 44 72 70 73 71 74 79 75 72 76
REMARK SMILES IDX 78 77 80 78 77 79 73 80 74 81 75 82 76 83 55 84 56 85 64 86
REMARK SMILES IDX 57 87 63 88 65 89 62 90 58 91 59 92 60 93 61 94
REMARK H PARENT 6 13 85 47 53 58
REMARK Flexibility Score: inf
ROOT
ATOM      1  C   UNL A   1      32.751  28.697  25.442  1.00  0.00     0.202 C 
ENDROOT
BRANCH   1   2
ATOM      2  C   UNL A   1      32.476  27.666  24.346  1.00  0.00     0.261 C 
BRANCH   2   3
ATOM      3  O   UNL A   1      33.622  26.888  23.971  1.00  0.00    -0.462 OA
BRANCH   3   4
ATOM      4  C   UNL A   1      33.979  25.970  24.912  1.00  0.00     0.328 C 
ATOM      5  O   UNL A   1      34.251  26.235  26.077  1.00  0.00    -0.250 OA
BRANCH   4   6
ATOM      6  C   UNL A   1      34.045  24.558  24.346  1.00  0.00     0.196 C 
BRANCH   6   7
ATOM      7  C   UNL A   1      35.475  24.006  24.322  1.00  0.00     0.065 C 
BRANCH   7   8
ATOM      8  C   UNL A   1      35.731  22.844  25.280  1.00  0.00     0.162 C 
BRANCH   8   9
ATOM      9  O   UNL A   1      35.585  23.229  26.645  1.00  0.00    -0.385 OA
ATOM     10  C   UNL A   1      34.402  22.753  27.278  1.00  0.00     0.194 C 
ENDBRANCH   8   9
ENDBRANCH   7   8
ENDBRANCH   6   7
BRANCH   6  11
ATOM     11  N   UNL A   1      33.447  24.504  23.003  1.00  0.00    -0.324 N 
ATOM     12  C   UNL A   1      33.027  23.386  22.357  1.00  0.00     0.318 C 
ATOM     13  H   UNL A   1      33.341  25.360  22.527  1.00  0.00     0.166 HD
ATOM     14  O   UNL A   1      33.167  23.309  21.140  1.00  0.00    -0.249 OA
BRANCH  12  15
ATOM     15  N   UNL A   1      32.549  22.358  23.105  1.00  0.00    -0.324 N 
ATOM     16  C   UNL A   1      31.638  22.420  24.230  1.00  0.00     0.122 C 
ATOM     17  C   UNL A   1      32.781  20.975  22.734  1.00  0.00     0.136 C 
ATOM     18  C   UNL A   1      32.100  21.244  25.065  1.00  0.00     0.039 C 
ATOM     19  C   UNL A   1      32.430  20.184  24.000  1.00  0.00     0.120 C 
BRANCH  19  20
ATOM     20  C   UNL A   1      33.538  19.261  24.439  1.00  0.00     0.310 C 
ATOM     21  O   UNL A   1      34.593  19.663  24.914  1.00  0.00    -0.252 OA
BRANCH  20  22
ATOM     22  O   UNL A   1      33.237  17.955  24.209  1.00  0.00    -0.469 OA
ATOM     23  C   UNL A   1      32.146  17.457  24.985  1.00  0.00     0.282 C 
ENDBRANCH  20  22
ENDBRANCH  19  20
ENDBRANCH  12  15
ENDBRANCH   6  11
ENDBRANCH   4   6
ENDBRANCH   3   4
ENDBRANCH   2   3
ENDBRANCH   1   2
BRANCH   1  24
ATOM     24  O   UNL A   1      32.538  30.074  25.150  1.00  0.00    -0.374 OA
BRANCH  24  25
ATOM     25  C   UNL A   1      31.391  30.721  25.697  1.00  0.00     0.202 C 
BRANCH  25  26
ATOM     26  C   UNL A   1      31.600  31.928  26.618  1.00  0.00     0.261 C 
BRANCH  26  27
ATOM     27  O   UNL A   1      32.614  31.697  27.610  1.00  0.00    -0.460 OA
BRANCH  27  28
ATOM     28  C   UNL A   1      33.461  32.738  27.778  1.00  0.00     0.338 C 
ATOM     29  O   UNL A   1      33.150  33.917  27.931  1.00  0.00    -0.246 OA
BRANCH  28  30
ATOM     30  C   UNL A   1      34.839  32.261  27.983  1.00  0.00     0.060 A 
ATOM     31  C   UNL A   1      35.009  30.882  28.162  1.00  0.00     0.016 A 
ATOM     32  C   UNL A   1      35.928  33.132  28.077  1.00  0.00     0.016 A 
ATOM     33  C   UNL A   1      36.248  30.377  28.529  1.00  0.00     0.010 A 
ATOM     34  C   UNL A   1      37.176  32.622  28.454  1.00  0.00     0.010 A 
ATOM     35  C   UNL A   1      37.323  31.252  28.737  1.00  0.00    -0.014 A 
BRANCH  35  36
ATOM     36  C   UNL A   1      38.511  30.730  29.453  1.00  0.00     0.031 A 
ATOM     37  C   UNL A   1      38.728  31.146  30.884  1.00  0.00     0.074 A 
ATOM     38  C   UNL A   1      39.307  29.812  28.877  1.00  0.00     0.049 A 
ATOM     39  N   UNL A   1      39.631  30.745  31.741  1.00  0.00    -0.248 NA
ATOM     40  C   UNL A   1      37.793  32.149  31.421  1.00  0.00     0.031 C 
ATOM     41  C   UNL A   1      39.155  29.303  27.514  1.00  0.00     0.029 A 
ATOM     42  N   UNL A   1      40.386  29.128  29.374  1.00  0.00    -0.354 N 
ATOM     43  C   UNL A   1      39.371  31.440  32.918  1.00  0.00     0.074 A 
ATOM     44  C   UNL A   1      38.257  32.323  32.648  1.00  0.00     0.031 C 
ATOM     45  C   UNL A   1      40.102  28.377  27.288  1.00  0.00     0.029 A 
ATOM     46  C   UNL A   1      40.941  28.247  28.478  1.00  0.00     0.049 A 
ATOM     47  H   UNL A   1      40.731  29.256  30.287  1.00  0.00     0.167 HD
ATOM     48  C   UNL A   1      39.994  31.337  34.118  1.00  0.00     0.034 A 
ATOM     49  C   UNL A   1      42.008  27.432  28.604  1.00  0.00     0.034 A 
ATOM     50  C   UNL A   1      41.114  30.460  34.361  1.00  0.00     0.049 A 
ATOM     51  C   UNL A   1      42.728  27.385  29.929  1.00  0.00     0.074 A 
ATOM     52  C   UNL A   1      41.832  30.279  35.530  1.00  0.00     0.029 A 
ATOM     53  N   UNL A   1      41.688  29.623  33.411  1.00  0.00    -0.354 N 
ATOM     54  N   UNL A   1      42.470  28.043  31.038  1.00  0.00    -0.248 NA
ATOM     55  C   UNL A   1      43.871  26.468  30.025  1.00  0.00     0.031 C 
ATOM     56  C   UNL A   1      42.879  29.388  35.268  1.00  0.00     0.029 A 
ATOM     57  C   UNL A   1      42.766  28.945  33.959  1.00  0.00     0.049 A 
ATOM     58  H   UNL A   1      41.373  29.524  32.483  1.00  0.00     0.167 HD
ATOM     59  C   UNL A   1      43.400  27.591  31.973  1.00  0.00     0.074 A 
ATOM     60  C   UNL A   1      44.206  26.593  31.300  1.00  0.00     0.031 C 
ATOM     61  C   UNL A   1      43.571  27.963  33.268  1.00  0.00     0.034 A 
BRANCH  48  62
ATOM     62  C   UNL A   1      39.508  32.240  35.229  1.00  0.00     0.023 A 
ATOM     63  C   UNL A   1      40.119  33.477  35.505  1.00  0.00     0.031 A 
ATOM     64  C   UNL A   1      38.443  31.836  36.055  1.00  0.00     0.131 A 
ATOM     65  C   UNL A   1      39.709  34.229  36.618  1.00  0.00     0.055 A 
ATOM     66  C   UNL A   1      37.988  32.627  37.111  1.00  0.00     0.041 A 
ATOM     67  F   UNL A   1      37.838  30.654  35.860  1.00  0.00    -0.206 F 
ATOM     68  C   UNL A   1      38.632  33.824  37.408  1.00  0.00     0.022 A 
BRANCH  65  69
ATOM     69  S   UNL A   1      40.702  35.667  37.109  1.00  0.00     0.124 S 
ATOM     70  O   UNL A   1      39.669  36.674  37.342  1.00  0.00    -0.237 OA
ATOM     71  O   UNL A   1      41.399  35.180  38.293  1.00  0.00    -0.237 OA
ATOM     72  O   UNL A   1      41.548  35.913  35.944  1.00  0.00    -0.744 OA
ENDBRANCH  65  69
ENDBRANCH  48  62
BRANCH  49  73
ATOM     73  C   UNL A   1      42.473  26.612  27.449  1.00  0.00     0.023 A 
ATOM     74  C   UNL A   1      42.137  25.253  27.333  1.00  0.00     0.031 A 
ATOM     75  C   UNL A   1      43.306  27.170  26.463  1.00  0.00     0.131 A 
ATOM     76  C   UNL A   1      42.670  24.488  26.283  1.00  0.00     0.055 A 
ATOM     77  C   UNL A   1      43.789  26.419  25.391  1.00  0.00     0.041 A 
ATOM     78  F   UNL A   1      43.656  28.465  26.523  1.00  0.00    -0.206 F 
ATOM     79  C   UNL A   1      43.483  25.065  25.304  1.00  0.00     0.022 A 
BRANCH  76  80
ATOM     80  S   UNL A   1      42.351  22.702  26.257  1.00  0.00     0.124 S 
ATOM     81  O   UNL A   1      42.730  22.353  24.893  1.00  0.00    -0.237 OA
ATOM     82  O   UNL A   1      43.237  22.223  27.313  1.00  0.00    -0.237 OA
ATOM     83  O   UNL A   1      40.924  22.608  26.554  1.00  0.00    -0.744 OA
ENDBRANCH  76  80
ENDBRANCH  49  73
BRANCH  61  84
ATOM     84  C   UNL A   1      44.649  27.243  34.047  1.00  0.00     0.023 A 
ATOM     85  C   UNL A   1      44.384  26.058  34.756  1.00  0.00     0.031 A 
ATOM     86  C   UNL A   1      45.949  27.775  34.112  1.00  0.00     0.131 A 
ATOM     87  C   UNL A   1      45.379  25.491  35.566  1.00  0.00     0.055 A 
ATOM     88  C   UNL A   1      46.957  27.164  34.861  1.00  0.00     0.041 A 
ATOM     89  F   UNL A   1      46.261  28.904  33.456  1.00  0.00    -0.206 F 
ATOM     90  C   UNL A   1      46.669  26.026  35.609  1.00  0.00     0.022 A 
BRANCH  87  91
ATOM     91  S   UNL A   1      44.926  24.124  36.668  1.00  0.00     0.124 S 
ATOM     92  O   UNL A   1      44.123  24.803  37.681  1.00  0.00    -0.237 OA
ATOM     93  O   UNL A   1      44.199  23.230  35.773  1.00  0.00    -0.237 OA
ATOM     94  O   UNL A   1      46.215  23.618  37.135  1.00  0.00    -0.744 OA
ENDBRANCH  87  91
ENDBRANCH  61  84
ENDBRANCH  35  36
ENDBRANCH  28  30
ENDBRANCH  27  28
ENDBRANCH  26  27
ENDBRANCH  25  26
ENDBRANCH  24  25
ENDBRANCH   1  24
TORSDOF 24
ENDMDL
