MODEL 1
REMARK VINA RESULT:     -11.1      0.000      0.000
REMARK SMILES Cc1ncccc1Oc1ccc(C(=O)OCCOCCOC(=O)c2ccc(-c3c4nc(c(-c5cc(S(=O)(=O)[O-])ccc5F)c5ccc([nH]5)c(-c5cc(S(=O)(=O)[O-])ccc5F)c5nc(c(-c6cc(S(=O)(=O)[O-])ccc6F)c6ccc3[nH]6)C=C5)C=C4)cc2)cc1Cl
REMARK SMILES IDX 19 1 18 2 17 3 16 4 15 5 13 6 14 7 12 8 9 9 10 10 88 11
REMARK SMILES IDX 11 12 87 13 89 14 8 15 7 16 1 17 2 18 3 19 4 20 6 21 5 22
REMARK SMILES IDX 20 23 21 24 22 25 23 26 24 27 25 28 86 29 26 30 85 31 27 32
REMARK SMILES IDX 28 33 29 34 79 35 30 36 84 37 78 38 80 39 31 40 83 41 77 42
REMARK SMILES IDX 76 43 32 45 64 46 44 47 63 48 45 49 48 50 62 51 81 52 46 53
REMARK SMILES IDX 47 54 61 56 82 57 49 58 33 59 34 60 42 61 35 62 41 63 43 64
REMARK SMILES IDX 40 65 36 66 37 67 38 68 39 69 65 70 66 71 74 72 67 73 73 74
REMARK SMILES IDX 75 75 72 76 68 77 69 78 70 79 71 80 50 81 51 82 59 83 52 84
REMARK SMILES IDX 58 85 60 86 57 87 53 88 54 89 55 90 56 91
REMARK H PARENT 80 44 48 55
REMARK Flexibility Score: inf
ROOT
ATOM      1  C   UNL A   1      31.750  29.381  25.641  1.00  0.00     0.202 C 
ENDROOT
BRANCH   1   2
ATOM      2  O   UNL A   1      31.544  29.262  24.235  1.00  0.00    -0.374 OA
BRANCH   2   3
ATOM      3  C   UNL A   1      30.314  28.695  23.779  1.00  0.00     0.202 C 
BRANCH   3   4
ATOM      4  C   UNL A   1      30.407  27.642  22.672  1.00  0.00     0.261 C 
BRANCH   4   5
ATOM      5  O   UNL A   1      31.759  27.500  22.211  1.00  0.00    -0.460 OA
BRANCH   5   6
ATOM      6  C   UNL A   1      32.154  26.226  22.003  1.00  0.00     0.338 C 
ATOM      7  O   UNL A   1      32.305  25.667  20.924  1.00  0.00    -0.246 OA
BRANCH   6   8
ATOM      8  C   UNL A   1      32.520  25.576  23.280  1.00  0.00     0.061 A 
ATOM      9  C   UNL A   1      33.592  24.221  25.441  1.00  0.00     0.146 A 
ATOM     10  C   UNL A   1      34.143  25.447  25.070  1.00  0.00     0.049 A 
ATOM     11  C   UNL A   1      32.391  23.774  24.875  1.00  0.00     0.084 A 
ATOM     12  C   UNL A   1      33.612  26.118  23.975  1.00  0.00     0.019 A 
ATOM     13  C   UNL A   1      31.858  24.444  23.775  1.00  0.00     0.040 A 
ATOM     14  Cl  UNL A   1      31.618  22.339  25.437  1.00  0.00    -0.080 Cl
BRANCH   9  15
ATOM     15  O   UNL A   1      34.284  23.472  26.349  1.00  0.00    -0.454 OA
BRANCH  15  16
ATOM     16  C   UNL A   1      35.439  22.824  25.952  1.00  0.00     0.148 A 
ATOM     17  C   UNL A   1      34.586  20.542  25.056  1.00  0.00     0.071 C 
ATOM     18  C   UNL A   1      35.642  21.549  25.396  1.00  0.00     0.080 A 
ATOM     19  N   UNL A   1      36.893  21.080  25.111  1.00  0.00    -0.258 NA
ATOM     20  C   UNL A   1      37.955  21.866  25.362  1.00  0.00     0.111 A 
ATOM     21  C   UNL A   1      36.576  23.617  26.167  1.00  0.00     0.050 A 
ATOM     22  C   UNL A   1      37.848  23.140  25.874  1.00  0.00     0.024 A 
ENDBRANCH  15  16
ENDBRANCH   9  15
ENDBRANCH   6   8
ENDBRANCH   5   6
ENDBRANCH   4   5
ENDBRANCH   3   4
ENDBRANCH   2   3
ENDBRANCH   1   2
BRANCH   1  23
ATOM     23  C   UNL A   1      31.953  30.783  26.228  1.00  0.00     0.261 C 
BRANCH  23  24
ATOM     24  O   UNL A   1      32.711  30.781  27.448  1.00  0.00    -0.460 OA
BRANCH  24  25
ATOM     25  C   UNL A   1      33.519  31.861  27.590  1.00  0.00     0.338 C 
ATOM     26  O   UNL A   1      33.168  33.032  27.637  1.00  0.00    -0.246 OA
BRANCH  25  27
ATOM     27  C   UNL A   1      34.905  31.445  27.871  1.00  0.00     0.060 A 
ATOM     28  C   UNL A   1      35.131  30.073  28.045  1.00  0.00     0.016 A 
ATOM     29  C   UNL A   1      35.940  32.364  28.059  1.00  0.00     0.016 A 
ATOM     30  C   UNL A   1      36.370  29.621  28.486  1.00  0.00     0.010 A 
ATOM     31  C   UNL A   1      37.187  31.907  28.506  1.00  0.00     0.010 A 
ATOM     32  C   UNL A   1      37.389  30.539  28.771  1.00  0.00    -0.014 A 
BRANCH  32  33
ATOM     33  C   UNL A   1      38.576  30.070  29.529  1.00  0.00     0.031 A 
ATOM     34  C   UNL A   1      38.771  30.557  30.941  1.00  0.00     0.074 A 
ATOM     35  C   UNL A   1      39.419  29.164  29.001  1.00  0.00     0.049 A 
ATOM     36  N   UNL A   1      39.698  30.246  31.809  1.00  0.00    -0.248 NA
ATOM     37  C   UNL A   1      37.783  31.529  31.438  1.00  0.00     0.031 C 
ATOM     38  C   UNL A   1      39.303  28.586  27.663  1.00  0.00     0.029 A 
ATOM     39  N   UNL A   1      40.530  28.562  29.534  1.00  0.00    -0.354 N 
ATOM     40  C   UNL A   1      39.410  30.986  32.953  1.00  0.00     0.074 A 
ATOM     41  C   UNL A   1      38.248  31.791  32.649  1.00  0.00     0.031 C 
ATOM     42  C   UNL A   1      40.303  27.706  27.481  1.00  0.00     0.029 A 
ATOM     43  C   UNL A   1      41.144  27.679  28.677  1.00  0.00     0.049 A 
ATOM     44  H   UNL A   1      40.857  28.745  30.444  1.00  0.00     0.167 HD
ATOM     45  C   UNL A   1      40.050  30.983  34.149  1.00  0.00     0.034 A 
ATOM     46  C   UNL A   1      42.261  26.941  28.840  1.00  0.00     0.034 A 
ATOM     47  C   UNL A   1      41.211  30.175  34.435  1.00  0.00     0.049 A 
ATOM     48  C   UNL A   1      42.997  27.008  30.157  1.00  0.00     0.074 A 
ATOM     49  C   UNL A   1      41.926  30.078  35.616  1.00  0.00     0.029 A 
ATOM     50  N   UNL A   1      41.838  29.333  33.525  1.00  0.00    -0.354 N 
ATOM     51  N   UNL A   1      42.703  27.695  31.237  1.00  0.00    -0.248 NA
ATOM     52  C   UNL A   1      44.206  26.184  30.279  1.00  0.00     0.031 C 
ATOM     53  C   UNL A   1      43.023  29.238  35.399  1.00  0.00     0.029 A 
ATOM     54  C   UNL A   1      42.948  28.741  34.107  1.00  0.00     0.049 A 
ATOM     55  H   UNL A   1      41.537  29.178  32.600  1.00  0.00     0.167 HD
ATOM     56  C   UNL A   1      43.672  27.355  32.179  1.00  0.00     0.074 A 
ATOM     57  C   UNL A   1      44.548  26.393  31.541  1.00  0.00     0.031 C 
ATOM     58  C   UNL A   1      43.821  27.790  33.457  1.00  0.00     0.034 A 
BRANCH  45  59
ATOM     59  C   UNL A   1      39.535  31.926  35.212  1.00  0.00     0.023 A 
ATOM     60  C   UNL A   1      40.037  33.234  35.354  1.00  0.00     0.031 A 
ATOM     61  C   UNL A   1      38.556  31.496  36.124  1.00  0.00     0.131 A 
ATOM     62  C   UNL A   1      39.613  34.033  36.426  1.00  0.00     0.055 A 
ATOM     63  C   UNL A   1      38.080  32.327  37.141  1.00  0.00     0.041 A 
ATOM     64  F   UNL A   1      38.058  30.251  36.055  1.00  0.00    -0.206 F 
ATOM     65  C   UNL A   1      38.619  33.598  37.307  1.00  0.00     0.022 A 
BRANCH  62  66
ATOM     66  S   UNL A   1      40.486  35.591  36.747  1.00  0.00     0.124 S 
ATOM     67  O   UNL A   1      40.449  35.655  38.206  1.00  0.00    -0.237 OA
ATOM     68  O   UNL A   1      41.794  35.347  36.150  1.00  0.00    -0.237 OA
ATOM     69  O   UNL A   1      39.666  36.592  36.066  1.00  0.00    -0.744 OA
ENDBRANCH  62  66
ENDBRANCH  45  59
BRANCH  46  70
ATOM     70  C   UNL A   1      42.773  26.089  27.728  1.00  0.00     0.023 A 
ATOM     71  C   UNL A   1      42.433  24.730  27.638  1.00  0.00     0.031 A 
ATOM     72  C   UNL A   1      43.661  26.611  26.770  1.00  0.00     0.131 A 
ATOM     73  C   UNL A   1      43.015  23.927  26.644  1.00  0.00     0.055 A 
ATOM     74  C   UNL A   1      44.196  25.821  25.753  1.00  0.00     0.041 A 
ATOM     75  F   UNL A   1      44.018  27.904  26.810  1.00  0.00    -0.206 F 
ATOM     76  C   UNL A   1      43.885  24.467  25.694  1.00  0.00     0.022 A 
BRANCH  73  77
ATOM     77  S   UNL A   1      42.685  22.143  26.663  1.00  0.00     0.124 S 
ATOM     78  O   UNL A   1      41.445  22.062  25.901  1.00  0.00    -0.237 OA
ATOM     79  O   UNL A   1      43.877  21.609  26.010  1.00  0.00    -0.237 OA
ATOM     80  O   UNL A   1      42.567  21.835  28.087  1.00  0.00    -0.744 OA
ENDBRANCH  73  77
ENDBRANCH  46  70
BRANCH  58  81
ATOM     81  C   UNL A   1      44.946  27.182  34.263  1.00  0.00     0.023 A 
ATOM     82  C   UNL A   1      44.791  25.971  34.959  1.00  0.00     0.031 A 
ATOM     83  C   UNL A   1      46.184  27.843  34.355  1.00  0.00     0.131 A 
ATOM     84  C   UNL A   1      45.833  25.492  35.769  1.00  0.00     0.055 A 
ATOM     85  C   UNL A   1      47.239  27.328  35.109  1.00  0.00     0.041 A 
ATOM     86  F   UNL A   1      46.388  29.005  33.713  1.00  0.00    -0.206 F 
ATOM     87  C   UNL A   1      47.061  26.154  35.835  1.00  0.00     0.022 A 
BRANCH  84  88
ATOM     88  S   UNL A   1      45.523  24.049  36.825  1.00  0.00     0.124 S 
ATOM     89  O   UNL A   1      45.040  24.670  38.054  1.00  0.00    -0.237 OA
ATOM     90  O   UNL A   1      44.532  23.306  36.053  1.00  0.00    -0.237 OA
ATOM     91  O   UNL A   1      46.834  23.411  36.926  1.00  0.00    -0.744 OA
ENDBRANCH  84  88
ENDBRANCH  58  81
ENDBRANCH  32  33
ENDBRANCH  25  27
ENDBRANCH  24  25
ENDBRANCH  23  24
ENDBRANCH   1  23
TORSDOF 19
ENDMDL
MODEL 2
REMARK VINA RESULT:     -11.0      2.796      8.784
REMARK SMILES Cc1ncccc1Oc1ccc(C(=O)OCCOCCOC(=O)c2ccc(-c3c4nc(c(-c5cc(S(=O)(=O)[O-])ccc5F)c5ccc([nH]5)c(-c5cc(S(=O)(=O)[O-])ccc5F)c5nc(c(-c6cc(S(=O)(=O)[O-])ccc6F)c6ccc3[nH]6)C=C5)C=C4)cc2)cc1Cl
REMARK SMILES IDX 19 1 18 2 17 3 16 4 15 5 13 6 14 7 12 8 9 9 10 10 88 11
REMARK SMILES IDX 11 12 87 13 89 14 8 15 7 16 1 17 2 18 3 19 4 20 6 21 5 22
REMARK SMILES IDX 20 23 21 24 22 25 23 26 24 27 25 28 86 29 26 30 85 31 27 32
REMARK SMILES IDX 28 33 29 34 79 35 30 36 84 37 78 38 80 39 31 40 83 41 77 42
REMARK SMILES IDX 76 43 32 45 64 46 44 47 63 48 45 49 48 50 62 51 81 52 46 53
REMARK SMILES IDX 47 54 61 56 82 57 49 58 33 59 34 60 42 61 35 62 41 63 43 64
REMARK SMILES IDX 40 65 36 66 37 67 38 68 39 69 65 70 66 71 74 72 67 73 73 74
REMARK SMILES IDX 75 75 72 76 68 77 69 78 70 79 71 80 50 81 51 82 59 83 52 84
REMARK SMILES IDX 58 85 60 86 57 87 53 88 54 89 55 90 56 91
REMARK H PARENT 80 44 48 55
REMARK Flexibility Score: inf
ROOT
ATOM      1  C   UNL A   1      31.498  31.770  26.752  1.00  0.00     0.202 C 
ENDROOT
BRANCH   1   2
ATOM      2  O   UNL A   1      32.483  30.740  26.798  1.00  0.00    -0.374 OA
BRANCH   2   3
ATOM      3  C   UNL A   1      32.042  29.390  26.954  1.00  0.00     0.202 C 
BRANCH   3   4
ATOM      4  C   UNL A   1      33.094  28.294  26.766  1.00  0.00     0.261 C 
BRANCH   4   5
ATOM      5  O   UNL A   1      33.599  28.292  25.423  1.00  0.00    -0.460 OA
BRANCH   5   6
ATOM      6  C   UNL A   1      33.228  27.228  24.680  1.00  0.00     0.338 C 
ATOM      7  O   UNL A   1      33.705  26.100  24.716  1.00  0.00    -0.246 OA
BRANCH   6   8
ATOM      8  C   UNL A   1      32.043  27.552  23.855  1.00  0.00     0.061 A 
ATOM      9  C   UNL A   1      29.847  28.579  22.524  1.00  0.00     0.146 A 
ATOM     10  C   UNL A   1      31.123  29.008  22.157  1.00  0.00     0.049 A 
ATOM     11  C   UNL A   1      29.677  27.499  23.400  1.00  0.00     0.084 A 
ATOM     12  C   UNL A   1      32.222  28.501  22.837  1.00  0.00     0.019 A 
ATOM     13  C   UNL A   1      30.780  26.991  24.086  1.00  0.00     0.040 A 
ATOM     14  Cl  UNL A   1      28.112  26.860  23.737  1.00  0.00    -0.080 Cl
BRANCH   9  15
ATOM     15  O   UNL A   1      28.784  29.272  22.019  1.00  0.00    -0.454 OA
BRANCH  15  16
ATOM     16  C   UNL A   1      28.696  30.634  22.242  1.00  0.00     0.148 A 
ATOM     17  C   UNL A   1      27.849  31.575  19.976  1.00  0.00     0.071 C 
ATOM     18  C   UNL A   1      28.311  31.689  21.397  1.00  0.00     0.080 A 
ATOM     19  N   UNL A   1      28.336  32.990  21.813  1.00  0.00    -0.258 NA
ATOM     20  C   UNL A   1      28.733  33.262  23.069  1.00  0.00     0.111 A 
ATOM     21  C   UNL A   1      29.072  30.967  23.551  1.00  0.00     0.050 A 
ATOM     22  C   UNL A   1      29.096  32.292  23.975  1.00  0.00     0.024 A 
ENDBRANCH  15  16
ENDBRANCH   9  15
ENDBRANCH   6   8
ENDBRANCH   5   6
ENDBRANCH   4   5
ENDBRANCH   3   4
ENDBRANCH   2   3
ENDBRANCH   1   2
BRANCH   1  23
ATOM     23  C   UNL A   1      31.961  33.224  26.898  1.00  0.00     0.261 C 
BRANCH  23  24
ATOM     24  O   UNL A   1      32.250  33.592  28.256  1.00  0.00    -0.460 OA
BRANCH  24  25
ATOM     25  C   UNL A   1      33.341  34.388  28.385  1.00  0.00     0.338 C 
ATOM     26  O   UNL A   1      33.353  35.611  28.400  1.00  0.00    -0.246 OA
BRANCH  25  27
ATOM     27  C   UNL A   1      34.539  33.586  28.695  1.00  0.00     0.060 A 
ATOM     28  C   UNL A   1      34.328  32.337  29.293  1.00  0.00     0.016 A 
ATOM     29  C   UNL A   1      35.835  34.071  28.504  1.00  0.00     0.016 A 
ATOM     30  C   UNL A   1      35.407  31.603  29.775  1.00  0.00     0.010 A 
ATOM     31  C   UNL A   1      36.920  33.333  28.994  1.00  0.00     0.010 A 
ATOM     32  C   UNL A   1      36.705  32.121  29.677  1.00  0.00    -0.014 A 
BRANCH  32  33
ATOM     33  C   UNL A   1      37.786  31.481  30.468  1.00  0.00     0.031 A 
ATOM     34  C   UNL A   1      38.650  30.442  29.802  1.00  0.00     0.074 A 
ATOM     35  C   UNL A   1      38.048  31.877  31.726  1.00  0.00     0.049 A 
ATOM     36  N   UNL A   1      39.680  29.789  30.274  1.00  0.00    -0.248 NA
ATOM     37  C   UNL A   1      38.299  30.093  28.416  1.00  0.00     0.031 C 
ATOM     38  C   UNL A   1      37.310  32.907  32.456  1.00  0.00     0.029 A 
ATOM     39  N   UNL A   1      39.016  31.467  32.607  1.00  0.00    -0.354 N 
ATOM     40  C   UNL A   1      40.099  28.948  29.245  1.00  0.00     0.074 A 
ATOM     41  C   UNL A   1      39.183  29.146  28.143  1.00  0.00     0.031 C 
ATOM     42  C   UNL A   1      37.858  33.053  33.675  1.00  0.00     0.029 A 
ATOM     43  C   UNL A   1      38.965  32.109  33.822  1.00  0.00     0.049 A 
ATOM     44  H   UNL A   1      39.685  30.779  32.390  1.00  0.00     0.167 HD
ATOM     45  C   UNL A   1      41.157  28.100  29.220  1.00  0.00     0.034 A 
ATOM     46  C   UNL A   1      39.722  31.947  34.926  1.00  0.00     0.034 A 
ATOM     47  C   UNL A   1      42.060  27.912  30.330  1.00  0.00     0.049 A 
ATOM     48  C   UNL A   1      40.852  30.945  34.898  1.00  0.00     0.074 A 
ATOM     49  C   UNL A   1      43.175  27.096  30.407  1.00  0.00     0.029 A 
ATOM     50  N   UNL A   1      41.945  28.540  31.564  1.00  0.00    -0.354 N 
ATOM     51  N   UNL A   1      41.250  30.171  33.913  1.00  0.00    -0.248 NA
ATOM     52  C   UNL A   1      41.643  30.809  36.127  1.00  0.00     0.031 C 
ATOM     53  C   UNL A   1      43.688  27.174  31.707  1.00  0.00     0.029 A 
ATOM     54  C   UNL A   1      42.946  28.103  32.418  1.00  0.00     0.049 A 
ATOM     55  H   UNL A   1      41.253  29.200  31.799  1.00  0.00     0.167 HD
ATOM     56  C   UNL A   1      42.363  29.486  34.396  1.00  0.00     0.074 A 
ATOM     57  C   UNL A   1      42.577  29.948  35.752  1.00  0.00     0.031 C 
ATOM     58  C   UNL A   1      43.143  28.564  33.773  1.00  0.00     0.034 A 
BRANCH  45  59
ATOM     59  C   UNL A   1      41.353  27.274  27.970  1.00  0.00     0.023 A 
ATOM     60  C   UNL A   1      40.985  25.917  27.908  1.00  0.00     0.031 A 
ATOM     61  C   UNL A   1      41.956  27.843  26.834  1.00  0.00     0.131 A 
ATOM     62  C   UNL A   1      41.291  25.160  26.767  1.00  0.00     0.055 A 
ATOM     63  C   UNL A   1      42.184  27.104  25.672  1.00  0.00     0.041 A 
ATOM     64  F   UNL A   1      42.351  29.126  26.842  1.00  0.00    -0.206 F 
ATOM     65  C   UNL A   1      41.867  25.750  25.639  1.00  0.00     0.022 A 
BRANCH  62  66
ATOM     66  S   UNL A   1      41.069  23.361  26.833  1.00  0.00     0.124 S 
ATOM     67  O   UNL A   1      41.553  23.052  28.176  1.00  0.00    -0.237 OA
ATOM     68  O   UNL A   1      39.634  23.212  26.620  1.00  0.00    -0.237 OA
ATOM     69  O   UNL A   1      41.916  22.870  25.747  1.00  0.00    -0.744 OA
ENDBRANCH  62  66
ENDBRANCH  45  59
BRANCH  46  70
ATOM     70  C   UNL A   1      39.434  32.729  36.163  1.00  0.00     0.023 A 
ATOM     71  C   UNL A   1      38.592  32.221  37.165  1.00  0.00     0.031 A 
ATOM     72  C   UNL A   1      39.951  34.026  36.332  1.00  0.00     0.131 A 
ATOM     73  C   UNL A   1      38.253  33.022  38.267  1.00  0.00     0.055 A 
ATOM     74  C   UNL A   1      39.652  34.799  37.454  1.00  0.00     0.041 A 
ATOM     75  F   UNL A   1      40.760  34.560  35.404  1.00  0.00    -0.206 F 
ATOM     76  C   UNL A   1      38.787  34.303  38.423  1.00  0.00     0.022 A 
BRANCH  73  77
ATOM     77  S   UNL A   1      37.031  32.396  39.454  1.00  0.00     0.124 S 
ATOM     78  O   UNL A   1      37.390  30.985  39.533  1.00  0.00    -0.237 OA
ATOM     79  O   UNL A   1      37.321  33.200  40.637  1.00  0.00    -0.237 OA
ATOM     80  O   UNL A   1      35.753  32.683  38.807  1.00  0.00    -0.744 OA
ENDBRANCH  73  77
ENDBRANCH  46  70
BRANCH  58  81
ATOM     81  C   UNL A   1      44.333  28.039  34.543  1.00  0.00     0.023 A 
ATOM     82  C   UNL A   1      44.216  26.984  35.464  1.00  0.00     0.031 A 
ATOM     83  C   UNL A   1      45.599  28.625  34.369  1.00  0.00     0.131 A 
ATOM     84  C   UNL A   1      45.330  26.591  36.224  1.00  0.00     0.055 A 
ATOM     85  C   UNL A   1      46.717  28.188  35.079  1.00  0.00     0.041 A 
ATOM     86  F   UNL A   1      45.771  29.639  33.505  1.00  0.00    -0.206 F 
ATOM     87  C   UNL A   1      46.583  27.176  36.025  1.00  0.00     0.022 A 
BRANCH  84  88
ATOM     88  S   UNL A   1      45.093  25.383  37.556  1.00  0.00     0.124 S 
ATOM     89  O   UNL A   1      43.768  24.852  37.254  1.00  0.00    -0.237 OA
ATOM     90  O   UNL A   1      46.210  24.467  37.348  1.00  0.00    -0.237 OA
ATOM     91  O   UNL A   1      45.175  26.192  38.771  1.00  0.00    -0.744 OA
ENDBRANCH  84  88
ENDBRANCH  58  81
ENDBRANCH  32  33
ENDBRANCH  25  27
ENDBRANCH  24  25
ENDBRANCH  23  24
ENDBRANCH   1  23
TORSDOF 19
ENDMDL
MODEL 3
REMARK VINA RESULT:     -11.0      4.054      7.011
REMARK SMILES Cc1ncccc1Oc1ccc(C(=O)OCCOCCOC(=O)c2ccc(-c3c4nc(c(-c5cc(S(=O)(=O)[O-])ccc5F)c5ccc([nH]5)c(-c5cc(S(=O)(=O)[O-])ccc5F)c5nc(c(-c6cc(S(=O)(=O)[O-])ccc6F)c6ccc3[nH]6)C=C5)C=C4)cc2)cc1Cl
REMARK SMILES IDX 19 1 18 2 17 3 16 4 15 5 13 6 14 7 12 8 9 9 10 10 88 11
REMARK SMILES IDX 11 12 87 13 89 14 8 15 7 16 1 17 2 18 3 19 4 20 6 21 5 22
REMARK SMILES IDX 20 23 21 24 22 25 23 26 24 27 25 28 86 29 26 30 85 31 27 32
REMARK SMILES IDX 28 33 29 34 79 35 30 36 84 37 78 38 80 39 31 40 83 41 77 42
REMARK SMILES IDX 76 43 32 45 64 46 44 47 63 48 45 49 48 50 62 51 81 52 46 53
REMARK SMILES IDX 47 54 61 56 82 57 49 58 33 59 34 60 42 61 35 62 41 63 43 64
REMARK SMILES IDX 40 65 36 66 37 67 38 68 39 69 65 70 66 71 74 72 67 73 73 74
REMARK SMILES IDX 75 75 72 76 68 77 69 78 70 79 71 80 50 81 51 82 59 83 52 84
REMARK SMILES IDX 58 85 60 86 57 87 53 88 54 89 55 90 56 91
REMARK H PARENT 80 44 48 55
REMARK Flexibility Score: inf
ROOT
ATOM      1  C   UNL A   1      33.846  35.270  29.484  1.00  0.00     0.202 C 
ENDROOT
BRANCH   1   2
ATOM      2  O   UNL A   1      33.025  35.087  30.635  1.00  0.00    -0.374 OA
BRANCH   2   3
ATOM      3  C   UNL A   1      33.583  35.380  31.917  1.00  0.00     0.202 C 
BRANCH   3   4
ATOM      4  C   UNL A   1      33.634  34.232  32.927  1.00  0.00     0.261 C 
BRANCH   4   5
ATOM      5  O   UNL A   1      34.919  33.593  32.915  1.00  0.00    -0.460 OA
BRANCH   5   6
ATOM      6  C   UNL A   1      35.905  34.294  33.515  1.00  0.00     0.338 C 
ATOM      7  O   UNL A   1      35.847  34.876  34.590  1.00  0.00    -0.246 OA
BRANCH   6   8
ATOM      8  C   UNL A   1      37.168  34.180  32.752  1.00  0.00     0.061 A 
ATOM      9  C   UNL A   1      39.579  34.425  31.419  1.00  0.00     0.146 A 
ATOM     10  C   UNL A   1      39.574  34.423  32.814  1.00  0.00     0.049 A 
ATOM     11  C   UNL A   1      38.423  34.100  30.697  1.00  0.00     0.084 A 
ATOM     12  C   UNL A   1      38.360  34.314  33.480  1.00  0.00     0.019 A 
ATOM     13  C   UNL A   1      37.203  33.993  31.364  1.00  0.00     0.040 A 
ATOM     14  Cl  UNL A   1      38.456  33.945  28.980  1.00  0.00    -0.080 Cl
BRANCH   9  15
ATOM     15  O   UNL A   1      40.741  34.782  30.797  1.00  0.00    -0.454 OA
BRANCH  15  16
ATOM     16  C   UNL A   1      41.844  33.953  30.897  1.00  0.00     0.148 A 
ATOM     17  C   UNL A   1      43.514  35.324  32.336  1.00  0.00     0.071 C 
ATOM     18  C   UNL A   1      43.082  34.132  31.538  1.00  0.00     0.080 A 
ATOM     19  N   UNL A   1      44.066  33.186  31.477  1.00  0.00    -0.258 NA
ATOM     20  C   UNL A   1      43.835  32.052  30.792  1.00  0.00     0.111 A 
ATOM     21  C   UNL A   1      41.641  32.741  30.221  1.00  0.00     0.050 A 
ATOM     22  C   UNL A   1      42.642  31.778  30.162  1.00  0.00     0.024 A 
ENDBRANCH  15  16
ENDBRANCH   9  15
ENDBRANCH   6   8
ENDBRANCH   5   6
ENDBRANCH   4   5
ENDBRANCH   3   4
ENDBRANCH   2   3
ENDBRANCH   1   2
BRANCH   1  23
ATOM     23  C   UNL A   1      33.998  34.098  28.508  1.00  0.00     0.261 C 
BRANCH  23  24
ATOM     24  O   UNL A   1      34.398  32.876  29.148  1.00  0.00    -0.460 OA
BRANCH  24  25
ATOM     25  C   UNL A   1      34.306  31.785  28.348  1.00  0.00     0.338 C 
ATOM     26  O   UNL A   1      33.436  31.563  27.516  1.00  0.00    -0.246 OA
BRANCH  25  27
ATOM     27  C   UNL A   1      35.511  30.945  28.468  1.00  0.00     0.060 A 
ATOM     28  C   UNL A   1      35.495  29.951  29.454  1.00  0.00     0.016 A 
ATOM     29  C   UNL A   1      36.664  31.177  27.713  1.00  0.00     0.016 A 
ATOM     30  C   UNL A   1      36.654  29.239  29.747  1.00  0.00     0.010 A 
ATOM     31  C   UNL A   1      37.831  30.462  28.012  1.00  0.00     0.010 A 
ATOM     32  C   UNL A   1      37.843  29.528  29.065  1.00  0.00    -0.014 A 
BRANCH  32  33
ATOM     33  C   UNL A   1      39.119  28.991  29.602  1.00  0.00     0.031 A 
ATOM     34  C   UNL A   1      39.626  29.516  30.919  1.00  0.00     0.074 A 
ATOM     35  C   UNL A   1      39.768  27.996  28.971  1.00  0.00     0.049 A 
ATOM     36  N   UNL A   1      40.682  29.162  31.606  1.00  0.00    -0.248 NA
ATOM     37  C   UNL A   1      38.833  30.587  31.544  1.00  0.00     0.031 C 
ATOM     38  C   UNL A   1      39.346  27.377  27.716  1.00  0.00     0.029 A 
ATOM     39  N   UNL A   1      40.915  27.324  29.310  1.00  0.00    -0.354 N 
ATOM     40  C   UNL A   1      40.684  29.969  32.741  1.00  0.00     0.074 A 
ATOM     41  C   UNL A   1      39.548  30.857  32.625  1.00  0.00     0.031 C 
ATOM     42  C   UNL A   1      40.221  26.409  27.392  1.00  0.00     0.029 A 
ATOM     43  C   UNL A   1      41.278  26.359  28.401  1.00  0.00     0.049 A 
ATOM     44  H   UNL A   1      41.429  27.515  30.127  1.00  0.00     0.167 HD
ATOM     45  C   UNL A   1      41.546  29.960  33.788  1.00  0.00     0.034 A 
ATOM     46  C   UNL A   1      42.346  25.535  28.384  1.00  0.00     0.034 A 
ATOM     47  C   UNL A   1      42.677  29.068  33.886  1.00  0.00     0.049 A 
ATOM     48  C   UNL A   1      43.332  25.592  29.526  1.00  0.00     0.074 A 
ATOM     49  C   UNL A   1      43.603  28.959  34.909  1.00  0.00     0.029 A 
ATOM     50  N   UNL A   1      43.044  28.140  32.920  1.00  0.00    -0.354 N 
ATOM     51  N   UNL A   1      43.312  26.345  30.603  1.00  0.00    -0.248 NA
ATOM     52  C   UNL A   1      44.476  24.674  29.456  1.00  0.00     0.031 C 
ATOM     53  C   UNL A   1      44.568  28.020  34.529  1.00  0.00     0.029 A 
ATOM     54  C   UNL A   1      44.201  27.480  33.307  1.00  0.00     0.049 A 
ATOM     55  H   UNL A   1      42.555  27.975  32.082  1.00  0.00     0.167 HD
ATOM     56  C   UNL A   1      44.420  25.961  31.355  1.00  0.00     0.074 A 
ATOM     57  C   UNL A   1      45.077  24.904  30.614  1.00  0.00     0.031 C 
ATOM     58  C   UNL A   1      44.853  26.433  32.553  1.00  0.00     0.034 A 
BRANCH  45  59
ATOM     59  C   UNL A   1      41.326  30.985  34.875  1.00  0.00     0.023 A 
ATOM     60  C   UNL A   1      40.194  30.954  35.711  1.00  0.00     0.031 A 
ATOM     61  C   UNL A   1      42.243  32.036  35.052  1.00  0.00     0.131 A 
ATOM     62  C   UNL A   1      39.973  31.992  36.629  1.00  0.00     0.055 A 
ATOM     63  C   UNL A   1      42.058  33.022  36.023  1.00  0.00     0.041 A 
ATOM     64  F   UNL A   1      43.329  32.133  34.268  1.00  0.00    -0.206 F 
ATOM     65  C   UNL A   1      40.910  33.014  36.808  1.00  0.00     0.022 A 
BRANCH  62  66
ATOM     66  S   UNL A   1      38.372  32.075  37.478  1.00  0.00     0.124 S 
ATOM     67  O   UNL A   1      37.796  30.774  37.149  1.00  0.00    -0.237 OA
ATOM     68  O   UNL A   1      38.762  32.270  38.869  1.00  0.00    -0.237 OA
ATOM     69  O   UNL A   1      37.708  33.217  36.849  1.00  0.00    -0.744 OA
ENDBRANCH  62  66
ENDBRANCH  45  59
BRANCH  46  70
ATOM     70  C   UNL A   1      42.561  24.598  27.243  1.00  0.00     0.023 A 
ATOM     71  C   UNL A   1      42.032  23.298  27.260  1.00  0.00     0.031 A 
ATOM     72  C   UNL A   1      43.353  24.974  26.143  1.00  0.00     0.131 A 
ATOM     73  C   UNL A   1      42.340  22.404  26.223  1.00  0.00     0.055 A 
ATOM     74  C   UNL A   1      43.614  24.097  25.089  1.00  0.00     0.041 A 
ATOM     75  F   UNL A   1      43.883  26.205  26.076  1.00  0.00    -0.206 F 
ATOM     76  C   UNL A   1      43.118  22.799  25.132  1.00  0.00     0.022 A 
BRANCH  73  77
ATOM     77  S   UNL A   1      41.780  20.684  26.364  1.00  0.00     0.124 S 
ATOM     78  O   UNL A   1      42.136  20.367  27.742  1.00  0.00    -0.237 OA
ATOM     79  O   UNL A   1      40.353  20.808  26.081  1.00  0.00    -0.237 OA
ATOM     80  O   UNL A   1      42.557  19.989  25.340  1.00  0.00    -0.744 OA
ENDBRANCH  73  77
ENDBRANCH  46  70
BRANCH  58  81
ATOM     81  C   UNL A   1      46.066  25.765  33.157  1.00  0.00     0.023 A 
ATOM     82  C   UNL A   1      45.963  24.598  33.935  1.00  0.00     0.031 A 
ATOM     83  C   UNL A   1      47.344  26.322  32.971  1.00  0.00     0.131 A 
ATOM     84  C   UNL A   1      47.106  24.065  34.552  1.00  0.00     0.055 A 
ATOM     85  C   UNL A   1      48.485  25.751  33.533  1.00  0.00     0.041 A 
ATOM     86  F   UNL A   1      47.503  27.438  32.240  1.00  0.00    -0.206 F 
ATOM     87  C   UNL A   1      48.368  24.624  34.342  1.00  0.00     0.022 A 
BRANCH  84  88
ATOM     88  S   UNL A   1      46.904  22.695  35.724  1.00  0.00     0.124 S 
ATOM     89  O   UNL A   1      48.289  22.343  36.023  1.00  0.00    -0.237 OA
ATOM     90  O   UNL A   1      46.157  23.321  36.809  1.00  0.00    -0.237 OA
ATOM     91  O   UNL A   1      46.162  21.695  34.958  1.00  0.00    -0.744 OA
ENDBRANCH  84  88
ENDBRANCH  58  81
ENDBRANCH  32  33
ENDBRANCH  25  27
ENDBRANCH  24  25
ENDBRANCH  23  24
ENDBRANCH   1  23
TORSDOF 19
ENDMDL
