MODEL 1
REMARK VINA RESULT:     -11.1      0.000      0.000
REMARK SMILES CCCOc1ccccc1O[C@@H]1CC[C@@]([NH3+])(C(=O)OCCOCCOC(=O)c2ccc(-c3c4nc(c(-c5cc(S(=O)(=O)[O-])ccc5F)c5ccc([nH]5)c(-c5cc(S(=O)(=O)[O-])ccc5F)c5nc(c(-c6cc(S(=O)(=O)[O-])ccc6F)c6ccc3[nH]6)C=C5)C=C4)cc2)C1
REMARK SMILES IDX 21 1 20 2 19 3 17 4 18 5 15 6 12 7 13 8 91 9 14 10 11 11
REMARK SMILES IDX 10 12 5 13 6 14 7 15 9 16 8 17 4 18 3 19 2 20 1 21 16 22
REMARK SMILES IDX 22 26 23 27 24 28 25 29 26 30 27 31 28 32 29 33 90 34 30 35
REMARK SMILES IDX 89 36 31 37 32 38 33 39 83 40 34 41 88 42 82 43 84 44 35 45
REMARK SMILES IDX 87 46 81 47 80 48 36 50 68 51 48 52 67 53 49 54 52 55 66 56
REMARK SMILES IDX 85 57 50 58 51 59 65 61 86 62 53 63 37 64 38 65 46 66 39 67
REMARK SMILES IDX 45 68 47 69 44 70 40 71 41 72 42 73 43 74 69 75 70 76 78 77
REMARK SMILES IDX 71 78 77 79 79 80 76 81 72 82 73 83 74 84 75 85 54 86 55 87
REMARK SMILES IDX 63 88 56 89 62 90 64 91 61 92 57 93 58 94 59 95 60 96
REMARK H PARENT 16 23 16 24 16 25 84 49 52 60
REMARK Flexibility Score: inf
ROOT
ATOM      1  C   UNL A   1      33.206  29.700  26.379  1.00  0.00     0.202 C 
ENDROOT
BRANCH   1   2
ATOM      2  C   UNL A   1      33.044  29.285  24.892  1.00  0.00     0.261 C 
BRANCH   2   3
ATOM      3  O   UNL A   1      32.259  28.076  24.722  1.00  0.00    -0.459 OA
BRANCH   3   4
ATOM      4  C   UNL A   1      30.961  28.161  24.275  1.00  0.00     0.368 C 
ATOM      5  O   UNL A   1      30.357  29.194  24.022  1.00  0.00    -0.245 OA
BRANCH   4   6
ATOM      6  C   UNL A   1      30.309  26.640  24.116  1.00  0.00     0.196 C 
ATOM      7  C   UNL A   1      31.996  23.796  24.165  1.00  0.00     0.180 C 
ATOM      8  C   UNL A   1      31.064  24.016  25.940  1.00  0.00     0.052 C 
ATOM      9  C   UNL A   1      31.432  25.378  22.980  1.00  0.00     0.126 C 
ATOM     10  C   UNL A   1      30.198  25.815  25.943  1.00  0.00     0.085 C 
BRANCH   7  11
ATOM     11  O   UNL A   1      32.367  22.564  23.603  1.00  0.00    -0.486 OA
BRANCH  11  12
ATOM     12  C   UNL A   1      33.609  22.179  23.907  1.00  0.00     0.161 A 
ATOM     13  C   UNL A   1      33.847  20.963  24.505  1.00  0.00     0.161 A 
ATOM     14  C   UNL A   1      35.144  20.654  24.888  1.00  0.00     0.050 A 
ATOM     15  C   UNL A   1      36.177  21.580  24.656  1.00  0.00     0.004 A 
ATOM     16  C   UNL A   1      34.610  23.121  23.699  1.00  0.00     0.050 A 
ATOM     17  C   UNL A   1      35.908  22.822  24.077  1.00  0.00     0.004 A 
BRANCH  13  18
ATOM     18  O   UNL A   1      32.774  20.276  24.990  1.00  0.00    -0.490 OA
BRANCH  18  19
ATOM     19  C   UNL A   1      32.497  18.829  24.575  1.00  0.00     0.229 C 
BRANCH  19  20
ATOM     20  C   UNL A   1      32.592  16.954  25.683  1.00  0.00     0.038 C 
ATOM     21  C   UNL A   1      32.988  15.292  25.222  1.00  0.00     0.007 C 
ENDBRANCH  19  20
ENDBRANCH  18  19
ENDBRANCH  13  18
ENDBRANCH  11  12
ENDBRANCH   7  11
BRANCH   6  22
ATOM     22  N   UNL A   1      28.958  26.995  23.594  1.00  0.00    -0.343 N 
ATOM     23  H   UNL A   1      28.260  26.380  24.011  1.00  0.00     0.345 HD
ATOM     24  H   UNL A   1      28.947  26.884  22.580  1.00  0.00     0.345 HD
ATOM     25  H   UNL A   1      28.746  27.964  23.833  1.00  0.00     0.345 HD
ENDBRANCH   6  22
ENDBRANCH   4   6
ENDBRANCH   3   4
ENDBRANCH   2   3
ENDBRANCH   1   2
BRANCH   1  26
ATOM     26  O   UNL A   1      32.079  30.274  27.060  1.00  0.00    -0.374 OA
BRANCH  26  27
ATOM     27  C   UNL A   1      31.602  31.492  26.510  1.00  0.00     0.202 C 
BRANCH  27  28
ATOM     28  C   UNL A   1      31.672  32.792  27.318  1.00  0.00     0.261 C 
BRANCH  28  29
ATOM     29  O   UNL A   1      32.923  33.458  27.134  1.00  0.00    -0.460 OA
BRANCH  29  30
ATOM     30  C   UNL A   1      33.495  33.799  28.311  1.00  0.00     0.338 C 
ATOM     31  O   UNL A   1      33.002  34.482  29.194  1.00  0.00    -0.246 OA
BRANCH  30  32
ATOM     32  C   UNL A   1      34.747  33.056  28.489  1.00  0.00     0.060 A 
ATOM     33  C   UNL A   1      34.618  31.730  28.912  1.00  0.00     0.016 A 
ATOM     34  C   UNL A   1      36.001  33.652  28.335  1.00  0.00     0.016 A 
ATOM     35  C   UNL A   1      35.744  31.016  29.284  1.00  0.00     0.010 A 
ATOM     36  C   UNL A   1      37.134  32.930  28.710  1.00  0.00     0.010 A 
ATOM     37  C   UNL A   1      36.999  31.633  29.240  1.00  0.00    -0.014 A 
BRANCH  37  38
ATOM     38  C   UNL A   1      38.131  30.976  29.928  1.00  0.00     0.031 A 
ATOM     39  C   UNL A   1      38.401  31.324  31.365  1.00  0.00     0.074 A 
ATOM     40  C   UNL A   1      38.841  30.026  29.297  1.00  0.00     0.049 A 
ATOM     41  N   UNL A   1      39.342  30.886  32.159  1.00  0.00    -0.248 NA
ATOM     42  C   UNL A   1      37.491  32.298  31.989  1.00  0.00     0.031 C 
ATOM     43  C   UNL A   1      38.607  29.572  27.927  1.00  0.00     0.029 A 
ATOM     44  N   UNL A   1      39.897  29.267  29.729  1.00  0.00    -0.354 N 
ATOM     45  C   UNL A   1      39.144  31.538  33.373  1.00  0.00     0.074 A 
ATOM     46  C   UNL A   1      38.023  32.434  33.194  1.00  0.00     0.031 C 
ATOM     47  C   UNL A   1      39.492  28.606  27.632  1.00  0.00     0.029 A 
ATOM     48  C   UNL A   1      40.388  28.416  28.769  1.00  0.00     0.049 A 
ATOM     49  H   UNL A   1      40.267  29.327  30.639  1.00  0.00     0.167 HD
ATOM     50  C   UNL A   1      39.832  31.389  34.530  1.00  0.00     0.034 A 
ATOM     51  C   UNL A   1      41.460  27.601  28.801  1.00  0.00     0.034 A 
ATOM     52  C   UNL A   1      40.952  30.493  34.676  1.00  0.00     0.049 A 
ATOM     53  C   UNL A   1      42.277  27.535  30.068  1.00  0.00     0.074 A 
ATOM     54  C   UNL A   1      41.725  30.254  35.798  1.00  0.00     0.029 A 
ATOM     55  N   UNL A   1      41.470  29.695  33.661  1.00  0.00    -0.354 N 
ATOM     56  N   UNL A   1      42.088  28.161  31.208  1.00  0.00    -0.248 NA
ATOM     57  C   UNL A   1      43.446  26.649  30.055  1.00  0.00     0.031 C 
ATOM     58  C   UNL A   1      42.762  29.390  35.438  1.00  0.00     0.029 A 
ATOM     59  C   UNL A   1      42.576  28.999  34.122  1.00  0.00     0.049 A 
ATOM     60  H   UNL A   1      41.104  29.634  32.750  1.00  0.00     0.167 HD
ATOM     61  C   UNL A   1      43.094  27.710  32.060  1.00  0.00     0.074 A 
ATOM     62  C   UNL A   1      43.874  26.751  31.305  1.00  0.00     0.031 C 
ATOM     63  C   UNL A   1      43.347  28.051  33.350  1.00  0.00     0.034 A 
BRANCH  50  64
ATOM     64  C   UNL A   1      39.430  32.254  35.701  1.00  0.00     0.023 A 
ATOM     65  C   UNL A   1      40.005  33.516  35.927  1.00  0.00     0.031 A 
ATOM     66  C   UNL A   1      38.467  31.797  36.620  1.00  0.00     0.131 A 
ATOM     67  C   UNL A   1      39.665  34.243  37.078  1.00  0.00     0.055 A 
ATOM     68  C   UNL A   1      38.068  32.566  37.714  1.00  0.00     0.041 A 
ATOM     69  F   UNL A   1      37.905  30.586  36.476  1.00  0.00    -0.206 F 
ATOM     70  C   UNL A   1      38.679  33.792  37.957  1.00  0.00     0.022 A 
BRANCH  67  71
ATOM     71  S   UNL A   1      40.645  35.713  37.494  1.00  0.00     0.124 S 
ATOM     72  O   UNL A   1      41.156  35.361  38.817  1.00  0.00    -0.237 OA
ATOM     73  O   UNL A   1      41.627  35.753  36.419  1.00  0.00    -0.237 OA
ATOM     74  O   UNL A   1      39.661  36.794  37.484  1.00  0.00    -0.744 OA
ENDBRANCH  67  71
ENDBRANCH  50  64
BRANCH  51  75
ATOM     75  C   UNL A   1      41.849  26.818  27.593  1.00  0.00     0.023 A 
ATOM     76  C   UNL A   1      41.542  25.455  27.485  1.00  0.00     0.031 A 
ATOM     77  C   UNL A   1      42.590  27.411  26.554  1.00  0.00     0.131 A 
ATOM     78  C   UNL A   1      42.023  24.714  26.394  1.00  0.00     0.055 A 
ATOM     79  C   UNL A   1      43.004  26.687  25.436  1.00  0.00     0.041 A 
ATOM     80  F   UNL A   1      42.918  28.712  26.608  1.00  0.00    -0.206 F 
ATOM     81  C   UNL A   1      42.736  25.324  25.360  1.00  0.00     0.022 A 
BRANCH  78  82
ATOM     82  S   UNL A   1      41.811  22.914  26.411  1.00  0.00     0.124 S 
ATOM     83  O   UNL A   1      42.526  22.545  27.628  1.00  0.00    -0.237 OA
ATOM     84  O   UNL A   1      40.359  22.781  26.454  1.00  0.00    -0.237 OA
ATOM     85  O   UNL A   1      42.439  22.487  25.163  1.00  0.00    -0.744 OA
ENDBRANCH  78  82
ENDBRANCH  51  75
BRANCH  63  86
ATOM     86  C   UNL A   1      44.482  27.334  34.043  1.00  0.00     0.023 A 
ATOM     87  C   UNL A   1      44.335  26.038  34.566  1.00  0.00     0.031 A 
ATOM     88  C   UNL A   1      45.732  27.965  34.183  1.00  0.00     0.131 A 
ATOM     89  C   UNL A   1      45.398  25.443  35.263  1.00  0.00     0.055 A 
ATOM     90  C   UNL A   1      46.809  27.335  34.805  1.00  0.00     0.041 A 
ATOM     91  F   UNL A   1      45.929  29.206  33.708  1.00  0.00    -0.206 F 
ATOM     92  C   UNL A   1      46.641  26.073  35.365  1.00  0.00     0.022 A 
BRANCH  89  93
ATOM     93  S   UNL A   1      45.094  23.887  36.143  1.00  0.00     0.124 S 
ATOM     94  O   UNL A   1      44.755  24.358  37.482  1.00  0.00    -0.237 OA
ATOM     95  O   UNL A   1      43.997  23.304  35.376  1.00  0.00    -0.237 OA
ATOM     96  O   UNL A   1      46.369  23.179  36.037  1.00  0.00    -0.744 OA
ENDBRANCH  89  93
ENDBRANCH  63  86
ENDBRANCH  37  38
ENDBRANCH  30  32
ENDBRANCH  29  30
ENDBRANCH  28  29
ENDBRANCH  27  28
ENDBRANCH  26  27
ENDBRANCH   1  26
TORSDOF 23
ENDMDL
MODEL 2
REMARK VINA RESULT:     -10.9      4.903      8.888
REMARK SMILES CCCOc1ccccc1O[C@@H]1CC[C@@]([NH3+])(C(=O)OCCOCCOC(=O)c2ccc(-c3c4nc(c(-c5cc(S(=O)(=O)[O-])ccc5F)c5ccc([nH]5)c(-c5cc(S(=O)(=O)[O-])ccc5F)c5nc(c(-c6cc(S(=O)(=O)[O-])ccc6F)c6ccc3[nH]6)C=C5)C=C4)cc2)C1
REMARK SMILES IDX 21 1 20 2 19 3 17 4 18 5 15 6 12 7 13 8 91 9 14 10 11 11
REMARK SMILES IDX 10 12 5 13 6 14 7 15 9 16 8 17 4 18 3 19 2 20 1 21 16 22
REMARK SMILES IDX 22 26 23 27 24 28 25 29 26 30 27 31 28 32 29 33 90 34 30 35
REMARK SMILES IDX 89 36 31 37 32 38 33 39 83 40 34 41 88 42 82 43 84 44 35 45
REMARK SMILES IDX 87 46 81 47 80 48 36 50 68 51 48 52 67 53 49 54 52 55 66 56
REMARK SMILES IDX 85 57 50 58 51 59 65 61 86 62 53 63 37 64 38 65 46 66 39 67
REMARK SMILES IDX 45 68 47 69 44 70 40 71 41 72 42 73 43 74 69 75 70 76 78 77
REMARK SMILES IDX 71 78 77 79 79 80 76 81 72 82 73 83 74 84 75 85 54 86 55 87
REMARK SMILES IDX 63 88 56 89 62 90 64 91 61 92 57 93 58 94 59 95 60 96
REMARK H PARENT 16 23 16 24 16 25 84 49 52 60
REMARK Flexibility Score: inf
ROOT
ATOM      1  C   UNL A   1      34.945  20.716  24.809  1.00  0.00     0.202 C 
ENDROOT
BRANCH   1   2
ATOM      2  C   UNL A   1      33.647  20.997  25.611  1.00  0.00     0.261 C 
BRANCH   2   3
ATOM      3  O   UNL A   1      32.830  22.042  25.022  1.00  0.00    -0.459 OA
BRANCH   3   4
ATOM      4  C   UNL A   1      31.553  22.255  25.485  1.00  0.00     0.368 C 
ATOM      5  O   UNL A   1      30.802  21.400  25.933  1.00  0.00    -0.245 OA
BRANCH   4   6
ATOM      6  C   UNL A   1      31.158  23.865  25.357  1.00  0.00     0.196 C 
ATOM      7  C   UNL A   1      33.138  26.259  24.224  1.00  0.00     0.180 C 
ATOM      8  C   UNL A   1      31.794  25.810  22.790  1.00  0.00     0.052 C 
ATOM      9  C   UNL A   1      32.670  25.126  25.874  1.00  0.00     0.126 C 
ATOM     10  C   UNL A   1      30.727  24.250  23.435  1.00  0.00     0.085 C 
BRANCH   7  11
ATOM     11  O   UNL A   1      33.787  27.497  24.353  1.00  0.00    -0.486 OA
BRANCH  11  12
ATOM     12  C   UNL A   1      33.119  28.388  25.090  1.00  0.00     0.161 A 
ATOM     13  C   UNL A   1      32.152  29.189  24.527  1.00  0.00     0.161 A 
ATOM     14  C   UNL A   1      31.558  30.165  25.314  1.00  0.00     0.050 A 
ATOM     15  C   UNL A   1      31.950  30.309  26.657  1.00  0.00     0.004 A 
ATOM     16  C   UNL A   1      33.545  28.537  26.405  1.00  0.00     0.050 A 
ATOM     17  C   UNL A   1      32.957  29.507  27.198  1.00  0.00     0.004 A 
BRANCH  13  18
ATOM     18  O   UNL A   1      32.065  29.215  23.168  1.00  0.00    -0.490 OA
BRANCH  18  19
ATOM     19  C   UNL A   1      30.720  29.386  22.455  1.00  0.00     0.229 C 
BRANCH  19  20
ATOM     20  C   UNL A   1      28.707  29.739  23.213  1.00  0.00     0.038 C 
ATOM     21  C   UNL A   1      27.746  31.203  23.466  1.00  0.00     0.007 C 
ENDBRANCH  19  20
ENDBRANCH  18  19
ENDBRANCH  13  18
ENDBRANCH  11  12
ENDBRANCH   7  11
BRANCH   6  22
ATOM     22  N   UNL A   1      29.935  23.896  26.209  1.00  0.00    -0.343 N 
ATOM     23  H   UNL A   1      29.970  24.708  26.826  1.00  0.00     0.345 HD
ATOM     24  H   UNL A   1      29.890  23.045  26.770  1.00  0.00     0.345 HD
ATOM     25  H   UNL A   1      29.108  23.956  25.614  1.00  0.00     0.345 HD
ENDBRANCH   6  22
ENDBRANCH   4   6
ENDBRANCH   3   4
ENDBRANCH   2   3
ENDBRANCH   1   2
BRANCH   1  26
ATOM     26  O   UNL A   1      36.211  20.967  25.439  1.00  0.00    -0.374 OA
BRANCH  26  27
ATOM     27  C   UNL A   1      37.347  20.709  24.630  1.00  0.00     0.202 C 
BRANCH  27  28
ATOM     28  C   UNL A   1      38.428  19.727  25.094  1.00  0.00     0.261 C 
BRANCH  28  29
ATOM     29  O   UNL A   1      38.950  20.088  26.373  1.00  0.00    -0.460 OA
BRANCH  29  30
ATOM     30  C   UNL A   1      40.272  20.370  26.322  1.00  0.00     0.338 C 
ATOM     31  O   UNL A   1      41.133  19.737  25.734  1.00  0.00    -0.246 OA
BRANCH  30  32
ATOM     32  C   UNL A   1      40.522  21.689  26.914  1.00  0.00     0.060 A 
ATOM     33  C   UNL A   1      39.964  22.779  26.240  1.00  0.00     0.016 A 
ATOM     34  C   UNL A   1      41.339  21.866  28.032  1.00  0.00     0.016 A 
ATOM     35  C   UNL A   1      40.304  24.066  26.619  1.00  0.00     0.010 A 
ATOM     36  C   UNL A   1      41.679  23.164  28.412  1.00  0.00     0.010 A 
ATOM     37  C   UNL A   1      41.208  24.262  27.669  1.00  0.00    -0.014 A 
BRANCH  37  38
ATOM     38  C   UNL A   1      41.795  25.606  27.851  1.00  0.00     0.031 A 
ATOM     39  C   UNL A   1      41.006  26.641  28.604  1.00  0.00     0.074 A 
ATOM     40  C   UNL A   1      43.043  25.859  27.424  1.00  0.00     0.049 A 
ATOM     41  N   UNL A   1      41.313  27.883  28.870  1.00  0.00    -0.248 NA
ATOM     42  C   UNL A   1      39.694  26.220  29.122  1.00  0.00     0.031 C 
ATOM     43  C   UNL A   1      43.911  24.896  26.747  1.00  0.00     0.029 A 
ATOM     44  N   UNL A   1      43.800  26.997  27.504  1.00  0.00    -0.354 N 
ATOM     45  C   UNL A   1      40.230  28.395  29.578  1.00  0.00     0.074 A 
ATOM     46  C   UNL A   1      39.241  27.343  29.658  1.00  0.00     0.031 C 
ATOM     47  C   UNL A   1      45.087  25.485  26.478  1.00  0.00     0.029 A 
ATOM     48  C   UNL A   1      45.033  26.878  26.911  1.00  0.00     0.049 A 
ATOM     49  H   UNL A   1      43.490  27.822  27.944  1.00  0.00     0.167 HD
ATOM     50  C   UNL A   1      40.086  29.629  30.119  1.00  0.00     0.034 A 
ATOM     51  C   UNL A   1      45.994  27.802  26.715  1.00  0.00     0.034 A 
ATOM     52  C   UNL A   1      41.088  30.661  30.016  1.00  0.00     0.049 A 
ATOM     53  C   UNL A   1      45.763  29.201  27.232  1.00  0.00     0.074 A 
ATOM     54  C   UNL A   1      41.056  31.946  30.525  1.00  0.00     0.029 A 
ATOM     55  N   UNL A   1      42.299  30.529  29.346  1.00  0.00    -0.354 N 
ATOM     56  N   UNL A   1      44.732  29.680  27.892  1.00  0.00    -0.248 NA
ATOM     57  C   UNL A   1      46.825  30.182  26.983  1.00  0.00     0.031 C 
ATOM     58  C   UNL A   1      42.199  32.619  30.084  1.00  0.00     0.029 A 
ATOM     59  C   UNL A   1      43.000  31.723  29.393  1.00  0.00     0.049 A 
ATOM     60  H   UNL A   1      42.613  29.708  28.903  1.00  0.00     0.167 HD
ATOM     61  C   UNL A   1      45.044  31.008  28.172  1.00  0.00     0.074 A 
ATOM     62  C   UNL A   1      46.362  31.247  27.621  1.00  0.00     0.031 C 
ATOM     63  C   UNL A   1      44.313  31.945  28.830  1.00  0.00     0.034 A 
BRANCH  50  64
ATOM     64  C   UNL A   1      38.781  29.942  30.813  1.00  0.00     0.023 A 
ATOM     65  C   UNL A   1      37.771  30.698  30.193  1.00  0.00     0.031 A 
ATOM     66  C   UNL A   1      38.554  29.492  32.126  1.00  0.00     0.131 A 
ATOM     67  C   UNL A   1      36.615  31.040  30.911  1.00  0.00     0.055 A 
ATOM     68  C   UNL A   1      37.361  29.760  32.802  1.00  0.00     0.041 A 
ATOM     69  F   UNL A   1      39.493  28.793  32.782  1.00  0.00    -0.206 F 
ATOM     70  C   UNL A   1      36.388  30.551  32.199  1.00  0.00     0.022 A 
BRANCH  67  71
ATOM     71  S   UNL A   1      35.482  32.263  30.194  1.00  0.00     0.124 S 
ATOM     72  O   UNL A   1      35.054  31.586  28.971  1.00  0.00    -0.237 OA
ATOM     73  O   UNL A   1      34.470  32.404  31.234  1.00  0.00    -0.237 OA
ATOM     74  O   UNL A   1      36.330  33.434  29.983  1.00  0.00    -0.744 OA
ENDBRANCH  67  71
ENDBRANCH  50  64
BRANCH  51  75
ATOM     75  C   UNL A   1      47.235  27.454  25.966  1.00  0.00     0.023 A 
ATOM     76  C   UNL A   1      47.371  27.770  24.607  1.00  0.00     0.031 A 
ATOM     77  C   UNL A   1      48.280  26.745  26.585  1.00  0.00     0.131 A 
ATOM     78  C   UNL A   1      48.497  27.327  23.896  1.00  0.00     0.055 A 
ATOM     79  C   UNL A   1      49.431  26.370  25.892  1.00  0.00     0.041 A 
ATOM     80  F   UNL A   1      48.201  26.411  27.884  1.00  0.00    -0.206 F 
ATOM     81  C   UNL A   1      49.536  26.645  24.533  1.00  0.00     0.022 A 
BRANCH  78  82
ATOM     82  S   UNL A   1      48.523  27.544  22.096  1.00  0.00     0.124 S 
ATOM     83  O   UNL A   1      49.706  28.377  21.918  1.00  0.00    -0.237 OA
ATOM     84  O   UNL A   1      48.630  26.166  21.627  1.00  0.00    -0.237 OA
ATOM     85  O   UNL A   1      47.248  28.200  21.815  1.00  0.00    -0.744 OA
ENDBRANCH  78  82
ENDBRANCH  51  75
BRANCH  63  86
ATOM     86  C   UNL A   1      44.953  33.297  29.040  1.00  0.00     0.023 A 
ATOM     87  C   UNL A   1      44.683  34.387  28.197  1.00  0.00     0.031 A 
ATOM     88  C   UNL A   1      45.853  33.492  30.105  1.00  0.00     0.131 A 
ATOM     89  C   UNL A   1      45.358  35.603  28.391  1.00  0.00     0.055 A 
ATOM     90  C   UNL A   1      46.458  34.725  30.341  1.00  0.00     0.041 A 
ATOM     91  F   UNL A   1      46.155  32.483  30.939  1.00  0.00    -0.206 F 
ATOM     92  C   UNL A   1      46.224  35.786  29.472  1.00  0.00     0.022 A 
BRANCH  89  93
ATOM     93  S   UNL A   1      45.181  36.902  27.138  1.00  0.00     0.124 S 
ATOM     94  O   UNL A   1      43.857  36.620  26.595  1.00  0.00    -0.237 OA
ATOM     95  O   UNL A   1      45.299  38.120  27.933  1.00  0.00    -0.237 OA
ATOM     96  O   UNL A   1      46.294  36.648  26.223  1.00  0.00    -0.744 OA
ENDBRANCH  89  93
ENDBRANCH  63  86
ENDBRANCH  37  38
ENDBRANCH  30  32
ENDBRANCH  29  30
ENDBRANCH  28  29
ENDBRANCH  27  28
ENDBRANCH  26  27
ENDBRANCH   1  26
TORSDOF 23
ENDMDL
MODEL 3
REMARK VINA RESULT:     -10.6      4.656      8.752
REMARK SMILES CCCOc1ccccc1O[C@@H]1CC[C@@]([NH3+])(C(=O)OCCOCCOC(=O)c2ccc(-c3c4nc(c(-c5cc(S(=O)(=O)[O-])ccc5F)c5ccc([nH]5)c(-c5cc(S(=O)(=O)[O-])ccc5F)c5nc(c(-c6cc(S(=O)(=O)[O-])ccc6F)c6ccc3[nH]6)C=C5)C=C4)cc2)C1
REMARK SMILES IDX 21 1 20 2 19 3 17 4 18 5 15 6 12 7 13 8 91 9 14 10 11 11
REMARK SMILES IDX 10 12 5 13 6 14 7 15 9 16 8 17 4 18 3 19 2 20 1 21 16 22
REMARK SMILES IDX 22 26 23 27 24 28 25 29 26 30 27 31 28 32 29 33 90 34 30 35
REMARK SMILES IDX 89 36 31 37 32 38 33 39 83 40 34 41 88 42 82 43 84 44 35 45
REMARK SMILES IDX 87 46 81 47 80 48 36 50 68 51 48 52 67 53 49 54 52 55 66 56
REMARK SMILES IDX 85 57 50 58 51 59 65 61 86 62 53 63 37 64 38 65 46 66 39 67
REMARK SMILES IDX 45 68 47 69 44 70 40 71 41 72 42 73 43 74 69 75 70 76 78 77
REMARK SMILES IDX 71 78 77 79 79 80 76 81 72 82 73 83 74 84 75 85 54 86 55 87
REMARK SMILES IDX 63 88 56 89 62 90 64 91 61 92 57 93 58 94 59 95 60 96
REMARK H PARENT 16 23 16 24 16 25 84 49 52 60
REMARK Flexibility Score: inf
ROOT
ATOM      1  C   UNL A   1      35.218  20.672  24.797  1.00  0.00     0.202 C 
ENDROOT
BRANCH   1   2
ATOM      2  C   UNL A   1      33.926  20.996  25.593  1.00  0.00     0.261 C 
BRANCH   2   3
ATOM      3  O   UNL A   1      33.036  21.900  24.889  1.00  0.00    -0.459 OA
BRANCH   3   4
ATOM      4  C   UNL A   1      31.734  22.043  25.308  1.00  0.00     0.368 C 
ATOM      5  O   UNL A   1      30.994  21.138  25.667  1.00  0.00    -0.245 OA
BRANCH   4   6
ATOM      6  C   UNL A   1      31.289  23.645  25.264  1.00  0.00     0.196 C 
ATOM      7  C   UNL A   1      33.112  26.126  24.057  1.00  0.00     0.180 C 
ATOM      8  C   UNL A   1      31.669  25.684  22.720  1.00  0.00     0.052 C 
ATOM      9  C   UNL A   1      32.806  24.931  25.701  1.00  0.00     0.126 C 
ATOM     10  C   UNL A   1      30.697  24.076  23.396  1.00  0.00     0.085 C 
BRANCH   7  11
ATOM     11  O   UNL A   1      33.737  27.377  24.176  1.00  0.00    -0.486 OA
BRANCH  11  12
ATOM     12  C   UNL A   1      33.110  28.225  24.995  1.00  0.00     0.161 A 
ATOM     13  C   UNL A   1      32.146  29.083  24.521  1.00  0.00     0.161 A 
ATOM     14  C   UNL A   1      31.596  30.011  25.395  1.00  0.00     0.050 A 
ATOM     15  C   UNL A   1      32.029  30.049  26.732  1.00  0.00     0.004 A 
ATOM     16  C   UNL A   1      33.577  28.269  26.304  1.00  0.00     0.050 A 
ATOM     17  C   UNL A   1      33.033  29.189  27.183  1.00  0.00     0.004 A 
BRANCH  13  18
ATOM     18  O   UNL A   1      32.020  29.210  23.170  1.00  0.00    -0.490 OA
BRANCH  18  19
ATOM     19  C   UNL A   1      30.647  29.242  22.494  1.00  0.00     0.229 C 
BRANCH  19  20
ATOM     20  C   UNL A   1      28.663  29.737  23.251  1.00  0.00     0.038 C 
ATOM     21  C   UNL A   1      27.709  31.227  23.271  1.00  0.00     0.007 C 
ENDBRANCH  19  20
ENDBRANCH  18  19
ENDBRANCH  13  18
ENDBRANCH  11  12
ENDBRANCH   7  11
BRANCH   6  22
ATOM     22  N   UNL A   1      30.137  23.615  26.210  1.00  0.00    -0.343 N 
ATOM     23  H   UNL A   1      30.123  22.720  26.701  1.00  0.00     0.345 HD
ATOM     24  H   UNL A   1      29.267  23.732  25.690  1.00  0.00     0.345 HD
ATOM     25  H   UNL A   1      30.234  24.373  26.887  1.00  0.00     0.345 HD
ENDBRANCH   6  22
ENDBRANCH   4   6
ENDBRANCH   3   4
ENDBRANCH   2   3
ENDBRANCH   1   2
BRANCH   1  26
ATOM     26  O   UNL A   1      36.488  20.863  25.439  1.00  0.00    -0.374 OA
BRANCH  26  27
ATOM     27  C   UNL A   1      37.613  20.441  24.684  1.00  0.00     0.202 C 
BRANCH  27  28
ATOM     28  C   UNL A   1      38.547  19.352  25.222  1.00  0.00     0.261 C 
BRANCH  28  29
ATOM     29  O   UNL A   1      39.122  19.726  26.475  1.00  0.00    -0.460 OA
BRANCH  29  30
ATOM     30  C   UNL A   1      40.430  20.049  26.358  1.00  0.00     0.338 C 
ATOM     31  O   UNL A   1      41.285  19.431  25.747  1.00  0.00    -0.246 OA
BRANCH  30  32
ATOM     32  C   UNL A   1      40.662  21.389  26.909  1.00  0.00     0.060 A 
ATOM     33  C   UNL A   1      40.153  22.455  26.162  1.00  0.00     0.016 A 
ATOM     34  C   UNL A   1      41.420  21.605  28.062  1.00  0.00     0.016 A 
ATOM     35  C   UNL A   1      40.486  23.754  26.506  1.00  0.00     0.010 A 
ATOM     36  C   UNL A   1      41.753  22.915  28.407  1.00  0.00     0.010 A 
ATOM     37  C   UNL A   1      41.334  23.985  27.595  1.00  0.00    -0.014 A 
BRANCH  37  38
ATOM     38  C   UNL A   1      41.925  25.330  27.754  1.00  0.00     0.031 A 
ATOM     39  C   UNL A   1      41.138  26.382  28.485  1.00  0.00     0.074 A 
ATOM     40  C   UNL A   1      43.175  25.572  27.325  1.00  0.00     0.049 A 
ATOM     41  N   UNL A   1      41.448  27.628  28.729  1.00  0.00    -0.248 NA
ATOM     42  C   UNL A   1      39.823  25.974  29.008  1.00  0.00     0.031 C 
ATOM     43  C   UNL A   1      44.042  24.593  26.668  1.00  0.00     0.029 A 
ATOM     44  N   UNL A   1      43.936  26.709  27.386  1.00  0.00    -0.354 N 
ATOM     45  C   UNL A   1      40.365  28.156  29.425  1.00  0.00     0.074 A 
ATOM     46  C   UNL A   1      39.372  27.109  29.521  1.00  0.00     0.031 C 
ATOM     47  C   UNL A   1      45.220  25.173  26.392  1.00  0.00     0.029 A 
ATOM     48  C   UNL A   1      45.170  26.575  26.799  1.00  0.00     0.049 A 
ATOM     49  H   UNL A   1      43.626  27.542  27.810  1.00  0.00     0.167 HD
ATOM     50  C   UNL A   1      40.223  29.400  29.943  1.00  0.00     0.034 A 
ATOM     51  C   UNL A   1      46.134  27.492  26.589  1.00  0.00     0.034 A 
ATOM     52  C   UNL A   1      41.228  30.427  29.823  1.00  0.00     0.049 A 
ATOM     53  C   UNL A   1      45.906  28.901  27.079  1.00  0.00     0.074 A 
ATOM     54  C   UNL A   1      41.200  31.721  30.308  1.00  0.00     0.029 A 
ATOM     55  N   UNL A   1      42.441  30.279  29.159  1.00  0.00    -0.354 N 
ATOM     56  N   UNL A   1      44.875  29.395  27.728  1.00  0.00    -0.248 NA
ATOM     57  C   UNL A   1      46.972  29.873  26.815  1.00  0.00     0.031 C 
ATOM     58  C   UNL A   1      42.346  32.382  29.858  1.00  0.00     0.029 A 
ATOM     59  C   UNL A   1      43.146  31.472  29.186  1.00  0.00     0.049 A 
ATOM     60  H   UNL A   1      42.753  29.449  28.733  1.00  0.00     0.167 HD
ATOM     61  C   UNL A   1      45.190  30.727  27.984  1.00  0.00     0.074 A 
ATOM     62  C   UNL A   1      46.511  30.952  27.431  1.00  0.00     0.031 C 
ATOM     63  C   UNL A   1      44.461  31.679  28.623  1.00  0.00     0.034 A 
BRANCH  50  64
ATOM     64  C   UNL A   1      38.918  29.730  30.627  1.00  0.00     0.023 A 
ATOM     65  C   UNL A   1      37.920  30.494  29.999  1.00  0.00     0.031 A 
ATOM     66  C   UNL A   1      38.677  29.288  31.941  1.00  0.00     0.131 A 
ATOM     67  C   UNL A   1      36.763  30.852  30.708  1.00  0.00     0.055 A 
ATOM     68  C   UNL A   1      37.483  29.571  32.608  1.00  0.00     0.041 A 
ATOM     69  F   UNL A   1      39.604  28.581  32.606  1.00  0.00    -0.206 F 
ATOM     70  C   UNL A   1      36.523  30.370  31.996  1.00  0.00     0.022 A 
BRANCH  67  71
ATOM     71  S   UNL A   1      35.647  32.084  29.979  1.00  0.00     0.124 S 
ATOM     72  O   UNL A   1      35.155  31.374  28.801  1.00  0.00    -0.237 OA
ATOM     73  O   UNL A   1      34.678  32.302  31.046  1.00  0.00    -0.237 OA
ATOM     74  O   UNL A   1      36.527  33.215  29.692  1.00  0.00    -0.744 OA
ENDBRANCH  67  71
ENDBRANCH  50  64
BRANCH  51  75
ATOM     75  C   UNL A   1      47.376  27.127  25.849  1.00  0.00     0.023 A 
ATOM     76  C   UNL A   1      48.418  26.436  26.484  1.00  0.00     0.031 A 
ATOM     77  C   UNL A   1      47.564  27.517  24.511  1.00  0.00     0.131 A 
ATOM     78  C   UNL A   1      49.623  26.210  25.801  1.00  0.00     0.055 A 
ATOM     79  C   UNL A   1      48.736  27.226  23.814  1.00  0.00     0.041 A 
ATOM     80  F   UNL A   1      46.601  28.187  23.855  1.00  0.00    -0.206 F 
ATOM     81  C   UNL A   1      49.783  26.582  24.465  1.00  0.00     0.022 A 
BRANCH  78  82
ATOM     82  S   UNL A   1      51.027  25.532  26.728  1.00  0.00     0.124 S 
ATOM     83  O   UNL A   1      51.461  26.694  27.495  1.00  0.00    -0.237 OA
ATOM     84  O   UNL A   1      50.396  24.458  27.489  1.00  0.00    -0.237 OA
ATOM     85  O   UNL A   1      51.946  25.095  25.680  1.00  0.00    -0.744 OA
ENDBRANCH  78  82
ENDBRANCH  51  75
BRANCH  63  86
ATOM     86  C   UNL A   1      45.104  33.032  28.809  1.00  0.00     0.023 A 
ATOM     87  C   UNL A   1      45.903  33.329  29.926  1.00  0.00     0.031 A 
ATOM     88  C   UNL A   1      44.908  34.043  27.850  1.00  0.00     0.131 A 
ATOM     89  C   UNL A   1      46.420  34.624  30.089  1.00  0.00     0.055 A 
ATOM     90  C   UNL A   1      45.492  35.302  27.978  1.00  0.00     0.041 A 
ATOM     91  F   UNL A   1      44.148  33.819  26.765  1.00  0.00    -0.206 F 
ATOM     92  C   UNL A   1      46.241  35.604  29.111  1.00  0.00     0.022 A 
BRANCH  89  93
ATOM     93  S   UNL A   1      47.226  35.043  31.658  1.00  0.00     0.124 S 
ATOM     94  O   UNL A   1      47.116  36.498  31.675  1.00  0.00    -0.237 OA
ATOM     95  O   UNL A   1      46.406  34.330  32.632  1.00  0.00    -0.237 OA
ATOM     96  O   UNL A   1      48.584  34.526  31.495  1.00  0.00    -0.744 OA
ENDBRANCH  89  93
ENDBRANCH  63  86
ENDBRANCH  37  38
ENDBRANCH  30  32
ENDBRANCH  29  30
ENDBRANCH  28  29
ENDBRANCH  27  28
ENDBRANCH  26  27
ENDBRANCH   1  26
TORSDOF 23
ENDMDL
