MODEL 1
REMARK VINA RESULT:     -11.4      0.000      0.000
REMARK SMILES Cc1nnc(SCC2=C(C(=O)OCCOCCOC(=O)c3ccc(-c4c5nc(c(-c6cc(S(=O)(=O)[O-])ccc6F)c6ccc([nH]6)c(-c6cc(S(=O)(=O)[O-])ccc6F)c6nc(c(-c7cc(S(=O)(=O)[O-])ccc7F)c7ccc4[nH]7)C=C6)C=C5)cc3)N3C(=O)[C@H](NC(=O)c4ccc(F)cc4F)[C@H]3SC2)s1
REMARK SMILES IDX 15 1 14 2 13 3 12 4 10 5 11 6 9 7 8 8 101 9 84 10 100 11
REMARK SMILES IDX 85 12 99 13 86 14 87 15 7 16 6 17 5 18 1 19 2 20 3 21 102 22
REMARK SMILES IDX 4 23 88 24 89 25 90 27 91 28 92 29 97 30 93 31 96 32 98 33
REMARK SMILES IDX 94 34 95 35 16 36 17 37 18 38 19 39 20 40 21 41 22 42 83 43
REMARK SMILES IDX 23 44 82 45 24 46 25 47 26 48 76 49 27 50 81 51 75 52 77 53
REMARK SMILES IDX 28 54 80 55 74 56 73 57 29 59 61 60 41 61 60 62 42 63 45 64
REMARK SMILES IDX 59 65 78 66 43 67 44 68 58 70 79 71 46 72 30 73 31 74 39 75
REMARK SMILES IDX 32 76 38 77 40 78 37 79 33 80 34 81 35 82 36 83 62 84 63 85
REMARK SMILES IDX 71 86 64 87 70 88 72 89 69 90 65 91 66 92 67 93 68 94 47 95
REMARK SMILES IDX 48 96 56 97 49 98 55 99 57 100 54 101 50 102 51 103 52 104
REMARK SMILES IDX 53 105
REMARK H PARENT 88 26 77 58 45 69
REMARK Flexibility Score: inf
ROOT
ATOM      1  O   UNL A   1      38.701  21.901  25.779  1.00  0.00    -0.374 OA
ENDROOT
BRANCH   1   2
ATOM      2  C   UNL A   1      37.600  22.797  25.936  1.00  0.00     0.202 C 
BRANCH   2   3
ATOM      3  C   UNL A   1      37.078  23.485  24.676  1.00  0.00     0.261 C 
BRANCH   3   4
ATOM      4  O   UNL A   1      35.949  24.311  25.000  1.00  0.00    -0.459 OA
BRANCH   4   5
ATOM      5  C   UNL A   1      34.887  24.169  24.176  1.00  0.00     0.355 C 
ATOM      6  O   UNL A   1      34.919  24.148  22.951  1.00  0.00    -0.244 OA
BRANCH   5   7
ATOM      7  C   UNL A   1      33.625  23.882  24.940  1.00  0.00     0.132 C 
ATOM      8  C   UNL A   1      32.814  24.776  25.569  1.00  0.00    -0.019 C 
ATOM      9  C   UNL A   1      31.513  24.374  26.279  1.00  0.00     0.106 C 
ATOM     10  N   UNL A   1      33.230  22.583  24.867  1.00  0.00    -0.289 N 
ATOM     11  S   UNL A   1      31.161  22.585  26.401  1.00  0.00    -0.129 SA
ATOM     12  C   UNL A   1      33.749  21.368  24.641  1.00  0.00     0.253 C 
ATOM     13  C   UNL A   1      31.847  22.230  24.766  1.00  0.00     0.181 C 
ATOM     14  O   UNL A   1      34.881  20.933  24.604  1.00  0.00    -0.272 OA
ATOM     15  C   UNL A   1      32.300  20.767  24.485  1.00  0.00     0.206 C 
BRANCH   8  16
ATOM     16  C   UNL A   1      33.097  26.266  25.697  1.00  0.00     0.111 C 
BRANCH  16  17
ATOM     17  S   UNL A   1      31.687  27.186  26.394  1.00  0.00    -0.089 SA
BRANCH  17  18
ATOM     18  C   UNL A   1      32.440  28.714  26.776  1.00  0.00     0.174 A 
ATOM     19  C   UNL A   1      34.846  31.551  27.694  1.00  0.00     0.081 C 
ATOM     20  C   UNL A   1      33.778  30.588  27.338  1.00  0.00     0.115 A 
ATOM     21  N   UNL A   1      32.503  30.897  27.255  1.00  0.00    -0.143 NA
ATOM     22  S   UNL A   1      34.121  28.933  27.015  1.00  0.00    -0.091 S 
ATOM     23  N   UNL A   1      31.733  29.806  26.939  1.00  0.00    -0.132 NA
ENDBRANCH  17  18
ENDBRANCH  16  17
ENDBRANCH   8  16
BRANCH  15  24
ATOM     24  N   UNL A   1      32.119  20.165  23.127  1.00  0.00    -0.338 N 
ATOM     25  C   UNL A   1      32.374  18.908  22.641  1.00  0.00     0.254 C 
ATOM     26  H   UNL A   1      31.748  20.785  22.460  1.00  0.00     0.164 HD
ATOM     27  O   UNL A   1      32.321  18.672  21.439  1.00  0.00    -0.269 OA
BRANCH  25  28
ATOM     28  C   UNL A   1      32.757  17.828  23.550  1.00  0.00     0.075 A 
ATOM     29  C   UNL A   1      32.086  17.675  24.764  1.00  0.00     0.020 A 
ATOM     30  C   UNL A   1      33.848  17.016  23.243  1.00  0.00     0.138 A 
ATOM     31  C   UNL A   1      32.460  16.637  25.619  1.00  0.00     0.040 A 
ATOM     32  C   UNL A   1      34.194  15.955  24.068  1.00  0.00     0.079 A 
ATOM     33  F   UNL A   1      34.555  17.217  22.122  1.00  0.00    -0.206 F 
ATOM     34  C   UNL A   1      33.489  15.773  25.251  1.00  0.00     0.126 A 
ATOM     35  F   UNL A   1      33.813  14.755  26.058  1.00  0.00    -0.207 F 
ENDBRANCH  25  28
ENDBRANCH  15  24
ENDBRANCH   5   7
ENDBRANCH   4   5
ENDBRANCH   3   4
ENDBRANCH   2   3
ENDBRANCH   1   2
BRANCH   1  36
ATOM     36  C   UNL A   1      38.431  20.556  25.397  1.00  0.00     0.202 C 
BRANCH  36  37
ATOM     37  C   UNL A   1      39.552  19.524  25.573  1.00  0.00     0.261 C 
BRANCH  37  38
ATOM     38  O   UNL A   1      40.484  19.844  26.617  1.00  0.00    -0.460 OA
BRANCH  38  39
ATOM     39  C   UNL A   1      41.786  19.745  26.242  1.00  0.00     0.338 C 
ATOM     40  O   UNL A   1      42.344  18.770  25.767  1.00  0.00    -0.246 OA
BRANCH  39  41
ATOM     41  C   UNL A   1      42.438  21.062  26.351  1.00  0.00     0.060 A 
ATOM     42  C   UNL A   1      42.816  21.510  27.624  1.00  0.00     0.016 A 
ATOM     43  C   UNL A   1      42.584  21.884  25.233  1.00  0.00     0.016 A 
ATOM     44  C   UNL A   1      43.312  22.801  27.791  1.00  0.00     0.010 A 
ATOM     45  C   UNL A   1      43.067  23.183  25.405  1.00  0.00     0.010 A 
ATOM     46  C   UNL A   1      43.402  23.657  26.687  1.00  0.00    -0.014 A 
BRANCH  46  47
ATOM     47  C   UNL A   1      43.676  25.103  26.876  1.00  0.00     0.031 A 
ATOM     48  C   UNL A   1      45.069  25.606  26.614  1.00  0.00     0.074 A 
ATOM     49  C   UNL A   1      42.713  25.943  27.291  1.00  0.00     0.049 A 
ATOM     50  N   UNL A   1      45.594  26.773  26.874  1.00  0.00    -0.248 NA
ATOM     51  C   UNL A   1      45.994  24.652  25.980  1.00  0.00     0.031 C 
ATOM     52  C   UNL A   1      41.312  25.584  27.501  1.00  0.00     0.029 A 
ATOM     53  N   UNL A   1      42.776  27.272  27.631  1.00  0.00    -0.354 N 
ATOM     54  C   UNL A   1      46.916  26.694  26.449  1.00  0.00     0.074 A 
ATOM     55  C   UNL A   1      47.116  25.353  25.942  1.00  0.00     0.031 C 
ATOM     56  C   UNL A   1      40.651  26.662  27.959  1.00  0.00     0.029 A 
ATOM     57  C   UNL A   1      41.593  27.768  28.125  1.00  0.00     0.049 A 
ATOM     58  H   UNL A   1      43.589  27.817  27.529  1.00  0.00     0.167 HD
ATOM     59  C   UNL A   1      47.872  27.654  26.480  1.00  0.00     0.034 A 
ATOM     60  C   UNL A   1      41.316  28.963  28.688  1.00  0.00     0.034 A 
ATOM     61  C   UNL A   1      47.654  28.980  27.004  1.00  0.00     0.049 A 
ATOM     62  C   UNL A   1      42.425  29.984  28.816  1.00  0.00     0.074 A 
ATOM     63  C   UNL A   1      48.550  30.029  27.103  1.00  0.00     0.029 A 
ATOM     64  N   UNL A   1      46.450  29.437  27.525  1.00  0.00    -0.354 N 
ATOM     65  N   UNL A   1      43.682  29.889  28.447  1.00  0.00    -0.248 NA
ATOM     66  C   UNL A   1      42.080  31.271  29.437  1.00  0.00     0.031 C 
ATOM     67  C   UNL A   1      47.909  31.095  27.743  1.00  0.00     0.029 A 
ATOM     68  C   UNL A   1      46.588  30.742  27.968  1.00  0.00     0.049 A 
ATOM     69  H   UNL A   1      45.618  28.910  27.572  1.00  0.00     0.167 HD
ATOM     70  C   UNL A   1      44.261  31.121  28.744  1.00  0.00     0.074 A 
ATOM     71  C   UNL A   1      43.220  31.938  29.333  1.00  0.00     0.031 C 
ATOM     72  C   UNL A   1      45.532  31.545  28.537  1.00  0.00     0.034 A 
BRANCH  59  73
ATOM     73  C   UNL A   1      49.249  27.281  25.988  1.00  0.00     0.023 A 
ATOM     74  C   UNL A   1      50.279  26.922  26.873  1.00  0.00     0.031 A 
ATOM     75  C   UNL A   1      49.543  27.314  24.613  1.00  0.00     0.131 A 
ATOM     76  C   UNL A   1      51.570  26.677  26.382  1.00  0.00     0.055 A 
ATOM     77  C   UNL A   1      50.810  26.991  24.123  1.00  0.00     0.041 A 
ATOM     78  F   UNL A   1      48.606  27.674  23.721  1.00  0.00    -0.206 F 
ATOM     79  C   UNL A   1      51.837  26.684  25.011  1.00  0.00     0.022 A 
BRANCH  76  80
ATOM     80  S   UNL A   1      52.927  26.487  27.569  1.00  0.00     0.124 S 
ATOM     81  O   UNL A   1      53.558  27.803  27.509  1.00  0.00    -0.237 OA
ATOM     82  O   UNL A   1      52.223  26.172  28.806  1.00  0.00    -0.237 OA
ATOM     83  O   UNL A   1      53.724  25.397  27.008  1.00  0.00    -0.744 OA
ENDBRANCH  76  80
ENDBRANCH  59  73
BRANCH  60  84
ATOM     84  C   UNL A   1      39.955  29.253  29.222  1.00  0.00     0.023 A 
ATOM     85  C   UNL A   1      39.691  29.205  30.599  1.00  0.00     0.031 A 
ATOM     86  C   UNL A   1      38.880  29.524  28.355  1.00  0.00     0.131 A 
ATOM     87  C   UNL A   1      38.379  29.373  31.068  1.00  0.00     0.055 A 
ATOM     88  C   UNL A   1      37.586  29.748  28.830  1.00  0.00     0.041 A 
ATOM     89  F   UNL A   1      39.072  29.580  27.028  1.00  0.00    -0.206 F 
ATOM     90  C   UNL A   1      37.327  29.658  30.195  1.00  0.00     0.022 A 
BRANCH  87  91
ATOM     91  S   UNL A   1      38.049  29.118  32.833  1.00  0.00     0.124 S 
ATOM     92  O   UNL A   1      39.336  29.463  33.427  1.00  0.00    -0.237 OA
ATOM     93  O   UNL A   1      36.956  30.056  33.074  1.00  0.00    -0.237 OA
ATOM     94  O   UNL A   1      37.684  27.705  32.909  1.00  0.00    -0.744 OA
ENDBRANCH  87  91
ENDBRANCH  60  84
BRANCH  72  95
ATOM     95  C   UNL A   1      45.850  32.983  28.863  1.00  0.00     0.023 A 
ATOM     96  C   UNL A   1      45.719  34.013  27.917  1.00  0.00     0.031 A 
ATOM     97  C   UNL A   1      46.257  33.325  30.166  1.00  0.00     0.131 A 
ATOM     98  C   UNL A   1      46.023  35.335  28.281  1.00  0.00     0.055 A 
ATOM     99  C   UNL A   1      46.509  34.646  30.535  1.00  0.00     0.041 A 
ATOM    100  F   UNL A   1      46.397  32.378  31.108  1.00  0.00    -0.206 F 
ATOM    101  C   UNL A   1      46.399  35.659  29.587  1.00  0.00     0.022 A 
BRANCH  98 102
ATOM    102  S   UNL A   1      45.968  36.627  27.009  1.00  0.00     0.124 S 
ATOM    103  O   UNL A   1      44.579  37.068  27.083  1.00  0.00    -0.237 OA
ATOM    104  O   UNL A   1      46.965  37.580  27.486  1.00  0.00    -0.237 OA
ATOM    105  O   UNL A   1      46.329  35.918  25.782  1.00  0.00    -0.744 OA
ENDBRANCH  98 102
ENDBRANCH  72  95
ENDBRANCH  46  47
ENDBRANCH  39  41
ENDBRANCH  38  39
ENDBRANCH  37  38
ENDBRANCH  36  37
ENDBRANCH   1  36
TORSDOF 22
ENDMDL
MODEL 2
REMARK VINA RESULT:     -11.3      1.238      7.144
REMARK SMILES Cc1nnc(SCC2=C(C(=O)OCCOCCOC(=O)c3ccc(-c4c5nc(c(-c6cc(S(=O)(=O)[O-])ccc6F)c6ccc([nH]6)c(-c6cc(S(=O)(=O)[O-])ccc6F)c6nc(c(-c7cc(S(=O)(=O)[O-])ccc7F)c7ccc4[nH]7)C=C6)C=C5)cc3)N3C(=O)[C@H](NC(=O)c4ccc(F)cc4F)[C@H]3SC2)s1
REMARK SMILES IDX 15 1 14 2 13 3 12 4 10 5 11 6 9 7 8 8 101 9 84 10 100 11
REMARK SMILES IDX 85 12 99 13 86 14 87 15 7 16 6 17 5 18 1 19 2 20 3 21 102 22
REMARK SMILES IDX 4 23 88 24 89 25 90 27 91 28 92 29 97 30 93 31 96 32 98 33
REMARK SMILES IDX 94 34 95 35 16 36 17 37 18 38 19 39 20 40 21 41 22 42 83 43
REMARK SMILES IDX 23 44 82 45 24 46 25 47 26 48 76 49 27 50 81 51 75 52 77 53
REMARK SMILES IDX 28 54 80 55 74 56 73 57 29 59 61 60 41 61 60 62 42 63 45 64
REMARK SMILES IDX 59 65 78 66 43 67 44 68 58 70 79 71 46 72 30 73 31 74 39 75
REMARK SMILES IDX 32 76 38 77 40 78 37 79 33 80 34 81 35 82 36 83 62 84 63 85
REMARK SMILES IDX 71 86 64 87 70 88 72 89 69 90 65 91 66 92 67 93 68 94 47 95
REMARK SMILES IDX 48 96 56 97 49 98 55 99 57 100 54 101 50 102 51 103 52 104
REMARK SMILES IDX 53 105
REMARK H PARENT 88 26 77 58 45 69
REMARK Flexibility Score: inf
ROOT
ATOM      1  O   UNL A   1      38.896  22.622  26.123  1.00  0.00    -0.374 OA
ENDROOT
BRANCH   1   2
ATOM      2  C   UNL A   1      38.043  23.749  26.320  1.00  0.00     0.202 C 
BRANCH   2   3
ATOM      3  C   UNL A   1      36.560  23.564  25.999  1.00  0.00     0.261 C 
BRANCH   3   4
ATOM      4  O   UNL A   1      36.165  24.478  24.964  1.00  0.00    -0.459 OA
BRANCH   4   5
ATOM      5  C   UNL A   1      35.145  24.050  24.187  1.00  0.00     0.355 C 
ATOM      6  O   UNL A   1      35.216  23.748  23.002  1.00  0.00    -0.244 OA
BRANCH   5   7
ATOM      7  C   UNL A   1      33.892  23.830  24.987  1.00  0.00     0.132 C 
ATOM      8  C   UNL A   1      33.151  24.764  25.642  1.00  0.00    -0.019 C 
ATOM      9  C   UNL A   1      31.851  24.433  26.389  1.00  0.00     0.106 C 
ATOM     10  N   UNL A   1      33.423  22.555  24.922  1.00  0.00    -0.289 N 
ATOM     11  S   UNL A   1      31.403  22.665  26.516  1.00  0.00    -0.129 SA
ATOM     12  C   UNL A   1      33.867  21.314  24.678  1.00  0.00     0.253 C 
ATOM     13  C   UNL A   1      32.020  22.280  24.861  1.00  0.00     0.181 C 
ATOM     14  O   UNL A   1      34.972  20.817  24.606  1.00  0.00    -0.272 OA
ATOM     15  C   UNL A   1      32.383  20.795  24.563  1.00  0.00     0.206 C 
BRANCH   8  16
ATOM     16  C   UNL A   1      33.520  26.236  25.766  1.00  0.00     0.111 C 
BRANCH  16  17
ATOM     17  S   UNL A   1      32.157  27.341  25.272  1.00  0.00    -0.089 SA
BRANCH  17  18
ATOM     18  C   UNL A   1      32.621  28.822  26.071  1.00  0.00     0.174 A 
ATOM     19  C   UNL A   1      34.373  31.583  28.068  1.00  0.00     0.081 C 
ATOM     20  C   UNL A   1      33.553  30.642  27.269  1.00  0.00     0.115 A 
ATOM     21  N   UNL A   1      32.341  30.904  26.835  1.00  0.00    -0.143 NA
ATOM     22  S   UNL A   1      34.124  29.073  26.851  1.00  0.00    -0.091 S 
ATOM     23  N   UNL A   1      31.803  29.843  26.151  1.00  0.00    -0.132 NA
ENDBRANCH  17  18
ENDBRANCH  16  17
ENDBRANCH   8  16
BRANCH  15  24
ATOM     24  N   UNL A   1      32.129  20.210  23.209  1.00  0.00    -0.338 N 
ATOM     25  C   UNL A   1      32.333  18.952  22.702  1.00  0.00     0.254 C 
ATOM     26  H   UNL A   1      31.744  20.845  22.563  1.00  0.00     0.164 HD
ATOM     27  O   UNL A   1      32.223  18.729  21.501  1.00  0.00    -0.269 OA
BRANCH  25  28
ATOM     28  C   UNL A   1      32.730  17.855  23.584  1.00  0.00     0.075 A 
ATOM     29  C   UNL A   1      32.099  17.698  24.819  1.00  0.00     0.020 A 
ATOM     30  C   UNL A   1      33.797  17.029  23.230  1.00  0.00     0.138 A 
ATOM     31  C   UNL A   1      32.485  16.644  25.649  1.00  0.00     0.040 A 
ATOM     32  C   UNL A   1      34.154  15.953  24.030  1.00  0.00     0.079 A 
ATOM     33  F   UNL A   1      34.468  17.233  22.088  1.00  0.00    -0.206 F 
ATOM     34  C   UNL A   1      33.487  15.768  25.234  1.00  0.00     0.126 A 
ATOM     35  F   UNL A   1      33.823  14.735  26.018  1.00  0.00    -0.207 F 
ENDBRANCH  25  28
ENDBRANCH  15  24
ENDBRANCH   5   7
ENDBRANCH   4   5
ENDBRANCH   3   4
ENDBRANCH   2   3
ENDBRANCH   1   2
BRANCH   1  36
ATOM     36  C   UNL A   1      38.378  21.493  25.426  1.00  0.00     0.202 C 
BRANCH  36  37
ATOM     37  C   UNL A   1      39.005  20.124  25.718  1.00  0.00     0.261 C 
BRANCH  37  38
ATOM     38  O   UNL A   1      40.072  20.160  26.678  1.00  0.00    -0.460 OA
BRANCH  38  39
ATOM     39  C   UNL A   1      41.304  19.969  26.138  1.00  0.00     0.338 C 
ATOM     40  O   UNL A   1      41.655  19.060  25.406  1.00  0.00    -0.246 OA
BRANCH  39  41
ATOM     41  C   UNL A   1      42.166  21.125  26.444  1.00  0.00     0.060 A 
ATOM     42  C   UNL A   1      42.534  21.340  27.780  1.00  0.00     0.016 A 
ATOM     43  C   UNL A   1      42.523  22.036  25.450  1.00  0.00     0.016 A 
ATOM     44  C   UNL A   1      43.235  22.491  28.134  1.00  0.00     0.010 A 
ATOM     45  C   UNL A   1      43.212  23.197  25.810  1.00  0.00     0.010 A 
ATOM     46  C   UNL A   1      43.543  23.444  27.156  1.00  0.00    -0.014 A 
BRANCH  46  47
ATOM     47  C   UNL A   1      44.050  24.782  27.543  1.00  0.00     0.031 A 
ATOM     48  C   UNL A   1      43.062  25.808  28.025  1.00  0.00     0.074 A 
ATOM     49  C   UNL A   1      45.356  25.084  27.447  1.00  0.00     0.049 A 
ATOM     50  N   UNL A   1      43.230  27.084  28.249  1.00  0.00    -0.248 NA
ATOM     51  C   UNL A   1      41.695  25.323  28.278  1.00  0.00     0.031 C 
ATOM     52  C   UNL A   1      46.413  24.149  27.067  1.00  0.00     0.029 A 
ATOM     53  N   UNL A   1      46.012  26.275  27.643  1.00  0.00    -0.354 N 
ATOM     54  C   UNL A   1      41.989  27.562  28.657  1.00  0.00     0.074 A 
ATOM     55  C   UNL A   1      41.073  26.441  28.621  1.00  0.00     0.031 C 
ATOM     56  C   UNL A   1      47.585  24.809  27.033  1.00  0.00     0.029 A 
ATOM     57  C   UNL A   1      47.351  26.220  27.334  1.00  0.00     0.049 A 
ATOM     58  H   UNL A   1      45.567  27.088  27.973  1.00  0.00     0.167 HD
ATOM     59  C   UNL A   1      41.648  28.820  29.028  1.00  0.00     0.034 A 
ATOM     60  C   UNL A   1      48.269  27.205  27.261  1.00  0.00     0.034 A 
ATOM     61  C   UNL A   1      42.575  29.925  29.043  1.00  0.00     0.049 A 
ATOM     62  C   UNL A   1      47.845  28.624  27.571  1.00  0.00     0.074 A 
ATOM     63  C   UNL A   1      42.340  31.245  29.383  1.00  0.00     0.029 A 
ATOM     64  N   UNL A   1      43.917  29.838  28.694  1.00  0.00    -0.354 N 
ATOM     65  N   UNL A   1      46.661  29.074  27.920  1.00  0.00    -0.248 NA
ATOM     66  C   UNL A   1      48.877  29.666  27.477  1.00  0.00     0.031 C 
ATOM     67  C   UNL A   1      43.520  31.968  29.177  1.00  0.00     0.029 A 
ATOM     68  C   UNL A   1      44.514  31.084  28.788  1.00  0.00     0.049 A 
ATOM     69  H   UNL A   1      44.377  29.011  28.421  1.00  0.00     0.167 HD
ATOM     70  C   UNL A   1      46.822  30.441  28.136  1.00  0.00     0.074 A 
ATOM     71  C   UNL A   1      48.212  30.744  27.868  1.00  0.00     0.031 C 
ATOM     72  C   UNL A   1      45.908  31.361  28.533  1.00  0.00     0.034 A 
BRANCH  59  73
ATOM     73  C   UNL A   1      40.205  29.072  29.388  1.00  0.00     0.023 A 
ATOM     74  C   UNL A   1      39.772  29.113  30.724  1.00  0.00     0.031 A 
ATOM     75  C   UNL A   1      39.241  29.244  28.377  1.00  0.00     0.131 A 
ATOM     76  C   UNL A   1      38.405  29.252  31.013  1.00  0.00     0.055 A 
ATOM     77  C   UNL A   1      37.895  29.462  28.673  1.00  0.00     0.041 A 
ATOM     78  F   UNL A   1      39.592  29.189  27.083  1.00  0.00    -0.206 F 
ATOM     79  C   UNL A   1      37.467  29.452  29.997  1.00  0.00     0.022 A 
BRANCH  76  80
ATOM     80  S   UNL A   1      37.854  29.026  32.725  1.00  0.00     0.124 S 
ATOM     81  O   UNL A   1      36.602  29.778  32.733  1.00  0.00    -0.237 OA
ATOM     82  O   UNL A   1      37.731  27.577  32.829  1.00  0.00    -0.237 OA
ATOM     83  O   UNL A   1      38.933  29.619  33.514  1.00  0.00    -0.744 OA
ENDBRANCH  76  80
ENDBRANCH  59  73
BRANCH  60  84
ATOM     84  C   UNL A   1      49.666  26.910  26.832  1.00  0.00     0.023 A 
ATOM     85  C   UNL A   1      50.134  27.302  25.568  1.00  0.00     0.031 A 
ATOM     86  C   UNL A   1      50.538  26.177  27.657  1.00  0.00     0.131 A 
ATOM     87  C   UNL A   1      51.415  26.917  25.145  1.00  0.00     0.055 A 
ATOM     88  C   UNL A   1      51.833  25.845  27.255  1.00  0.00     0.041 A 
ATOM     89  F   UNL A   1      50.144  25.774  28.875  1.00  0.00    -0.206 F 
ATOM     90  C   UNL A   1      52.273  26.204  25.984  1.00  0.00     0.022 A 
BRANCH  87  91
ATOM     91  S   UNL A   1      51.911  27.280  23.438  1.00  0.00     0.124 S 
ATOM     92  O   UNL A   1      51.894  28.739  23.430  1.00  0.00    -0.237 OA
ATOM     93  O   UNL A   1      53.226  26.651  23.365  1.00  0.00    -0.237 OA
ATOM     94  O   UNL A   1      50.869  26.639  22.639  1.00  0.00    -0.744 OA
ENDBRANCH  87  91
ENDBRANCH  60  84
BRANCH  72  95
ATOM     95  C   UNL A   1      46.397  32.764  28.792  1.00  0.00     0.023 A 
ATOM     96  C   UNL A   1      46.323  33.776  27.820  1.00  0.00     0.031 A 
ATOM     97  C   UNL A   1      46.911  33.096  30.059  1.00  0.00     0.131 A 
ATOM     98  C   UNL A   1      46.788  35.066  28.123  1.00  0.00     0.055 A 
ATOM     99  C   UNL A   1      47.325  34.391  30.370  1.00  0.00     0.041 A 
ATOM    100  F   UNL A   1      47.003  32.165  31.023  1.00  0.00    -0.206 F 
ATOM    101  C   UNL A   1      47.271  35.383  29.396  1.00  0.00     0.022 A 
BRANCH  98 102
ATOM    102  S   UNL A   1      46.800  36.321  26.813  1.00  0.00     0.124 S 
ATOM    103  O   UNL A   1      47.410  35.597  25.703  1.00  0.00    -0.237 OA
ATOM    104  O   UNL A   1      45.382  36.635  26.667  1.00  0.00    -0.237 OA
ATOM    105  O   UNL A   1      47.615  37.397  27.375  1.00  0.00    -0.744 OA
ENDBRANCH  98 102
ENDBRANCH  72  95
ENDBRANCH  46  47
ENDBRANCH  39  41
ENDBRANCH  38  39
ENDBRANCH  37  38
ENDBRANCH  36  37
ENDBRANCH   1  36
TORSDOF 22
ENDMDL
MODEL 3
REMARK VINA RESULT:     -11.0      2.939      5.984
REMARK SMILES Cc1nnc(SCC2=C(C(=O)OCCOCCOC(=O)c3ccc(-c4c5nc(c(-c6cc(S(=O)(=O)[O-])ccc6F)c6ccc([nH]6)c(-c6cc(S(=O)(=O)[O-])ccc6F)c6nc(c(-c7cc(S(=O)(=O)[O-])ccc7F)c7ccc4[nH]7)C=C6)C=C5)cc3)N3C(=O)[C@H](NC(=O)c4ccc(F)cc4F)[C@H]3SC2)s1
REMARK SMILES IDX 15 1 14 2 13 3 12 4 10 5 11 6 9 7 8 8 101 9 84 10 100 11
REMARK SMILES IDX 85 12 99 13 86 14 87 15 7 16 6 17 5 18 1 19 2 20 3 21 102 22
REMARK SMILES IDX 4 23 88 24 89 25 90 27 91 28 92 29 97 30 93 31 96 32 98 33
REMARK SMILES IDX 94 34 95 35 16 36 17 37 18 38 19 39 20 40 21 41 22 42 83 43
REMARK SMILES IDX 23 44 82 45 24 46 25 47 26 48 76 49 27 50 81 51 75 52 77 53
REMARK SMILES IDX 28 54 80 55 74 56 73 57 29 59 61 60 41 61 60 62 42 63 45 64
REMARK SMILES IDX 59 65 78 66 43 67 44 68 58 70 79 71 46 72 30 73 31 74 39 75
REMARK SMILES IDX 32 76 38 77 40 78 37 79 33 80 34 81 35 82 36 83 62 84 63 85
REMARK SMILES IDX 71 86 64 87 70 88 72 89 69 90 65 91 66 92 67 93 68 94 47 95
REMARK SMILES IDX 48 96 56 97 49 98 55 99 57 100 54 101 50 102 51 103 52 104
REMARK SMILES IDX 53 105
REMARK H PARENT 88 26 77 58 45 69
REMARK Flexibility Score: inf
ROOT
ATOM      1  O   UNL A   1      37.797  21.793  25.168  1.00  0.00    -0.374 OA
ENDROOT
BRANCH   1   2
ATOM      2  C   UNL A   1      36.628  22.570  24.900  1.00  0.00     0.202 C 
BRANCH   2   3
ATOM      3  C   UNL A   1      36.196  22.695  23.440  1.00  0.00     0.261 C 
BRANCH   3   4
ATOM      4  O   UNL A   1      35.217  23.737  23.306  1.00  0.00    -0.459 OA
BRANCH   4   5
ATOM      5  C   UNL A   1      34.019  23.332  22.827  1.00  0.00     0.355 C 
ATOM      6  O   UNL A   1      33.780  22.984  21.677  1.00  0.00    -0.244 OA
BRANCH   5   7
ATOM      7  C   UNL A   1      32.996  23.207  23.921  1.00  0.00     0.132 C 
ATOM      8  C   UNL A   1      32.716  22.107  24.672  1.00  0.00    -0.019 C 
ATOM      9  C   UNL A   1      31.680  22.107  25.806  1.00  0.00     0.106 C 
ATOM     10  N   UNL A   1      32.390  24.382  24.235  1.00  0.00    -0.289 N 
ATOM     11  S   UNL A   1      30.686  23.627  26.013  1.00  0.00    -0.129 SA
ATOM     12  C   UNL A   1      32.120  25.573  23.682  1.00  0.00     0.253 C 
ATOM     13  C   UNL A   1      32.067  24.715  25.589  1.00  0.00     0.181 C 
ATOM     14  O   UNL A   1      32.155  25.997  22.545  1.00  0.00    -0.272 OA
ATOM     15  C   UNL A   1      31.718  26.149  25.093  1.00  0.00     0.206 C 
BRANCH   8  16
ATOM     16  C   UNL A   1      33.342  20.734  24.472  1.00  0.00     0.111 C 
BRANCH  16  17
ATOM     17  S   UNL A   1      32.565  19.805  23.110  1.00  0.00    -0.089 SA
BRANCH  17  18
ATOM     18  C   UNL A   1      32.852  18.161  23.620  1.00  0.00     0.174 A 
ATOM     19  C   UNL A   1      33.182  14.865  25.546  1.00  0.00     0.081 C 
ATOM     20  C   UNL A   1      33.128  16.045  24.651  1.00  0.00     0.115 A 
ATOM     21  N   UNL A   1      33.597  16.062  23.423  1.00  0.00    -0.143 NA
ATOM     22  S   UNL A   1      32.447  17.541  25.163  1.00  0.00    -0.091 S 
ATOM     23  N   UNL A   1      33.443  17.293  22.836  1.00  0.00    -0.132 NA
ENDBRANCH  17  18
ENDBRANCH  16  17
ENDBRANCH   8  16
BRANCH  15  24
ATOM     24  N   UNL A   1      32.588  27.310  25.459  1.00  0.00    -0.338 N 
ATOM     25  C   UNL A   1      32.672  28.585  24.961  1.00  0.00     0.254 C 
ATOM     26  H   UNL A   1      33.217  27.125  26.193  1.00  0.00     0.164 HD
ATOM     27  O   UNL A   1      33.588  29.333  25.286  1.00  0.00    -0.269 OA
BRANCH  25  28
ATOM     28  C   UNL A   1      31.686  29.066  23.993  1.00  0.00     0.075 A 
ATOM     29  C   UNL A   1      30.390  29.368  24.417  1.00  0.00     0.020 A 
ATOM     30  C   UNL A   1      32.015  29.134  22.640  1.00  0.00     0.138 A 
ATOM     31  C   UNL A   1      29.462  29.830  23.484  1.00  0.00     0.040 A 
ATOM     32  C   UNL A   1      31.110  29.635  21.716  1.00  0.00     0.079 A 
ATOM     33  F   UNL A   1      33.229  28.757  22.213  1.00  0.00    -0.206 F 
ATOM     34  C   UNL A   1      29.838  29.985  22.150  1.00  0.00     0.126 A 
ATOM     35  F   UNL A   1      28.953  30.468  21.270  1.00  0.00    -0.207 F 
ENDBRANCH  25  28
ENDBRANCH  15  24
ENDBRANCH   5   7
ENDBRANCH   4   5
ENDBRANCH   3   4
ENDBRANCH   2   3
ENDBRANCH   1   2
BRANCH   1  36
ATOM     36  C   UNL A   1      37.790  20.414  24.812  1.00  0.00     0.202 C 
BRANCH  36  37
ATOM     37  C   UNL A   1      38.860  19.511  25.438  1.00  0.00     0.261 C 
BRANCH  37  38
ATOM     38  O   UNL A   1      39.616  20.136  26.487  1.00  0.00    -0.460 OA
BRANCH  38  39
ATOM     39  C   UNL A   1      40.961  20.004  26.350  1.00  0.00     0.338 C 
ATOM     40  O   UNL A   1      41.570  19.019  25.971  1.00  0.00    -0.246 OA
BRANCH  39  41
ATOM     41  C   UNL A   1      41.615  21.302  26.591  1.00  0.00     0.060 A 
ATOM     42  C   UNL A   1      41.743  21.743  27.915  1.00  0.00     0.016 A 
ATOM     43  C   UNL A   1      42.007  22.116  25.527  1.00  0.00     0.016 A 
ATOM     44  C   UNL A   1      42.233  23.020  28.181  1.00  0.00     0.010 A 
ATOM     45  C   UNL A   1      42.483  23.401  25.795  1.00  0.00     0.010 A 
ATOM     46  C   UNL A   1      42.568  23.870  27.121  1.00  0.00    -0.014 A 
BRANCH  46  47
ATOM     47  C   UNL A   1      42.840  25.307  27.364  1.00  0.00     0.031 A 
ATOM     48  C   UNL A   1      44.239  25.816  27.146  1.00  0.00     0.074 A 
ATOM     49  C   UNL A   1      41.871  26.135  27.789  1.00  0.00     0.049 A 
ATOM     50  N   UNL A   1      44.760  26.972  27.456  1.00  0.00    -0.248 NA
ATOM     51  C   UNL A   1      45.174  24.882  26.498  1.00  0.00     0.031 C 
ATOM     52  C   UNL A   1      40.465  25.772  27.959  1.00  0.00     0.029 A 
ATOM     53  N   UNL A   1      41.929  27.451  28.175  1.00  0.00    -0.354 N 
ATOM     54  C   UNL A   1      46.091  26.905  27.055  1.00  0.00     0.074 A 
ATOM     55  C   UNL A   1      46.298  25.582  26.505  1.00  0.00     0.031 C 
ATOM     56  C   UNL A   1      39.797  26.835  28.441  1.00  0.00     0.029 A 
ATOM     57  C   UNL A   1      40.737  27.933  28.664  1.00  0.00     0.049 A 
ATOM     58  H   UNL A   1      42.745  27.997  28.108  1.00  0.00     0.167 HD
ATOM     59  C   UNL A   1      47.047  27.862  27.137  1.00  0.00     0.034 A 
ATOM     60  C   UNL A   1      40.452  29.108  29.261  1.00  0.00     0.034 A 
ATOM     61  C   UNL A   1      46.820  29.169  27.702  1.00  0.00     0.049 A 
ATOM     62  C   UNL A   1      41.559  30.122  29.446  1.00  0.00     0.074 A 
ATOM     63  C   UNL A   1      47.717  30.212  27.855  1.00  0.00     0.029 A 
ATOM     64  N   UNL A   1      45.607  29.610  28.215  1.00  0.00    -0.354 N 
ATOM     65  N   UNL A   1      42.823  30.037  29.098  1.00  0.00    -0.248 NA
ATOM     66  C   UNL A   1      41.204  31.387  30.104  1.00  0.00     0.031 C 
ATOM     67  C   UNL A   1      47.065  31.257  28.518  1.00  0.00     0.029 A 
ATOM     68  C   UNL A   1      45.739  30.899  28.705  1.00  0.00     0.049 A 
ATOM     69  H   UNL A   1      44.775  29.084  28.228  1.00  0.00     0.167 HD
ATOM     70  C   UNL A   1      43.398  31.257  29.449  1.00  0.00     0.074 A 
ATOM     71  C   UNL A   1      42.347  32.055  30.045  1.00  0.00     0.031 C 
ATOM     72  C   UNL A   1      44.674  31.685  29.281  1.00  0.00     0.034 A 
BRANCH  59  73
ATOM     73  C   UNL A   1      48.432  27.502  26.659  1.00  0.00     0.023 A 
ATOM     74  C   UNL A   1      49.449  27.126  27.553  1.00  0.00     0.031 A 
ATOM     75  C   UNL A   1      48.749  27.567  25.290  1.00  0.00     0.131 A 
ATOM     76  C   UNL A   1      50.749  26.895  27.077  1.00  0.00     0.055 A 
ATOM     77  C   UNL A   1      50.024  27.258  24.814  1.00  0.00     0.041 A 
ATOM     78  F   UNL A   1      47.826  27.945  24.392  1.00  0.00    -0.206 F 
ATOM     79  C   UNL A   1      51.037  26.933  25.711  1.00  0.00     0.022 A 
BRANCH  76  80
ATOM     80  S   UNL A   1      52.087  26.681  28.282  1.00  0.00     0.124 S 
ATOM     81  O   UNL A   1      51.407  25.956  29.352  1.00  0.00    -0.237 OA
ATOM     82  O   UNL A   1      53.076  25.924  27.524  1.00  0.00    -0.237 OA
ATOM     83  O   UNL A   1      52.470  28.052  28.615  1.00  0.00    -0.744 OA
ENDBRANCH  76  80
ENDBRANCH  59  73
BRANCH  60  84
ATOM     84  C   UNL A   1      39.080  29.382  29.778  1.00  0.00     0.023 A 
ATOM     85  C   UNL A   1      38.188  30.198  29.066  1.00  0.00     0.031 A 
ATOM     86  C   UNL A   1      38.662  28.881  31.025  1.00  0.00     0.131 A 
ATOM     87  C   UNL A   1      36.944  30.531  29.626  1.00  0.00     0.055 A 
ATOM     88  C   UNL A   1      37.401  29.168  31.551  1.00  0.00     0.041 A 
ATOM     89  F   UNL A   1      39.475  28.098  31.751  1.00  0.00    -0.206 F 
ATOM     90  C   UNL A   1      36.539  30.011  30.856  1.00  0.00     0.022 A 
BRANCH  87  91
ATOM     91  S   UNL A   1      35.899  31.736  28.762  1.00  0.00     0.124 S 
ATOM     92  O   UNL A   1      35.513  30.990  27.569  1.00  0.00    -0.237 OA
ATOM     93  O   UNL A   1      34.844  31.976  29.741  1.00  0.00    -0.237 OA
ATOM     94  O   UNL A   1      36.801  32.862  28.531  1.00  0.00    -0.744 OA
ENDBRANCH  87  91
ENDBRANCH  60  84
BRANCH  72  95
ATOM     95  C   UNL A   1      44.988  33.110  29.662  1.00  0.00     0.023 A 
ATOM     96  C   UNL A   1      45.452  33.460  30.941  1.00  0.00     0.031 A 
ATOM     97  C   UNL A   1      44.852  34.130  28.702  1.00  0.00     0.131 A 
ATOM     98  C   UNL A   1      45.734  34.804  31.235  1.00  0.00     0.055 A 
ATOM     99  C   UNL A   1      45.183  35.455  28.984  1.00  0.00     0.041 A 
ATOM    100  F   UNL A   1      44.413  33.848  27.464  1.00  0.00    -0.206 F 
ATOM    101  C   UNL A   1      45.620  35.799  30.260  1.00  0.00     0.022 A 
BRANCH  98 102
ATOM    102  S   UNL A   1      46.210  35.247  32.928  1.00  0.00     0.124 S 
ATOM    103  O   UNL A   1      45.757  36.631  33.019  1.00  0.00    -0.237 OA
ATOM    104  O   UNL A   1      45.466  34.279  33.727  1.00  0.00    -0.237 OA
ATOM    105  O   UNL A   1      47.662  35.068  32.935  1.00  0.00    -0.744 OA
ENDBRANCH  98 102
ENDBRANCH  72  95
ENDBRANCH  46  47
ENDBRANCH  39  41
ENDBRANCH  38  39
ENDBRANCH  37  38
ENDBRANCH  36  37
ENDBRANCH   1  36
TORSDOF 22
ENDMDL
