MODEL 1
REMARK VINA RESULT:     -11.3      0.000      0.000
REMARK SMILES CC(C)(CC(=O)OCCOCCOC(=O)c1ccc(-c2c3nc(c(-c4cc(S(=O)(=O)[O-])ccc4F)c4ccc([nH]4)c(-c4cc(S(=O)(=O)[O-])ccc4F)c4nc(c(-c5cc(S(=O)(=O)[O-])ccc5F)c5ccc2[nH]5)C=C4)C=C3)cc1)CC(=O)N1CCN(c2nc3ccc(Cl)cc3s2)CC1
REMARK SMILES IDX 9 1 8 2 7 3 5 4 6 5 4 6 2 7 1 8 3 9 79 10 80 11 81 12 82 13
REMARK SMILES IDX 83 14 97 15 84 16 96 17 85 18 86 19 87 20 95 21 88 22 94 23
REMARK SMILES IDX 89 24 93 25 90 26 91 27 92 28 10 29 11 30 12 31 13 32 14 33
REMARK SMILES IDX 15 34 16 35 17 36 78 37 18 38 77 39 19 40 20 41 21 42 71 43
REMARK SMILES IDX 22 44 76 45 70 46 72 47 23 48 75 49 69 50 68 51 24 53 56 54
REMARK SMILES IDX 36 55 55 56 37 57 40 58 54 59 73 60 38 61 39 62 53 64 74 65
REMARK SMILES IDX 41 66 25 67 26 68 34 69 27 70 33 71 35 72 32 73 28 74 29 75
REMARK SMILES IDX 30 76 31 77 57 78 58 79 66 80 59 81 65 82 67 83 64 84 60 85
REMARK SMILES IDX 61 86 62 87 63 88 42 89 43 90 51 91 44 92 50 93 52 94 49 95
REMARK SMILES IDX 45 96 46 97 47 98 48 99
REMARK H PARENT 72 52 40 63
REMARK Flexibility Score: inf
ROOT
ATOM      1  C   UNL A   1      38.126  21.208  25.407  1.00  0.00     0.202 C 
ENDROOT
BRANCH   1   2
ATOM      2  C   UNL A   1      37.146  21.954  24.434  1.00  0.00     0.261 C 
BRANCH   2   3
ATOM      3  O   UNL A   1      36.220  22.911  24.969  1.00  0.00    -0.463 OA
BRANCH   3   4
ATOM      4  C   UNL A   1      35.075  22.429  25.484  1.00  0.00     0.306 C 
ATOM      5  O   UNL A   1      34.604  22.784  26.563  1.00  0.00    -0.252 OA
BRANCH   4   6
ATOM      6  C   UNL A   1      34.308  21.458  24.603  1.00  0.00     0.129 C 
BRANCH   6   7
ATOM      7  C   UNL A   1      32.818  21.532  24.148  1.00  0.00    -0.016 C 
ATOM      8  C   UNL A   1      32.533  20.464  23.079  1.00  0.00     0.012 C 
ATOM      9  C   UNL A   1      31.972  21.153  25.407  1.00  0.00     0.012 C 
BRANCH   7  10
ATOM     10  C   UNL A   1      32.227  22.865  23.669  1.00  0.00     0.107 C 
BRANCH  10  11
ATOM     11  C   UNL A   1      33.165  23.899  23.087  1.00  0.00     0.223 C 
ATOM     12  O   UNL A   1      33.966  23.640  22.197  1.00  0.00    -0.275 OA
ATOM     13  N   UNL A   1      32.965  25.172  23.590  1.00  0.00    -0.339 N 
ATOM     14  C   UNL A   1      33.472  26.723  22.614  1.00  0.00     0.141 C 
ATOM     15  C   UNL A   1      32.367  25.338  25.352  1.00  0.00     0.141 C 
ATOM     16  C   UNL A   1      33.209  28.458  23.459  1.00  0.00     0.140 C 
ATOM     17  C   UNL A   1      32.025  27.089  26.052  1.00  0.00     0.140 C 
ATOM     18  N   UNL A   1      32.470  28.583  25.131  1.00  0.00    -0.345 N 
BRANCH  18  19
ATOM     19  C   UNL A   1      33.254  29.351  25.962  1.00  0.00     0.186 A 
ATOM     20  N   UNL A   1      34.428  28.948  26.386  1.00  0.00    -0.220 NA
ATOM     21  S   UNL A   1      32.719  30.823  26.676  1.00  0.00    -0.097 S 
ATOM     22  C   UNL A   1      34.949  29.788  27.331  1.00  0.00     0.084 A 
ATOM     23  C   UNL A   1      34.151  30.882  27.652  1.00  0.00     0.058 A 
ATOM     24  C   UNL A   1      36.182  29.603  27.987  1.00  0.00     0.031 A 
ATOM     25  C   UNL A   1      34.546  31.808  28.633  1.00  0.00     0.042 A 
ATOM     26  C   UNL A   1      36.587  30.514  28.963  1.00  0.00     0.023 A 
ATOM     27  C   UNL A   1      35.773  31.596  29.278  1.00  0.00     0.042 A 
ATOM     28  Cl  UNL A   1      36.283  32.699  30.501  1.00  0.00    -0.084 Cl
ENDBRANCH  18  19
ENDBRANCH  10  11
ENDBRANCH   7  10
ENDBRANCH   6   7
ENDBRANCH   4   6
ENDBRANCH   3   4
ENDBRANCH   2   3
ENDBRANCH   1   2
BRANCH   1  29
ATOM     29  O   UNL A   1      39.226  21.809  26.334  1.00  0.00    -0.374 OA
BRANCH  29  30
ATOM     30  C   UNL A   1      40.915  22.695  26.526  1.00  0.00     0.202 C 
BRANCH  30  31
ATOM     31  C   UNL A   1      41.441  24.363  26.649  1.00  0.00     0.261 C 
BRANCH  31  32
ATOM     32  O   UNL A   1      40.552  25.543  26.632  1.00  0.00    -0.460 OA
BRANCH  32  33
ATOM     33  C   UNL A   1      39.957  25.979  27.791  1.00  0.00     0.338 C 
ATOM     34  O   UNL A   1      39.254  25.263  28.497  1.00  0.00    -0.246 OA
BRANCH  33  35
ATOM     35  C   UNL A   1      40.479  27.306  28.298  1.00  0.00     0.060 A 
ATOM     36  C   UNL A   1      41.417  27.303  29.350  1.00  0.00     0.016 A 
ATOM     37  C   UNL A   1      40.046  28.549  27.827  1.00  0.00     0.016 A 
ATOM     38  C   UNL A   1      41.895  28.504  29.930  1.00  0.00     0.010 A 
ATOM     39  C   UNL A   1      40.526  29.754  28.414  1.00  0.00     0.010 A 
ATOM     40  C   UNL A   1      41.435  29.756  29.497  1.00  0.00    -0.014 A 
BRANCH  40  41
ATOM     41  C   UNL A   1      41.724  31.012  30.298  1.00  0.00     0.031 A 
ATOM     42  C   UNL A   1      43.009  31.772  30.022  1.00  0.00     0.074 A 
ATOM     43  C   UNL A   1      40.894  31.545  31.227  1.00  0.00     0.049 A 
ATOM     44  N   UNL A   1      43.479  32.866  30.577  1.00  0.00    -0.248 NA
ATOM     45  C   UNL A   1      43.878  31.214  28.976  1.00  0.00     0.031 C 
ATOM     46  C   UNL A   1      39.597  31.008  31.626  1.00  0.00     0.029 A 
ATOM     47  N   UNL A   1      41.034  32.677  32.017  1.00  0.00    -0.354 N 
ATOM     48  C   UNL A   1      44.696  33.126  29.950  1.00  0.00     0.074 A 
ATOM     49  C   UNL A   1      44.908  32.043  29.009  1.00  0.00     0.031 C 
ATOM     50  C   UNL A   1      39.067  31.799  32.581  1.00  0.00     0.029 A 
ATOM     51  C   UNL A   1      39.990  32.896  32.892  1.00  0.00     0.049 A 
ATOM     52  H   UNL A   1      41.814  33.275  31.957  1.00  0.00     0.167 HD
ATOM     53  C   UNL A   1      45.555  34.166  30.109  1.00  0.00     0.034 A 
ATOM     54  C   UNL A   1      39.792  33.844  33.842  1.00  0.00     0.034 A 
ATOM     55  C   UNL A   1      45.385  35.263  31.031  1.00  0.00     0.049 A 
ATOM     56  C   UNL A   1      40.819  34.938  34.084  1.00  0.00     0.074 A 
ATOM     57  C   UNL A   1      46.206  36.367  31.211  1.00  0.00     0.029 A 
ATOM     58  N   UNL A   1      44.347  35.399  31.939  1.00  0.00    -0.354 N 
ATOM     59  N   UNL A   1      41.947  35.175  33.458  1.00  0.00    -0.248 NA
ATOM     60  C   UNL A   1      40.537  35.899  35.168  1.00  0.00     0.031 C 
ATOM     61  C   UNL A   1      45.708  37.127  32.274  1.00  0.00     0.029 A 
ATOM     62  C   UNL A   1      44.529  36.544  32.705  1.00  0.00     0.049 A 
ATOM     63  H   UNL A   1      43.590  34.775  32.027  1.00  0.00     0.167 HD
ATOM     64  C   UNL A   1      42.476  36.330  34.043  1.00  0.00     0.074 A 
ATOM     65  C   UNL A   1      41.551  36.746  35.069  1.00  0.00     0.031 C 
ATOM     66  C   UNL A   1      43.624  36.987  33.739  1.00  0.00     0.034 A 
BRANCH  53  67
ATOM     67  C   UNL A   1      46.809  34.147  29.268  1.00  0.00     0.023 A 
ATOM     68  C   UNL A   1      46.860  34.778  28.014  1.00  0.00     0.031 A 
ATOM     69  C   UNL A   1      47.960  33.481  29.723  1.00  0.00     0.131 A 
ATOM     70  C   UNL A   1      48.013  34.665  27.225  1.00  0.00     0.055 A 
ATOM     71  C   UNL A   1      49.131  33.440  28.967  1.00  0.00     0.041 A 
ATOM     72  F   UNL A   1      47.960  32.850  30.908  1.00  0.00    -0.206 F 
ATOM     73  C   UNL A   1      49.158  34.021  27.702  1.00  0.00     0.022 A 
BRANCH  70  74
ATOM     74  S   UNL A   1      47.947  35.247  25.508  1.00  0.00     0.124 S 
ATOM     75  O   UNL A   1      46.754  34.566  25.011  1.00  0.00    -0.237 OA
ATOM     76  O   UNL A   1      47.838  36.692  25.669  1.00  0.00    -0.237 OA
ATOM     77  O   UNL A   1      49.207  34.775  24.938  1.00  0.00    -0.744 OA
ENDBRANCH  70  74
ENDBRANCH  53  67
BRANCH  54  78
ATOM     78  C   UNL A   1      38.579  33.809  34.722  1.00  0.00     0.023 A 
ATOM     79  C   UNL A   1      38.596  33.159  35.971  1.00  0.00     0.031 A 
ATOM     80  C   UNL A   1      37.347  34.303  34.258  1.00  0.00     0.131 A 
ATOM     81  C   UNL A   1      37.397  32.973  36.682  1.00  0.00     0.055 A 
ATOM     82  C   UNL A   1      36.169  34.165  34.995  1.00  0.00     0.041 A 
ATOM     83  F   UNL A   1      37.267  34.911  33.064  1.00  0.00    -0.206 F 
ATOM     84  C   UNL A   1      36.187  33.483  36.208  1.00  0.00     0.022 A 
BRANCH  81  85
ATOM     85  S   UNL A   1      37.419  31.958  38.189  1.00  0.00     0.124 S 
ATOM     86  O   UNL A   1      36.188  32.380  38.849  1.00  0.00    -0.237 OA
ATOM     87  O   UNL A   1      37.425  30.605  37.645  1.00  0.00    -0.237 OA
ATOM     88  O   UNL A   1      38.655  32.365  38.855  1.00  0.00    -0.744 OA
ENDBRANCH  81  85
ENDBRANCH  54  78
BRANCH  66  89
ATOM     89  C   UNL A   1      43.930  38.277  34.473  1.00  0.00     0.023 A 
ATOM     90  C   UNL A   1      43.422  39.523  34.057  1.00  0.00     0.031 A 
ATOM     91  C   UNL A   1      44.739  38.256  35.625  1.00  0.00     0.131 A 
ATOM     92  C   UNL A   1      43.761  40.693  34.760  1.00  0.00     0.055 A 
ATOM     93  C   UNL A   1      45.033  39.415  36.349  1.00  0.00     0.041 A 
ATOM     94  F   UNL A   1      45.256  37.101  36.075  1.00  0.00    -0.206 F 
ATOM     95  C   UNL A   1      44.551  40.644  35.911  1.00  0.00     0.022 A 
BRANCH  92  96
ATOM     96  S   UNL A   1      43.211  42.301  34.117  1.00  0.00     0.124 S 
ATOM     97  O   UNL A   1      44.470  42.908  33.694  1.00  0.00    -0.237 OA
ATOM     98  O   UNL A   1      42.297  41.915  33.047  1.00  0.00    -0.237 OA
ATOM     99  O   UNL A   1      42.576  42.936  35.272  1.00  0.00    -0.744 OA
ENDBRANCH  92  96
ENDBRANCH  66  89
ENDBRANCH  40  41
ENDBRANCH  33  35
ENDBRANCH  32  33
ENDBRANCH  31  32
ENDBRANCH  30  31
ENDBRANCH  29  30
ENDBRANCH   1  29
TORSDOF 21
ENDMDL
MODEL 2
REMARK VINA RESULT:     -11.1      2.013      2.490
REMARK SMILES CC(C)(CC(=O)OCCOCCOC(=O)c1ccc(-c2c3nc(c(-c4cc(S(=O)(=O)[O-])ccc4F)c4ccc([nH]4)c(-c4cc(S(=O)(=O)[O-])ccc4F)c4nc(c(-c5cc(S(=O)(=O)[O-])ccc5F)c5ccc2[nH]5)C=C4)C=C3)cc1)CC(=O)N1CCN(c2nc3ccc(Cl)cc3s2)CC1
REMARK SMILES IDX 9 1 8 2 7 3 5 4 6 5 4 6 2 7 1 8 3 9 79 10 80 11 81 12 82 13
REMARK SMILES IDX 83 14 97 15 84 16 96 17 85 18 86 19 87 20 95 21 88 22 94 23
REMARK SMILES IDX 89 24 93 25 90 26 91 27 92 28 10 29 11 30 12 31 13 32 14 33
REMARK SMILES IDX 15 34 16 35 17 36 78 37 18 38 77 39 19 40 20 41 21 42 71 43
REMARK SMILES IDX 22 44 76 45 70 46 72 47 23 48 75 49 69 50 68 51 24 53 56 54
REMARK SMILES IDX 36 55 55 56 37 57 40 58 54 59 73 60 38 61 39 62 53 64 74 65
REMARK SMILES IDX 41 66 25 67 26 68 34 69 27 70 33 71 35 72 32 73 28 74 29 75
REMARK SMILES IDX 30 76 31 77 57 78 58 79 66 80 59 81 65 82 67 83 64 84 60 85
REMARK SMILES IDX 61 86 62 87 63 88 42 89 43 90 51 91 44 92 50 93 52 94 49 95
REMARK SMILES IDX 45 96 46 97 47 98 48 99
REMARK H PARENT 72 52 40 63
REMARK Flexibility Score: inf
ROOT
ATOM      1  C   UNL A   1      37.782  21.209  25.005  1.00  0.00     0.202 C 
ENDROOT
BRANCH   1   2
ATOM      2  C   UNL A   1      36.294  20.719  25.090  1.00  0.00     0.261 C 
BRANCH   2   3
ATOM      3  O   UNL A   1      35.360  21.450  25.900  1.00  0.00    -0.463 OA
BRANCH   3   4
ATOM      4  C   UNL A   1      34.774  22.521  25.337  1.00  0.00     0.306 C 
ATOM      5  O   UNL A   1      34.860  23.665  25.782  1.00  0.00    -0.252 OA
BRANCH   4   6
ATOM      6  C   UNL A   1      34.048  22.270  24.026  1.00  0.00     0.129 C 
BRANCH   6   7
ATOM      7  C   UNL A   1      32.519  22.357  23.733  1.00  0.00    -0.016 C 
ATOM      8  C   UNL A   1      32.145  21.424  22.569  1.00  0.00     0.012 C 
ATOM      9  C   UNL A   1      31.812  21.798  25.010  1.00  0.00     0.012 C 
BRANCH   7  10
ATOM     10  C   UNL A   1      31.860  23.723  23.489  1.00  0.00     0.107 C 
BRANCH  10  11
ATOM     11  C   UNL A   1      32.718  24.849  22.955  1.00  0.00     0.223 C 
ATOM     12  O   UNL A   1      33.378  24.748  21.929  1.00  0.00    -0.275 OA
ATOM     13  N   UNL A   1      32.608  26.019  23.683  1.00  0.00    -0.339 N 
ATOM     14  C   UNL A   1      32.989  27.715  22.912  1.00  0.00     0.141 C 
ATOM     15  C   UNL A   1      32.273  25.887  25.517  1.00  0.00     0.141 C 
ATOM     16  C   UNL A   1      32.872  29.284  24.059  1.00  0.00     0.140 C 
ATOM     17  C   UNL A   1      32.058  27.495  26.537  1.00  0.00     0.140 C 
ATOM     18  N   UNL A   1      32.384  29.125  25.818  1.00  0.00    -0.345 N 
BRANCH  18  19
ATOM     19  C   UNL A   1      33.289  29.755  26.642  1.00  0.00     0.186 A 
ATOM     20  N   UNL A   1      33.087  30.965  27.106  1.00  0.00    -0.220 NA
ATOM     21  S   UNL A   1      34.846  29.117  27.006  1.00  0.00    -0.097 S 
ATOM     22  C   UNL A   1      34.187  31.456  27.756  1.00  0.00     0.084 A 
ATOM     23  C   UNL A   1      35.280  30.596  27.797  1.00  0.00     0.058 A 
ATOM     24  C   UNL A   1      34.278  32.736  28.338  1.00  0.00     0.031 A 
ATOM     25  C   UNL A   1      36.488  30.984  28.402  1.00  0.00     0.042 A 
ATOM     26  C   UNL A   1      35.471  33.134  28.942  1.00  0.00     0.023 A 
ATOM     27  C   UNL A   1      36.557  32.267  28.966  1.00  0.00     0.042 A 
ATOM     28  Cl  UNL A   1      38.028  32.787  29.699  1.00  0.00    -0.084 Cl
ENDBRANCH  18  19
ENDBRANCH  10  11
ENDBRANCH   7  10
ENDBRANCH   6   7
ENDBRANCH   4   6
ENDBRANCH   3   4
ENDBRANCH   2   3
ENDBRANCH   1   2
BRANCH   1  29
ATOM     29  O   UNL A   1      38.566  22.128  25.992  1.00  0.00    -0.374 OA
BRANCH  29  30
ATOM     30  C   UNL A   1      38.746  23.819  26.876  1.00  0.00     0.202 C 
BRANCH  30  31
ATOM     31  C   UNL A   1      40.059  24.687  27.649  1.00  0.00     0.261 C 
BRANCH  31  32
ATOM     32  O   UNL A   1      41.447  24.763  27.145  1.00  0.00    -0.460 OA
BRANCH  32  33
ATOM     33  C   UNL A   1      41.793  25.705  26.207  1.00  0.00     0.338 C 
ATOM     34  O   UNL A   1      41.565  25.577  25.008  1.00  0.00    -0.246 OA
BRANCH  33  35
ATOM     35  C   UNL A   1      42.193  27.045  26.788  1.00  0.00     0.060 A 
ATOM     36  C   UNL A   1      42.959  27.065  27.971  1.00  0.00     0.016 A 
ATOM     37  C   UNL A   1      41.801  28.276  26.255  1.00  0.00     0.016 A 
ATOM     38  C   UNL A   1      43.307  28.276  28.617  1.00  0.00     0.010 A 
ATOM     39  C   UNL A   1      42.150  29.493  26.909  1.00  0.00     0.010 A 
ATOM     40  C   UNL A   1      42.882  29.516  28.118  1.00  0.00    -0.014 A 
BRANCH  40  41
ATOM     41  C   UNL A   1      43.008  30.776  28.954  1.00  0.00     0.031 A 
ATOM     42  C   UNL A   1      44.098  31.775  28.605  1.00  0.00     0.074 A 
ATOM     43  C   UNL A   1      42.186  31.112  29.977  1.00  0.00     0.049 A 
ATOM     44  N   UNL A   1      44.408  32.919  29.172  1.00  0.00    -0.248 NA
ATOM     45  C   UNL A   1      44.951  31.427  27.461  1.00  0.00     0.031 C 
ATOM     46  C   UNL A   1      41.055  30.326  30.461  1.00  0.00     0.029 A 
ATOM     47  N   UNL A   1      42.189  32.222  30.809  1.00  0.00    -0.354 N 
ATOM     48  C   UNL A   1      45.489  33.425  28.456  1.00  0.00     0.074 A 
ATOM     49  C   UNL A   1      45.808  32.435  27.445  1.00  0.00     0.031 C 
ATOM     50  C   UNL A   1      40.481  30.969  31.498  1.00  0.00     0.029 A 
ATOM     51  C   UNL A   1      41.210  32.210  31.782  1.00  0.00     0.049 A 
ATOM     52  H   UNL A   1      42.835  32.959  30.712  1.00  0.00     0.167 HD
ATOM     53  C   UNL A   1      46.152  34.603  28.591  1.00  0.00     0.034 A 
ATOM     54  C   UNL A   1      40.932  33.071  32.793  1.00  0.00     0.034 A 
ATOM     55  C   UNL A   1      45.870  35.617  29.580  1.00  0.00     0.049 A 
ATOM     56  C   UNL A   1      41.757  34.331  32.999  1.00  0.00     0.074 A 
ATOM     57  C   UNL A   1      46.486  36.849  29.742  1.00  0.00     0.029 A 
ATOM     58  N   UNL A   1      44.916  35.524  30.580  1.00  0.00    -0.354 N 
ATOM     59  N   UNL A   1      42.756  34.799  32.290  1.00  0.00    -0.248 NA
ATOM     60  C   UNL A   1      41.406  35.185  34.152  1.00  0.00     0.031 C 
ATOM     61  C   UNL A   1      45.959  37.466  30.882  1.00  0.00     0.029 A 
ATOM     62  C   UNL A   1      44.956  36.656  31.385  1.00  0.00     0.049 A 
ATOM     63  H   UNL A   1      44.300  34.765  30.702  1.00  0.00     0.167 HD
ATOM     64  C   UNL A   1      43.115  36.012  32.884  1.00  0.00     0.074 A 
ATOM     65  C   UNL A   1      42.231  36.211  34.007  1.00  0.00     0.031 C 
ATOM     66  C   UNL A   1      44.087  36.885  32.515  1.00  0.00     0.034 A 
BRANCH  53  67
ATOM     67  C   UNL A   1      47.301  34.850  27.644  1.00  0.00     0.023 A 
ATOM     68  C   UNL A   1      48.618  34.492  27.979  1.00  0.00     0.031 A 
ATOM     69  C   UNL A   1      47.077  35.462  26.398  1.00  0.00     0.131 A 
ATOM     70  C   UNL A   1      49.670  34.816  27.112  1.00  0.00     0.055 A 
ATOM     71  C   UNL A   1      48.119  35.710  25.505  1.00  0.00     0.041 A 
ATOM     72  F   UNL A   1      45.841  35.837  26.034  1.00  0.00    -0.206 F 
ATOM     73  C   UNL A   1      49.428  35.400  25.866  1.00  0.00     0.022 A 
BRANCH  70  74
ATOM     74  S   UNL A   1      51.373  34.594  27.696  1.00  0.00     0.124 S 
ATOM     75  O   UNL A   1      51.183  34.526  29.142  1.00  0.00    -0.237 OA
ATOM     76  O   UNL A   1      51.770  33.352  27.044  1.00  0.00    -0.237 OA
ATOM     77  O   UNL A   1      52.056  35.796  27.221  1.00  0.00    -0.744 OA
ENDBRANCH  70  74
ENDBRANCH  53  67
BRANCH  54  78
ATOM     78  C   UNL A   1      39.836  32.778  33.773  1.00  0.00     0.023 A 
ATOM     79  C   UNL A   1      38.509  33.181  33.534  1.00  0.00     0.031 A 
ATOM     80  C   UNL A   1      40.134  32.217  35.028  1.00  0.00     0.131 A 
ATOM     81  C   UNL A   1      37.546  33.068  34.552  1.00  0.00     0.055 A 
ATOM     82  C   UNL A   1      39.161  32.056  36.016  1.00  0.00     0.041 A 
ATOM     83  F   UNL A   1      41.387  31.836  35.320  1.00  0.00    -0.206 F 
ATOM     84  C   UNL A   1      37.861  32.496  35.787  1.00  0.00     0.022 A 
BRANCH  81  85
ATOM     85  S   UNL A   1      35.896  33.778  34.283  1.00  0.00     0.124 S 
ATOM     86  O   UNL A   1      35.270  32.764  33.442  1.00  0.00    -0.237 OA
ATOM     87  O   UNL A   1      35.384  33.887  35.645  1.00  0.00    -0.237 OA
ATOM     88  O   UNL A   1      36.176  35.052  33.622  1.00  0.00    -0.744 OA
ENDBRANCH  81  85
ENDBRANCH  54  78
BRANCH  66  89
ATOM     89  C   UNL A   1      44.217  38.184  33.284  1.00  0.00     0.023 A 
ATOM     90  C   UNL A   1      43.499  39.344  32.935  1.00  0.00     0.031 A 
ATOM     91  C   UNL A   1      45.071  38.258  34.401  1.00  0.00     0.131 A 
ATOM     92  C   UNL A   1      43.679  40.531  33.668  1.00  0.00     0.055 A 
ATOM     93  C   UNL A   1      45.209  39.426  35.156  1.00  0.00     0.041 A 
ATOM     94  F   UNL A   1      45.785  37.188  34.786  1.00  0.00    -0.206 F 
ATOM     95  C   UNL A   1      44.518  40.575  34.784  1.00  0.00     0.022 A 
BRANCH  92  96
ATOM     96  S   UNL A   1      42.852  42.049  33.109  1.00  0.00     0.124 S 
ATOM     97  O   UNL A   1      42.445  42.659  34.371  1.00  0.00    -0.237 OA
ATOM     98  O   UNL A   1      43.915  42.736  32.382  1.00  0.00    -0.237 OA
ATOM     99  O   UNL A   1      41.754  41.558  32.277  1.00  0.00    -0.744 OA
ENDBRANCH  92  96
ENDBRANCH  66  89
ENDBRANCH  40  41
ENDBRANCH  33  35
ENDBRANCH  32  33
ENDBRANCH  31  32
ENDBRANCH  30  31
ENDBRANCH  29  30
ENDBRANCH   1  29
TORSDOF 21
ENDMDL
MODEL 3
REMARK VINA RESULT:     -11.0      6.943     11.960
REMARK SMILES CC(C)(CC(=O)OCCOCCOC(=O)c1ccc(-c2c3nc(c(-c4cc(S(=O)(=O)[O-])ccc4F)c4ccc([nH]4)c(-c4cc(S(=O)(=O)[O-])ccc4F)c4nc(c(-c5cc(S(=O)(=O)[O-])ccc5F)c5ccc2[nH]5)C=C4)C=C3)cc1)CC(=O)N1CCN(c2nc3ccc(Cl)cc3s2)CC1
REMARK SMILES IDX 9 1 8 2 7 3 5 4 6 5 4 6 2 7 1 8 3 9 79 10 80 11 81 12 82 13
REMARK SMILES IDX 83 14 97 15 84 16 96 17 85 18 86 19 87 20 95 21 88 22 94 23
REMARK SMILES IDX 89 24 93 25 90 26 91 27 92 28 10 29 11 30 12 31 13 32 14 33
REMARK SMILES IDX 15 34 16 35 17 36 78 37 18 38 77 39 19 40 20 41 21 42 71 43
REMARK SMILES IDX 22 44 76 45 70 46 72 47 23 48 75 49 69 50 68 51 24 53 56 54
REMARK SMILES IDX 36 55 55 56 37 57 40 58 54 59 73 60 38 61 39 62 53 64 74 65
REMARK SMILES IDX 41 66 25 67 26 68 34 69 27 70 33 71 35 72 32 73 28 74 29 75
REMARK SMILES IDX 30 76 31 77 57 78 58 79 66 80 59 81 65 82 67 83 64 84 60 85
REMARK SMILES IDX 61 86 62 87 63 88 42 89 43 90 51 91 44 92 50 93 52 94 49 95
REMARK SMILES IDX 45 96 46 97 47 98 48 99
REMARK H PARENT 72 52 40 63
REMARK Flexibility Score: inf
ROOT
ATOM      1  C   UNL A   1      34.046  32.644  27.989  1.00  0.00     0.202 C 
ENDROOT
BRANCH   1   2
ATOM      2  C   UNL A   1      33.294  31.314  27.635  1.00  0.00     0.261 C 
BRANCH   2   3
ATOM      3  O   UNL A   1      33.643  30.609  26.433  1.00  0.00    -0.463 OA
BRANCH   3   4
ATOM      4  C   UNL A   1      33.210  29.341  26.323  1.00  0.00     0.306 C 
ATOM      5  O   UNL A   1      33.843  28.363  26.716  1.00  0.00    -0.252 OA
BRANCH   4   6
ATOM      6  C   UNL A   1      31.812  29.163  25.755  1.00  0.00     0.129 C 
BRANCH   6   7
ATOM      7  C   UNL A   1      31.391  28.512  24.402  1.00  0.00    -0.016 C 
ATOM      8  C   UNL A   1      30.193  29.263  23.798  1.00  0.00     0.012 C 
ATOM      9  C   UNL A   1      32.600  28.731  23.435  1.00  0.00     0.012 C 
BRANCH   7  10
ATOM     10  C   UNL A   1      31.103  27.005  24.331  1.00  0.00     0.107 C 
BRANCH  10  11
ATOM     11  C   UNL A   1      31.339  26.170  25.570  1.00  0.00     0.223 C 
ATOM     12  O   UNL A   1      30.655  26.277  26.580  1.00  0.00    -0.275 OA
ATOM     13  N   UNL A   1      32.332  25.220  25.414  1.00  0.00    -0.339 N 
ATOM     14  C   UNL A   1      32.385  23.646  26.480  1.00  0.00     0.141 C 
ATOM     15  C   UNL A   1      33.753  25.612  24.266  1.00  0.00     0.141 C 
ATOM     16  C   UNL A   1      33.876  22.420  26.220  1.00  0.00     0.140 C 
ATOM     17  C   UNL A   1      35.111  24.288  23.987  1.00  0.00     0.140 C 
ATOM     18  N   UNL A   1      35.167  22.767  24.967  1.00  0.00    -0.345 N 
BRANCH  18  19
ATOM     19  C   UNL A   1      36.425  22.688  25.519  1.00  0.00     0.186 A 
ATOM     20  N   UNL A   1      36.992  23.709  26.118  1.00  0.00    -0.220 NA
ATOM     21  S   UNL A   1      37.459  21.325  25.334  1.00  0.00    -0.097 S 
ATOM     22  C   UNL A   1      38.299  23.459  26.435  1.00  0.00     0.084 A 
ATOM     23  C   UNL A   1      38.763  22.199  26.069  1.00  0.00     0.058 A 
ATOM     24  C   UNL A   1      39.169  24.373  27.061  1.00  0.00     0.031 A 
ATOM     25  C   UNL A   1      40.097  21.820  26.301  1.00  0.00     0.042 A 
ATOM     26  C   UNL A   1      40.495  24.010  27.297  1.00  0.00     0.023 A 
ATOM     27  C   UNL A   1      40.946  22.751  26.916  1.00  0.00     0.042 A 
ATOM     28  Cl  UNL A   1      42.593  22.331  27.200  1.00  0.00    -0.084 Cl
ENDBRANCH  18  19
ENDBRANCH  10  11
ENDBRANCH   7  10
ENDBRANCH   6   7
ENDBRANCH   4   6
ENDBRANCH   3   4
ENDBRANCH   2   3
ENDBRANCH   1   2
BRANCH   1  29
ATOM     29  O   UNL A   1      35.049  32.920  29.151  1.00  0.00    -0.374 OA
BRANCH  29  30
ATOM     30  C   UNL A   1      35.369  33.189  31.021  1.00  0.00     0.202 C 
BRANCH  30  31
ATOM     31  C   UNL A   1      36.593  32.670  32.164  1.00  0.00     0.261 C 
BRANCH  31  32
ATOM     32  O   UNL A   1      36.590  31.387  32.896  1.00  0.00    -0.460 OA
BRANCH  32  33
ATOM     33  C   UNL A   1      36.799  30.206  32.226  1.00  0.00     0.338 C 
ATOM     34  O   UNL A   1      36.093  29.825  31.297  1.00  0.00    -0.246 OA
BRANCH  33  35
ATOM     35  C   UNL A   1      38.139  29.560  32.504  1.00  0.00     0.060 A 
ATOM     36  C   UNL A   1      39.242  30.391  32.782  1.00  0.00     0.016 A 
ATOM     37  C   UNL A   1      38.370  28.183  32.447  1.00  0.00     0.016 A 
ATOM     38  C   UNL A   1      40.545  29.868  32.978  1.00  0.00     0.010 A 
ATOM     39  C   UNL A   1      39.680  27.659  32.641  1.00  0.00     0.010 A 
ATOM     40  C   UNL A   1      40.798  28.492  32.879  1.00  0.00    -0.014 A 
BRANCH  40  41
ATOM     41  C   UNL A   1      42.219  27.966  32.804  1.00  0.00     0.031 A 
ATOM     42  C   UNL A   1      42.967  27.700  34.099  1.00  0.00     0.074 A 
ATOM     43  C   UNL A   1      42.874  27.667  31.656  1.00  0.00     0.049 A 
ATOM     44  N   UNL A   1      44.187  27.256  34.293  1.00  0.00    -0.248 NA
ATOM     45  C   UNL A   1      42.229  27.979  35.339  1.00  0.00     0.031 C 
ATOM     46  C   UNL A   1      42.341  27.806  30.304  1.00  0.00     0.029 A 
ATOM     47  N   UNL A   1      44.157  27.180  31.451  1.00  0.00    -0.354 N 
ATOM     48  C   UNL A   1      44.365  27.202  35.674  1.00  0.00     0.074 A 
ATOM     49  C   UNL A   1      43.139  27.709  36.262  1.00  0.00     0.031 C 
ATOM     50  C   UNL A   1      43.282  27.424  29.417  1.00  0.00     0.029 A 
ATOM     51  C   UNL A   1      44.505  27.029  30.124  1.00  0.00     0.049 A 
ATOM     52  H   UNL A   1      44.768  26.960  32.191  1.00  0.00     0.167 HD
ATOM     53  C   UNL A   1      45.422  26.759  36.402  1.00  0.00     0.034 A 
ATOM     54  C   UNL A   1      45.663  26.640  29.534  1.00  0.00     0.034 A 
ATOM     55  C   UNL A   1      46.659  26.248  35.862  1.00  0.00     0.049 A 
ATOM     56  C   UNL A   1      46.877  26.255  30.365  1.00  0.00     0.074 A 
ATOM     57  C   UNL A   1      47.754  25.749  36.553  1.00  0.00     0.029 A 
ATOM     58  N   UNL A   1      46.984  26.181  34.517  1.00  0.00    -0.354 N 
ATOM     59  N   UNL A   1      47.007  26.187  31.668  1.00  0.00    -0.248 NA
ATOM     60  C   UNL A   1      48.105  25.887  29.633  1.00  0.00     0.031 C 
ATOM     61  C   UNL A   1      48.766  25.453  35.633  1.00  0.00     0.029 A 
ATOM     62  C   UNL A   1      48.274  25.688  34.361  1.00  0.00     0.049 A 
ATOM     63  H   UNL A   1      46.387  26.443  33.779  1.00  0.00     0.167 HD
ATOM     64  C   UNL A   1      48.306  25.729  31.902  1.00  0.00     0.074 A 
ATOM     65  C   UNL A   1      48.924  25.534  30.612  1.00  0.00     0.031 C 
ATOM     66  C   UNL A   1      48.921  25.483  33.087  1.00  0.00     0.034 A 
BRANCH  53  67
ATOM     67  C   UNL A   1      45.297  26.843  37.904  1.00  0.00     0.023 A 
ATOM     68  C   UNL A   1      45.655  28.006  38.607  1.00  0.00     0.031 A 
ATOM     69  C   UNL A   1      44.824  25.742  38.641  1.00  0.00     0.131 A 
ATOM     70  C   UNL A   1      45.607  28.015  40.007  1.00  0.00     0.055 A 
ATOM     71  C   UNL A   1      44.704  25.786  40.029  1.00  0.00     0.041 A 
ATOM     72  F   UNL A   1      44.481  24.602  38.021  1.00  0.00    -0.206 F 
ATOM     73  C   UNL A   1      45.111  26.923  40.723  1.00  0.00     0.022 A 
BRANCH  70  74
ATOM     74  S   UNL A   1      46.337  29.423  40.888  1.00  0.00     0.124 S 
ATOM     75  O   UNL A   1      45.158  30.232  41.183  1.00  0.00    -0.237 OA
ATOM     76  O   UNL A   1      46.974  28.782  42.032  1.00  0.00    -0.237 OA
ATOM     77  O   UNL A   1      47.252  30.003  39.907  1.00  0.00    -0.744 OA
ENDBRANCH  70  74
ENDBRANCH  53  67
BRANCH  54  78
ATOM     78  C   UNL A   1      45.801  26.633  28.041  1.00  0.00     0.023 A 
ATOM     79  C   UNL A   1      45.607  25.459  27.291  1.00  0.00     0.031 A 
ATOM     80  C   UNL A   1      46.270  27.773  27.363  1.00  0.00     0.131 A 
ATOM     81  C   UNL A   1      45.934  25.436  25.923  1.00  0.00     0.055 A 
ATOM     82  C   UNL A   1      46.539  27.760  25.993  1.00  0.00     0.041 A 
ATOM     83  F   UNL A   1      46.495  28.914  28.032  1.00  0.00    -0.206 F 
ATOM     84  C   UNL A   1      46.386  26.583  25.267  1.00  0.00     0.022 A 
BRANCH  81  85
ATOM     85  S   UNL A   1      45.863  23.856  25.029  1.00  0.00     0.124 S 
ATOM     86  O   UNL A   1      46.710  24.130  23.874  1.00  0.00    -0.237 OA
ATOM     87  O   UNL A   1      46.402  22.924  26.013  1.00  0.00    -0.237 OA
ATOM     88  O   UNL A   1      44.440  23.695  24.735  1.00  0.00    -0.744 OA
ENDBRANCH  81  85
ENDBRANCH  54  78
BRANCH  66  89
ATOM     89  C   UNL A   1      50.321  24.904  33.064  1.00  0.00     0.023 A 
ATOM     90  C   UNL A   1      50.566  23.518  33.032  1.00  0.00     0.031 A 
ATOM     91  C   UNL A   1      51.437  25.763  33.061  1.00  0.00     0.131 A 
ATOM     92  C   UNL A   1      51.888  23.035  33.040  1.00  0.00     0.055 A 
ATOM     93  C   UNL A   1      52.748  25.279  33.019  1.00  0.00     0.041 A 
ATOM     94  F   UNL A   1      51.273  27.095  33.092  1.00  0.00    -0.206 F 
ATOM     95  C   UNL A   1      52.979  23.907  33.019  1.00  0.00     0.022 A 
BRANCH  92  96
ATOM     96  S   UNL A   1      52.173  21.244  33.145  1.00  0.00     0.124 S 
ATOM     97  O   UNL A   1      50.835  20.707  32.920  1.00  0.00    -0.237 OA
ATOM     98  O   UNL A   1      53.140  21.017  32.076  1.00  0.00    -0.237 OA
ATOM     99  O   UNL A   1      52.695  21.056  34.499  1.00  0.00    -0.744 OA
ENDBRANCH  92  96
ENDBRANCH  66  89
ENDBRANCH  40  41
ENDBRANCH  33  35
ENDBRANCH  32  33
ENDBRANCH  31  32
ENDBRANCH  30  31
ENDBRANCH  29  30
ENDBRANCH   1  29
TORSDOF 21
ENDMDL
