MODEL 1
REMARK VINA RESULT:     -12.5      0.000      0.000
REMARK SMILES CN1C(=O)C[C@@H](C(=O)OCCOCCOC(=O)c2ccc(-c3c4nc(c(-c5cc(S(=O)(=O)[O-])ccc5F)c5ccc([nH]5)c(-c5cc(S(=O)(=O)[O-])ccc5F)c5nc(c(-c6cc(S(=O)(=O)[O-])ccc6F)c6ccc3[nH]6)C=C5)C=C4)cc2)C12CCN(c1ccc(Cl)cn1)CC2
REMARK SMILES IDX 13 1 12 2 11 3 10 4 9 5 7 6 8 7 6 8 1 9 2 10 3 11 81 12 4 13
REMARK SMILES IDX 5 14 82 15 93 16 83 17 92 18 84 19 85 20 86 21 91 22 87 23
REMARK SMILES IDX 90 24 88 25 89 26 14 27 15 28 16 29 17 30 18 31 19 32 80 33
REMARK SMILES IDX 20 34 79 35 21 36 22 37 23 38 73 39 24 40 78 41 72 42 74 43
REMARK SMILES IDX 25 44 77 45 71 46 70 47 26 49 58 50 38 51 57 52 39 53 42 54
REMARK SMILES IDX 56 55 75 56 40 57 41 58 55 60 76 61 43 62 27 63 28 64 36 65
REMARK SMILES IDX 29 66 35 67 37 68 34 69 30 70 31 71 32 72 33 73 59 74 60 75
REMARK SMILES IDX 68 76 61 77 67 78 69 79 66 80 62 81 63 82 64 83 65 84 44 85
REMARK SMILES IDX 45 86 53 87 46 88 52 89 54 90 51 91 47 92 48 93 49 94 50 95
REMARK H PARENT 74 48 42 59
REMARK Flexibility Score: inf
ROOT
ATOM      1  C   UNL A   1      32.265  29.692  25.049  1.00  0.00     0.202 C 
ENDROOT
BRANCH   1   2
ATOM      2  O   UNL A   1      32.201  28.314  25.400  1.00  0.00    -0.374 OA
BRANCH   2   3
ATOM      3  C   UNL A   1      30.932  27.666  25.340  1.00  0.00     0.202 C 
BRANCH   3   4
ATOM      4  C   UNL A   1      30.797  26.291  26.010  1.00  0.00     0.261 C 
BRANCH   4   5
ATOM      5  O   UNL A   1      31.933  25.841  26.786  1.00  0.00    -0.463 OA
BRANCH   5   6
ATOM      6  C   UNL A   1      32.196  24.517  26.687  1.00  0.00     0.311 C 
ATOM      7  O   UNL A   1      31.623  23.651  27.345  1.00  0.00    -0.252 OA
BRANCH   6   8
ATOM      8  C   UNL A   1      33.358  24.132  25.793  1.00  0.00     0.134 C 
ATOM      9  C   UNL A   1      33.004  24.270  22.050  1.00  0.00     0.147 C 
ATOM     10  N   UNL A   1      33.296  24.445  23.463  1.00  0.00    -0.339 N 
ATOM     11  C   UNL A   1      33.764  25.641  23.973  1.00  0.00     0.223 C 
ATOM     12  C   UNL A   1      33.250  23.357  24.453  1.00  0.00     0.060 C 
ATOM     13  O   UNL A   1      33.965  26.672  23.355  1.00  0.00    -0.275 OA
ATOM     14  C   UNL A   1      34.067  25.447  25.430  1.00  0.00     0.118 C 
ATOM     15  C   UNL A   1      32.013  22.459  24.248  1.00  0.00     0.051 C 
ATOM     16  C   UNL A   1      34.551  22.496  24.282  1.00  0.00     0.051 C 
ATOM     17  C   UNL A   1      32.068  21.155  25.029  1.00  0.00     0.120 C 
ATOM     18  C   UNL A   1      34.526  21.176  25.062  1.00  0.00     0.120 C 
ATOM     19  N   UNL A   1      33.309  20.465  24.703  1.00  0.00    -0.356 N 
BRANCH  19  20
ATOM     20  C   UNL A   1      33.292  19.086  24.878  1.00  0.00     0.128 A 
ATOM     21  C   UNL A   1      34.417  18.342  24.506  1.00  0.00     0.048 A 
ATOM     22  N   UNL A   1      32.199  18.488  25.397  1.00  0.00    -0.238 NA
ATOM     23  C   UNL A   1      34.416  16.954  24.633  1.00  0.00     0.026 A 
ATOM     24  C   UNL A   1      32.212  17.132  25.498  1.00  0.00     0.134 A 
ATOM     25  C   UNL A   1      33.283  16.333  25.129  1.00  0.00     0.059 A 
ATOM     26  Cl  UNL A   1      33.210  14.626  25.278  1.00  0.00    -0.083 Cl
ENDBRANCH  19  20
ENDBRANCH   6   8
ENDBRANCH   5   6
ENDBRANCH   4   5
ENDBRANCH   3   4
ENDBRANCH   2   3
ENDBRANCH   1   2
BRANCH   1  27
ATOM     27  C   UNL A   1      31.800  30.691  26.111  1.00  0.00     0.261 C 
BRANCH  27  28
ATOM     28  O   UNL A   1      32.603  30.607  27.299  1.00  0.00    -0.460 OA
BRANCH  28  29
ATOM     29  C   UNL A   1      33.406  31.685  27.480  1.00  0.00     0.338 C 
ATOM     30  O   UNL A   1      33.063  32.852  27.494  1.00  0.00    -0.246 OA
BRANCH  29  31
ATOM     31  C   UNL A   1      34.766  31.238  27.824  1.00  0.00     0.060 A 
ATOM     32  C   UNL A   1      34.982  29.869  28.030  1.00  0.00     0.016 A 
ATOM     33  C   UNL A   1      35.786  32.162  28.054  1.00  0.00     0.016 A 
ATOM     34  C   UNL A   1      36.216  29.426  28.509  1.00  0.00     0.010 A 
ATOM     35  C   UNL A   1      37.022  31.713  28.536  1.00  0.00     0.010 A 
ATOM     36  C   UNL A   1      37.233  30.347  28.798  1.00  0.00    -0.014 A 
BRANCH  36  37
ATOM     37  C   UNL A   1      38.464  29.887  29.493  1.00  0.00     0.031 A 
ATOM     38  C   UNL A   1      38.793  30.445  30.852  1.00  0.00     0.074 A 
ATOM     39  C   UNL A   1      39.259  28.957  28.932  1.00  0.00     0.049 A 
ATOM     40  N   UNL A   1      39.802  30.173  31.640  1.00  0.00    -0.248 NA
ATOM     41  C   UNL A   1      37.860  31.444  31.392  1.00  0.00     0.031 C 
ATOM     42  C   UNL A   1      39.027  28.324  27.634  1.00  0.00     0.029 A 
ATOM     43  N   UNL A   1      40.420  28.380  29.383  1.00  0.00    -0.354 N 
ATOM     44  C   UNL A   1      39.622  30.958  32.773  1.00  0.00     0.074 A 
ATOM     45  C   UNL A   1      38.430  31.749  32.549  1.00  0.00     0.031 C 
ATOM     46  C   UNL A   1      40.018  27.450  27.392  1.00  0.00     0.029 A 
ATOM     47  C   UNL A   1      40.970  27.480  28.500  1.00  0.00     0.049 A 
ATOM     48  H   UNL A   1      40.822  28.591  30.256  1.00  0.00     0.167 HD
ATOM     49  C   UNL A   1      40.374  31.007  33.902  1.00  0.00     0.034 A 
ATOM     50  C   UNL A   1      42.117  26.774  28.572  1.00  0.00     0.034 A 
ATOM     51  C   UNL A   1      41.572  30.228  34.104  1.00  0.00     0.049 A 
ATOM     52  C   UNL A   1      42.982  26.907  29.802  1.00  0.00     0.074 A 
ATOM     53  C   UNL A   1      42.397  30.185  35.214  1.00  0.00     0.029 A 
ATOM     54  N   UNL A   1      42.126  29.365  33.167  1.00  0.00    -0.354 N 
ATOM     55  N   UNL A   1      42.782  27.633  30.879  1.00  0.00    -0.248 NA
ATOM     56  C   UNL A   1      44.221  26.119  29.830  1.00  0.00     0.031 C 
ATOM     57  C   UNL A   1      43.485  29.354  34.922  1.00  0.00     0.029 A 
ATOM     58  C   UNL A   1      43.301  28.817  33.657  1.00  0.00     0.049 A 
ATOM     59  H   UNL A   1      41.740  29.171  32.282  1.00  0.00     0.167 HD
ATOM     60  C   UNL A   1      43.860  27.368  31.721  1.00  0.00     0.074 A 
ATOM     61  C   UNL A   1      44.695  26.404  31.035  1.00  0.00     0.031 C 
ATOM     62  C   UNL A   1      44.134  27.872  32.952  1.00  0.00     0.034 A 
BRANCH  49  63
ATOM     63  C   UNL A   1      39.944  31.974  34.979  1.00  0.00     0.023 A 
ATOM     64  C   UNL A   1      39.172  31.559  36.079  1.00  0.00     0.031 A 
ATOM     65  C   UNL A   1      40.292  33.333  34.893  1.00  0.00     0.131 A 
ATOM     66  C   UNL A   1      38.719  32.505  37.012  1.00  0.00     0.055 A 
ATOM     67  C   UNL A   1      39.898  34.257  35.864  1.00  0.00     0.041 A 
ATOM     68  F   UNL A   1      41.009  33.790  33.855  1.00  0.00    -0.206 F 
ATOM     69  C   UNL A   1      39.096  33.848  36.925  1.00  0.00     0.022 A 
BRANCH  66  70
ATOM     70  S   UNL A   1      37.521  31.981  38.270  1.00  0.00     0.124 S 
ATOM     71  O   UNL A   1      37.247  30.606  37.862  1.00  0.00    -0.237 OA
ATOM     72  O   UNL A   1      38.275  32.143  39.509  1.00  0.00    -0.237 OA
ATOM     73  O   UNL A   1      36.407  32.910  38.092  1.00  0.00    -0.744 OA
ENDBRANCH  66  70
ENDBRANCH  49  63
BRANCH  50  74
ATOM     74  C   UNL A   1      42.545  25.908  27.434  1.00  0.00     0.023 A 
ATOM     75  C   UNL A   1      42.129  24.571  27.337  1.00  0.00     0.031 A 
ATOM     76  C   UNL A   1      43.429  26.396  26.455  1.00  0.00     0.131 A 
ATOM     77  C   UNL A   1      42.630  23.755  26.310  1.00  0.00     0.055 A 
ATOM     78  C   UNL A   1      43.885  25.596  25.406  1.00  0.00     0.041 A 
ATOM     79  F   UNL A   1      43.860  27.666  26.502  1.00  0.00    -0.206 F 
ATOM     80  C   UNL A   1      43.495  24.262  25.337  1.00  0.00     0.022 A 
BRANCH  77  81
ATOM     81  S   UNL A   1      42.201  21.992  26.312  1.00  0.00     0.124 S 
ATOM     82  O   UNL A   1      43.064  21.475  25.256  1.00  0.00    -0.237 OA
ATOM     83  O   UNL A   1      42.547  21.599  27.673  1.00  0.00    -0.237 OA
ATOM     84  O   UNL A   1      40.772  21.988  26.009  1.00  0.00    -0.744 OA
ENDBRANCH  77  81
ENDBRANCH  50  74
BRANCH  62  85
ATOM     85  C   UNL A   1      45.376  27.359  33.640  1.00  0.00     0.023 A 
ATOM     86  C   UNL A   1      45.345  26.219  34.462  1.00  0.00     0.031 A 
ATOM     87  C   UNL A   1      46.602  28.029  33.482  1.00  0.00     0.131 A 
ATOM     88  C   UNL A   1      46.507  25.814  35.139  1.00  0.00     0.055 A 
ATOM     89  C   UNL A   1      47.767  27.588  34.112  1.00  0.00     0.041 A 
ATOM     90  F   UNL A   1      46.687  29.124  32.709  1.00  0.00    -0.206 F 
ATOM     91  C   UNL A   1      47.720  26.482  34.956  1.00  0.00     0.022 A 
BRANCH  88  92
ATOM     92  S   UNL A   1      46.392  24.452  36.332  1.00  0.00     0.124 S 
ATOM     93  O   UNL A   1      45.021  24.587  36.814  1.00  0.00    -0.237 OA
ATOM     94  O   UNL A   1      46.662  23.285  35.498  1.00  0.00    -0.237 OA
ATOM     95  O   UNL A   1      47.428  24.766  37.313  1.00  0.00    -0.744 OA
ENDBRANCH  88  92
ENDBRANCH  62  85
ENDBRANCH  36  37
ENDBRANCH  29  31
ENDBRANCH  28  29
ENDBRANCH  27  28
ENDBRANCH   1  27
TORSDOF 18
ENDMDL
MODEL 2
REMARK VINA RESULT:     -12.3      5.270     10.425
REMARK SMILES CN1C(=O)C[C@@H](C(=O)OCCOCCOC(=O)c2ccc(-c3c4nc(c(-c5cc(S(=O)(=O)[O-])ccc5F)c5ccc([nH]5)c(-c5cc(S(=O)(=O)[O-])ccc5F)c5nc(c(-c6cc(S(=O)(=O)[O-])ccc6F)c6ccc3[nH]6)C=C5)C=C4)cc2)C12CCN(c1ccc(Cl)cn1)CC2
REMARK SMILES IDX 13 1 12 2 11 3 10 4 9 5 7 6 8 7 6 8 1 9 2 10 3 11 81 12 4 13
REMARK SMILES IDX 5 14 82 15 93 16 83 17 92 18 84 19 85 20 86 21 91 22 87 23
REMARK SMILES IDX 90 24 88 25 89 26 14 27 15 28 16 29 17 30 18 31 19 32 80 33
REMARK SMILES IDX 20 34 79 35 21 36 22 37 23 38 73 39 24 40 78 41 72 42 74 43
REMARK SMILES IDX 25 44 77 45 71 46 70 47 26 49 58 50 38 51 57 52 39 53 42 54
REMARK SMILES IDX 56 55 75 56 40 57 41 58 55 60 76 61 43 62 27 63 28 64 36 65
REMARK SMILES IDX 29 66 35 67 37 68 34 69 30 70 31 71 32 72 33 73 59 74 60 75
REMARK SMILES IDX 68 76 61 77 67 78 69 79 66 80 62 81 63 82 64 83 65 84 44 85
REMARK SMILES IDX 45 86 53 87 46 88 52 89 54 90 51 91 47 92 48 93 49 94 50 95
REMARK H PARENT 74 48 42 59
REMARK Flexibility Score: inf
ROOT
ATOM      1  C   UNL A   1      35.837  20.885  25.136  1.00  0.00     0.202 C 
ENDROOT
BRANCH   1   2
ATOM      2  O   UNL A   1      35.314  21.388  23.910  1.00  0.00    -0.374 OA
BRANCH   2   3
ATOM      3  C   UNL A   1      34.037  22.024  23.937  1.00  0.00     0.202 C 
BRANCH   3   4
ATOM      4  C   UNL A   1      33.789  23.173  22.951  1.00  0.00     0.261 C 
BRANCH   4   5
ATOM      5  O   UNL A   1      34.588  24.365  23.139  1.00  0.00    -0.463 OA
BRANCH   5   6
ATOM      6  C   UNL A   1      33.925  25.528  22.939  1.00  0.00     0.311 C 
ATOM      7  O   UNL A   1      33.837  26.091  21.850  1.00  0.00    -0.252 OA
BRANCH   6   8
ATOM      8  C   UNL A   1      33.378  26.207  24.180  1.00  0.00     0.134 C 
ATOM      9  C   UNL A   1      30.482  24.703  26.052  1.00  0.00     0.147 C 
ATOM     10  N   UNL A   1      31.752  25.192  25.543  1.00  0.00    -0.339 N 
ATOM     11  C   UNL A   1      32.962  24.734  26.028  1.00  0.00     0.223 C 
ATOM     12  C   UNL A   1      31.881  26.296  24.578  1.00  0.00     0.060 C 
ATOM     13  O   UNL A   1      33.134  23.882  26.882  1.00  0.00    -0.275 OA
ATOM     14  C   UNL A   1      34.061  25.520  25.374  1.00  0.00     0.118 C 
ATOM     15  C   UNL A   1      30.837  26.181  23.448  1.00  0.00     0.051 C 
ATOM     16  C   UNL A   1      31.662  27.643  25.353  1.00  0.00     0.051 C 
ATOM     17  C   UNL A   1      30.715  27.438  22.600  1.00  0.00     0.120 C 
ATOM     18  C   UNL A   1      31.505  28.864  24.440  1.00  0.00     0.120 C 
ATOM     19  N   UNL A   1      30.456  28.573  23.476  1.00  0.00    -0.356 N 
BRANCH  19  20
ATOM     20  C   UNL A   1      29.805  29.650  22.886  1.00  0.00     0.128 A 
ATOM     21  C   UNL A   1      29.398  30.720  23.691  1.00  0.00     0.048 A 
ATOM     22  N   UNL A   1      29.573  29.649  21.557  1.00  0.00    -0.238 NA
ATOM     23  C   UNL A   1      28.710  31.797  23.135  1.00  0.00     0.026 A 
ATOM     24  C   UNL A   1      28.886  30.700  21.037  1.00  0.00     0.134 A 
ATOM     25  C   UNL A   1      28.435  31.781  21.779  1.00  0.00     0.059 A 
ATOM     26  Cl  UNL A   1      27.564  33.062  21.044  1.00  0.00    -0.083 Cl
ENDBRANCH  19  20
ENDBRANCH   6   8
ENDBRANCH   5   6
ENDBRANCH   4   5
ENDBRANCH   3   4
ENDBRANCH   2   3
ENDBRANCH   1   2
BRANCH   1  27
ATOM     27  C   UNL A   1      37.204  20.200  25.065  1.00  0.00     0.261 C 
BRANCH  27  28
ATOM     28  O   UNL A   1      38.272  21.160  25.046  1.00  0.00    -0.460 OA
BRANCH  28  29
ATOM     29  C   UNL A   1      39.229  20.915  25.975  1.00  0.00     0.338 C 
ATOM     30  O   UNL A   1      39.776  19.850  26.192  1.00  0.00    -0.246 OA
BRANCH  29  31
ATOM     31  C   UNL A   1      39.644  22.181  26.604  1.00  0.00     0.060 A 
ATOM     32  C   UNL A   1      39.030  23.366  26.179  1.00  0.00     0.016 A 
ATOM     33  C   UNL A   1      40.702  22.214  27.513  1.00  0.00     0.016 A 
ATOM     34  C   UNL A   1      39.505  24.596  26.635  1.00  0.00     0.010 A 
ATOM     35  C   UNL A   1      41.176  23.451  27.968  1.00  0.00     0.010 A 
ATOM     36  C   UNL A   1      40.603  24.650  27.506  1.00  0.00    -0.014 A 
BRANCH  36  37
ATOM     37  C   UNL A   1      41.223  25.962  27.826  1.00  0.00     0.031 A 
ATOM     38  C   UNL A   1      42.640  26.230  27.394  1.00  0.00     0.074 A 
ATOM     39  C   UNL A   1      40.517  26.916  28.461  1.00  0.00     0.049 A 
ATOM     40  N   UNL A   1      43.368  27.306  27.553  1.00  0.00    -0.248 NA
ATOM     41  C   UNL A   1      43.328  25.137  26.693  1.00  0.00     0.031 C 
ATOM     42  C   UNL A   1      39.129  26.782  28.902  1.00  0.00     0.029 A 
ATOM     43  N   UNL A   1      40.868  28.186  28.845  1.00  0.00    -0.354 N 
ATOM     44  C   UNL A   1      44.596  27.025  26.964  1.00  0.00     0.074 A 
ATOM     45  C   UNL A   1      44.527  25.660  26.483  1.00  0.00     0.031 C 
ATOM     46  C   UNL A   1      38.749  27.923  29.499  1.00  0.00     0.029 A 
ATOM     47  C   UNL A   1      39.871  28.859  29.511  1.00  0.00     0.049 A 
ATOM     48  H   UNL A   1      41.752  28.578  28.660  1.00  0.00     0.167 HD
ATOM     49  C   UNL A   1      45.677  27.834  26.824  1.00  0.00     0.034 A 
ATOM     50  C   UNL A   1      39.871  30.082  30.080  1.00  0.00     0.034 A 
ATOM     51  C   UNL A   1      45.739  29.185  27.326  1.00  0.00     0.049 A 
ATOM     52  C   UNL A   1      41.114  30.933  29.985  1.00  0.00     0.074 A 
ATOM     53  C   UNL A   1      46.775  30.097  27.224  1.00  0.00     0.029 A 
ATOM     54  N   UNL A   1      44.729  29.815  28.041  1.00  0.00    -0.354 N 
ATOM     55  N   UNL A   1      42.258  30.664  29.398  1.00  0.00    -0.248 NA
ATOM     56  C   UNL A   1      41.062  32.256  30.622  1.00  0.00     0.031 C 
ATOM     57  C   UNL A   1      46.420  31.249  27.935  1.00  0.00     0.029 A 
ATOM     58  C   UNL A   1      45.131  31.087  28.419  1.00  0.00     0.049 A 
ATOM     59  H   UNL A   1      43.852  29.416  28.249  1.00  0.00     0.167 HD
ATOM     60  C   UNL A   1      43.052  31.795  29.575  1.00  0.00     0.074 A 
ATOM     61  C   UNL A   1      42.250  32.753  30.307  1.00  0.00     0.031 C 
ATOM     62  C   UNL A   1      44.327  32.024  29.167  1.00  0.00     0.034 A 
BRANCH  49  63
ATOM     63  C   UNL A   1      46.893  27.252  26.144  1.00  0.00     0.023 A 
ATOM     64  C   UNL A   1      47.863  26.526  26.858  1.00  0.00     0.031 A 
ATOM     65  C   UNL A   1      47.098  27.447  24.767  1.00  0.00     0.131 A 
ATOM     66  C   UNL A   1      49.022  26.077  26.206  1.00  0.00     0.055 A 
ATOM     67  C   UNL A   1      48.218  26.936  24.109  1.00  0.00     0.041 A 
ATOM     68  F   UNL A   1      46.216  28.150  24.038  1.00  0.00    -0.206 F 
ATOM     69  C   UNL A   1      49.196  26.257  24.831  1.00  0.00     0.022 A 
BRANCH  66  70
ATOM     70  S   UNL A   1      50.363  25.370  27.203  1.00  0.00     0.124 S 
ATOM     71  O   UNL A   1      50.730  26.502  28.050  1.00  0.00    -0.237 OA
ATOM     72  O   UNL A   1      49.702  24.256  27.874  1.00  0.00    -0.237 OA
ATOM     73  O   UNL A   1      51.367  24.993  26.210  1.00  0.00    -0.744 OA
ENDBRANCH  66  70
ENDBRANCH  49  63
BRANCH  50  74
ATOM     74  C   UNL A   1      38.674  30.569  30.826  1.00  0.00     0.023 A 
ATOM     75  C   UNL A   1      37.622  31.230  30.171  1.00  0.00     0.031 A 
ATOM     76  C   UNL A   1      38.594  30.428  32.224  1.00  0.00     0.131 A 
ATOM     77  C   UNL A   1      36.559  31.763  30.916  1.00  0.00     0.055 A 
ATOM     78  C   UNL A   1      37.510  30.915  32.955  1.00  0.00     0.041 A 
ATOM     79  F   UNL A   1      39.573  29.807  32.900  1.00  0.00    -0.206 F 
ATOM     80  C   UNL A   1      36.490  31.599  32.303  1.00  0.00     0.022 A 
BRANCH  77  81
ATOM     81  S   UNL A   1      35.304  32.753  30.057  1.00  0.00     0.124 S 
ATOM     82  O   UNL A   1      34.723  31.772  29.147  1.00  0.00    -0.237 OA
ATOM     83  O   UNL A   1      34.455  33.187  31.161  1.00  0.00    -0.237 OA
ATOM     84  O   UNL A   1      36.083  33.812  29.419  1.00  0.00    -0.744 OA
ENDBRANCH  77  81
ENDBRANCH  50  74
BRANCH  62  85
ATOM     85  C   UNL A   1      44.912  33.379  29.482  1.00  0.00     0.023 A 
ATOM     86  C   UNL A   1      44.786  34.461  28.593  1.00  0.00     0.031 A 
ATOM     87  C   UNL A   1      45.618  33.584  30.681  1.00  0.00     0.131 A 
ATOM     88  C   UNL A   1      45.404  35.686  28.892  1.00  0.00     0.055 A 
ATOM     89  C   UNL A   1      46.182  34.821  30.998  1.00  0.00     0.041 A 
ATOM     90  F   UNL A   1      45.770  32.585  31.564  1.00  0.00    -0.206 F 
ATOM     91  C   UNL A   1      46.088  35.877  30.095  1.00  0.00     0.022 A 
BRANCH  88  92
ATOM     92  S   UNL A   1      45.378  37.002  27.645  1.00  0.00     0.124 S 
ATOM     93  O   UNL A   1      45.600  38.194  28.458  1.00  0.00    -0.237 OA
ATOM     94  O   UNL A   1      46.477  36.619  26.763  1.00  0.00    -0.237 OA
ATOM     95  O   UNL A   1      44.046  36.892  27.056  1.00  0.00    -0.744 OA
ENDBRANCH  88  92
ENDBRANCH  62  85
ENDBRANCH  36  37
ENDBRANCH  29  31
ENDBRANCH  28  29
ENDBRANCH  27  28
ENDBRANCH   1  27
TORSDOF 18
ENDMDL
MODEL 3
REMARK VINA RESULT:     -12.2      5.394      8.258
REMARK SMILES CN1C(=O)C[C@@H](C(=O)OCCOCCOC(=O)c2ccc(-c3c4nc(c(-c5cc(S(=O)(=O)[O-])ccc5F)c5ccc([nH]5)c(-c5cc(S(=O)(=O)[O-])ccc5F)c5nc(c(-c6cc(S(=O)(=O)[O-])ccc6F)c6ccc3[nH]6)C=C5)C=C4)cc2)C12CCN(c1ccc(Cl)cn1)CC2
REMARK SMILES IDX 13 1 12 2 11 3 10 4 9 5 7 6 8 7 6 8 1 9 2 10 3 11 81 12 4 13
REMARK SMILES IDX 5 14 82 15 93 16 83 17 92 18 84 19 85 20 86 21 91 22 87 23
REMARK SMILES IDX 90 24 88 25 89 26 14 27 15 28 16 29 17 30 18 31 19 32 80 33
REMARK SMILES IDX 20 34 79 35 21 36 22 37 23 38 73 39 24 40 78 41 72 42 74 43
REMARK SMILES IDX 25 44 77 45 71 46 70 47 26 49 58 50 38 51 57 52 39 53 42 54
REMARK SMILES IDX 56 55 75 56 40 57 41 58 55 60 76 61 43 62 27 63 28 64 36 65
REMARK SMILES IDX 29 66 35 67 37 68 34 69 30 70 31 71 32 72 33 73 59 74 60 75
REMARK SMILES IDX 68 76 61 77 67 78 69 79 66 80 62 81 63 82 64 83 65 84 44 85
REMARK SMILES IDX 45 86 53 87 46 88 52 89 54 90 51 91 47 92 48 93 49 94 50 95
REMARK H PARENT 74 48 42 59
REMARK Flexibility Score: inf
ROOT
ATOM      1  C   UNL A   1      35.140  20.495  25.197  1.00  0.00     0.202 C 
ENDROOT
BRANCH   1   2
ATOM      2  O   UNL A   1      34.271  20.643  24.078  1.00  0.00    -0.374 OA
BRANCH   2   3
ATOM      3  C   UNL A   1      33.388  21.762  24.060  1.00  0.00     0.202 C 
BRANCH   3   4
ATOM      4  C   UNL A   1      33.560  22.792  22.934  1.00  0.00     0.261 C 
BRANCH   4   5
ATOM      5  O   UNL A   1      34.456  23.895  23.205  1.00  0.00    -0.463 OA
BRANCH   5   6
ATOM      6  C   UNL A   1      33.925  25.121  22.989  1.00  0.00     0.311 C 
ATOM      7  O   UNL A   1      33.877  25.666  21.888  1.00  0.00    -0.252 OA
BRANCH   6   8
ATOM      8  C   UNL A   1      33.489  25.886  24.223  1.00  0.00     0.134 C 
ATOM      9  C   UNL A   1      30.675  24.600  26.363  1.00  0.00     0.147 C 
ATOM     10  N   UNL A   1      31.924  25.011  25.745  1.00  0.00    -0.339 N 
ATOM     11  C   UNL A   1      33.147  24.532  26.174  1.00  0.00     0.223 C 
ATOM     12  C   UNL A   1      32.027  26.056  24.713  1.00  0.00     0.060 C 
ATOM     13  O   UNL A   1      33.346  23.721  27.062  1.00  0.00    -0.275 OA
ATOM     14  C   UNL A   1      34.227  25.239  25.406  1.00  0.00     0.118 C 
ATOM     15  C   UNL A   1      30.905  25.922  23.663  1.00  0.00     0.051 C 
ATOM     16  C   UNL A   1      31.909  27.450  25.424  1.00  0.00     0.051 C 
ATOM     17  C   UNL A   1      30.770  27.135  22.755  1.00  0.00     0.120 C 
ATOM     18  C   UNL A   1      31.734  28.626  24.456  1.00  0.00     0.120 C 
ATOM     19  N   UNL A   1      30.612  28.325  23.582  1.00  0.00    -0.356 N 
BRANCH  19  20
ATOM     20  C   UNL A   1      29.961  29.393  22.977  1.00  0.00     0.128 A 
ATOM     21  C   UNL A   1      29.096  30.183  23.744  1.00  0.00     0.048 A 
ATOM     22  N   UNL A   1      30.168  29.652  21.668  1.00  0.00    -0.238 NA
ATOM     23  C   UNL A   1      28.400  31.238  23.156  1.00  0.00     0.026 A 
ATOM     24  C   UNL A   1      29.467  30.675  21.111  1.00  0.00     0.134 A 
ATOM     25  C   UNL A   1      28.579  31.482  21.806  1.00  0.00     0.059 A 
ATOM     26  Cl  UNL A   1      27.726  32.746  21.021  1.00  0.00    -0.083 Cl
ENDBRANCH  19  20
ENDBRANCH   6   8
ENDBRANCH   5   6
ENDBRANCH   4   5
ENDBRANCH   3   4
ENDBRANCH   2   3
ENDBRANCH   1   2
BRANCH   1  27
ATOM     27  C   UNL A   1      36.632  20.346  24.889  1.00  0.00     0.261 C 
BRANCH  27  28
ATOM     28  O   UNL A   1      37.371  21.508  25.297  1.00  0.00    -0.460 OA
BRANCH  28  29
ATOM     29  C   UNL A   1      38.593  21.214  25.808  1.00  0.00     0.338 C 
ATOM     30  O   UNL A   1      39.195  20.163  25.691  1.00  0.00    -0.246 OA
BRANCH  29  31
ATOM     31  C   UNL A   1      39.183  22.422  26.409  1.00  0.00     0.060 A 
ATOM     32  C   UNL A   1      38.610  23.663  26.103  1.00  0.00     0.016 A 
ATOM     33  C   UNL A   1      40.352  22.345  27.167  1.00  0.00     0.016 A 
ATOM     34  C   UNL A   1      39.234  24.838  26.525  1.00  0.00     0.010 A 
ATOM     35  C   UNL A   1      40.975  23.527  27.587  1.00  0.00     0.010 A 
ATOM     36  C   UNL A   1      40.439  24.780  27.240  1.00  0.00    -0.014 A 
BRANCH  36  37
ATOM     37  C   UNL A   1      41.194  26.032  27.509  1.00  0.00     0.031 A 
ATOM     38  C   UNL A   1      40.547  27.120  28.323  1.00  0.00     0.074 A 
ATOM     39  C   UNL A   1      42.455  26.179  27.062  1.00  0.00     0.049 A 
ATOM     40  N   UNL A   1      41.027  28.281  28.690  1.00  0.00    -0.248 NA
ATOM     41  C   UNL A   1      39.174  26.865  28.782  1.00  0.00     0.031 C 
ATOM     42  C   UNL A   1      43.195  25.183  26.288  1.00  0.00     0.029 A 
ATOM     43  N   UNL A   1      43.337  27.223  27.195  1.00  0.00    -0.354 N 
ATOM     44  C   UNL A   1      40.021  28.892  29.432  1.00  0.00     0.074 A 
ATOM     45  C   UNL A   1      38.888  27.989  29.424  1.00  0.00     0.031 C 
ATOM     46  C   UNL A   1      44.418  25.666  26.012  1.00  0.00     0.029 A 
ATOM     47  C   UNL A   1      44.540  27.014  26.562  1.00  0.00     0.049 A 
ATOM     48  H   UNL A   1      43.128  28.043  27.697  1.00  0.00     0.167 HD
ATOM     49  C   UNL A   1      40.044  30.089  30.071  1.00  0.00     0.034 A 
ATOM     50  C   UNL A   1      45.609  27.825  26.428  1.00  0.00     0.034 A 
ATOM     51  C   UNL A   1      41.172  30.988  30.053  1.00  0.00     0.049 A 
ATOM     52  C   UNL A   1      45.580  29.188  27.078  1.00  0.00     0.074 A 
ATOM     53  C   UNL A   1      41.310  32.214  30.681  1.00  0.00     0.029 A 
ATOM     54  N   UNL A   1      42.355  30.766  29.359  1.00  0.00    -0.354 N 
ATOM     55  N   UNL A   1      44.632  29.739  27.801  1.00  0.00    -0.248 NA
ATOM     56  C   UNL A   1      46.768  30.033  26.901  1.00  0.00     0.031 C 
ATOM     57  C   UNL A   1      42.542  32.763  30.310  1.00  0.00     0.029 A 
ATOM     58  C   UNL A   1      43.209  31.848  29.510  1.00  0.00     0.049 A 
ATOM     59  H   UNL A   1      42.557  29.957  28.835  1.00  0.00     0.167 HD
ATOM     60  C   UNL A   1      45.122  30.986  28.184  1.00  0.00     0.074 A 
ATOM     61  C   UNL A   1      46.454  31.096  27.628  1.00  0.00     0.031 C 
ATOM     62  C   UNL A   1      44.528  31.952  28.932  1.00  0.00     0.034 A 
BRANCH  49  63
ATOM     63  C   UNL A   1      38.788  30.510  30.797  1.00  0.00     0.023 A 
ATOM     64  C   UNL A   1      37.716  31.123  30.125  1.00  0.00     0.031 A 
ATOM     65  C   UNL A   1      38.672  30.315  32.184  1.00  0.00     0.131 A 
ATOM     66  C   UNL A   1      36.604  31.578  30.851  1.00  0.00     0.055 A 
ATOM     67  C   UNL A   1      37.532  30.705  32.889  1.00  0.00     0.041 A 
ATOM     68  F   UNL A   1      39.673  29.754  32.882  1.00  0.00    -0.206 F 
ATOM     69  C   UNL A   1      36.494  31.353  32.226  1.00  0.00     0.022 A 
BRANCH  66  70
ATOM     70  S   UNL A   1      35.361  32.585  29.996  1.00  0.00     0.124 S 
ATOM     71  O   UNL A   1      35.005  31.725  28.871  1.00  0.00    -0.237 OA
ATOM     72  O   UNL A   1      34.336  32.756  31.020  1.00  0.00    -0.237 OA
ATOM     73  O   UNL A   1      36.092  33.799  29.636  1.00  0.00    -0.744 OA
ENDBRANCH  66  70
ENDBRANCH  49  63
BRANCH  50  74
ATOM     74  C   UNL A   1      46.786  27.398  25.615  1.00  0.00     0.023 A 
ATOM     75  C   UNL A   1      46.969  27.853  24.300  1.00  0.00     0.031 A 
ATOM     76  C   UNL A   1      47.716  26.477  26.130  1.00  0.00     0.131 A 
ATOM     77  C   UNL A   1      48.031  27.355  23.529  1.00  0.00     0.055 A 
ATOM     78  C   UNL A   1      48.799  26.022  25.377  1.00  0.00     0.041 A 
ATOM     79  F   UNL A   1      47.585  26.008  27.381  1.00  0.00    -0.206 F 
ATOM     80  C   UNL A   1      48.955  26.451  24.063  1.00  0.00     0.022 A 
BRANCH  77  81
ATOM     81  S   UNL A   1      48.142  27.838  21.783  1.00  0.00     0.124 S 
ATOM     82  O   UNL A   1      46.850  28.481  21.570  1.00  0.00    -0.237 OA
ATOM     83  O   UNL A   1      49.304  28.719  21.788  1.00  0.00    -0.237 OA
ATOM     84  O   UNL A   1      48.329  26.566  21.089  1.00  0.00    -0.744 OA
ENDBRANCH  77  81
ENDBRANCH  50  74
BRANCH  62  85
ATOM     85  C   UNL A   1      45.336  33.195  29.210  1.00  0.00     0.023 A 
ATOM     86  C   UNL A   1      45.334  34.289  28.328  1.00  0.00     0.031 A 
ATOM     87  C   UNL A   1      46.130  33.279  30.367  1.00  0.00     0.131 A 
ATOM     88  C   UNL A   1      46.152  35.399  28.588  1.00  0.00     0.055 A 
ATOM     89  C   UNL A   1      46.899  34.409  30.650  1.00  0.00     0.041 A 
ATOM     90  F   UNL A   1      46.171  32.262  31.244  1.00  0.00    -0.206 F 
ATOM     91  C   UNL A   1      46.923  35.472  29.752  1.00  0.00     0.022 A 
BRANCH  88  92
ATOM     92  S   UNL A   1      46.266  36.712  27.342  1.00  0.00     0.124 S 
ATOM     93  O   UNL A   1      47.568  37.300  27.639  1.00  0.00    -0.237 OA
ATOM     94  O   UNL A   1      46.175  35.963  26.092  1.00  0.00    -0.237 OA
ATOM     95  O   UNL A   1      45.118  37.566  27.637  1.00  0.00    -0.744 OA
ENDBRANCH  88  92
ENDBRANCH  62  85
ENDBRANCH  36  37
ENDBRANCH  29  31
ENDBRANCH  28  29
ENDBRANCH  27  28
ENDBRANCH   1  27
TORSDOF 18
ENDMDL
