MODEL 1
REMARK VINA RESULT:     -11.8      0.000      0.000
REMARK SMILES CCNC(=O)N1[C@@H](C(=O)OCCOCCOC(=O)c2ccc(-c3c4nc(c(-c5cc(S(=O)(=O)[O-])ccc5F)c5ccc([nH]5)c(-c5cc(S(=O)(=O)[O-])ccc5F)c5nc(c(-c6cc(S(=O)(=O)[O-])ccc6F)c6ccc3[nH]6)C=C5)C=C4)cc2)CC[C@@H]2CCCC[C@H]21
REMARK SMILES IDX 14 1 13 2 12 3 11 4 10 5 8 6 9 7 7 8 6 9 89 10 82 11 84 12
REMARK SMILES IDX 88 13 83 14 85 15 87 16 86 17 4 18 3 19 5 21 2 22 1 23 15 24
REMARK SMILES IDX 16 25 17 26 18 27 19 28 20 29 81 30 21 31 80 32 22 33 23 34
REMARK SMILES IDX 24 35 74 36 25 37 79 38 73 39 75 40 26 41 78 42 72 43 71 44
REMARK SMILES IDX 27 46 59 47 39 48 58 49 40 50 43 51 57 52 76 53 41 54 42 55
REMARK SMILES IDX 56 57 77 58 44 59 28 60 29 61 37 62 30 63 36 64 38 65 35 66
REMARK SMILES IDX 31 67 32 68 33 69 34 70 60 71 61 72 69 73 62 74 68 75 70 76
REMARK SMILES IDX 67 77 63 78 64 79 65 80 66 81 45 82 46 83 54 84 47 85 53 86
REMARK SMILES IDX 55 87 52 88 48 89 49 90 50 91 51 92
REMARK H PARENT 3 20 75 45 43 56
REMARK Flexibility Score: inf
ROOT
ATOM      1  C   UNL A   1      35.978  20.699  25.013  1.00  0.00     0.202 C 
ENDROOT
BRANCH   1   2
ATOM      2  O   UNL A   1      35.871  22.085  24.692  1.00  0.00    -0.374 OA
BRANCH   2   3
ATOM      3  C   UNL A   1      34.633  22.534  24.143  1.00  0.00     0.202 C 
BRANCH   3   4
ATOM      4  C   UNL A   1      34.660  23.869  23.399  1.00  0.00     0.261 C 
BRANCH   4   5
ATOM      5  O   UNL A   1      33.579  24.002  22.462  1.00  0.00    -0.462 OA
BRANCH   5   6
ATOM      6  C   UNL A   1      33.315  25.267  22.036  1.00  0.00     0.329 C 
ATOM      7  O   UNL A   1      33.096  25.590  20.873  1.00  0.00    -0.250 OA
BRANCH   6   8
ATOM      8  C   UNL A   1      33.332  26.270  23.192  1.00  0.00     0.197 C 
ATOM      9  N   UNL A   1      32.257  26.214  24.207  1.00  0.00    -0.308 N 
ATOM     10  C   UNL A   1      32.420  27.182  25.314  1.00  0.00     0.091 C 
ATOM     11  C   UNL A   1      33.560  27.694  22.665  1.00  0.00     0.038 C 
ATOM     12  C   UNL A   1      32.762  28.619  24.841  1.00  0.00     0.012 C 
ATOM     13  C   UNL A   1      31.261  27.247  26.328  1.00  0.00     0.025 C 
ATOM     14  C   UNL A   1      33.900  28.623  23.820  1.00  0.00     0.008 C 
ATOM     15  C   UNL A   1      33.145  29.498  26.043  1.00  0.00     0.006 C 
ATOM     16  C   UNL A   1      31.613  28.136  27.521  1.00  0.00     0.002 C 
ATOM     17  C   UNL A   1      32.033  29.538  27.085  1.00  0.00     0.000 C 
BRANCH   9  18
ATOM     18  C   UNL A   1      31.003  25.781  23.836  1.00  0.00     0.318 C 
ATOM     19  N   UNL A   1      30.584  24.577  24.329  1.00  0.00    -0.338 N 
ATOM     20  H   UNL A   1      29.693  24.297  24.021  1.00  0.00     0.165 HD
ATOM     21  O   UNL A   1      30.216  26.451  23.175  1.00  0.00    -0.249 OA
BRANCH  19  22
ATOM     22  C   UNL A   1      31.235  23.642  25.234  1.00  0.00     0.114 C 
ATOM     23  C   UNL A   1      30.391  23.263  26.432  1.00  0.00     0.027 C 
ENDBRANCH  19  22
ENDBRANCH   9  18
ENDBRANCH   6   8
ENDBRANCH   5   6
ENDBRANCH   4   5
ENDBRANCH   3   4
ENDBRANCH   2   3
ENDBRANCH   1   2
BRANCH   1  24
ATOM     24  C   UNL A   1      37.383  20.093  25.005  1.00  0.00     0.261 C 
BRANCH  24  25
ATOM     25  O   UNL A   1      38.394  21.113  25.089  1.00  0.00    -0.460 OA
BRANCH  25  26
ATOM     26  C   UNL A   1      39.379  20.839  25.976  1.00  0.00     0.338 C 
ATOM     27  O   UNL A   1      39.988  19.779  26.082  1.00  0.00    -0.246 OA
BRANCH  26  28
ATOM     28  C   UNL A   1      39.794  22.061  26.688  1.00  0.00     0.060 A 
ATOM     29  C   UNL A   1      39.108  23.241  26.370  1.00  0.00     0.016 A 
ATOM     30  C   UNL A   1      40.871  22.083  27.578  1.00  0.00     0.016 A 
ATOM     31  C   UNL A   1      39.561  24.462  26.854  1.00  0.00     0.010 A 
ATOM     32  C   UNL A   1      41.330  23.314  28.059  1.00  0.00     0.010 A 
ATOM     33  C   UNL A   1      40.715  24.510  27.643  1.00  0.00    -0.014 A 
BRANCH  33  34
ATOM     34  C   UNL A   1      41.409  25.812  27.800  1.00  0.00     0.031 A 
ATOM     35  C   UNL A   1      40.704  26.902  28.565  1.00  0.00     0.074 A 
ATOM     36  C   UNL A   1      42.664  25.991  27.352  1.00  0.00     0.049 A 
ATOM     37  N   UNL A   1      41.091  28.122  28.828  1.00  0.00    -0.248 NA
ATOM     38  C   UNL A   1      39.376  26.564  29.104  1.00  0.00     0.031 C 
ATOM     39  C   UNL A   1      43.466  24.983  26.661  1.00  0.00     0.029 A 
ATOM     40  N   UNL A   1      43.482  27.089  27.417  1.00  0.00    -0.354 N 
ATOM     41  C   UNL A   1      40.054  28.700  29.553  1.00  0.00     0.074 A 
ATOM     42  C   UNL A   1      39.005  27.710  29.652  1.00  0.00     0.031 C 
ATOM     43  C   UNL A   1      44.664  25.513  26.361  1.00  0.00     0.029 A 
ATOM     44  C   UNL A   1      44.699  26.906  26.803  1.00  0.00     0.049 A 
ATOM     45  H   UNL A   1      43.225  27.929  27.861  1.00  0.00     0.167 HD
ATOM     46  C   UNL A   1      39.988  29.940  30.098  1.00  0.00     0.034 A 
ATOM     47  C   UNL A   1      45.711  27.774  26.603  1.00  0.00     0.034 A 
ATOM     48  C   UNL A   1      41.044  30.916  29.983  1.00  0.00     0.049 A 
ATOM     49  C   UNL A   1      45.583  29.178  27.145  1.00  0.00     0.074 A 
ATOM     50  C   UNL A   1      41.088  32.205  30.483  1.00  0.00     0.029 A 
ATOM     51  N   UNL A   1      42.245  30.710  29.313  1.00  0.00    -0.354 N 
ATOM     52  N   UNL A   1      44.593  29.720  27.817  1.00  0.00    -0.248 NA
ATOM     53  C   UNL A   1      46.717  30.082  26.914  1.00  0.00     0.031 C 
ATOM     54  C   UNL A   1      42.279  32.801  30.056  1.00  0.00     0.029 A 
ATOM     55  C   UNL A   1      43.022  31.857  29.364  1.00  0.00     0.049 A 
ATOM     56  H   UNL A   1      42.505  29.872  28.867  1.00  0.00     0.167 HD
ATOM     57  C   UNL A   1      45.004  31.016  28.123  1.00  0.00     0.074 A 
ATOM     58  C   UNL A   1      46.335  31.167  27.572  1.00  0.00     0.031 C 
ATOM     59  C   UNL A   1      44.348  31.990  28.806  1.00  0.00     0.034 A 
BRANCH  46  60
ATOM     60  C   UNL A   1      38.709  30.320  30.806  1.00  0.00     0.023 A 
ATOM     61  C   UNL A   1      37.638  30.937  30.132  1.00  0.00     0.031 A 
ATOM     62  C   UNL A   1      38.573  30.100  32.188  1.00  0.00     0.131 A 
ATOM     63  C   UNL A   1      36.518  31.379  30.853  1.00  0.00     0.055 A 
ATOM     64  C   UNL A   1      37.420  30.467  32.884  1.00  0.00     0.041 A 
ATOM     65  F   UNL A   1      39.571  29.541  32.892  1.00  0.00    -0.206 F 
ATOM     66  C   UNL A   1      36.390  31.124  32.219  1.00  0.00     0.022 A 
BRANCH  63  67
ATOM     67  S   UNL A   1      35.299  32.425  30.009  1.00  0.00     0.124 S 
ATOM     68  O   UNL A   1      34.343  32.687  31.082  1.00  0.00    -0.237 OA
ATOM     69  O   UNL A   1      36.103  33.562  29.577  1.00  0.00    -0.237 OA
ATOM     70  O   UNL A   1      34.799  31.569  28.935  1.00  0.00    -0.744 OA
ENDBRANCH  63  67
ENDBRANCH  46  60
BRANCH  47  71
ATOM     71  C   UNL A   1      46.918  27.363  25.828  1.00  0.00     0.023 A 
ATOM     72  C   UNL A   1      47.108  27.773  24.500  1.00  0.00     0.031 A 
ATOM     73  C   UNL A   1      47.875  26.500  26.394  1.00  0.00     0.131 A 
ATOM     74  C   UNL A   1      48.199  27.284  23.766  1.00  0.00     0.055 A 
ATOM     75  C   UNL A   1      48.989  26.062  25.678  1.00  0.00     0.041 A 
ATOM     76  F   UNL A   1      47.741  26.074  27.660  1.00  0.00    -0.206 F 
ATOM     77  C   UNL A   1      49.149  26.442  24.349  1.00  0.00     0.022 A 
BRANCH  74  78
ATOM     78  S   UNL A   1      48.312  27.690  22.001  1.00  0.00     0.124 S 
ATOM     79  O   UNL A   1      48.544  26.378  21.408  1.00  0.00    -0.237 OA
ATOM     80  O   UNL A   1      47.007  28.289  21.745  1.00  0.00    -0.237 OA
ATOM     81  O   UNL A   1      49.443  28.614  21.935  1.00  0.00    -0.744 OA
ENDBRANCH  74  78
ENDBRANCH  47  71
BRANCH  59  82
ATOM     82  C   UNL A   1      45.094  33.281  29.051  1.00  0.00     0.023 A 
ATOM     83  C   UNL A   1      44.889  34.424  28.258  1.00  0.00     0.031 A 
ATOM     84  C   UNL A   1      46.039  33.359  30.090  1.00  0.00     0.131 A 
ATOM     85  C   UNL A   1      45.664  35.573  28.476  1.00  0.00     0.055 A 
ATOM     86  C   UNL A   1      46.759  34.527  30.345  1.00  0.00     0.041 A 
ATOM     87  F   UNL A   1      46.277  32.299  30.879  1.00  0.00    -0.206 F 
ATOM     88  C   UNL A   1      46.586  35.637  29.525  1.00  0.00     0.022 A 
BRANCH  85  89
ATOM     89  S   UNL A   1      45.534  36.948  27.299  1.00  0.00     0.124 S 
ATOM     90  O   UNL A   1      44.111  36.936  26.974  1.00  0.00    -0.237 OA
ATOM     91  O   UNL A   1      45.997  38.082  28.094  1.00  0.00    -0.237 OA
ATOM     92  O   UNL A   1      46.423  36.552  26.209  1.00  0.00    -0.744 OA
ENDBRANCH  85  89
ENDBRANCH  59  82
ENDBRANCH  33  34
ENDBRANCH  26  28
ENDBRANCH  25  26
ENDBRANCH  24  25
ENDBRANCH   1  24
TORSDOF 19
ENDMDL
MODEL 2
REMARK VINA RESULT:     -11.6      4.988     10.222
REMARK SMILES CCNC(=O)N1[C@@H](C(=O)OCCOCCOC(=O)c2ccc(-c3c4nc(c(-c5cc(S(=O)(=O)[O-])ccc5F)c5ccc([nH]5)c(-c5cc(S(=O)(=O)[O-])ccc5F)c5nc(c(-c6cc(S(=O)(=O)[O-])ccc6F)c6ccc3[nH]6)C=C5)C=C4)cc2)CC[C@@H]2CCCC[C@H]21
REMARK SMILES IDX 14 1 13 2 12 3 11 4 10 5 8 6 9 7 7 8 6 9 89 10 82 11 84 12
REMARK SMILES IDX 88 13 83 14 85 15 87 16 86 17 4 18 3 19 5 21 2 22 1 23 15 24
REMARK SMILES IDX 16 25 17 26 18 27 19 28 20 29 81 30 21 31 80 32 22 33 23 34
REMARK SMILES IDX 24 35 74 36 25 37 79 38 73 39 75 40 26 41 78 42 72 43 71 44
REMARK SMILES IDX 27 46 59 47 39 48 58 49 40 50 43 51 57 52 76 53 41 54 42 55
REMARK SMILES IDX 56 57 77 58 44 59 28 60 29 61 37 62 30 63 36 64 38 65 35 66
REMARK SMILES IDX 31 67 32 68 33 69 34 70 60 71 61 72 69 73 62 74 68 75 70 76
REMARK SMILES IDX 67 77 63 78 64 79 65 80 66 81 45 82 46 83 54 84 47 85 53 86
REMARK SMILES IDX 55 87 52 88 48 89 49 90 50 91 51 92
REMARK H PARENT 3 20 75 45 43 56
REMARK Flexibility Score: inf
ROOT
ATOM      1  C   UNL A   1      31.414  30.129  25.184  1.00  0.00     0.202 C 
ENDROOT
BRANCH   1   2
ATOM      2  O   UNL A   1      32.319  29.037  25.347  1.00  0.00    -0.374 OA
BRANCH   2   3
ATOM      3  C   UNL A   1      31.869  27.749  24.931  1.00  0.00     0.202 C 
BRANCH   3   4
ATOM      4  C   UNL A   1      31.165  26.898  25.987  1.00  0.00     0.261 C 
BRANCH   4   5
ATOM      5  O   UNL A   1      30.707  25.640  25.467  1.00  0.00    -0.462 OA
BRANCH   5   6
ATOM      6  C   UNL A   1      31.038  24.540  26.197  1.00  0.00     0.329 C 
ATOM      7  O   UNL A   1      30.279  23.930  26.943  1.00  0.00    -0.250 OA
BRANCH   6   8
ATOM      8  C   UNL A   1      32.502  24.142  25.990  1.00  0.00     0.197 C 
ATOM      9  N   UNL A   1      32.971  23.815  24.626  1.00  0.00    -0.308 N 
ATOM     10  C   UNL A   1      34.419  23.519  24.539  1.00  0.00     0.091 C 
ATOM     11  C   UNL A   1      32.922  23.082  27.018  1.00  0.00     0.038 C 
ATOM     12  C   UNL A   1      34.920  22.534  25.627  1.00  0.00     0.012 C 
ATOM     13  C   UNL A   1      34.929  23.051  23.162  1.00  0.00     0.025 C 
ATOM     14  C   UNL A   1      34.435  22.937  27.021  1.00  0.00     0.008 C 
ATOM     15  C   UNL A   1      36.456  22.465  25.616  1.00  0.00     0.006 C 
ATOM     16  C   UNL A   1      36.455  22.954  23.136  1.00  0.00     0.002 C 
ATOM     17  C   UNL A   1      36.988  22.054  24.249  1.00  0.00     0.000 C 
BRANCH   9  18
ATOM     18  C   UNL A   1      32.088  23.260  23.726  1.00  0.00     0.318 C 
ATOM     19  N   UNL A   1      31.666  24.050  22.693  1.00  0.00    -0.338 N 
ATOM     20  H   UNL A   1      31.020  23.620  22.088  1.00  0.00     0.165 HD
ATOM     21  O   UNL A   1      31.742  22.083  23.745  1.00  0.00    -0.249 OA
BRANCH  19  22
ATOM     22  C   UNL A   1      32.011  25.418  22.340  1.00  0.00     0.114 C 
ATOM     23  C   UNL A   1      32.530  25.571  20.925  1.00  0.00     0.027 C 
ENDBRANCH  19  22
ENDBRANCH   9  18
ENDBRANCH   6   8
ENDBRANCH   5   6
ENDBRANCH   4   5
ENDBRANCH   3   4
ENDBRANCH   2   3
ENDBRANCH   1   2
BRANCH   1  24
ATOM     24  C   UNL A   1      31.410  31.194  26.281  1.00  0.00     0.261 C 
BRANCH  24  25
ATOM     25  O   UNL A   1      32.456  30.964  27.241  1.00  0.00    -0.460 OA
BRANCH  25  26
ATOM     26  C   UNL A   1      33.238  32.043  27.472  1.00  0.00     0.338 C 
ATOM     27  O   UNL A   1      32.863  33.208  27.558  1.00  0.00    -0.246 OA
BRANCH  26  28
ATOM     28  C   UNL A   1      34.608  31.630  27.824  1.00  0.00     0.060 A 
ATOM     29  C   UNL A   1      34.823  30.259  28.021  1.00  0.00     0.016 A 
ATOM     30  C   UNL A   1      35.639  32.548  28.037  1.00  0.00     0.016 A 
ATOM     31  C   UNL A   1      36.033  29.809  28.536  1.00  0.00     0.010 A 
ATOM     32  C   UNL A   1      36.856  32.095  28.562  1.00  0.00     0.010 A 
ATOM     33  C   UNL A   1      37.028  30.733  28.874  1.00  0.00    -0.014 A 
BRANCH  33  34
ATOM     34  C   UNL A   1      38.116  30.297  29.784  1.00  0.00     0.031 A 
ATOM     35  C   UNL A   1      39.122  29.306  29.259  1.00  0.00     0.074 A 
ATOM     36  C   UNL A   1      38.255  30.831  31.009  1.00  0.00     0.049 A 
ATOM     37  N   UNL A   1      40.150  28.765  29.857  1.00  0.00    -0.248 NA
ATOM     38  C   UNL A   1      38.937  28.865  27.867  1.00  0.00     0.031 C 
ATOM     39  C   UNL A   1      37.380  31.848  31.591  1.00  0.00     0.029 A 
ATOM     40  N   UNL A   1      39.191  30.592  31.982  1.00  0.00    -0.354 N 
ATOM     41  C   UNL A   1      40.729  27.914  28.920  1.00  0.00     0.074 A 
ATOM     42  C   UNL A   1      39.912  27.981  27.729  1.00  0.00     0.031 C 
ATOM     43  C   UNL A   1      37.820  32.143  32.826  1.00  0.00     0.029 A 
ATOM     44  C   UNL A   1      38.981  31.310  33.136  1.00  0.00     0.049 A 
ATOM     45  H   UNL A   1      39.941  29.967  31.866  1.00  0.00     0.167 HD
ATOM     46  C   UNL A   1      41.847  27.157  29.038  1.00  0.00     0.034 A 
ATOM     47  C   UNL A   1      39.639  31.276  34.312  1.00  0.00     0.034 A 
ATOM     48  C   UNL A   1      42.646  27.101  30.238  1.00  0.00     0.049 A 
ATOM     49  C   UNL A   1      40.834  30.362  34.452  1.00  0.00     0.074 A 
ATOM     50  C   UNL A   1      43.792  26.364  30.479  1.00  0.00     0.029 A 
ATOM     51  N   UNL A   1      42.376  27.807  31.404  1.00  0.00    -0.354 N 
ATOM     52  N   UNL A   1      41.364  29.550  33.565  1.00  0.00    -0.248 NA
ATOM     53  C   UNL A   1      41.526  30.371  35.746  1.00  0.00     0.031 C 
ATOM     54  C   UNL A   1      44.173  26.569  31.809  1.00  0.00     0.029 A 
ATOM     55  C   UNL A   1      43.317  27.502  32.375  1.00  0.00     0.049 A 
ATOM     56  H   UNL A   1      41.626  28.433  31.524  1.00  0.00     0.167 HD
ATOM     57  C   UNL A   1      42.477  28.985  34.184  1.00  0.00     0.074 A 
ATOM     58  C   UNL A   1      42.545  29.556  35.513  1.00  0.00     0.031 C 
ATOM     59  C   UNL A   1      43.368  28.082  33.697  1.00  0.00     0.034 A 
BRANCH  46  60
ATOM     60  C   UNL A   1      42.224  26.288  27.861  1.00  0.00     0.023 A 
ATOM     61  C   UNL A   1      41.754  24.968  27.728  1.00  0.00     0.031 A 
ATOM     62  C   UNL A   1      43.104  26.773  26.877  1.00  0.00     0.131 A 
ATOM     63  C   UNL A   1      42.224  24.159  26.681  1.00  0.00     0.055 A 
ATOM     64  C   UNL A   1      43.501  25.990  25.792  1.00  0.00     0.041 A 
ATOM     65  F   UNL A   1      43.608  28.014  26.964  1.00  0.00    -0.206 F 
ATOM     66  C   UNL A   1      43.073  24.670  25.697  1.00  0.00     0.022 A 
BRANCH  63  67
ATOM     67  S   UNL A   1      41.831  22.389  26.707  1.00  0.00     0.124 S 
ATOM     68  O   UNL A   1      42.268  21.970  25.377  1.00  0.00    -0.237 OA
ATOM     69  O   UNL A   1      42.630  21.904  27.826  1.00  0.00    -0.237 OA
ATOM     70  O   UNL A   1      40.384  22.363  26.915  1.00  0.00    -0.744 OA
ENDBRANCH  63  67
ENDBRANCH  46  60
BRANCH  47  71
ATOM     71  C   UNL A   1      39.172  32.101  35.464  1.00  0.00     0.023 A 
ATOM     72  C   UNL A   1      39.617  33.420  35.646  1.00  0.00     0.031 A 
ATOM     73  C   UNL A   1      38.313  31.556  36.435  1.00  0.00     0.131 A 
ATOM     74  C   UNL A   1      39.241  34.132  36.796  1.00  0.00     0.055 A 
ATOM     75  C   UNL A   1      37.897  32.288  37.548  1.00  0.00     0.041 A 
ATOM     76  F   UNL A   1      37.860  30.298  36.313  1.00  0.00    -0.206 F 
ATOM     77  C   UNL A   1      38.373  33.581  37.741  1.00  0.00     0.022 A 
BRANCH  74  78
ATOM     78  S   UNL A   1      39.979  35.763  37.087  1.00  0.00     0.124 S 
ATOM     79  O   UNL A   1      39.278  36.196  38.291  1.00  0.00    -0.237 OA
ATOM     80  O   UNL A   1      41.391  35.431  37.251  1.00  0.00    -0.237 OA
ATOM     81  O   UNL A   1      39.653  36.508  35.872  1.00  0.00    -0.744 OA
ENDBRANCH  74  78
ENDBRANCH  47  71
BRANCH  59  82
ATOM     82  C   UNL A   1      44.531  27.713  34.589  1.00  0.00     0.023 A 
ATOM     83  C   UNL A   1      44.486  26.609  35.458  1.00  0.00     0.031 A 
ATOM     84  C   UNL A   1      45.700  28.496  34.576  1.00  0.00     0.131 A 
ATOM     85  C   UNL A   1      45.561  26.356  36.322  1.00  0.00     0.055 A 
ATOM     86  C   UNL A   1      46.794  28.199  35.391  1.00  0.00     0.041 A 
ATOM     87  F   UNL A   1      45.801  29.563  33.767  1.00  0.00    -0.206 F 
ATOM     88  C   UNL A   1      46.722  27.134  36.283  1.00  0.00     0.022 A 
BRANCH  85  89
ATOM     89  S   UNL A   1      45.381  25.063  37.582  1.00  0.00     0.124 S 
ATOM     90  O   UNL A   1      46.771  24.760  37.909  1.00  0.00    -0.237 OA
ATOM     91  O   UNL A   1      44.616  25.745  38.621  1.00  0.00    -0.237 OA
ATOM     92  O   UNL A   1      44.664  23.999  36.882  1.00  0.00    -0.744 OA
ENDBRANCH  85  89
ENDBRANCH  59  82
ENDBRANCH  33  34
ENDBRANCH  26  28
ENDBRANCH  25  26
ENDBRANCH  24  25
ENDBRANCH   1  24
TORSDOF 19
ENDMDL
MODEL 3
REMARK VINA RESULT:     -11.5      1.498      7.662
REMARK SMILES CCNC(=O)N1[C@@H](C(=O)OCCOCCOC(=O)c2ccc(-c3c4nc(c(-c5cc(S(=O)(=O)[O-])ccc5F)c5ccc([nH]5)c(-c5cc(S(=O)(=O)[O-])ccc5F)c5nc(c(-c6cc(S(=O)(=O)[O-])ccc6F)c6ccc3[nH]6)C=C5)C=C4)cc2)CC[C@@H]2CCCC[C@H]21
REMARK SMILES IDX 14 1 13 2 12 3 11 4 10 5 8 6 9 7 7 8 6 9 89 10 82 11 84 12
REMARK SMILES IDX 88 13 83 14 85 15 87 16 86 17 4 18 3 19 5 21 2 22 1 23 15 24
REMARK SMILES IDX 16 25 17 26 18 27 19 28 20 29 81 30 21 31 80 32 22 33 23 34
REMARK SMILES IDX 24 35 74 36 25 37 79 38 73 39 75 40 26 41 78 42 72 43 71 44
REMARK SMILES IDX 27 46 59 47 39 48 58 49 40 50 43 51 57 52 76 53 41 54 42 55
REMARK SMILES IDX 56 57 77 58 44 59 28 60 29 61 37 62 30 63 36 64 38 65 35 66
REMARK SMILES IDX 31 67 32 68 33 69 34 70 60 71 61 72 69 73 62 74 68 75 70 76
REMARK SMILES IDX 67 77 63 78 64 79 65 80 66 81 45 82 46 83 54 84 47 85 53 86
REMARK SMILES IDX 55 87 52 88 48 89 49 90 50 91 51 92
REMARK H PARENT 3 20 75 45 43 56
REMARK Flexibility Score: inf
ROOT
ATOM      1  C   UNL A   1      36.564  20.360  24.904  1.00  0.00     0.202 C 
ENDROOT
BRANCH   1   2
ATOM      2  O   UNL A   1      36.444  21.729  24.519  1.00  0.00    -0.374 OA
BRANCH   2   3
ATOM      3  C   UNL A   1      35.278  22.429  24.951  1.00  0.00     0.202 C 
BRANCH   3   4
ATOM      4  C   UNL A   1      34.954  23.731  24.219  1.00  0.00     0.261 C 
BRANCH   4   5
ATOM      5  O   UNL A   1      33.981  23.550  23.176  1.00  0.00    -0.462 OA
BRANCH   5   6
ATOM      6  C   UNL A   1      33.483  24.690  22.626  1.00  0.00     0.329 C 
ATOM      7  O   UNL A   1      33.113  24.811  21.462  1.00  0.00    -0.250 OA
BRANCH   6   8
ATOM      8  C   UNL A   1      33.444  25.839  23.637  1.00  0.00     0.197 C 
ATOM      9  N   UNL A   1      32.313  25.918  24.588  1.00  0.00    -0.308 N 
ATOM     10  C   UNL A   1      32.422  27.026  25.564  1.00  0.00     0.091 C 
ATOM     11  C   UNL A   1      33.711  27.180  22.939  1.00  0.00     0.038 C 
ATOM     12  C   UNL A   1      32.800  28.387  24.924  1.00  0.00     0.012 C 
ATOM     13  C   UNL A   1      31.209  27.225  26.494  1.00  0.00     0.025 C 
ATOM     14  C   UNL A   1      33.994  28.254  23.977  1.00  0.00     0.008 C 
ATOM     15  C   UNL A   1      33.123  29.418  26.018  1.00  0.00     0.006 C 
ATOM     16  C   UNL A   1      31.501  28.265  27.576  1.00  0.00     0.002 C 
ATOM     17  C   UNL A   1      31.956  29.596  26.982  1.00  0.00     0.000 C 
BRANCH   9  18
ATOM     18  C   UNL A   1      31.079  25.440  24.208  1.00  0.00     0.318 C 
ATOM     19  N   UNL A   1      30.631  24.304  24.822  1.00  0.00    -0.338 N 
ATOM     20  H   UNL A   1      29.756  23.986  24.505  1.00  0.00     0.165 HD
ATOM     21  O   UNL A   1      30.329  26.023  23.432  1.00  0.00    -0.249 OA
BRANCH  19  22
ATOM     22  C   UNL A   1      31.231  23.487  25.865  1.00  0.00     0.114 C 
ATOM     23  C   UNL A   1      30.223  22.843  26.793  1.00  0.00     0.027 C 
ENDBRANCH  19  22
ENDBRANCH   9  18
ENDBRANCH   6   8
ENDBRANCH   5   6
ENDBRANCH   4   5
ENDBRANCH   3   4
ENDBRANCH   2   3
ENDBRANCH   1   2
BRANCH   1  24
ATOM     24  C   UNL A   1      37.980  19.818  25.104  1.00  0.00     0.261 C 
BRANCH  24  25
ATOM     25  O   UNL A   1      38.938  20.885  25.224  1.00  0.00    -0.460 OA
BRANCH  25  26
ATOM     26  C   UNL A   1      39.870  20.681  26.183  1.00  0.00     0.338 C 
ATOM     27  O   UNL A   1      40.562  19.677  26.323  1.00  0.00    -0.246 OA
BRANCH  26  28
ATOM     28  C   UNL A   1      40.117  21.919  26.943  1.00  0.00     0.060 A 
ATOM     29  C   UNL A   1      39.354  23.041  26.588  1.00  0.00     0.016 A 
ATOM     30  C   UNL A   1      41.114  22.018  27.917  1.00  0.00     0.016 A 
ATOM     31  C   UNL A   1      39.656  24.287  27.123  1.00  0.00     0.010 A 
ATOM     32  C   UNL A   1      41.421  23.275  28.451  1.00  0.00     0.010 A 
ATOM     33  C   UNL A   1      40.736  24.420  28.004  1.00  0.00    -0.014 A 
BRANCH  33  34
ATOM     34  C   UNL A   1      41.296  25.775  28.234  1.00  0.00     0.031 A 
ATOM     35  C   UNL A   1      42.666  26.077  27.684  1.00  0.00     0.074 A 
ATOM     36  C   UNL A   1      40.573  26.734  28.838  1.00  0.00     0.049 A 
ATOM     37  N   UNL A   1      43.373  27.172  27.761  1.00  0.00    -0.248 NA
ATOM     38  C   UNL A   1      43.326  24.987  26.947  1.00  0.00     0.031 C 
ATOM     39  C   UNL A   1      39.212  26.572  29.346  1.00  0.00     0.029 A 
ATOM     40  N   UNL A   1      40.888  28.038  29.120  1.00  0.00    -0.354 N 
ATOM     41  C   UNL A   1      44.564  26.903  27.093  1.00  0.00     0.074 A 
ATOM     42  C   UNL A   1      44.499  25.527  26.654  1.00  0.00     0.031 C 
ATOM     43  C   UNL A   1      38.809  27.735  29.884  1.00  0.00     0.029 A 
ATOM     44  C   UNL A   1      39.894  28.710  29.794  1.00  0.00     0.049 A 
ATOM     45  H   UNL A   1      41.742  28.455  28.866  1.00  0.00     0.167 HD
ATOM     46  C   UNL A   1      45.610  27.731  26.856  1.00  0.00     0.034 A 
ATOM     47  C   UNL A   1      39.879  29.961  30.297  1.00  0.00     0.034 A 
ATOM     48  C   UNL A   1      45.658  29.100  27.308  1.00  0.00     0.049 A 
ATOM     49  C   UNL A   1      41.089  30.842  30.096  1.00  0.00     0.074 A 
ATOM     50  C   UNL A   1      46.666  30.032  27.138  1.00  0.00     0.029 A 
ATOM     51  N   UNL A   1      44.651  29.734  28.029  1.00  0.00    -0.354 N 
ATOM     52  N   UNL A   1      42.216  30.572  29.476  1.00  0.00    -0.248 NA
ATOM     53  C   UNL A   1      41.019  32.199  30.650  1.00  0.00     0.031 C 
ATOM     54  C   UNL A   1      46.302  31.201  27.814  1.00  0.00     0.029 A 
ATOM     55  C   UNL A   1      45.028  31.033  28.333  1.00  0.00     0.049 A 
ATOM     56  H   UNL A   1      43.796  29.320  28.286  1.00  0.00     0.167 HD
ATOM     57  C   UNL A   1      42.970  31.743  29.532  1.00  0.00     0.074 A 
ATOM     58  C   UNL A   1      42.165  32.719  30.236  1.00  0.00     0.031 C 
ATOM     59  C   UNL A   1      44.211  31.993  29.038  1.00  0.00     0.034 A 
BRANCH  46  60
ATOM     60  C   UNL A   1      46.804  27.153  26.133  1.00  0.00     0.023 A 
ATOM     61  C   UNL A   1      47.837  26.484  26.816  1.00  0.00     0.031 A 
ATOM     62  C   UNL A   1      46.932  27.310  24.742  1.00  0.00     0.131 A 
ATOM     63  C   UNL A   1      48.982  26.068  26.119  1.00  0.00     0.055 A 
ATOM     64  C   UNL A   1      48.035  26.818  24.042  1.00  0.00     0.041 A 
ATOM     65  F   UNL A   1      45.993  27.964  24.039  1.00  0.00    -0.206 F 
ATOM     66  C   UNL A   1      49.076  26.206  24.732  1.00  0.00     0.022 A 
BRANCH  63  67
ATOM     67  S   UNL A   1      50.411  25.478  27.068  1.00  0.00     0.124 S 
ATOM     68  O   UNL A   1      49.877  24.265  27.682  1.00  0.00    -0.237 OA
ATOM     69  O   UNL A   1      51.419  25.282  26.033  1.00  0.00    -0.237 OA
ATOM     70  O   UNL A   1      50.678  26.573  28.000  1.00  0.00    -0.744 OA
ENDBRANCH  63  67
ENDBRANCH  46  60
BRANCH  47  71
ATOM     71  C   UNL A   1      38.700  30.450  31.070  1.00  0.00     0.023 A 
ATOM     72  C   UNL A   1      37.619  31.079  30.434  1.00  0.00     0.031 A 
ATOM     73  C   UNL A   1      38.667  30.343  32.472  1.00  0.00     0.131 A 
ATOM     74  C   UNL A   1      36.575  31.621  31.200  1.00  0.00     0.055 A 
ATOM     75  C   UNL A   1      37.600  30.834  33.226  1.00  0.00     0.041 A 
ATOM     76  F   UNL A   1      39.676  29.753  33.133  1.00  0.00    -0.206 F 
ATOM     77  C   UNL A   1      36.551  31.490  32.590  1.00  0.00     0.022 A 
BRANCH  74  78
ATOM     78  S   UNL A   1      35.289  32.584  30.358  1.00  0.00     0.124 S 
ATOM     79  O   UNL A   1      36.003  33.815  30.035  1.00  0.00    -0.237 OA
ATOM     80  O   UNL A   1      34.954  31.721  29.230  1.00  0.00    -0.237 OA
ATOM     81  O   UNL A   1      34.243  32.716  31.371  1.00  0.00    -0.744 OA
ENDBRANCH  74  78
ENDBRANCH  47  71
BRANCH  59  82
ATOM     82  C   UNL A   1      44.740  33.401  29.187  1.00  0.00     0.023 A 
ATOM     83  C   UNL A   1      44.248  34.468  28.414  1.00  0.00     0.031 A 
ATOM     84  C   UNL A   1      45.766  33.671  30.110  1.00  0.00     0.131 A 
ATOM     85  C   UNL A   1      44.827  35.741  28.534  1.00  0.00     0.055 A 
ATOM     86  C   UNL A   1      46.292  34.954  30.272  1.00  0.00     0.041 A 
ATOM     87  F   UNL A   1      46.275  32.691  30.874  1.00  0.00    -0.206 F 
ATOM     88  C   UNL A   1      45.834  35.994  29.469  1.00  0.00     0.022 A 
BRANCH  85  89
ATOM     89  S   UNL A   1      44.324  37.039  27.371  1.00  0.00     0.124 S 
ATOM     90  O   UNL A   1      45.609  37.491  26.846  1.00  0.00    -0.237 OA
ATOM     91  O   UNL A   1      43.475  36.308  26.436  1.00  0.00    -0.237 OA
ATOM     92  O   UNL A   1      43.627  38.006  28.216  1.00  0.00    -0.744 OA
ENDBRANCH  85  89
ENDBRANCH  59  82
ENDBRANCH  33  34
ENDBRANCH  26  28
ENDBRANCH  25  26
ENDBRANCH  24  25
ENDBRANCH   1  24
TORSDOF 19
ENDMDL
