MODEL 1
REMARK VINA RESULT:     -11.8      0.000      0.000
REMARK SMILES O=C(OCCOCCOC(=O)c1ccc(-c2c3nc(c(-c4cc(S(=O)(=O)[O-])ccc4F)c4ccc([nH]4)c(-c4cc(S(=O)(=O)[O-])ccc4F)c4nc(c(-c5cc(S(=O)(=O)[O-])ccc5F)c5ccc2[nH]5)C=C4)C=C3)cc1)C1=Cc2cc(S(F)(F)(F)(F)F)ccc2O[C@@H]1C(F)(F)F
REMARK SMILES IDX 7 1 6 2 5 3 4 4 3 5 2 6 1 7 75 8 76 9 90 10 77 11 89 12
REMARK SMILES IDX 78 13 88 14 79 15 87 16 86 17 91 18 92 19 93 20 94 21 80 22
REMARK SMILES IDX 81 23 82 24 83 25 84 26 85 27 8 28 9 29 10 30 11 31 12 32
REMARK SMILES IDX 13 33 74 34 14 35 73 36 15 37 16 38 17 39 67 40 18 41 72 42
REMARK SMILES IDX 66 43 68 44 19 45 71 46 65 47 64 48 20 50 52 51 32 52 51 53
REMARK SMILES IDX 33 54 36 55 50 56 69 57 34 58 35 59 49 61 70 62 37 63 21 64
REMARK SMILES IDX 22 65 30 66 23 67 29 68 31 69 28 70 24 71 25 72 26 73 27 74
REMARK SMILES IDX 53 75 54 76 62 77 55 78 61 79 63 80 60 81 56 82 57 83 58 84
REMARK SMILES IDX 59 85 38 86 39 87 47 88 40 89 46 90 48 91 45 92 41 93 42 94
REMARK SMILES IDX 43 95 44 96
REMARK H PARENT 68 49 36 60
REMARK Flexibility Score: inf
ROOT
ATOM      1  C   UNL A   1      32.651  31.493  27.280  1.00  0.00     0.202 C 
ENDROOT
BRANCH   1   2
ATOM      2  O   UNL A   1      34.009  31.196  26.993  1.00  0.00    -0.374 OA
BRANCH   2   3
ATOM      3  C   UNL A   1      34.366  29.969  27.611  1.00  0.00     0.202 C 
BRANCH   3   4
ATOM      4  C   UNL A   1      34.170  28.829  26.624  1.00  0.00     0.261 C 
BRANCH   4   5
ATOM      5  O   UNL A   1      33.275  27.874  27.175  1.00  0.00    -0.460 OA
BRANCH   5   6
ATOM      6  C   UNL A   1      32.000  27.671  26.583  1.00  0.00     0.338 C 
ATOM      7  O   UNL A   1      30.975  27.512  27.318  1.00  0.00    -0.246 OA
BRANCH   6   8
ATOM      8  C   UNL A   1      31.861  27.642  25.070  1.00  0.00     0.087 C 
ATOM      9  C   UNL A   1      32.418  26.628  24.354  1.00  0.00     0.027 C 
ATOM     10  C   UNL A   1      31.099  28.747  24.355  1.00  0.00     0.316 C 
ATOM     11  C   UNL A   1      33.180  25.523  25.068  1.00  0.00     0.019 A 
ATOM     12  O   UNL A   1      31.511  25.570  26.759  1.00  0.00    -0.475 OA
ATOM     13  C   UNL A   1      34.384  25.076  24.550  1.00  0.00     0.036 A 
ATOM     14  C   UNL A   1      32.659  24.984  26.164  1.00  0.00     0.128 A 
ATOM     15  C   UNL A   1      34.824  23.849  25.099  1.00  0.00     0.107 A 
ATOM     16  C   UNL A   1      33.222  23.864  26.727  1.00  0.00     0.048 A 
ATOM     17  C   UNL A   1      34.379  23.332  26.230  1.00  0.00     0.028 A 
BRANCH  10  18
ATOM     18  C   UNL A   1      29.927  28.146  23.597  1.00  0.00     0.430 C 
ATOM     19  F   UNL A   1      30.323  27.791  22.377  1.00  0.00    -0.167 F 
ATOM     20  F   UNL A   1      29.481  27.076  24.247  1.00  0.00    -0.167 F 
ATOM     21  F   UNL A   1      28.953  29.046  23.501  1.00  0.00    -0.167 F 
ENDBRANCH  10  18
BRANCH  15  22
ATOM     22  S   UNL A   1      36.087  22.924  24.190  1.00  0.00     0.310 S 
ATOM     23  F   UNL A   1      36.488  22.086  25.476  1.00  0.00    -0.094 F 
ATOM     24  F   UNL A   1      37.152  23.993  24.638  1.00  0.00    -0.094 F 
ATOM     25  F   UNL A   1      37.171  22.129  23.409  1.00  0.00    -0.094 F 
ATOM     26  F   UNL A   1      35.036  21.789  23.869  1.00  0.00    -0.094 F 
ATOM     27  F   UNL A   1      35.000  23.659  25.072  1.00  0.00    -0.094 F 
ENDBRANCH  15  22
ENDBRANCH   6   8
ENDBRANCH   5   6
ENDBRANCH   4   5
ENDBRANCH   3   4
ENDBRANCH   2   3
ENDBRANCH   1   2
BRANCH   1  28
ATOM     28  C   UNL A   1      32.348  32.926  26.874  1.00  0.00     0.261 C 
BRANCH  28  29
ATOM     29  O   UNL A   1      32.153  33.716  28.037  1.00  0.00    -0.460 OA
BRANCH  29  30
ATOM     30  C   UNL A   1      33.210  34.526  28.531  1.00  0.00     0.338 C 
ATOM     31  O   UNL A   1      33.136  35.791  28.441  1.00  0.00    -0.246 OA
BRANCH  30  32
ATOM     32  C   UNL A   1      34.431  33.879  29.166  1.00  0.00     0.060 A 
ATOM     33  C   UNL A   1      35.697  34.221  28.721  1.00  0.00     0.016 A 
ATOM     34  C   UNL A   1      34.255  32.955  30.102  1.00  0.00     0.016 A 
ATOM     35  C   UNL A   1      36.709  33.319  29.124  1.00  0.00     0.010 A 
ATOM     36  C   UNL A   1      35.314  32.201  30.548  1.00  0.00     0.010 A 
ATOM     37  C   UNL A   1      36.585  32.446  30.107  1.00  0.00    -0.014 A 
BRANCH  37  38
ATOM     38  C   UNL A   1      37.792  31.749  30.716  1.00  0.00     0.031 A 
ATOM     39  C   UNL A   1      38.171  32.115  32.009  1.00  0.00     0.074 A 
ATOM     40  C   UNL A   1      38.424  30.766  29.973  1.00  0.00     0.049 A 
ATOM     41  N   UNL A   1      39.146  31.589  32.750  1.00  0.00    -0.248 NA
ATOM     42  C   UNL A   1      37.523  33.182  32.786  1.00  0.00     0.031 C 
ATOM     43  C   UNL A   1      38.042  30.385  28.672  1.00  0.00     0.029 A 
ATOM     44  N   UNL A   1      39.506  29.997  30.337  1.00  0.00    -0.354 N 
ATOM     45  C   UNL A   1      39.195  32.188  33.942  1.00  0.00     0.074 A 
ATOM     46  C   UNL A   1      38.155  33.226  33.980  1.00  0.00     0.031 C 
ATOM     47  C   UNL A   1      38.889  29.408  28.254  1.00  0.00     0.029 A 
ATOM     48  C   UNL A   1      39.814  29.162  29.285  1.00  0.00     0.049 A 
ATOM     49  H   UNL A   1      39.979  30.036  31.200  1.00  0.00     0.167 HD
ATOM     50  C   UNL A   1      40.063  31.909  34.998  1.00  0.00     0.034 A 
ATOM     51  C   UNL A   1      40.839  28.233  29.212  1.00  0.00     0.034 A 
ATOM     52  C   UNL A   1      41.061  30.950  34.940  1.00  0.00     0.049 A 
ATOM     53  C   UNL A   1      41.746  27.994  30.247  1.00  0.00     0.074 A 
ATOM     54  C   UNL A   1      41.940  30.651  35.998  1.00  0.00     0.029 A 
ATOM     55  N   UNL A   1      41.384  30.133  33.880  1.00  0.00    -0.354 N 
ATOM     56  N   UNL A   1      41.769  28.567  31.452  1.00  0.00    -0.248 NA
ATOM     57  C   UNL A   1      42.856  27.036  30.168  1.00  0.00     0.031 C 
ATOM     58  C   UNL A   1      42.788  29.674  35.579  1.00  0.00     0.029 A 
ATOM     59  C   UNL A   1      42.452  29.347  34.252  1.00  0.00     0.049 A 
ATOM     60  H   UNL A   1      40.930  30.114  33.006  1.00  0.00     0.167 HD
ATOM     61  C   UNL A   1      42.771  28.068  32.179  1.00  0.00     0.074 A 
ATOM     62  C   UNL A   1      43.490  27.081  31.360  1.00  0.00     0.031 C 
ATOM     63  C   UNL A   1      43.113  28.393  33.492  1.00  0.00     0.034 A 
BRANCH  50  64
ATOM     64  C   UNL A   1      39.905  32.702  36.286  1.00  0.00     0.023 A 
ATOM     65  C   UNL A   1      39.156  32.169  37.321  1.00  0.00     0.031 A 
ATOM     66  C   UNL A   1      40.477  33.896  36.393  1.00  0.00     0.131 A 
ATOM     67  C   UNL A   1      38.828  33.103  38.332  1.00  0.00     0.055 A 
ATOM     68  C   UNL A   1      40.217  34.702  37.475  1.00  0.00     0.041 A 
ATOM     69  F   UNL A   1      41.310  34.315  35.445  1.00  0.00    -0.206 F 
ATOM     70  C   UNL A   1      39.438  34.261  38.509  1.00  0.00     0.022 A 
BRANCH  67  71
ATOM     71  S   UNL A   1      37.476  32.682  39.461  1.00  0.00     0.124 S 
ATOM     72  O   UNL A   1      36.150  32.702  38.698  1.00  0.00    -0.237 OA
ATOM     73  O   UNL A   1      37.712  31.285  40.039  1.00  0.00    -0.237 OA
ATOM     74  O   UNL A   1      37.420  33.823  40.733  1.00  0.00    -0.744 OA
ENDBRANCH  67  71
ENDBRANCH  50  64
BRANCH  51  75
ATOM     75  C   UNL A   1      40.986  27.428  27.930  1.00  0.00     0.023 A 
ATOM     76  C   UNL A   1      40.519  26.124  27.903  1.00  0.00     0.031 A 
ATOM     77  C   UNL A   1      41.555  27.979  26.864  1.00  0.00     0.131 A 
ATOM     78  C   UNL A   1      40.960  25.381  26.783  1.00  0.00     0.055 A 
ATOM     79  C   UNL A   1      41.835  27.222  25.751  1.00  0.00     0.041 A 
ATOM     80  F   UNL A   1      41.855  29.274  26.873  1.00  0.00    -0.206 F 
ATOM     81  C   UNL A   1      41.454  25.911  25.679  1.00  0.00     0.022 A 
BRANCH  78  82
ATOM     82  S   UNL A   1      40.841  23.576  26.871  1.00  0.00     0.124 S 
ATOM     83  O   UNL A   1      41.192  23.110  28.285  1.00  0.00    -0.237 OA
ATOM     84  O   UNL A   1      39.413  23.144  26.529  1.00  0.00    -0.237 OA
ATOM     85  O   UNL A   1      41.930  22.879  25.753  1.00  0.00    -0.744 OA
ENDBRANCH  78  82
ENDBRANCH  51  75
BRANCH  63  86
ATOM     86  C   UNL A   1      44.281  27.658  34.128  1.00  0.00     0.023 A 
ATOM     87  C   UNL A   1      44.084  26.398  34.669  1.00  0.00     0.031 A 
ATOM     88  C   UNL A   1      45.467  28.254  34.184  1.00  0.00     0.131 A 
ATOM     89  C   UNL A   1      45.136  25.965  35.511  1.00  0.00     0.055 A 
ATOM     90  C   UNL A   1      46.492  27.705  34.916  1.00  0.00     0.041 A 
ATOM     91  F   UNL A   1      45.663  29.394  33.528  1.00  0.00    -0.206 F 
ATOM     92  C   UNL A   1      46.348  26.490  35.526  1.00  0.00     0.022 A 
BRANCH  89  93
ATOM     93  S   UNL A   1      44.797  24.595  36.644  1.00  0.00     0.124 S 
ATOM     94  O   UNL A   1      43.855  25.071  37.752  1.00  0.00    -0.237 OA
ATOM     95  O   UNL A   1      44.141  23.446  35.876  1.00  0.00    -0.237 OA
ATOM     96  O   UNL A   1      46.263  24.054  37.338  1.00  0.00    -0.744 OA
ENDBRANCH  89  93
ENDBRANCH  63  86
ENDBRANCH  37  38
ENDBRANCH  30  32
ENDBRANCH  29  30
ENDBRANCH  28  29
ENDBRANCH   1  28
TORSDOF 19
ENDMDL
MODEL 2
REMARK VINA RESULT:     -11.7      2.680      3.557
REMARK SMILES O=C(OCCOCCOC(=O)c1ccc(-c2c3nc(c(-c4cc(S(=O)(=O)[O-])ccc4F)c4ccc([nH]4)c(-c4cc(S(=O)(=O)[O-])ccc4F)c4nc(c(-c5cc(S(=O)(=O)[O-])ccc5F)c5ccc2[nH]5)C=C4)C=C3)cc1)C1=Cc2cc(S(F)(F)(F)(F)F)ccc2O[C@@H]1C(F)(F)F
REMARK SMILES IDX 7 1 6 2 5 3 4 4 3 5 2 6 1 7 75 8 76 9 90 10 77 11 89 12
REMARK SMILES IDX 78 13 88 14 79 15 87 16 86 17 91 18 92 19 93 20 94 21 80 22
REMARK SMILES IDX 81 23 82 24 83 25 84 26 85 27 8 28 9 29 10 30 11 31 12 32
REMARK SMILES IDX 13 33 74 34 14 35 73 36 15 37 16 38 17 39 67 40 18 41 72 42
REMARK SMILES IDX 66 43 68 44 19 45 71 46 65 47 64 48 20 50 52 51 32 52 51 53
REMARK SMILES IDX 33 54 36 55 50 56 69 57 34 58 35 59 49 61 70 62 37 63 21 64
REMARK SMILES IDX 22 65 30 66 23 67 29 68 31 69 28 70 24 71 25 72 26 73 27 74
REMARK SMILES IDX 53 75 54 76 62 77 55 78 61 79 63 80 60 81 56 82 57 83 58 84
REMARK SMILES IDX 59 85 38 86 39 87 47 88 40 89 46 90 48 91 45 92 41 93 42 94
REMARK SMILES IDX 43 95 44 96
REMARK H PARENT 68 49 36 60
REMARK Flexibility Score: inf
ROOT
ATOM      1  C   UNL A   1      31.796  28.189  25.759  1.00  0.00     0.202 C 
ENDROOT
BRANCH   1   2
ATOM      2  O   UNL A   1      32.596  27.850  24.636  1.00  0.00    -0.374 OA
BRANCH   2   3
ATOM      3  C   UNL A   1      33.593  26.919  25.029  1.00  0.00     0.202 C 
BRANCH   3   4
ATOM      4  C   UNL A   1      33.954  26.034  23.846  1.00  0.00     0.261 C 
BRANCH   4   5
ATOM      5  O   UNL A   1      34.048  24.684  24.276  1.00  0.00    -0.460 OA
BRANCH   5   6
ATOM      6  C   UNL A   1      33.193  23.699  23.715  1.00  0.00     0.338 C 
ATOM      7  O   UNL A   1      33.491  23.156  22.605  1.00  0.00    -0.246 OA
BRANCH   6   8
ATOM      8  C   UNL A   1      31.921  23.293  24.442  1.00  0.00     0.087 C 
ATOM      9  C   UNL A   1      31.783  22.025  24.916  1.00  0.00     0.027 C 
ATOM     10  C   UNL A   1      30.803  24.304  24.639  1.00  0.00     0.316 C 
ATOM     11  C   UNL A   1      32.900  21.014  24.718  1.00  0.00     0.019 A 
ATOM     12  O   UNL A   1      34.452  22.750  25.198  1.00  0.00    -0.475 OA
ATOM     13  C   UNL A   1      32.593  19.722  24.327  1.00  0.00     0.036 A 
ATOM     14  C   UNL A   1      34.154  21.383  24.956  1.00  0.00     0.128 A 
ATOM     15  C   UNL A   1      33.657  18.804  24.495  1.00  0.00     0.107 A 
ATOM     16  C   UNL A   1      35.165  20.452  24.970  1.00  0.00     0.048 A 
ATOM     17  C   UNL A   1      34.922  19.145  24.652  1.00  0.00     0.028 A 
BRANCH  10  18
ATOM     18  C   UNL A   1      30.548  24.494  26.125  1.00  0.00     0.430 C 
ATOM     19  F   UNL A   1      29.962  23.405  26.618  1.00  0.00    -0.167 F 
ATOM     20  F   UNL A   1      31.703  24.697  26.751  1.00  0.00    -0.167 F 
ATOM     21  F   UNL A   1      29.753  25.545  26.308  1.00  0.00    -0.167 F 
ENDBRANCH  10  18
BRANCH  15  22
ATOM     22  S   UNL A   1      33.254  17.039  24.494  1.00  0.00     0.310 S 
ATOM     23  F   UNL A   1      34.784  16.626  24.418  1.00  0.00    -0.094 F 
ATOM     24  F   UNL A   1      33.254  17.069  22.919  1.00  0.00    -0.094 F 
ATOM     25  F   UNL A   1      32.908  15.523  24.493  1.00  0.00    -0.094 F 
ATOM     26  F   UNL A   1      33.397  16.997  26.066  1.00  0.00    -0.094 F 
ATOM     27  F   UNL A   1      33.716  18.551  24.508  1.00  0.00    -0.094 F 
ENDBRANCH  15  22
ENDBRANCH   6   8
ENDBRANCH   5   6
ENDBRANCH   4   5
ENDBRANCH   3   4
ENDBRANCH   2   3
ENDBRANCH   1   2
BRANCH   1  28
ATOM     28  C   UNL A   1      31.514  29.683  25.749  1.00  0.00     0.261 C 
BRANCH  28  29
ATOM     29  O   UNL A   1      32.741  30.396  25.740  1.00  0.00    -0.460 OA
BRANCH  29  30
ATOM     30  C   UNL A   1      33.061  31.273  26.810  1.00  0.00     0.338 C 
ATOM     31  O   UNL A   1      32.327  32.283  27.045  1.00  0.00    -0.246 OA
BRANCH  30  32
ATOM     32  C   UNL A   1      34.283  31.004  27.675  1.00  0.00     0.060 A 
ATOM     33  C   UNL A   1      35.138  32.045  27.997  1.00  0.00     0.016 A 
ATOM     34  C   UNL A   1      34.535  29.759  28.062  1.00  0.00     0.016 A 
ATOM     35  C   UNL A   1      36.394  31.623  28.490  1.00  0.00     0.010 A 
ATOM     36  C   UNL A   1      35.732  29.443  28.660  1.00  0.00     0.010 A 
ATOM     37  C   UNL A   1      36.648  30.413  28.956  1.00  0.00    -0.014 A 
BRANCH  37  38
ATOM     38  C   UNL A   1      37.894  30.115  29.776  1.00  0.00     0.031 A 
ATOM     39  C   UNL A   1      38.018  30.738  31.018  1.00  0.00     0.074 A 
ATOM     40  C   UNL A   1      38.815  29.218  29.264  1.00  0.00     0.049 A 
ATOM     41  N   UNL A   1      38.986  30.569  31.920  1.00  0.00    -0.248 NA
ATOM     42  C   UNL A   1      37.058  31.718  31.549  1.00  0.00     0.031 C 
ATOM     43  C   UNL A   1      38.693  28.579  28.014  1.00  0.00     0.029 A 
ATOM     44  N   UNL A   1      39.987  28.787  29.844  1.00  0.00    -0.354 N 
ATOM     45  C   UNL A   1      38.751  31.323  32.997  1.00  0.00     0.074 A 
ATOM     46  C   UNL A   1      37.511  32.078  32.770  1.00  0.00     0.031 C 
ATOM     47  C   UNL A   1      39.780  27.783  27.840  1.00  0.00     0.029 A 
ATOM     48  C   UNL A   1      40.600  27.911  28.976  1.00  0.00     0.049 A 
ATOM     49  H   UNL A   1      40.328  29.058  30.727  1.00  0.00     0.167 HD
ATOM     50  C   UNL A   1      39.522  31.409  34.157  1.00  0.00     0.034 A 
ATOM     51  C   UNL A   1      41.807  27.252  29.147  1.00  0.00     0.034 A 
ATOM     52  C   UNL A   1      40.706  30.716  34.346  1.00  0.00     0.049 A 
ATOM     53  C   UNL A   1      42.608  27.383  30.285  1.00  0.00     0.074 A 
ATOM     54  C   UNL A   1      41.491  30.787  35.513  1.00  0.00     0.029 A 
ATOM     55  N   UNL A   1      41.332  29.860  33.468  1.00  0.00    -0.354 N 
ATOM     56  N   UNL A   1      42.353  28.107  31.376  1.00  0.00    -0.248 NA
ATOM     57  C   UNL A   1      43.904  26.715  30.463  1.00  0.00     0.031 C 
ATOM     58  C   UNL A   1      42.580  29.991  35.338  1.00  0.00     0.029 A 
ATOM     59  C   UNL A   1      42.493  29.411  34.058  1.00  0.00     0.049 A 
ATOM     60  H   UNL A   1      41.006  29.611  32.573  1.00  0.00     0.167 HD
ATOM     61  C   UNL A   1      43.342  27.968  32.261  1.00  0.00     0.074 A 
ATOM     62  C   UNL A   1      44.358  27.076  31.683  1.00  0.00     0.031 C 
ATOM     63  C   UNL A   1      43.438  28.545  33.528  1.00  0.00     0.034 A 
BRANCH  50  64
ATOM     64  C   UNL A   1      39.033  32.314  35.277  1.00  0.00     0.023 A 
ATOM     65  C   UNL A   1      39.405  33.648  35.281  1.00  0.00     0.031 A 
ATOM     66  C   UNL A   1      38.267  31.810  36.237  1.00  0.00     0.131 A 
ATOM     67  C   UNL A   1      39.153  34.310  36.506  1.00  0.00     0.055 A 
ATOM     68  C   UNL A   1      37.947  32.559  37.344  1.00  0.00     0.041 A 
ATOM     69  F   UNL A   1      37.805  30.568  36.128  1.00  0.00    -0.206 F 
ATOM     70  C   UNL A   1      38.332  33.868  37.441  1.00  0.00     0.022 A 
BRANCH  67  71
ATOM     71  S   UNL A   1      40.016  35.872  36.811  1.00  0.00     0.124 S 
ATOM     72  O   UNL A   1      41.494  35.591  37.091  1.00  0.00    -0.237 OA
ATOM     73  O   UNL A   1      39.891  36.773  35.581  1.00  0.00    -0.237 OA
ATOM     74  O   UNL A   1      39.318  36.652  38.163  1.00  0.00    -0.744 OA
ENDBRANCH  67  71
ENDBRANCH  50  64
BRANCH  51  75
ATOM     75  C   UNL A   1      42.287  26.334  28.035  1.00  0.00     0.023 A 
ATOM     76  C   UNL A   1      41.634  25.129  27.834  1.00  0.00     0.031 A 
ATOM     77  C   UNL A   1      43.317  26.695  27.277  1.00  0.00     0.131 A 
ATOM     78  C   UNL A   1      42.329  24.235  26.984  1.00  0.00     0.055 A 
ATOM     79  C   UNL A   1      43.861  25.816  26.371  1.00  0.00     0.041 A 
ATOM     80  F   UNL A   1      43.825  27.918  27.396  1.00  0.00    -0.206 F 
ATOM     81  C   UNL A   1      43.301  24.585  26.163  1.00  0.00     0.022 A 
BRANCH  78  82
ATOM     82  S   UNL A   1      41.852  22.490  27.030  1.00  0.00     0.124 S 
ATOM     83  O   UNL A   1      42.080  21.863  25.652  1.00  0.00    -0.237 OA
ATOM     84  O   UNL A   1      42.701  21.757  28.071  1.00  0.00    -0.237 OA
ATOM     85  O   UNL A   1      40.199  22.361  27.448  1.00  0.00    -0.744 OA
ENDBRANCH  78  82
ENDBRANCH  51  75
BRANCH  63  86
ATOM     86  C   UNL A   1      44.651  28.206  34.377  1.00  0.00     0.023 A 
ATOM     87  C   UNL A   1      44.572  27.181  35.305  1.00  0.00     0.031 A 
ATOM     88  C   UNL A   1      45.760  28.924  34.237  1.00  0.00     0.131 A 
ATOM     89  C   UNL A   1      45.627  27.178  36.248  1.00  0.00     0.055 A 
ATOM     90  C   UNL A   1      46.807  28.773  35.115  1.00  0.00     0.041 A 
ATOM     91  F   UNL A   1      45.856  29.799  33.240  1.00  0.00    -0.206 F 
ATOM     92  C   UNL A   1      46.772  27.819  36.093  1.00  0.00     0.022 A 
BRANCH  89  93
ATOM     93  S   UNL A   1      45.393  26.228  37.771  1.00  0.00     0.124 S 
ATOM     94  O   UNL A   1      46.754  25.952  38.414  1.00  0.00    -0.237 OA
ATOM     95  O   UNL A   1      44.522  27.027  38.742  1.00  0.00    -0.237 OA
ATOM     96  O   UNL A   1      44.625  24.745  37.405  1.00  0.00    -0.744 OA
ENDBRANCH  89  93
ENDBRANCH  63  86
ENDBRANCH  37  38
ENDBRANCH  30  32
ENDBRANCH  29  30
ENDBRANCH  28  29
ENDBRANCH   1  28
TORSDOF 19
ENDMDL
MODEL 3
REMARK VINA RESULT:     -11.6      0.445      7.268
REMARK SMILES O=C(OCCOCCOC(=O)c1ccc(-c2c3nc(c(-c4cc(S(=O)(=O)[O-])ccc4F)c4ccc([nH]4)c(-c4cc(S(=O)(=O)[O-])ccc4F)c4nc(c(-c5cc(S(=O)(=O)[O-])ccc5F)c5ccc2[nH]5)C=C4)C=C3)cc1)C1=Cc2cc(S(F)(F)(F)(F)F)ccc2O[C@@H]1C(F)(F)F
REMARK SMILES IDX 7 1 6 2 5 3 4 4 3 5 2 6 1 7 75 8 76 9 90 10 77 11 89 12
REMARK SMILES IDX 78 13 88 14 79 15 87 16 86 17 91 18 92 19 93 20 94 21 80 22
REMARK SMILES IDX 81 23 82 24 83 25 84 26 85 27 8 28 9 29 10 30 11 31 12 32
REMARK SMILES IDX 13 33 74 34 14 35 73 36 15 37 16 38 17 39 67 40 18 41 72 42
REMARK SMILES IDX 66 43 68 44 19 45 71 46 65 47 64 48 20 50 52 51 32 52 51 53
REMARK SMILES IDX 33 54 36 55 50 56 69 57 34 58 35 59 49 61 70 62 37 63 21 64
REMARK SMILES IDX 22 65 30 66 23 67 29 68 31 69 28 70 24 71 25 72 26 73 27 74
REMARK SMILES IDX 53 75 54 76 62 77 55 78 61 79 63 80 60 81 56 82 57 83 58 84
REMARK SMILES IDX 59 85 38 86 39 87 47 88 40 89 46 90 48 91 45 92 41 93 42 94
REMARK SMILES IDX 43 95 44 96
REMARK H PARENT 68 49 36 60
REMARK Flexibility Score: inf
ROOT
ATOM      1  C   UNL A   1      31.391  32.165  26.525  1.00  0.00     0.202 C 
ENDROOT
BRANCH   1   2
ATOM      2  O   UNL A   1      31.576  30.761  26.420  1.00  0.00    -0.374 OA
BRANCH   2   3
ATOM      3  C   UNL A   1      32.644  30.360  27.264  1.00  0.00     0.202 C 
BRANCH   3   4
ATOM      4  C   UNL A   1      33.418  29.230  26.602  1.00  0.00     0.261 C 
BRANCH   4   5
ATOM      5  O   UNL A   1      32.907  27.983  27.047  1.00  0.00    -0.460 OA
BRANCH   5   6
ATOM      6  C   UNL A   1      31.729  27.447  26.462  1.00  0.00     0.338 C 
ATOM      7  O   UNL A   1      30.765  27.075  27.201  1.00  0.00    -0.246 OA
BRANCH   6   8
ATOM      8  C   UNL A   1      31.623  27.319  24.951  1.00  0.00     0.087 C 
ATOM      9  C   UNL A   1      32.273  26.313  24.306  1.00  0.00     0.027 C 
ATOM     10  C   UNL A   1      30.789  28.315  24.160  1.00  0.00     0.316 C 
ATOM     11  C   UNL A   1      33.107  25.318  25.095  1.00  0.00     0.019 A 
ATOM     12  O   UNL A   1      31.407  25.327  26.756  1.00  0.00    -0.475 OA
ATOM     13  C   UNL A   1      34.353  24.940  24.623  1.00  0.00     0.036 A 
ATOM     14  C   UNL A   1      32.610  24.803  26.215  1.00  0.00     0.128 A 
ATOM     15  C   UNL A   1      34.879  23.787  25.252  1.00  0.00     0.107 A 
ATOM     16  C   UNL A   1      33.249  23.767  26.852  1.00  0.00     0.048 A 
ATOM     17  C   UNL A   1      34.455  23.303  26.404  1.00  0.00     0.028 A 
BRANCH  10  18
ATOM     18  C   UNL A   1      29.684  27.577  23.422  1.00  0.00     0.430 C 
ATOM     19  F   UNL A   1      28.604  28.351  23.351  1.00  0.00    -0.167 F 
ATOM     20  F   UNL A   1      30.095  27.277  22.194  1.00  0.00    -0.167 F 
ATOM     21  F   UNL A   1      29.385  26.458  24.076  1.00  0.00    -0.167 F 
ENDBRANCH  10  18
BRANCH  15  22
ATOM     22  S   UNL A   1      36.229  22.916  24.418  1.00  0.00     0.310 S 
ATOM     23  F   UNL A   1      36.609  22.116  25.735  1.00  0.00    -0.094 F 
ATOM     24  F   UNL A   1      37.217  24.044  24.900  1.00  0.00    -0.094 F 
ATOM     25  F   UNL A   1      37.389  22.168  23.702  1.00  0.00    -0.094 F 
ATOM     26  F   UNL A   1      35.254  21.725  24.065  1.00  0.00    -0.094 F 
ATOM     27  F   UNL A   1      35.066  23.606  25.235  1.00  0.00    -0.094 F 
ENDBRANCH  15  22
ENDBRANCH   6   8
ENDBRANCH   5   6
ENDBRANCH   4   5
ENDBRANCH   3   4
ENDBRANCH   2   3
ENDBRANCH   1   2
BRANCH   1  28
ATOM     28  C   UNL A   1      32.674  32.810  27.022  1.00  0.00     0.261 C 
BRANCH  28  29
ATOM     29  O   UNL A   1      32.365  34.013  27.709  1.00  0.00    -0.460 OA
BRANCH  29  30
ATOM     30  C   UNL A   1      33.330  34.614  28.559  1.00  0.00     0.338 C 
ATOM     31  O   UNL A   1      33.233  35.844  28.861  1.00  0.00    -0.246 OA
BRANCH  30  32
ATOM     32  C   UNL A   1      34.481  33.785  29.109  1.00  0.00     0.060 A 
ATOM     33  C   UNL A   1      34.216  32.711  29.941  1.00  0.00     0.016 A 
ATOM     34  C   UNL A   1      35.726  34.144  28.821  1.00  0.00     0.016 A 
ATOM     35  C   UNL A   1      35.344  32.249  30.658  1.00  0.00     0.010 A 
ATOM     36  C   UNL A   1      36.789  33.554  29.463  1.00  0.00     0.010 A 
ATOM     37  C   UNL A   1      36.596  32.526  30.342  1.00  0.00    -0.014 A 
BRANCH  37  38
ATOM     38  C   UNL A   1      37.762  31.742  30.926  1.00  0.00     0.031 A 
ATOM     39  C   UNL A   1      38.353  30.764  30.125  1.00  0.00     0.074 A 
ATOM     40  C   UNL A   1      38.195  32.066  32.200  1.00  0.00     0.049 A 
ATOM     41  N   UNL A   1      39.419  30.015  30.410  1.00  0.00    -0.248 NA
ATOM     42  C   UNL A   1      37.873  30.394  28.785  1.00  0.00     0.031 C 
ATOM     43  C   UNL A   1      37.608  33.058  33.011  1.00  0.00     0.029 A 
ATOM     44  N   UNL A   1      39.239  31.510  32.904  1.00  0.00    -0.354 N 
ATOM     45  C   UNL A   1      39.700  29.203  29.388  1.00  0.00     0.074 A 
ATOM     46  C   UNL A   1      38.705  29.431  28.330  1.00  0.00     0.031 C 
ATOM     47  C   UNL A   1      38.283  33.090  34.190  1.00  0.00     0.029 A 
ATOM     48  C   UNL A   1      39.301  32.121  34.137  1.00  0.00     0.049 A 
ATOM     49  H   UNL A   1      39.838  30.798  32.583  1.00  0.00     0.167 HD
ATOM     50  C   UNL A   1      40.745  28.283  29.296  1.00  0.00     0.034 A 
ATOM     51  C   UNL A   1      40.187  31.860  35.170  1.00  0.00     0.034 A 
ATOM     52  C   UNL A   1      41.658  28.054  30.313  1.00  0.00     0.049 A 
ATOM     53  C   UNL A   1      41.198  30.898  35.100  1.00  0.00     0.074 A 
ATOM     54  C   UNL A   1      42.723  27.135  30.234  1.00  0.00     0.029 A 
ATOM     55  N   UNL A   1      41.705  28.647  31.555  1.00  0.00    -0.354 N 
ATOM     56  N   UNL A   1      41.502  30.115  34.064  1.00  0.00    -0.248 NA
ATOM     57  C   UNL A   1      42.122  30.591  36.200  1.00  0.00     0.031 C 
ATOM     58  C   UNL A   1      43.396  27.168  31.414  1.00  0.00     0.029 A 
ATOM     59  C   UNL A   1      42.763  28.107  32.251  1.00  0.00     0.049 A 
ATOM     60  H   UNL A   1      41.088  29.338  31.888  1.00  0.00     0.167 HD
ATOM     61  C   UNL A   1      42.543  29.337  34.365  1.00  0.00     0.074 A 
ATOM     62  C   UNL A   1      42.952  29.627  35.747  1.00  0.00     0.031 C 
ATOM     63  C   UNL A   1      43.171  28.400  33.543  1.00  0.00     0.034 A 
BRANCH  50  64
ATOM     64  C   UNL A   1      40.892  27.490  28.008  1.00  0.00     0.023 A 
ATOM     65  C   UNL A   1      40.504  26.160  27.984  1.00  0.00     0.031 A 
ATOM     66  C   UNL A   1      41.398  28.078  26.931  1.00  0.00     0.131 A 
ATOM     67  C   UNL A   1      40.959  25.450  26.848  1.00  0.00     0.055 A 
ATOM     68  C   UNL A   1      41.693  27.347  25.806  1.00  0.00     0.041 A 
ATOM     69  F   UNL A   1      41.621  29.390  26.941  1.00  0.00    -0.206 F 
ATOM     70  C   UNL A   1      41.390  26.015  25.735  1.00  0.00     0.022 A 
BRANCH  67  71
ATOM     71  S   UNL A   1      40.950  23.642  26.927  1.00  0.00     0.124 S 
ATOM     72  O   UNL A   1      39.513  23.132  26.794  1.00  0.00    -0.237 OA
ATOM     73  O   UNL A   1      41.799  23.077  25.785  1.00  0.00    -0.237 OA
ATOM     74  O   UNL A   1      41.599  23.134  28.425  1.00  0.00    -0.744 OA
ENDBRANCH  67  71
ENDBRANCH  50  64
BRANCH  51  75
ATOM     75  C   UNL A   1      40.052  32.666  36.452  1.00  0.00     0.023 A 
ATOM     76  C   UNL A   1      39.270  32.162  37.478  1.00  0.00     0.031 A 
ATOM     77  C   UNL A   1      40.677  33.831  36.570  1.00  0.00     0.131 A 
ATOM     78  C   UNL A   1      38.977  33.105  38.492  1.00  0.00     0.055 A 
ATOM     79  C   UNL A   1      40.445  34.643  37.655  1.00  0.00     0.041 A 
ATOM     80  F   UNL A   1      41.537  34.216  35.631  1.00  0.00    -0.206 F 
ATOM     81  C   UNL A   1      39.638  34.232  38.680  1.00  0.00     0.022 A 
BRANCH  78  82
ATOM     82  S   UNL A   1      37.599  32.740  39.607  1.00  0.00     0.124 S 
ATOM     83  O   UNL A   1      37.489  33.845  40.661  1.00  0.00    -0.237 OA
ATOM     84  O   UNL A   1      36.298  32.671  38.803  1.00  0.00    -0.237 OA
ATOM     85  O   UNL A   1      37.873  31.240  40.380  1.00  0.00    -0.744 OA
ENDBRANCH  78  82
ENDBRANCH  51  75
BRANCH  63  86
ATOM     86  C   UNL A   1      44.373  27.656  34.099  1.00  0.00     0.023 A 
ATOM     87  C   UNL A   1      44.195  26.422  34.702  1.00  0.00     0.031 A 
ATOM     88  C   UNL A   1      45.575  28.219  34.025  1.00  0.00     0.131 A 
ATOM     89  C   UNL A   1      45.308  25.989  35.461  1.00  0.00     0.055 A 
ATOM     90  C   UNL A   1      46.648  27.667  34.681  1.00  0.00     0.041 A 
ATOM     91  F   UNL A   1      45.738  29.329  33.311  1.00  0.00    -0.206 F 
ATOM     92  C   UNL A   1      46.529  26.479  35.347  1.00  0.00     0.022 A 
BRANCH  89  93
ATOM     93  S   UNL A   1      45.040  24.670  36.671  1.00  0.00     0.124 S 
ATOM     94  O   UNL A   1      46.320  24.451  37.480  1.00  0.00    -0.237 OA
ATOM     95  O   UNL A   1      43.903  25.066  37.615  1.00  0.00    -0.237 OA
ATOM     96  O   UNL A   1      44.628  23.224  35.857  1.00  0.00    -0.744 OA
ENDBRANCH  89  93
ENDBRANCH  63  86
ENDBRANCH  37  38
ENDBRANCH  30  32
ENDBRANCH  29  30
ENDBRANCH  28  29
ENDBRANCH   1  28
TORSDOF 19
ENDMDL
