MODEL 1
REMARK VINA RESULT:     -11.1      0.000      0.000
REMARK SMILES C[C@@](NC(=O)CCOC1CC[NH2+]CC1)(C(=O)OCCOCCOC(=O)c1ccc(-c2c3nc(c(-c4cc(S(=O)(=O)[O-])ccc4F)c4ccc([nH]4)c(-c4cc(S(=O)(=O)[O-])ccc4F)c4nc(c(-c5cc(S(=O)(=O)[O-])ccc5F)c5ccc2[nH]5)C=C4)C=C3)cc1)C(F)(F)F
REMARK SMILES IDX 19 1 18 2 17 3 15 4 16 5 2 6 1 7 3 8 4 9 5 11 6 12 7 13 8 14
REMARK SMILES IDX 9 15 10 16 14 17 11 18 13 19 12 20 89 23 90 24 91 25 92 26
REMARK SMILES IDX 20 27 21 28 22 29 23 30 24 31 25 32 26 33 27 34 88 35 28 36
REMARK SMILES IDX 87 37 29 38 30 39 31 40 81 41 32 42 86 43 80 44 82 45 33 46
REMARK SMILES IDX 85 47 79 48 78 49 34 51 66 52 46 53 65 54 47 55 50 56 64 57
REMARK SMILES IDX 83 58 48 59 49 60 63 62 84 63 51 64 35 65 36 66 44 67 37 68
REMARK SMILES IDX 43 69 45 70 42 71 38 72 39 73 40 74 41 75 67 76 68 77 76 78
REMARK SMILES IDX 69 79 75 80 77 81 74 82 70 83 71 84 72 85 73 86 52 87 53 88
REMARK SMILES IDX 61 89 54 90 60 91 62 92 59 93 55 94 56 95 57 96 58 97
REMARK H PARENT 3 10 12 21 12 22 82 50 50 61
REMARK Flexibility Score: inf
ROOT
ATOM      1  C   UNL A   1      33.359  28.799  24.033  1.00  0.00     0.202 C 
ENDROOT
BRANCH   1   2
ATOM      2  C   UNL A   1      32.301  28.943  22.937  1.00  0.00     0.261 C 
BRANCH   2   3
ATOM      3  O   UNL A   1      31.681  27.668  22.668  1.00  0.00    -0.461 OA
BRANCH   3   4
ATOM      4  C   UNL A   1      30.672  27.043  23.323  1.00  0.00     0.341 C 
ATOM      5  O   UNL A   1      29.506  27.388  23.197  1.00  0.00    -0.249 OA
BRANCH   4   6
ATOM      6  C   UNL A   1      31.206  25.732  24.153  1.00  0.00     0.231 C 
ATOM      7  C   UNL A   1      30.522  24.479  23.528  1.00  0.00     0.058 C 
BRANCH   6   8
ATOM      8  N   UNL A   1      32.911  25.276  24.560  1.00  0.00    -0.333 N 
ATOM      9  C   UNL A   1      34.124  24.179  25.472  1.00  0.00     0.223 C 
ATOM     10  H   UNL A   1      33.470  25.913  24.060  1.00  0.00     0.164 HD
ATOM     11  O   UNL A   1      35.353  24.073  25.208  1.00  0.00    -0.275 OA
BRANCH   9  12
ATOM     12  C   UNL A   1      33.851  23.062  26.695  1.00  0.00     0.128 C 
BRANCH  12  13
ATOM     13  C   UNL A   1      34.472  21.717  26.532  1.00  0.00     0.170 C 
BRANCH  13  14
ATOM     14  O   UNL A   1      33.407  20.892  26.161  1.00  0.00    -0.377 OA
BRANCH  14  15
ATOM     15  C   UNL A   1      33.650  20.489  24.818  1.00  0.00     0.129 C 
ATOM     16  C   UNL A   1      32.597  21.529  23.436  1.00  0.00     0.093 C 
ATOM     17  C   UNL A   1      33.712  18.553  24.625  1.00  0.00     0.093 C 
ATOM     18  C   UNL A   1      31.790  20.508  21.976  1.00  0.00     0.263 C 
ATOM     19  C   UNL A   1      32.935  17.733  23.095  1.00  0.00     0.263 C 
ATOM     20  N   UNL A   1      32.153  18.703  21.720  1.00  0.00    -0.346 N 
ATOM     21  H   UNL A   1      32.777  18.636  20.916  1.00  0.00     0.346 HD
ATOM     22  H   UNL A   1      31.229  18.282  21.621  1.00  0.00     0.346 HD
ENDBRANCH  14  15
ENDBRANCH  13  14
ENDBRANCH  12  13
ENDBRANCH   9  12
ENDBRANCH   6   8
BRANCH   6  23
ATOM     23  C   UNL A   1      30.428  25.939  25.499  1.00  0.00     0.422 C 
ATOM     24  F   UNL A   1      30.711  27.122  26.097  1.00  0.00    -0.168 F 
ATOM     25  F   UNL A   1      29.090  25.952  25.279  1.00  0.00    -0.168 F 
ATOM     26  F   UNL A   1      30.678  24.962  26.397  1.00  0.00    -0.168 F 
ENDBRANCH   6  23
ENDBRANCH   4   6
ENDBRANCH   3   4
ENDBRANCH   2   3
ENDBRANCH   1   2
BRANCH   1  27
ATOM     27  O   UNL A   1      32.919  29.240  25.318  1.00  0.00    -0.374 OA
BRANCH  27  28
ATOM     28  C   UNL A   1      31.768  30.077  25.332  1.00  0.00     0.202 C 
BRANCH  28  29
ATOM     29  C   UNL A   1      31.688  31.100  26.461  1.00  0.00     0.261 C 
BRANCH  29  30
ATOM     30  O   UNL A   1      32.704  30.906  27.461  1.00  0.00    -0.460 OA
BRANCH  30  31
ATOM     31  C   UNL A   1      33.518  31.974  27.628  1.00  0.00     0.338 C 
ATOM     32  O   UNL A   1      33.182  33.155  27.620  1.00  0.00    -0.246 OA
BRANCH  31  33
ATOM     33  C   UNL A   1      34.904  31.560  27.890  1.00  0.00     0.060 A 
ATOM     34  C   UNL A   1      35.145  30.204  28.139  1.00  0.00     0.016 A 
ATOM     35  C   UNL A   1      35.916  32.506  28.069  1.00  0.00     0.016 A 
ATOM     36  C   UNL A   1      36.376  29.797  28.649  1.00  0.00     0.010 A 
ATOM     37  C   UNL A   1      37.154  32.093  28.572  1.00  0.00     0.010 A 
ATOM     38  C   UNL A   1      37.374  30.746  28.912  1.00  0.00    -0.014 A 
BRANCH  38  39
ATOM     39  C   UNL A   1      38.597  30.362  29.663  1.00  0.00     0.031 A 
ATOM     40  C   UNL A   1      39.526  29.330  29.079  1.00  0.00     0.074 A 
ATOM     41  C   UNL A   1      38.867  30.913  30.859  1.00  0.00     0.049 A 
ATOM     42  N   UNL A   1      40.570  28.754  29.615  1.00  0.00    -0.248 NA
ATOM     43  C   UNL A   1      39.225  28.882  27.712  1.00  0.00     0.031 C 
ATOM     44  C   UNL A   1      38.067  31.952  31.503  1.00  0.00     0.029 A 
ATOM     45  N   UNL A   1      39.876  30.657  31.754  1.00  0.00    -0.354 N 
ATOM     46  C   UNL A   1      41.040  27.857  28.661  1.00  0.00     0.074 A 
ATOM     47  C   UNL A   1      40.143  27.946  27.528  1.00  0.00     0.031 C 
ATOM     48  C   UNL A   1      38.602  32.230  32.704  1.00  0.00     0.029 A 
ATOM     49  C   UNL A   1      39.745  31.348  32.937  1.00  0.00     0.049 A 
ATOM     50  H   UNL A   1      40.620  30.040  31.568  1.00  0.00     0.167 HD
ATOM     51  C   UNL A   1      42.121  27.038  28.728  1.00  0.00     0.034 A 
ATOM     52  C   UNL A   1      40.434  31.247  34.091  1.00  0.00     0.034 A 
ATOM     53  C   UNL A   1      42.997  26.962  29.873  1.00  0.00     0.049 A 
ATOM     54  C   UNL A   1      41.579  30.266  34.181  1.00  0.00     0.074 A 
ATOM     55  C   UNL A   1      44.140  26.199  30.033  1.00  0.00     0.029 A 
ATOM     56  N   UNL A   1      42.816  27.656  31.064  1.00  0.00    -0.354 N 
ATOM     57  N   UNL A   1      42.025  29.433  33.270  1.00  0.00    -0.248 NA
ATOM     58  C   UNL A   1      42.314  30.215  35.452  1.00  0.00     0.031 C 
ATOM     59  C   UNL A   1      44.590  26.353  31.348  1.00  0.00     0.029 A 
ATOM     60  C   UNL A   1      43.796  27.298  31.978  1.00  0.00     0.049 A 
ATOM     61  H   UNL A   1      42.098  28.308  31.234  1.00  0.00     0.167 HD
ATOM     62  C   UNL A   1      43.115  28.784  33.847  1.00  0.00     0.074 A 
ATOM     63  C   UNL A   1      43.259  29.324  35.182  1.00  0.00     0.031 C 
ATOM     64  C   UNL A   1      43.928  27.835  33.314  1.00  0.00     0.034 A 
BRANCH  51  65
ATOM     65  C   UNL A   1      42.372  26.112  27.559  1.00  0.00     0.023 A 
ATOM     66  C   UNL A   1      41.825  24.819  27.498  1.00  0.00     0.031 A 
ATOM     67  C   UNL A   1      43.202  26.520  26.498  1.00  0.00     0.131 A 
ATOM     68  C   UNL A   1      42.183  23.953  26.453  1.00  0.00     0.055 A 
ATOM     69  C   UNL A   1      43.478  25.687  25.411  1.00  0.00     0.041 A 
ATOM     70  F   UNL A   1      43.776  27.733  26.506  1.00  0.00    -0.206 F 
ATOM     71  C   UNL A   1      42.982  24.388  25.394  1.00  0.00     0.022 A 
BRANCH  68  72
ATOM     72  S   UNL A   1      41.734  22.201  26.589  1.00  0.00     0.124 S 
ATOM     73  O   UNL A   1      42.405  21.821  27.830  1.00  0.00    -0.237 OA
ATOM     74  O   UNL A   1      40.278  22.251  26.639  1.00  0.00    -0.237 OA
ATOM     75  O   UNL A   1      42.299  21.608  25.379  1.00  0.00    -0.744 OA
ENDBRANCH  68  72
ENDBRANCH  51  65
BRANCH  52  76
ATOM     76  C   UNL A   1      40.018  32.051  35.275  1.00  0.00     0.023 A 
ATOM     77  C   UNL A   1      39.112  31.547  36.221  1.00  0.00     0.031 A 
ATOM     78  C   UNL A   1      40.510  33.357  35.463  1.00  0.00     0.131 A 
ATOM     79  C   UNL A   1      38.700  32.356  37.292  1.00  0.00     0.055 A 
ATOM     80  C   UNL A   1      40.144  34.134  36.562  1.00  0.00     0.041 A 
ATOM     81  F   UNL A   1      41.376  33.889  34.586  1.00  0.00    -0.206 F 
ATOM     82  C   UNL A   1      39.224  33.638  37.480  1.00  0.00     0.022 A 
BRANCH  79  83
ATOM     83  S   UNL A   1      37.402  31.739  38.398  1.00  0.00     0.124 S 
ATOM     84  O   UNL A   1      36.333  32.703  38.163  1.00  0.00    -0.237 OA
ATOM     85  O   UNL A   1      37.180  30.393  37.880  1.00  0.00    -0.237 OA
ATOM     86  O   UNL A   1      38.022  31.802  39.719  1.00  0.00    -0.744 OA
ENDBRANCH  79  83
ENDBRANCH  52  76
BRANCH  64  87
ATOM     87  C   UNL A   1      45.092  27.357  34.153  1.00  0.00     0.023 A 
ATOM     88  C   UNL A   1      45.018  26.201  34.949  1.00  0.00     0.031 A 
ATOM     89  C   UNL A   1      46.309  28.063  34.128  1.00  0.00     0.131 A 
ATOM     90  C   UNL A   1      46.128  25.807  35.714  1.00  0.00     0.055 A 
ATOM     91  C   UNL A   1      47.428  27.632  34.839  1.00  0.00     0.041 A 
ATOM     92  F   UNL A   1      46.435  29.181  33.393  1.00  0.00    -0.206 F 
ATOM     93  C   UNL A   1      47.339  26.502  35.646  1.00  0.00     0.022 A 
BRANCH  90  94
ATOM     94  S   UNL A   1      45.948  24.418  36.867  1.00  0.00     0.124 S 
ATOM     95  O   UNL A   1      46.346  23.284  36.039  1.00  0.00    -0.237 OA
ATOM     96  O   UNL A   1      46.869  24.779  37.940  1.00  0.00    -0.237 OA
ATOM     97  O   UNL A   1      44.532  24.455  37.229  1.00  0.00    -0.744 OA
ENDBRANCH  90  94
ENDBRANCH  64  87
ENDBRANCH  38  39
ENDBRANCH  31  33
ENDBRANCH  30  31
ENDBRANCH  29  30
ENDBRANCH  28  29
ENDBRANCH  27  28
ENDBRANCH   1  27
TORSDOF 23
ENDMDL
MODEL 2
REMARK VINA RESULT:     -10.8      4.984     10.420
REMARK SMILES C[C@@](NC(=O)CCOC1CC[NH2+]CC1)(C(=O)OCCOCCOC(=O)c1ccc(-c2c3nc(c(-c4cc(S(=O)(=O)[O-])ccc4F)c4ccc([nH]4)c(-c4cc(S(=O)(=O)[O-])ccc4F)c4nc(c(-c5cc(S(=O)(=O)[O-])ccc5F)c5ccc2[nH]5)C=C4)C=C3)cc1)C(F)(F)F
REMARK SMILES IDX 19 1 18 2 17 3 15 4 16 5 2 6 1 7 3 8 4 9 5 11 6 12 7 13 8 14
REMARK SMILES IDX 9 15 10 16 14 17 11 18 13 19 12 20 89 23 90 24 91 25 92 26
REMARK SMILES IDX 20 27 21 28 22 29 23 30 24 31 25 32 26 33 27 34 88 35 28 36
REMARK SMILES IDX 87 37 29 38 30 39 31 40 81 41 32 42 86 43 80 44 82 45 33 46
REMARK SMILES IDX 85 47 79 48 78 49 34 51 66 52 46 53 65 54 47 55 50 56 64 57
REMARK SMILES IDX 83 58 48 59 49 60 63 62 84 63 51 64 35 65 36 66 44 67 37 68
REMARK SMILES IDX 43 69 45 70 42 71 38 72 39 73 40 74 41 75 67 76 68 77 76 78
REMARK SMILES IDX 69 79 75 80 77 81 74 82 70 83 71 84 72 85 73 86 52 87 53 88
REMARK SMILES IDX 61 89 54 90 60 91 62 92 59 93 55 94 56 95 57 96 58 97
REMARK H PARENT 3 10 12 21 12 22 82 50 50 61
REMARK Flexibility Score: inf
ROOT
ATOM      1  C   UNL A   1      35.533  21.795  26.022  1.00  0.00     0.202 C 
ENDROOT
BRANCH   1   2
ATOM      2  C   UNL A   1      34.412  21.351  26.965  1.00  0.00     0.261 C 
BRANCH   2   3
ATOM      3  O   UNL A   1      33.163  21.963  26.583  1.00  0.00    -0.461 OA
BRANCH   3   4
ATOM      4  C   UNL A   1      32.595  22.075  25.357  1.00  0.00     0.341 C 
ATOM      5  O   UNL A   1      32.202  21.100  24.733  1.00  0.00    -0.249 OA
BRANCH   4   6
ATOM      6  C   UNL A   1      32.392  23.645  24.922  1.00  0.00     0.231 C 
ATOM      7  C   UNL A   1      32.790  24.520  26.147  1.00  0.00     0.058 C 
BRANCH   6   8
ATOM      8  N   UNL A   1      32.991  24.485  23.433  1.00  0.00    -0.333 N 
ATOM      9  C   UNL A   1      32.792  25.812  22.127  1.00  0.00     0.223 C 
ATOM     10  H   UNL A   1      33.825  24.018  23.196  1.00  0.00     0.164 HD
ATOM     11  O   UNL A   1      33.704  26.220  21.356  1.00  0.00    -0.275 OA
BRANCH   9  12
ATOM     12  C   UNL A   1      31.471  26.789  21.783  1.00  0.00     0.128 C 
BRANCH  12  13
ATOM     13  C   UNL A   1      31.123  27.831  22.790  1.00  0.00     0.170 C 
BRANCH  13  14
ATOM     14  O   UNL A   1      31.719  27.379  23.970  1.00  0.00    -0.377 OA
BRANCH  14  15
ATOM     15  C   UNL A   1      32.465  28.470  24.497  1.00  0.00     0.129 C 
ATOM     16  C   UNL A   1      34.010  27.923  25.685  1.00  0.00     0.093 C 
ATOM     17  C   UNL A   1      31.322  29.916  25.123  1.00  0.00     0.093 C 
ATOM     18  C   UNL A   1      34.271  28.943  27.333  1.00  0.00     0.263 C 
ATOM     19  C   UNL A   1      31.774  30.852  26.715  1.00  0.00     0.263 C 
ATOM     20  N   UNL A   1      33.307  30.490  27.696  1.00  0.00    -0.346 N 
ATOM     21  H   UNL A   1      33.942  31.276  27.557  1.00  0.00     0.346 HD
ATOM     22  H   UNL A   1      32.959  30.343  28.644  1.00  0.00     0.346 HD
ENDBRANCH  14  15
ENDBRANCH  13  14
ENDBRANCH  12  13
ENDBRANCH   9  12
ENDBRANCH   6   8
BRANCH   6  23
ATOM     23  C   UNL A   1      30.825  23.714  24.916  1.00  0.00     0.422 C 
ATOM     24  F   UNL A   1      30.349  24.953  25.190  1.00  0.00    -0.168 F 
ATOM     25  F   UNL A   1      30.339  23.398  23.691  1.00  0.00    -0.168 F 
ATOM     26  F   UNL A   1      30.267  22.861  25.802  1.00  0.00    -0.168 F 
ENDBRANCH   6  23
ENDBRANCH   4   6
ENDBRANCH   3   4
ENDBRANCH   2   3
ENDBRANCH   1   2
BRANCH   1  27
ATOM     27  O   UNL A   1      36.039  20.745  25.197  1.00  0.00    -0.374 OA
BRANCH  27  28
ATOM     28  C   UNL A   1      37.365  20.915  24.710  1.00  0.00     0.202 C 
BRANCH  28  29
ATOM     29  C   UNL A   1      38.350  19.791  25.019  1.00  0.00     0.261 C 
BRANCH  29  30
ATOM     30  O   UNL A   1      39.005  19.957  26.289  1.00  0.00    -0.460 OA
BRANCH  30  31
ATOM     31  C   UNL A   1      40.296  20.349  26.190  1.00  0.00     0.338 C 
ATOM     32  O   UNL A   1      41.200  19.746  25.619  1.00  0.00    -0.246 OA
BRANCH  31  33
ATOM     33  C   UNL A   1      40.509  21.663  26.815  1.00  0.00     0.060 A 
ATOM     34  C   UNL A   1      40.117  22.799  26.097  1.00  0.00     0.016 A 
ATOM     35  C   UNL A   1      41.243  21.788  27.997  1.00  0.00     0.016 A 
ATOM     36  C   UNL A   1      40.529  24.063  26.515  1.00  0.00     0.010 A 
ATOM     37  C   UNL A   1      41.648  23.058  28.418  1.00  0.00     0.010 A 
ATOM     38  C   UNL A   1      41.336  24.197  27.652  1.00  0.00    -0.014 A 
BRANCH  38  39
ATOM     39  C   UNL A   1      41.969  25.502  27.976  1.00  0.00     0.031 A 
ATOM     40  C   UNL A   1      41.165  26.551  28.699  1.00  0.00     0.074 A 
ATOM     41  C   UNL A   1      43.239  25.756  27.615  1.00  0.00     0.049 A 
ATOM     42  N   UNL A   1      41.469  27.794  28.964  1.00  0.00    -0.248 NA
ATOM     43  C   UNL A   1      39.836  26.140  29.174  1.00  0.00     0.031 C 
ATOM     44  C   UNL A   1      44.128  24.804  26.952  1.00  0.00     0.029 A 
ATOM     45  N   UNL A   1      43.991  26.898  27.732  1.00  0.00    -0.354 N 
ATOM     46  C   UNL A   1      40.361  28.326  29.616  1.00  0.00     0.074 A 
ATOM     47  C   UNL A   1      39.368  27.273  29.675  1.00  0.00     0.031 C 
ATOM     48  C   UNL A   1      45.300  25.410  26.699  1.00  0.00     0.029 A 
ATOM     49  C   UNL A   1      45.223  26.805  27.127  1.00  0.00     0.049 A 
ATOM     50  H   UNL A   1      43.679  27.704  28.204  1.00  0.00     0.167 HD
ATOM     51  C   UNL A   1      40.192  29.575  30.120  1.00  0.00     0.034 A 
ATOM     52  C   UNL A   1      46.160  27.748  26.900  1.00  0.00     0.034 A 
ATOM     53  C   UNL A   1      41.195  30.610  30.043  1.00  0.00     0.049 A 
ATOM     54  C   UNL A   1      45.919  29.157  27.386  1.00  0.00     0.074 A 
ATOM     55  C   UNL A   1      41.146  31.896  30.552  1.00  0.00     0.029 A 
ATOM     56  N   UNL A   1      42.420  30.489  29.397  1.00  0.00    -0.354 N 
ATOM     57  N   UNL A   1      44.876  29.647  28.015  1.00  0.00    -0.248 NA
ATOM     58  C   UNL A   1      46.983  30.139  27.137  1.00  0.00     0.031 C 
ATOM     59  C   UNL A   1      42.290  32.580  30.129  1.00  0.00     0.029 A 
ATOM     60  C   UNL A   1      43.109  31.691  29.451  1.00  0.00     0.049 A 
ATOM     61  H   UNL A   1      42.751  29.668  28.964  1.00  0.00     0.167 HD
ATOM     62  C   UNL A   1      45.174  30.985  28.266  1.00  0.00     0.074 A 
ATOM     63  C   UNL A   1      46.494  31.223  27.724  1.00  0.00     0.031 C 
ATOM     64  C   UNL A   1      44.425  31.925  28.898  1.00  0.00     0.034 A 
BRANCH  51  65
ATOM     65  C   UNL A   1      38.850  29.908  30.733  1.00  0.00     0.023 A 
ATOM     66  C   UNL A   1      37.911  30.726  30.080  1.00  0.00     0.031 A 
ATOM     67  C   UNL A   1      38.517  29.422  32.012  1.00  0.00     0.131 A 
ATOM     68  C   UNL A   1      36.732  31.104  30.740  1.00  0.00     0.055 A 
ATOM     69  C   UNL A   1      37.298  29.725  32.623  1.00  0.00     0.041 A 
ATOM     70  F   UNL A   1      39.378  28.657  32.699  1.00  0.00    -0.206 F 
ATOM     71  C   UNL A   1      36.405  30.587  31.995  1.00  0.00     0.022 A 
BRANCH  68  72
ATOM     72  S   UNL A   1      35.717  32.420  30.011  1.00  0.00     0.124 S 
ATOM     73  O   UNL A   1      36.571  33.590  30.202  1.00  0.00    -0.237 OA
ATOM     74  O   UNL A   1      35.553  31.966  28.635  1.00  0.00    -0.237 OA
ATOM     75  O   UNL A   1      34.503  32.406  30.824  1.00  0.00    -0.744 OA
ENDBRANCH  68  72
ENDBRANCH  51  65
BRANCH  52  76
ATOM     76  C   UNL A   1      47.382  27.404  26.119  1.00  0.00     0.023 A 
ATOM     77  C   UNL A   1      47.484  27.698  24.751  1.00  0.00     0.031 A 
ATOM     78  C   UNL A   1      48.465  26.749  26.735  1.00  0.00     0.131 A 
ATOM     79  C   UNL A   1      48.628  27.308  24.037  1.00  0.00     0.055 A 
ATOM     80  C   UNL A   1      49.625  26.417  26.034  1.00  0.00     0.041 A 
ATOM     81  F   UNL A   1      48.418  26.440  28.041  1.00  0.00    -0.206 F 
ATOM     82  C   UNL A   1      49.707  26.687  24.672  1.00  0.00     0.022 A 
BRANCH  79  83
ATOM     83  S   UNL A   1      48.655  27.549  22.239  1.00  0.00     0.124 S 
ATOM     84  O   UNL A   1      48.673  26.173  21.757  1.00  0.00    -0.237 OA
ATOM     85  O   UNL A   1      47.419  28.292  22.017  1.00  0.00    -0.237 OA
ATOM     86  O   UNL A   1      49.884  28.306  22.016  1.00  0.00    -0.744 OA
ENDBRANCH  79  83
ENDBRANCH  52  76
BRANCH  64  87
ATOM     87  C   UNL A   1      45.038  33.293  29.096  1.00  0.00     0.023 A 
ATOM     88  C   UNL A   1      44.952  34.302  28.122  1.00  0.00     0.031 A 
ATOM     89  C   UNL A   1      45.698  33.596  30.302  1.00  0.00     0.131 A 
ATOM     90  C   UNL A   1      45.547  35.553  28.356  1.00  0.00     0.055 A 
ATOM     91  C   UNL A   1      46.230  34.860  30.555  1.00  0.00     0.041 A 
ATOM     92  F   UNL A   1      45.819  32.668  31.266  1.00  0.00    -0.206 F 
ATOM     93  C   UNL A   1      46.165  35.845  29.575  1.00  0.00     0.022 A 
BRANCH  90  94
ATOM     94  S   UNL A   1      45.577  36.773  27.014  1.00  0.00     0.124 S 
ATOM     95  O   UNL A   1      44.175  37.169  26.934  1.00  0.00    -0.237 OA
ATOM     96  O   UNL A   1      46.497  37.782  27.528  1.00  0.00    -0.237 OA
ATOM     97  O   UNL A   1      46.073  36.010  25.869  1.00  0.00    -0.744 OA
ENDBRANCH  90  94
ENDBRANCH  64  87
ENDBRANCH  38  39
ENDBRANCH  31  33
ENDBRANCH  30  31
ENDBRANCH  29  30
ENDBRANCH  28  29
ENDBRANCH  27  28
ENDBRANCH   1  27
TORSDOF 23
ENDMDL
MODEL 3
REMARK VINA RESULT:     -10.6      4.855      8.256
REMARK SMILES C[C@@](NC(=O)CCOC1CC[NH2+]CC1)(C(=O)OCCOCCOC(=O)c1ccc(-c2c3nc(c(-c4cc(S(=O)(=O)[O-])ccc4F)c4ccc([nH]4)c(-c4cc(S(=O)(=O)[O-])ccc4F)c4nc(c(-c5cc(S(=O)(=O)[O-])ccc5F)c5ccc2[nH]5)C=C4)C=C3)cc1)C(F)(F)F
REMARK SMILES IDX 19 1 18 2 17 3 15 4 16 5 2 6 1 7 3 8 4 9 5 11 6 12 7 13 8 14
REMARK SMILES IDX 9 15 10 16 14 17 11 18 13 19 12 20 89 23 90 24 91 25 92 26
REMARK SMILES IDX 20 27 21 28 22 29 23 30 24 31 25 32 26 33 27 34 88 35 28 36
REMARK SMILES IDX 87 37 29 38 30 39 31 40 81 41 32 42 86 43 80 44 82 45 33 46
REMARK SMILES IDX 85 47 79 48 78 49 34 51 66 52 46 53 65 54 47 55 50 56 64 57
REMARK SMILES IDX 83 58 48 59 49 60 63 62 84 63 51 64 35 65 36 66 44 67 37 68
REMARK SMILES IDX 43 69 45 70 42 71 38 72 39 73 40 74 41 75 67 76 68 77 76 78
REMARK SMILES IDX 69 79 75 80 77 81 74 82 70 83 71 84 72 85 73 86 52 87 53 88
REMARK SMILES IDX 61 89 54 90 60 91 62 92 59 93 55 94 56 95 57 96 58 97
REMARK H PARENT 3 10 12 21 12 22 82 50 50 61
REMARK Flexibility Score: inf
ROOT
ATOM      1  C   UNL A   1      36.488  21.661  24.736  1.00  0.00     0.202 C 
ENDROOT
BRANCH   1   2
ATOM      2  C   UNL A   1      35.874  21.832  26.128  1.00  0.00     0.261 C 
BRANCH   2   3
ATOM      3  O   UNL A   1      34.437  21.733  26.057  1.00  0.00    -0.461 OA
BRANCH   3   4
ATOM      4  C   UNL A   1      33.631  21.623  24.974  1.00  0.00     0.341 C 
ATOM      5  O   UNL A   1      33.373  20.542  24.464  1.00  0.00    -0.249 OA
BRANCH   4   6
ATOM      6  C   UNL A   1      32.970  23.067  24.558  1.00  0.00     0.231 C 
ATOM      7  C   UNL A   1      32.832  23.906  25.863  1.00  0.00     0.058 C 
BRANCH   6   8
ATOM      8  N   UNL A   1      33.477  24.196  23.235  1.00  0.00    -0.333 N 
ATOM      9  C   UNL A   1      33.073  25.577  22.037  1.00  0.00     0.223 C 
ATOM     10  H   UNL A   1      34.421  23.978  23.064  1.00  0.00     0.164 HD
ATOM     11  O   UNL A   1      33.921  26.283  21.424  1.00  0.00    -0.275 OA
BRANCH   9  12
ATOM     12  C   UNL A   1      31.586  26.235  21.620  1.00  0.00     0.128 C 
BRANCH  12  13
ATOM     13  C   UNL A   1      30.825  26.923  22.701  1.00  0.00     0.170 C 
BRANCH  13  14
ATOM     14  O   UNL A   1      31.441  26.492  23.879  1.00  0.00    -0.377 OA
BRANCH  14  15
ATOM     15  C   UNL A   1      31.645  27.649  24.682  1.00  0.00     0.129 C 
ATOM     16  C   UNL A   1      33.499  28.448  24.531  1.00  0.00     0.093 C 
ATOM     17  C   UNL A   1      30.897  27.452  26.469  1.00  0.00     0.093 C 
ATOM     18  C   UNL A   1      34.358  29.026  26.190  1.00  0.00     0.263 C 
ATOM     19  C   UNL A   1      31.842  28.145  27.967  1.00  0.00     0.263 C 
ATOM     20  N   UNL A   1      33.445  29.066  27.809  1.00  0.00    -0.346 N 
ATOM     21  H   UNL A   1      33.248  30.045  28.015  1.00  0.00     0.346 HD
ATOM     22  H   UNL A   1      34.069  28.578  28.451  1.00  0.00     0.346 HD
ENDBRANCH  14  15
ENDBRANCH  13  14
ENDBRANCH  12  13
ENDBRANCH   9  12
ENDBRANCH   6   8
BRANCH   6  23
ATOM     23  C   UNL A   1      31.500  22.607  24.262  1.00  0.00     0.422 C 
ATOM     24  F   UNL A   1      31.425  21.669  23.287  1.00  0.00    -0.168 F 
ATOM     25  F   UNL A   1      30.949  22.036  25.361  1.00  0.00    -0.168 F 
ATOM     26  F   UNL A   1      30.701  23.633  23.898  1.00  0.00    -0.168 F 
ENDBRANCH   6  23
ENDBRANCH   4   6
ENDBRANCH   3   4
ENDBRANCH   2   3
ENDBRANCH   1   2
BRANCH   1  27
ATOM     27  O   UNL A   1      37.850  21.234  24.758  1.00  0.00    -0.374 OA
BRANCH  27  28
ATOM     28  C   UNL A   1      38.067  19.828  24.752  1.00  0.00     0.202 C 
BRANCH  28  29
ATOM     29  C   UNL A   1      39.211  19.315  25.620  1.00  0.00     0.261 C 
BRANCH  29  30
ATOM     30  O   UNL A   1      39.498  20.182  26.733  1.00  0.00    -0.460 OA
BRANCH  30  31
ATOM     31  C   UNL A   1      40.766  20.652  26.746  1.00  0.00     0.338 C 
ATOM     32  O   UNL A   1      41.766  20.065  26.340  1.00  0.00    -0.246 OA
BRANCH  31  33
ATOM     33  C   UNL A   1      40.827  22.025  27.268  1.00  0.00     0.060 A 
ATOM     34  C   UNL A   1      40.084  23.009  26.605  1.00  0.00     0.016 A 
ATOM     35  C   UNL A   1      41.733  22.375  28.272  1.00  0.00     0.016 A 
ATOM     36  C   UNL A   1      40.306  24.356  26.885  1.00  0.00     0.010 A 
ATOM     37  C   UNL A   1      41.947  23.727  28.557  1.00  0.00     0.010 A 
ATOM     38  C   UNL A   1      41.272  24.725  27.830  1.00  0.00    -0.014 A 
BRANCH  38  39
ATOM     39  C   UNL A   1      41.680  26.147  27.973  1.00  0.00     0.031 A 
ATOM     40  C   UNL A   1      43.037  26.577  27.481  1.00  0.00     0.074 A 
ATOM     41  C   UNL A   1      40.857  27.041  28.548  1.00  0.00     0.049 A 
ATOM     42  N   UNL A   1      43.645  27.726  27.619  1.00  0.00    -0.248 NA
ATOM     43  C   UNL A   1      43.812  25.568  26.745  1.00  0.00     0.031 C 
ATOM     44  C   UNL A   1      39.505  26.752  29.022  1.00  0.00     0.029 A 
ATOM     45  N   UNL A   1      41.049  28.365  28.856  1.00  0.00    -0.354 N 
ATOM     46  C   UNL A   1      44.887  27.574  27.010  1.00  0.00     0.074 A 
ATOM     47  C   UNL A   1      44.951  26.209  26.530  1.00  0.00     0.031 C 
ATOM     48  C   UNL A   1      38.995  27.862  29.583  1.00  0.00     0.029 A 
ATOM     49  C   UNL A   1      40.005  28.918  29.561  1.00  0.00     0.049 A 
ATOM     50  H   UNL A   1      41.854  28.868  28.597  1.00  0.00     0.167 HD
ATOM     51  C   UNL A   1      45.877  28.491  26.864  1.00  0.00     0.034 A 
ATOM     52  C   UNL A   1      39.895  30.120  30.163  1.00  0.00     0.034 A 
ATOM     53  C   UNL A   1      45.792  29.845  27.358  1.00  0.00     0.049 A 
ATOM     54  C   UNL A   1      41.042  31.098  30.069  1.00  0.00     0.074 A 
ATOM     55  C   UNL A   1      46.717  30.867  27.232  1.00  0.00     0.029 A 
ATOM     56  N   UNL A   1      44.731  30.362  28.092  1.00  0.00    -0.354 N 
ATOM     57  N   UNL A   1      42.205  30.952  29.478  1.00  0.00    -0.248 NA
ATOM     58  C   UNL A   1      40.860  32.403  30.719  1.00  0.00     0.031 C 
ATOM     59  C   UNL A   1      46.263  31.962  27.972  1.00  0.00     0.029 A 
ATOM     60  C   UNL A   1      45.004  31.668  28.469  1.00  0.00     0.049 A 
ATOM     61  H   UNL A   1      43.905  29.872  28.312  1.00  0.00     0.167 HD
ATOM     62  C   UNL A   1      42.879  32.159  29.656  1.00  0.00     0.074 A 
ATOM     63  C   UNL A   1      41.991  33.021  30.407  1.00  0.00     0.031 C 
ATOM     64  C   UNL A   1      44.115  32.521  29.227  1.00  0.00     0.034 A 
BRANCH  51  65
ATOM     65  C   UNL A   1      47.161  28.037  26.205  1.00  0.00     0.023 A 
ATOM     66  C   UNL A   1      47.385  28.181  24.826  1.00  0.00     0.031 A 
ATOM     67  C   UNL A   1      48.168  27.417  26.970  1.00  0.00     0.131 A 
ATOM     68  C   UNL A   1      48.540  27.636  24.242  1.00  0.00     0.055 A 
ATOM     69  C   UNL A   1      49.357  26.962  26.398  1.00  0.00     0.041 A 
ATOM     70  F   UNL A   1      48.005  27.226  28.289  1.00  0.00    -0.206 F 
ATOM     71  C   UNL A   1      49.541  27.053  25.022  1.00  0.00     0.022 A 
BRANCH  68  72
ATOM     72  S   UNL A   1      48.631  27.540  22.432  1.00  0.00     0.124 S 
ATOM     73  O   UNL A   1      48.667  26.096  22.215  1.00  0.00    -0.237 OA
ATOM     74  O   UNL A   1      47.408  28.218  22.019  1.00  0.00    -0.237 OA
ATOM     75  O   UNL A   1      49.874  28.240  22.115  1.00  0.00    -0.744 OA
ENDBRANCH  68  72
ENDBRANCH  51  65
BRANCH  52  76
ATOM     76  C   UNL A   1      38.678  30.439  30.962  1.00  0.00     0.023 A 
ATOM     77  C   UNL A   1      37.585  31.111  30.394  1.00  0.00     0.031 A 
ATOM     78  C   UNL A   1      38.603  30.092  32.324  1.00  0.00     0.131 A 
ATOM     79  C   UNL A   1      36.480  31.445  31.194  1.00  0.00     0.055 A 
ATOM     80  C   UNL A   1      37.477  30.372  33.099  1.00  0.00     0.041 A 
ATOM     81  F   UNL A   1      39.623  29.451  32.918  1.00  0.00    -0.206 F 
ATOM     82  C   UNL A   1      36.410  31.063  32.536  1.00  0.00     0.022 A 
BRANCH  79  83
ATOM     83  S   UNL A   1      35.162  32.462  30.473  1.00  0.00     0.124 S 
ATOM     84  O   UNL A   1      34.227  32.565  31.588  1.00  0.00    -0.237 OA
ATOM     85  O   UNL A   1      35.881  33.683  30.123  1.00  0.00    -0.237 OA
ATOM     86  O   UNL A   1      34.699  31.667  29.340  1.00  0.00    -0.744 OA
ENDBRANCH  79  83
ENDBRANCH  52  76
BRANCH  64  87
ATOM     87  C   UNL A   1      44.566  33.938  29.504  1.00  0.00     0.023 A 
ATOM     88  C   UNL A   1      44.150  35.025  28.716  1.00  0.00     0.031 A 
ATOM     89  C   UNL A   1      45.408  34.202  30.600  1.00  0.00     0.131 A 
ATOM     90  C   UNL A   1      44.607  36.320  29.015  1.00  0.00     0.055 A 
ATOM     91  C   UNL A   1      45.806  35.497  30.930  1.00  0.00     0.041 A 
ATOM     92  F   UNL A   1      45.845  33.201  31.382  1.00  0.00    -0.206 F 
ATOM     93  C   UNL A   1      45.413  36.565  30.130  1.00  0.00     0.022 A 
BRANCH  90  94
ATOM     94  S   UNL A   1      44.201  37.674  27.879  1.00  0.00     0.124 S 
ATOM     95  O   UNL A   1      45.517  38.238  27.597  1.00  0.00    -0.237 OA
ATOM     96  O   UNL A   1      43.556  36.974  26.773  1.00  0.00    -0.237 OA
ATOM     97  O   UNL A   1      43.316  38.530  28.668  1.00  0.00    -0.744 OA
ENDBRANCH  90  94
ENDBRANCH  64  87
ENDBRANCH  38  39
ENDBRANCH  31  33
ENDBRANCH  30  31
ENDBRANCH  29  30
ENDBRANCH  28  29
ENDBRANCH  27  28
ENDBRANCH   1  27
TORSDOF 23
ENDMDL
