MODEL 1
REMARK VINA RESULT:     -11.1      0.000      0.000
REMARK SMILES O=C(OCCOCCOC(=O)[C@@H]1[C@@H](C(=O)NCCCn2ccnc2)[C@@H]2C=C[C@H]1C2)c1ccc(-c2c3nc(c(-c4cc(S(=O)(=O)[O-])ccc4F)c4ccc([nH]4)c(-c4cc(S(=O)(=O)[O-])ccc4F)c4nc(c(-c5cc(S(=O)(=O)[O-])ccc5F)c5ccc2[nH]5)C=C4)C=C3)cc1
REMARK SMILES IDX 7 1 6 2 5 3 4 4 3 5 2 6 1 7 30 8 31 9 92 10 32 11 91 12
REMARK SMILES IDX 33 13 34 14 35 15 85 16 36 17 90 18 84 19 86 20 37 21 89 22
REMARK SMILES IDX 83 23 82 24 38 26 70 27 50 28 69 29 51 30 54 31 68 32 87 33
REMARK SMILES IDX 52 34 53 35 67 37 88 38 55 39 39 40 40 41 48 42 41 43 47 44
REMARK SMILES IDX 49 45 46 46 42 47 43 48 44 49 45 50 71 51 72 52 80 53 73 54
REMARK SMILES IDX 79 55 81 56 78 57 74 58 75 59 76 60 77 61 56 62 57 63 65 64
REMARK SMILES IDX 58 65 64 66 66 67 63 68 59 69 60 70 61 71 62 72 8 73 9 74
REMARK SMILES IDX 10 75 11 76 12 77 13 78 28 79 25 80 27 81 29 82 26 83 14 84
REMARK SMILES IDX 15 85 16 86 17 88 18 89 19 90 20 91 21 92 24 93 22 94 23 95
REMARK H PARENT 86 25 54 36 16 87
REMARK Flexibility Score: inf
ROOT
ATOM      1  C   UNL A   1      32.934  28.863  27.302  1.00  0.00     0.202 C 
ENDROOT
BRANCH   1   2
ATOM      2  O   UNL A   1      33.592  30.043  26.834  1.00  0.00    -0.374 OA
BRANCH   2   3
ATOM      3  C   UNL A   1      33.576  31.236  27.613  1.00  0.00     0.202 C 
BRANCH   3   4
ATOM      4  C   UNL A   1      34.822  31.652  28.411  1.00  0.00     0.261 C 
BRANCH   4   5
ATOM      5  O   UNL A   1      35.933  30.786  28.197  1.00  0.00    -0.460 OA
BRANCH   5   6
ATOM      6  C   UNL A   1      36.702  30.201  29.137  1.00  0.00     0.338 C 
ATOM      7  O   UNL A   1      36.531  30.519  30.313  1.00  0.00    -0.246 OA
BRANCH   6   8
ATOM      8  C   UNL A   1      37.714  29.166  28.815  1.00  0.00     0.060 A 
ATOM      9  C   UNL A   1      38.144  28.154  29.672  1.00  0.00     0.016 A 
ATOM     10  C   UNL A   1      38.383  29.363  27.603  1.00  0.00     0.016 A 
ATOM     11  C   UNL A   1      39.429  27.700  29.574  1.00  0.00     0.010 A 
ATOM     12  C   UNL A   1      39.621  28.800  27.421  1.00  0.00     0.010 A 
ATOM     13  C   UNL A   1      40.184  28.114  28.488  1.00  0.00    -0.014 A 
BRANCH  13  14
ATOM     14  C   UNL A   1      41.567  27.707  28.459  1.00  0.00     0.031 A 
ATOM     15  C   UNL A   1      41.752  26.379  27.825  1.00  0.00     0.074 A 
ATOM     16  C   UNL A   1      42.519  28.549  28.900  1.00  0.00     0.049 A 
ATOM     17  N   UNL A   1      42.224  25.300  28.352  1.00  0.00    -0.248 NA
ATOM     18  C   UNL A   1      41.107  26.166  26.513  1.00  0.00     0.031 C 
ATOM     19  C   UNL A   1      42.369  29.936  29.352  1.00  0.00     0.029 A 
ATOM     20  N   UNL A   1      43.860  28.384  28.906  1.00  0.00    -0.354 N 
ATOM     21  C   UNL A   1      42.174  24.346  27.342  1.00  0.00     0.074 A 
ATOM     22  C   UNL A   1      41.272  24.855  26.350  1.00  0.00     0.031 C 
ATOM     23  C   UNL A   1      43.570  30.553  29.296  1.00  0.00     0.029 A 
ATOM     24  C   UNL A   1      44.579  29.572  28.937  1.00  0.00     0.049 A 
ATOM     25  H   UNL A   1      44.290  27.499  28.890  1.00  0.00     0.167 HD
ATOM     26  C   UNL A   1      43.113  23.366  27.262  1.00  0.00     0.034 A 
ATOM     27  C   UNL A   1      45.877  29.730  28.561  1.00  0.00     0.034 A 
ATOM     28  C   UNL A   1      43.745  23.152  28.544  1.00  0.00     0.049 A 
ATOM     29  C   UNL A   1      46.487  28.370  28.605  1.00  0.00     0.074 A 
ATOM     30  C   UNL A   1      43.281  22.780  29.792  1.00  0.00     0.029 A 
ATOM     31  N   UNL A   1      44.982  23.720  28.766  1.00  0.00    -0.354 N 
ATOM     32  N   UNL A   1      46.612  27.686  29.714  1.00  0.00    -0.248 NA
ATOM     33  C   UNL A   1      46.449  27.561  27.391  1.00  0.00     0.031 C 
ATOM     34  C   UNL A   1      44.006  23.595  30.710  1.00  0.00     0.029 A 
ATOM     35  C   UNL A   1      44.932  24.351  29.988  1.00  0.00     0.049 A 
ATOM     36  H   UNL A   1      45.758  23.682  28.161  1.00  0.00     0.167 HD
ATOM     37  C   UNL A   1      46.244  26.387  29.390  1.00  0.00     0.074 A 
ATOM     38  C   UNL A   1      46.231  26.354  27.926  1.00  0.00     0.031 C 
ATOM     39  C   UNL A   1      45.680  25.552  30.316  1.00  0.00     0.034 A 
BRANCH  26  40
ATOM     40  C   UNL A   1      43.732  22.918  25.956  1.00  0.00     0.023 A 
ATOM     41  C   UNL A   1      43.779  21.536  25.715  1.00  0.00     0.031 A 
ATOM     42  C   UNL A   1      44.531  23.717  25.100  1.00  0.00     0.131 A 
ATOM     43  C   UNL A   1      44.664  21.000  24.764  1.00  0.00     0.055 A 
ATOM     44  C   UNL A   1      45.359  23.184  24.111  1.00  0.00     0.041 A 
ATOM     45  F   UNL A   1      44.636  25.045  25.219  1.00  0.00    -0.206 F 
ATOM     46  C   UNL A   1      45.459  21.814  23.962  1.00  0.00     0.022 A 
BRANCH  43  47
ATOM     47  S   UNL A   1      44.898  19.207  24.731  1.00  0.00     0.124 S 
ATOM     48  O   UNL A   1      46.159  19.062  25.451  1.00  0.00    -0.237 OA
ATOM     49  O   UNL A   1      43.702  18.739  25.425  1.00  0.00    -0.237 OA
ATOM     50  O   UNL A   1      44.953  18.900  23.305  1.00  0.00    -0.744 OA
ENDBRANCH  43  47
ENDBRANCH  26  40
BRANCH  27  51
ATOM     51  C   UNL A   1      46.407  30.874  27.760  1.00  0.00     0.023 A 
ATOM     52  C   UNL A   1      45.592  31.704  26.962  1.00  0.00     0.031 A 
ATOM     53  C   UNL A   1      47.748  31.295  27.938  1.00  0.00     0.131 A 
ATOM     54  C   UNL A   1      46.129  32.876  26.371  1.00  0.00     0.055 A 
ATOM     55  C   UNL A   1      48.273  32.446  27.348  1.00  0.00     0.041 A 
ATOM     56  F   UNL A   1      48.582  30.640  28.761  1.00  0.00    -0.206 F 
ATOM     57  C   UNL A   1      47.462  33.248  26.564  1.00  0.00     0.022 A 
BRANCH  54  58
ATOM     58  S   UNL A   1      45.072  33.988  25.386  1.00  0.00     0.124 S 
ATOM     59  O   UNL A   1      46.042  34.905  24.801  1.00  0.00    -0.237 OA
ATOM     60  O   UNL A   1      44.415  33.064  24.468  1.00  0.00    -0.237 OA
ATOM     61  O   UNL A   1      44.184  34.590  26.384  1.00  0.00    -0.744 OA
ENDBRANCH  54  58
ENDBRANCH  27  51
BRANCH  39  62
ATOM     62  C   UNL A   1      45.648  26.002  31.767  1.00  0.00     0.023 A 
ATOM     63  C   UNL A   1      44.511  26.525  32.430  1.00  0.00     0.031 A 
ATOM     64  C   UNL A   1      46.791  25.752  32.545  1.00  0.00     0.131 A 
ATOM     65  C   UNL A   1      44.555  26.786  33.816  1.00  0.00     0.055 A 
ATOM     66  C   UNL A   1      46.825  25.994  33.918  1.00  0.00     0.041 A 
ATOM     67  F   UNL A   1      47.891  25.222  31.985  1.00  0.00    -0.206 F 
ATOM     68  C   UNL A   1      45.708  26.518  34.559  1.00  0.00     0.022 A 
BRANCH  65  69
ATOM     69  S   UNL A   1      43.109  27.487  34.683  1.00  0.00     0.124 S 
ATOM     70  O   UNL A   1      42.100  27.585  33.636  1.00  0.00    -0.237 OA
ATOM     71  O   UNL A   1      42.857  26.499  35.728  1.00  0.00    -0.237 OA
ATOM     72  O   UNL A   1      43.602  28.776  35.175  1.00  0.00    -0.744 OA
ENDBRANCH  65  69
ENDBRANCH  39  62
ENDBRANCH  13  14
ENDBRANCH   6   8
ENDBRANCH   5   6
ENDBRANCH   4   5
ENDBRANCH   3   4
ENDBRANCH   2   3
ENDBRANCH   1   2
BRANCH   1  73
ATOM     73  C   UNL A   1      31.804  28.223  26.489  1.00  0.00     0.261 C 
BRANCH  73  74
ATOM     74  O   UNL A   1      31.572  26.846  26.840  1.00  0.00    -0.463 OA
BRANCH  74  75
ATOM     75  C   UNL A   1      32.297  25.939  26.125  1.00  0.00     0.310 C 
ATOM     76  O   UNL A   1      33.128  26.225  25.283  1.00  0.00    -0.252 OA
BRANCH  75  77
ATOM     77  C   UNL A   1      31.932  24.510  26.462  1.00  0.00     0.119 C 
ATOM     78  C   UNL A   1      32.898  23.361  26.035  1.00  0.00     0.100 C 
ATOM     79  C   UNL A   1      30.601  24.098  25.773  1.00  0.00     0.027 C 
ATOM     80  C   UNL A   1      31.914  22.331  25.382  1.00  0.00     0.025 C 
ATOM     81  C   UNL A   1      30.746  23.963  24.268  1.00  0.00    -0.027 C 
ATOM     82  C   UNL A   1      30.589  22.605  26.107  1.00  0.00     0.017 C 
ATOM     83  C   UNL A   1      31.495  22.875  24.036  1.00  0.00    -0.027 C 
BRANCH  78  84
ATOM     84  C   UNL A   1      33.563  22.732  27.248  1.00  0.00     0.224 C 
ATOM     85  O   UNL A   1      32.936  22.521  28.290  1.00  0.00    -0.275 OA
ATOM     86  N   UNL A   1      34.879  22.397  27.251  1.00  0.00    -0.356 N 
ATOM     87  H   UNL A   1      35.198  22.022  28.103  1.00  0.00     0.163 HD
BRANCH  86  88
ATOM     88  C   UNL A   1      35.904  22.491  26.221  1.00  0.00     0.117 C 
BRANCH  88  89
ATOM     89  C   UNL A   1      36.078  21.181  25.453  1.00  0.00     0.043 C 
BRANCH  89  90
ATOM     90  C   UNL A   1      37.355  21.089  24.619  1.00  0.00     0.125 C 
BRANCH  90  91
ATOM     91  N   UNL A   1      38.556  20.866  25.395  1.00  0.00    -0.337 N 
ATOM     92  C   UNL A   1      39.244  19.691  25.501  1.00  0.00     0.107 A 
ATOM     93  C   UNL A   1      39.235  21.809  26.112  1.00  0.00     0.199 A 
ATOM     94  C   UNL A   1      40.313  19.980  26.318  1.00  0.00     0.130 A 
ATOM     95  N   UNL A   1      40.308  21.304  26.675  1.00  0.00    -0.245 NA
ENDBRANCH  90  91
ENDBRANCH  89  90
ENDBRANCH  88  89
ENDBRANCH  86  88
ENDBRANCH  78  84
ENDBRANCH  75  77
ENDBRANCH  74  75
ENDBRANCH  73  74
ENDBRANCH   1  73
TORSDOF 22
ENDMDL
MODEL 2
REMARK VINA RESULT:     -10.6      2.419      6.746
REMARK SMILES O=C(OCCOCCOC(=O)[C@@H]1[C@@H](C(=O)NCCCn2ccnc2)[C@@H]2C=C[C@H]1C2)c1ccc(-c2c3nc(c(-c4cc(S(=O)(=O)[O-])ccc4F)c4ccc([nH]4)c(-c4cc(S(=O)(=O)[O-])ccc4F)c4nc(c(-c5cc(S(=O)(=O)[O-])ccc5F)c5ccc2[nH]5)C=C4)C=C3)cc1
REMARK SMILES IDX 7 1 6 2 5 3 4 4 3 5 2 6 1 7 30 8 31 9 92 10 32 11 91 12
REMARK SMILES IDX 33 13 34 14 35 15 85 16 36 17 90 18 84 19 86 20 37 21 89 22
REMARK SMILES IDX 83 23 82 24 38 26 70 27 50 28 69 29 51 30 54 31 68 32 87 33
REMARK SMILES IDX 52 34 53 35 67 37 88 38 55 39 39 40 40 41 48 42 41 43 47 44
REMARK SMILES IDX 49 45 46 46 42 47 43 48 44 49 45 50 71 51 72 52 80 53 73 54
REMARK SMILES IDX 79 55 81 56 78 57 74 58 75 59 76 60 77 61 56 62 57 63 65 64
REMARK SMILES IDX 58 65 64 66 66 67 63 68 59 69 60 70 61 71 62 72 8 73 9 74
REMARK SMILES IDX 10 75 11 76 12 77 13 78 28 79 25 80 27 81 29 82 26 83 14 84
REMARK SMILES IDX 15 85 16 86 17 88 18 89 19 90 20 91 21 92 24 93 22 94 23 95
REMARK H PARENT 86 25 54 36 16 87
REMARK Flexibility Score: inf
ROOT
ATOM      1  C   UNL A   1      32.030  28.519  27.122  1.00  0.00     0.202 C 
ENDROOT
BRANCH   1   2
ATOM      2  O   UNL A   1      32.777  29.579  26.519  1.00  0.00    -0.374 OA
BRANCH   2   3
ATOM      3  C   UNL A   1      32.532  30.934  26.884  1.00  0.00     0.202 C 
BRANCH   3   4
ATOM      4  C   UNL A   1      33.552  31.698  27.743  1.00  0.00     0.261 C 
BRANCH   4   5
ATOM      5  O   UNL A   1      34.869  31.161  27.650  1.00  0.00    -0.460 OA
BRANCH   5   6
ATOM      6  C   UNL A   1      36.016  31.746  28.045  1.00  0.00     0.338 C 
ATOM      7  O   UNL A   1      36.247  32.894  27.668  1.00  0.00    -0.246 OA
BRANCH   6   8
ATOM      8  C   UNL A   1      36.989  31.079  28.945  1.00  0.00     0.060 A 
ATOM      9  C   UNL A   1      37.971  31.719  29.699  1.00  0.00     0.016 A 
ATOM     10  C   UNL A   1      36.989  29.683  28.868  1.00  0.00     0.016 A 
ATOM     11  C   UNL A   1      39.146  31.069  29.950  1.00  0.00     0.010 A 
ATOM     12  C   UNL A   1      38.111  28.991  29.247  1.00  0.00     0.010 A 
ATOM     13  C   UNL A   1      39.227  29.724  29.626  1.00  0.00    -0.014 A 
BRANCH  13  14
ATOM     14  C   UNL A   1      40.508  29.084  29.802  1.00  0.00     0.031 A 
ATOM     15  C   UNL A   1      40.840  28.868  31.232  1.00  0.00     0.074 A 
ATOM     16  C   UNL A   1      41.207  28.683  28.726  1.00  0.00     0.049 A 
ATOM     17  N   UNL A   1      41.829  29.352  31.905  1.00  0.00    -0.248 NA
ATOM     18  C   UNL A   1      39.805  28.230  32.072  1.00  0.00     0.031 C 
ATOM     19  C   UNL A   1      40.806  28.718  27.315  1.00  0.00     0.029 A 
ATOM     20  N   UNL A   1      42.385  28.024  28.676  1.00  0.00    -0.354 N 
ATOM     21  C   UNL A   1      41.675  28.853  33.193  1.00  0.00     0.074 A 
ATOM     22  C   UNL A   1      40.319  28.395  33.289  1.00  0.00     0.031 C 
ATOM     23  C   UNL A   1      41.574  27.856  26.614  1.00  0.00     0.029 A 
ATOM     24  C   UNL A   1      42.594  27.320  27.497  1.00  0.00     0.049 A 
ATOM     25  H   UNL A   1      43.039  28.040  29.413  1.00  0.00     0.167 HD
ATOM     26  C   UNL A   1      42.757  28.576  33.967  1.00  0.00     0.034 A 
ATOM     27  C   UNL A   1      43.461  26.285  27.329  1.00  0.00     0.034 A 
ATOM     28  C   UNL A   1      43.913  29.322  33.524  1.00  0.00     0.049 A 
ATOM     29  C   UNL A   1      44.452  26.392  28.438  1.00  0.00     0.074 A 
ATOM     30  C   UNL A   1      44.192  30.669  33.394  1.00  0.00     0.029 A 
ATOM     31  N   UNL A   1      44.847  28.676  32.743  1.00  0.00    -0.354 N 
ATOM     32  N   UNL A   1      45.269  27.407  28.560  1.00  0.00    -0.248 NA
ATOM     33  C   UNL A   1      44.170  25.682  29.681  1.00  0.00     0.031 C 
ATOM     34  C   UNL A   1      44.918  30.777  32.171  1.00  0.00     0.029 A 
ATOM     35  C   UNL A   1      45.121  29.490  31.669  1.00  0.00     0.049 A 
ATOM     36  H   UNL A   1      45.246  27.793  32.922  1.00  0.00     0.167 HD
ATOM     37  C   UNL A   1      45.264  27.724  29.912  1.00  0.00     0.074 A 
ATOM     38  C   UNL A   1      44.631  26.575  30.565  1.00  0.00     0.031 C 
ATOM     39  C   UNL A   1      45.478  29.003  30.348  1.00  0.00     0.034 A 
BRANCH  26  40
ATOM     40  C   UNL A   1      42.861  27.339  34.833  1.00  0.00     0.023 A 
ATOM     41  C   UNL A   1      43.641  26.281  34.339  1.00  0.00     0.031 A 
ATOM     42  C   UNL A   1      42.022  27.022  35.931  1.00  0.00     0.131 A 
ATOM     43  C   UNL A   1      43.485  24.977  34.839  1.00  0.00     0.055 A 
ATOM     44  C   UNL A   1      41.921  25.738  36.468  1.00  0.00     0.041 A 
ATOM     45  F   UNL A   1      41.185  27.900  36.493  1.00  0.00    -0.206 F 
ATOM     46  C   UNL A   1      42.627  24.696  35.899  1.00  0.00     0.022 A 
BRANCH  43  47
ATOM     47  S   UNL A   1      44.284  23.620  33.948  1.00  0.00     0.124 S 
ATOM     48  O   UNL A   1      45.692  23.980  34.067  1.00  0.00    -0.237 OA
ATOM     49  O   UNL A   1      43.846  22.461  34.721  1.00  0.00    -0.237 OA
ATOM     50  O   UNL A   1      43.722  23.722  32.604  1.00  0.00    -0.744 OA
ENDBRANCH  43  47
ENDBRANCH  26  40
BRANCH  27  51
ATOM     51  C   UNL A   1      43.167  25.032  26.569  1.00  0.00     0.023 A 
ATOM     52  C   UNL A   1      44.052  24.473  25.623  1.00  0.00     0.031 A 
ATOM     53  C   UNL A   1      42.048  24.240  26.927  1.00  0.00     0.131 A 
ATOM     54  C   UNL A   1      43.791  23.193  25.072  1.00  0.00     0.055 A 
ATOM     55  C   UNL A   1      41.792  22.984  26.375  1.00  0.00     0.041 A 
ATOM     56  F   UNL A   1      41.199  24.627  27.892  1.00  0.00    -0.206 F 
ATOM     57  C   UNL A   1      42.669  22.450  25.445  1.00  0.00     0.022 A 
BRANCH  54  58
ATOM     58  S   UNL A   1      44.958  22.434  23.894  1.00  0.00     0.124 S 
ATOM     59  O   UNL A   1      45.300  21.182  24.557  1.00  0.00    -0.237 OA
ATOM     60  O   UNL A   1      44.154  22.328  22.681  1.00  0.00    -0.237 OA
ATOM     61  O   UNL A   1      46.050  23.407  23.818  1.00  0.00    -0.744 OA
ENDBRANCH  54  58
ENDBRANCH  27  51
BRANCH  39  62
ATOM     62  C   UNL A   1      45.927  30.043  29.334  1.00  0.00     0.023 A 
ATOM     63  C   UNL A   1      45.074  30.698  28.412  1.00  0.00     0.031 A 
ATOM     64  C   UNL A   1      47.258  30.486  29.411  1.00  0.00     0.131 A 
ATOM     65  C   UNL A   1      45.572  31.746  27.607  1.00  0.00     0.055 A 
ATOM     66  C   UNL A   1      47.740  31.534  28.627  1.00  0.00     0.041 A 
ATOM     67  F   UNL A   1      48.108  29.933  30.291  1.00  0.00    -0.206 F 
ATOM     68  C   UNL A   1      46.900  32.164  27.716  1.00  0.00     0.022 A 
BRANCH  65  69
ATOM     69  S   UNL A   1      44.496  32.583  26.392  1.00  0.00     0.124 S 
ATOM     70  O   UNL A   1      43.656  31.506  25.883  1.00  0.00    -0.237 OA
ATOM     71  O   UNL A   1      43.823  33.592  27.208  1.00  0.00    -0.237 OA
ATOM     72  O   UNL A   1      45.445  33.128  25.418  1.00  0.00    -0.744 OA
ENDBRANCH  65  69
ENDBRANCH  39  62
ENDBRANCH  13  14
ENDBRANCH   6   8
ENDBRANCH   5   6
ENDBRANCH   4   5
ENDBRANCH   3   4
ENDBRANCH   2   3
ENDBRANCH   1   2
BRANCH   1  73
ATOM     73  C   UNL A   1      32.158  27.081  26.607  1.00  0.00     0.261 C 
BRANCH  73  74
ATOM     74  O   UNL A   1      30.890  26.403  26.522  1.00  0.00    -0.463 OA
BRANCH  74  75
ATOM     75  C   UNL A   1      30.434  26.192  25.255  1.00  0.00     0.310 C 
ATOM     76  O   UNL A   1      29.913  27.040  24.554  1.00  0.00    -0.252 OA
BRANCH  75  77
ATOM     77  C   UNL A   1      30.610  24.757  24.808  1.00  0.00     0.119 C 
ATOM     78  C   UNL A   1      31.756  23.903  25.437  1.00  0.00     0.100 C 
ATOM     79  C   UNL A   1      30.938  24.682  23.289  1.00  0.00     0.027 C 
ATOM     80  C   UNL A   1      32.415  23.256  24.172  1.00  0.00     0.025 C 
ATOM     81  C   UNL A   1      32.324  25.209  22.971  1.00  0.00    -0.027 C 
ATOM     82  C   UNL A   1      31.257  23.191  23.167  1.00  0.00     0.017 C 
ATOM     83  C   UNL A   1      33.208  24.326  23.460  1.00  0.00    -0.027 C 
BRANCH  78  84
ATOM     84  C   UNL A   1      31.191  22.812  26.331  1.00  0.00     0.224 C 
ATOM     85  O   UNL A   1      30.060  22.352  26.151  1.00  0.00    -0.275 OA
ATOM     86  N   UNL A   1      31.891  22.313  27.382  1.00  0.00    -0.356 N 
ATOM     87  H   UNL A   1      31.408  21.630  27.901  1.00  0.00     0.163 HD
BRANCH  86  88
ATOM     88  C   UNL A   1      33.227  22.603  27.881  1.00  0.00     0.117 C 
BRANCH  88  89
ATOM     89  C   UNL A   1      34.247  21.544  27.464  1.00  0.00     0.043 C 
BRANCH  89  90
ATOM     90  C   UNL A   1      34.663  21.596  25.994  1.00  0.00     0.125 C 
BRANCH  90  91
ATOM     91  N   UNL A   1      36.053  21.940  25.782  1.00  0.00    -0.337 N 
ATOM     92  C   UNL A   1      36.600  23.187  25.874  1.00  0.00     0.107 A 
ATOM     93  C   UNL A   1      37.062  21.064  25.503  1.00  0.00     0.199 A 
ATOM     94  C   UNL A   1      37.939  23.006  25.613  1.00  0.00     0.130 A 
ATOM     95  N   UNL A   1      38.218  21.680  25.404  1.00  0.00    -0.245 NA
ENDBRANCH  90  91
ENDBRANCH  89  90
ENDBRANCH  88  89
ENDBRANCH  86  88
ENDBRANCH  78  84
ENDBRANCH  75  77
ENDBRANCH  74  75
ENDBRANCH  73  74
ENDBRANCH   1  73
TORSDOF 22
ENDMDL
MODEL 3
REMARK VINA RESULT:     -10.5      1.639      2.253
REMARK SMILES O=C(OCCOCCOC(=O)[C@@H]1[C@@H](C(=O)NCCCn2ccnc2)[C@@H]2C=C[C@H]1C2)c1ccc(-c2c3nc(c(-c4cc(S(=O)(=O)[O-])ccc4F)c4ccc([nH]4)c(-c4cc(S(=O)(=O)[O-])ccc4F)c4nc(c(-c5cc(S(=O)(=O)[O-])ccc5F)c5ccc2[nH]5)C=C4)C=C3)cc1
REMARK SMILES IDX 7 1 6 2 5 3 4 4 3 5 2 6 1 7 30 8 31 9 92 10 32 11 91 12
REMARK SMILES IDX 33 13 34 14 35 15 85 16 36 17 90 18 84 19 86 20 37 21 89 22
REMARK SMILES IDX 83 23 82 24 38 26 70 27 50 28 69 29 51 30 54 31 68 32 87 33
REMARK SMILES IDX 52 34 53 35 67 37 88 38 55 39 39 40 40 41 48 42 41 43 47 44
REMARK SMILES IDX 49 45 46 46 42 47 43 48 44 49 45 50 71 51 72 52 80 53 73 54
REMARK SMILES IDX 79 55 81 56 78 57 74 58 75 59 76 60 77 61 56 62 57 63 65 64
REMARK SMILES IDX 58 65 64 66 66 67 63 68 59 69 60 70 61 71 62 72 8 73 9 74
REMARK SMILES IDX 10 75 11 76 12 77 13 78 28 79 25 80 27 81 29 82 26 83 14 84
REMARK SMILES IDX 15 85 16 86 17 88 18 89 19 90 20 91 21 92 24 93 22 94 23 95
REMARK H PARENT 86 25 54 36 16 87
REMARK Flexibility Score: inf
ROOT
ATOM      1  C   UNL A   1      32.504  30.034  25.631  1.00  0.00     0.202 C 
ENDROOT
BRANCH   1   2
ATOM      2  O   UNL A   1      33.479  30.117  26.673  1.00  0.00    -0.374 OA
BRANCH   2   3
ATOM      3  C   UNL A   1      33.447  31.189  27.610  1.00  0.00     0.202 C 
BRANCH   3   4
ATOM      4  C   UNL A   1      34.680  31.495  28.475  1.00  0.00     0.261 C 
BRANCH   4   5
ATOM      5  O   UNL A   1      35.784  30.639  28.191  1.00  0.00    -0.460 OA
BRANCH   5   6
ATOM      6  C   UNL A   1      36.761  30.262  29.039  1.00  0.00     0.338 C 
ATOM      7  O   UNL A   1      36.801  30.782  30.152  1.00  0.00    -0.246 OA
BRANCH   6   8
ATOM      8  C   UNL A   1      37.760  29.220  28.698  1.00  0.00     0.060 A 
ATOM      9  C   UNL A   1      38.155  28.170  29.526  1.00  0.00     0.016 A 
ATOM     10  C   UNL A   1      38.456  29.448  27.507  1.00  0.00     0.016 A 
ATOM     11  C   UNL A   1      39.434  27.696  29.435  1.00  0.00     0.010 A 
ATOM     12  C   UNL A   1      39.687  28.869  27.327  1.00  0.00     0.010 A 
ATOM     13  C   UNL A   1      40.216  28.134  28.379  1.00  0.00    -0.014 A 
BRANCH  13  14
ATOM     14  C   UNL A   1      41.593  27.703  28.361  1.00  0.00     0.031 A 
ATOM     15  C   UNL A   1      41.759  26.372  27.729  1.00  0.00     0.074 A 
ATOM     16  C   UNL A   1      42.556  28.529  28.808  1.00  0.00     0.049 A 
ATOM     17  N   UNL A   1      42.207  25.285  28.261  1.00  0.00    -0.248 NA
ATOM     18  C   UNL A   1      41.120  26.169  26.413  1.00  0.00     0.031 C 
ATOM     19  C   UNL A   1      42.427  29.918  29.258  1.00  0.00     0.029 A 
ATOM     20  N   UNL A   1      43.894  28.340  28.825  1.00  0.00    -0.354 N 
ATOM     21  C   UNL A   1      42.149  24.331  27.251  1.00  0.00     0.074 A 
ATOM     22  C   UNL A   1      41.263  24.856  26.252  1.00  0.00     0.031 C 
ATOM     23  C   UNL A   1      43.639  30.514  29.212  1.00  0.00     0.029 A 
ATOM     24  C   UNL A   1      44.633  29.516  28.861  1.00  0.00     0.049 A 
ATOM     25  H   UNL A   1      44.308  27.447  28.813  1.00  0.00     0.167 HD
ATOM     26  C   UNL A   1      43.071  23.335  27.179  1.00  0.00     0.034 A 
ATOM     27  C   UNL A   1      45.937  29.650  28.495  1.00  0.00     0.034 A 
ATOM     28  C   UNL A   1      43.689  23.111  28.466  1.00  0.00     0.049 A 
ATOM     29  C   UNL A   1      46.523  28.279  28.544  1.00  0.00     0.074 A 
ATOM     30  C   UNL A   1      43.209  22.748  29.710  1.00  0.00     0.029 A 
ATOM     31  N   UNL A   1      44.934  23.657  28.697  1.00  0.00    -0.354 N 
ATOM     32  N   UNL A   1      46.627  27.595  29.655  1.00  0.00    -0.248 NA
ATOM     33  C   UNL A   1      46.479  27.471  27.331  1.00  0.00     0.031 C 
ATOM     34  C   UNL A   1      43.941  23.551  30.634  1.00  0.00     0.029 A 
ATOM     35  C   UNL A   1      44.886  24.289  29.918  1.00  0.00     0.049 A 
ATOM     36  H   UNL A   1      45.714  23.605  28.098  1.00  0.00     0.167 HD
ATOM     37  C   UNL A   1      46.238  26.302  29.329  1.00  0.00     0.074 A 
ATOM     38  C   UNL A   1      46.236  26.268  27.864  1.00  0.00     0.031 C 
ATOM     39  C   UNL A   1      45.653  25.477  30.251  1.00  0.00     0.034 A 
BRANCH  26  40
ATOM     40  C   UNL A   1      43.692  22.875  25.878  1.00  0.00     0.023 A 
ATOM     41  C   UNL A   1      43.809  21.489  25.683  1.00  0.00     0.031 A 
ATOM     42  C   UNL A   1      44.433  23.685  24.981  1.00  0.00     0.131 A 
ATOM     43  C   UNL A   1      44.706  20.968  24.736  1.00  0.00     0.055 A 
ATOM     44  C   UNL A   1      45.272  23.162  23.996  1.00  0.00     0.041 A 
ATOM     45  F   UNL A   1      44.468  25.020  25.053  1.00  0.00    -0.206 F 
ATOM     46  C   UNL A   1      45.443  21.795  23.892  1.00  0.00     0.022 A 
BRANCH  43  47
ATOM     47  S   UNL A   1      45.036  19.190  24.760  1.00  0.00     0.124 S 
ATOM     48  O   UNL A   1      46.093  19.101  25.761  1.00  0.00    -0.237 OA
ATOM     49  O   UNL A   1      43.735  18.653  25.146  1.00  0.00    -0.237 OA
ATOM     50  O   UNL A   1      45.448  18.905  23.388  1.00  0.00    -0.744 OA
ENDBRANCH  43  47
ENDBRANCH  26  40
BRANCH  27  51
ATOM     51  C   UNL A   1      46.493  30.784  27.697  1.00  0.00     0.023 A 
ATOM     52  C   UNL A   1      45.693  31.654  26.926  1.00  0.00     0.031 A 
ATOM     53  C   UNL A   1      47.852  31.152  27.852  1.00  0.00     0.131 A 
ATOM     54  C   UNL A   1      46.262  32.813  26.339  1.00  0.00     0.055 A 
ATOM     55  C   UNL A   1      48.408  32.291  27.265  1.00  0.00     0.041 A 
ATOM     56  F   UNL A   1      48.678  30.455  28.649  1.00  0.00    -0.206 F 
ATOM     57  C   UNL A   1      47.611  33.132  26.508  1.00  0.00     0.022 A 
BRANCH  54  58
ATOM     58  S   UNL A   1      45.227  33.976  25.389  1.00  0.00     0.124 S 
ATOM     59  O   UNL A   1      44.402  33.079  24.590  1.00  0.00    -0.237 OA
ATOM     60  O   UNL A   1      44.546  34.720  26.443  1.00  0.00    -0.237 OA
ATOM     61  O   UNL A   1      46.203  34.757  24.625  1.00  0.00    -0.744 OA
ENDBRANCH  54  58
ENDBRANCH  27  51
BRANCH  39  62
ATOM     62  C   UNL A   1      45.617  25.930  31.701  1.00  0.00     0.023 A 
ATOM     63  C   UNL A   1      44.501  26.525  32.339  1.00  0.00     0.031 A 
ATOM     64  C   UNL A   1      46.725  25.607  32.504  1.00  0.00     0.131 A 
ATOM     65  C   UNL A   1      44.532  26.783  33.727  1.00  0.00     0.055 A 
ATOM     66  C   UNL A   1      46.743  25.847  33.878  1.00  0.00     0.041 A 
ATOM     67  F   UNL A   1      47.800  25.006  31.968  1.00  0.00    -0.206 F 
ATOM     68  C   UNL A   1      45.648  26.442  34.494  1.00  0.00     0.022 A 
BRANCH  65  69
ATOM     69  S   UNL A   1      43.115  27.576  34.561  1.00  0.00     0.124 S 
ATOM     70  O   UNL A   1      43.291  27.201  35.959  1.00  0.00    -0.237 OA
ATOM     71  O   UNL A   1      43.313  28.989  34.247  1.00  0.00    -0.237 OA
ATOM     72  O   UNL A   1      41.953  26.968  33.909  1.00  0.00    -0.744 OA
ENDBRANCH  65  69
ENDBRANCH  39  62
ENDBRANCH  13  14
ENDBRANCH   6   8
ENDBRANCH   5   6
ENDBRANCH   4   5
ENDBRANCH   3   4
ENDBRANCH   2   3
ENDBRANCH   1   2
BRANCH   1  73
ATOM     73  C   UNL A   1      32.819  29.305  24.320  1.00  0.00     0.261 C 
BRANCH  73  74
ATOM     74  O   UNL A   1      33.878  28.339  24.459  1.00  0.00    -0.463 OA
BRANCH  74  75
ATOM     75  C   UNL A   1      33.596  27.101  23.963  1.00  0.00     0.310 C 
ATOM     76  O   UNL A   1      33.564  26.818  22.779  1.00  0.00    -0.252 OA
BRANCH  75  77
ATOM     77  C   UNL A   1      33.286  26.097  25.052  1.00  0.00     0.119 C 
ATOM     78  C   UNL A   1      33.288  24.576  24.704  1.00  0.00     0.100 C 
ATOM     79  C   UNL A   1      31.850  26.307  25.611  1.00  0.00     0.027 C 
ATOM     80  C   UNL A   1      31.948  24.089  25.351  1.00  0.00     0.025 C 
ATOM     81  C   UNL A   1      30.778  25.919  24.609  1.00  0.00    -0.027 C 
ATOM     82  C   UNL A   1      31.740  25.074  26.509  1.00  0.00     0.017 C 
ATOM     83  C   UNL A   1      30.808  24.583  24.492  1.00  0.00    -0.027 C 
BRANCH  78  84
ATOM     84  C   UNL A   1      34.460  23.869  25.365  1.00  0.00     0.224 C 
ATOM     85  O   UNL A   1      35.527  24.452  25.578  1.00  0.00    -0.275 OA
ATOM     86  N   UNL A   1      34.397  22.562  25.728  1.00  0.00    -0.356 N 
ATOM     87  H   UNL A   1      35.228  22.213  26.122  1.00  0.00     0.163 HD
BRANCH  86  88
ATOM     88  C   UNL A   1      33.323  21.584  25.640  1.00  0.00     0.117 C 
BRANCH  88  89
ATOM     89  C   UNL A   1      33.801  20.242  25.086  1.00  0.00     0.043 C 
BRANCH  89  90
ATOM     90  C   UNL A   1      32.695  19.218  24.837  1.00  0.00     0.125 C 
BRANCH  90  91
ATOM     91  N   UNL A   1      33.174  17.890  24.520  1.00  0.00    -0.337 N 
ATOM     92  C   UNL A   1      33.245  16.829  25.377  1.00  0.00     0.107 A 
ATOM     93  C   UNL A   1      33.590  17.459  23.293  1.00  0.00     0.199 A 
ATOM     94  C   UNL A   1      33.736  15.793  24.617  1.00  0.00     0.130 A 
ATOM     95  N   UNL A   1      33.928  16.191  23.319  1.00  0.00    -0.245 NA
ENDBRANCH  90  91
ENDBRANCH  89  90
ENDBRANCH  88  89
ENDBRANCH  86  88
ENDBRANCH  78  84
ENDBRANCH  75  77
ENDBRANCH  74  75
ENDBRANCH  73  74
ENDBRANCH   1  73
TORSDOF 22
ENDMDL
