MODEL 1
REMARK VINA RESULT:     -11.1      0.000      0.000
REMARK SMILES C[C@@H]1[C@@H](C(=O)OCCOCCOC(=O)c2ccc(-c3c4nc(c(-c5cc(S(=O)(=O)[O-])ccc5F)c5ccc([nH]5)c(-c5cc(S(=O)(=O)[O-])ccc5F)c5nc(c(-c6cc(S(=O)(=O)[O-])ccc6F)c6ccc3[nH]6)C=C5)C=C4)cc2)CCN1C(=O)CC[C@@H]1CCCC[NH2+]1
REMARK SMILES IDX 8 1 7 2 6 3 4 4 5 5 3 6 1 7 2 8 80 9 78 10 79 11 81 12 82 13
REMARK SMILES IDX 83 14 84 15 85 16 86 17 90 18 87 19 89 20 88 23 9 24 10 25
REMARK SMILES IDX 11 26 12 27 13 28 14 29 15 30 16 31 77 32 17 33 76 34 18 35
REMARK SMILES IDX 19 36 20 37 70 38 21 39 75 40 69 41 71 42 22 43 74 44 68 45
REMARK SMILES IDX 67 46 23 48 55 49 35 50 54 51 36 52 39 53 53 54 72 55 37 56
REMARK SMILES IDX 38 57 52 59 73 60 40 61 24 62 25 63 33 64 26 65 32 66 34 67
REMARK SMILES IDX 31 68 27 69 28 70 29 71 30 72 56 73 57 74 65 75 58 76 64 77
REMARK SMILES IDX 66 78 63 79 59 80 60 81 61 82 62 83 41 84 42 85 50 86 43 87
REMARK SMILES IDX 49 88 51 89 48 90 44 91 45 92 46 93 47 94
REMARK H PARENT 90 21 90 22 71 47 39 58
REMARK Flexibility Score: inf
ROOT
ATOM      1  C   UNL A   1      34.999  23.236  25.709  1.00  0.00     0.202 C 
ENDROOT
BRANCH   1   2
ATOM      2  C   UNL A   1      34.663  24.680  25.348  1.00  0.00     0.261 C 
BRANCH   2   3
ATOM      3  O   UNL A   1      33.580  25.170  26.155  1.00  0.00    -0.463 OA
BRANCH   3   4
ATOM      4  C   UNL A   1      32.607  25.791  25.443  1.00  0.00     0.311 C 
ATOM      5  O   UNL A   1      32.812  26.700  24.651  1.00  0.00    -0.252 OA
BRANCH   4   6
ATOM      6  C   UNL A   1      31.235  25.190  25.723  1.00  0.00     0.123 C 
ATOM      7  C   UNL A   1      30.263  22.986  26.592  1.00  0.00     0.032 C 
ATOM      8  C   UNL A   1      31.368  23.660  25.783  1.00  0.00     0.096 C 
ATOM      9  N   UNL A   1      31.359  23.243  24.383  1.00  0.00    -0.339 N 
ATOM     10  C   UNL A   1      30.321  25.389  24.526  1.00  0.00     0.039 C 
ATOM     11  C   UNL A   1      30.810  24.315  23.550  1.00  0.00     0.121 C 
BRANCH   9  12
ATOM     12  C   UNL A   1      32.161  22.264  23.808  1.00  0.00     0.223 C 
ATOM     13  O   UNL A   1      32.828  22.498  22.797  1.00  0.00    -0.275 OA
BRANCH  12  14
ATOM     14  C   UNL A   1      32.092  20.823  24.331  1.00  0.00     0.106 C 
BRANCH  14  15
ATOM     15  C   UNL A   1      32.262  19.650  23.349  1.00  0.00     0.075 C 
BRANCH  15  16
ATOM     16  C   UNL A   1      32.892  18.413  24.007  1.00  0.00     0.182 C 
ATOM     17  C   UNL A   1      33.407  17.446  22.937  1.00  0.00     0.065 C 
ATOM     18  N   UNL A   1      32.028  17.658  24.932  1.00  0.00    -0.344 N 
ATOM     19  C   UNL A   1      34.263  16.375  23.583  1.00  0.00     0.012 C 
ATOM     20  C   UNL A   1      32.851  16.674  25.663  1.00  0.00     0.260 C 
ATOM     21  H   UNL A   1      31.304  17.172  24.404  1.00  0.00     0.346 HD
ATOM     22  H   UNL A   1      31.589  18.297  25.594  1.00  0.00     0.346 HD
ATOM     23  C   UNL A   1      33.528  15.676  24.721  1.00  0.00     0.062 C 
ENDBRANCH  15  16
ENDBRANCH  14  15
ENDBRANCH  12  14
ENDBRANCH   9  12
ENDBRANCH   4   6
ENDBRANCH   3   4
ENDBRANCH   2   3
ENDBRANCH   1   2
BRANCH   1  24
ATOM     24  O   UNL A   1      35.629  22.429  24.714  1.00  0.00    -0.374 OA
BRANCH  24  25
ATOM     25  C   UNL A   1      35.731  21.024  24.937  1.00  0.00     0.202 C 
BRANCH  25  26
ATOM     26  C   UNL A   1      37.117  20.392  25.032  1.00  0.00     0.261 C 
BRANCH  26  27
ATOM     27  O   UNL A   1      38.151  21.360  25.146  1.00  0.00    -0.460 OA
BRANCH  27  28
ATOM     28  C   UNL A   1      39.164  20.983  25.963  1.00  0.00     0.338 C 
ATOM     29  O   UNL A   1      39.679  19.880  26.050  1.00  0.00    -0.246 OA
BRANCH  28  30
ATOM     30  C   UNL A   1      39.709  22.204  26.569  1.00  0.00     0.060 A 
ATOM     31  C   UNL A   1      39.159  23.431  26.175  1.00  0.00     0.016 A 
ATOM     32  C   UNL A   1      40.707  22.130  27.543  1.00  0.00     0.016 A 
ATOM     33  C   UNL A   1      39.644  24.605  26.726  1.00  0.00     0.010 A 
ATOM     34  C   UNL A   1      41.205  23.305  28.083  1.00  0.00     0.010 A 
ATOM     35  C   UNL A   1      40.703  24.540  27.639  1.00  0.00    -0.014 A 
BRANCH  35  36
ATOM     36  C   UNL A   1      41.457  25.764  27.940  1.00  0.00     0.031 A 
ATOM     37  C   UNL A   1      40.741  26.840  28.699  1.00  0.00     0.074 A 
ATOM     38  C   UNL A   1      42.736  25.881  27.552  1.00  0.00     0.049 A 
ATOM     39  N   UNL A   1      41.144  28.037  29.022  1.00  0.00    -0.248 NA
ATOM     40  C   UNL A   1      39.371  26.524  29.143  1.00  0.00     0.031 C 
ATOM     41  C   UNL A   1      43.503  24.848  26.854  1.00  0.00     0.029 A 
ATOM     42  N   UNL A   1      43.609  26.923  27.684  1.00  0.00    -0.354 N 
ATOM     43  C   UNL A   1      40.078  28.619  29.698  1.00  0.00     0.074 A 
ATOM     44  C   UNL A   1      38.996  27.663  29.700  1.00  0.00     0.031 C 
ATOM     45  C   UNL A   1      44.739  25.318  26.610  1.00  0.00     0.029 A 
ATOM     46  C   UNL A   1      44.827  26.693  27.093  1.00  0.00     0.049 A 
ATOM     47  H   UNL A   1      43.387  27.757  28.156  1.00  0.00     0.167 HD
ATOM     48  C   UNL A   1      40.025  29.843  30.273  1.00  0.00     0.034 A 
ATOM     49  C   UNL A   1      45.875  27.525  26.941  1.00  0.00     0.034 A 
ATOM     50  C   UNL A   1      41.126  30.770  30.228  1.00  0.00     0.049 A 
ATOM     51  C   UNL A   1      45.760  28.916  27.516  1.00  0.00     0.074 A 
ATOM     52  C   UNL A   1      41.210  32.040  30.764  1.00  0.00     0.029 A 
ATOM     53  N   UNL A   1      42.340  30.523  29.592  1.00  0.00    -0.354 N 
ATOM     54  N   UNL A   1      44.752  29.465  28.158  1.00  0.00    -0.248 NA
ATOM     55  C   UNL A   1      46.923  29.795  27.355  1.00  0.00     0.031 C 
ATOM     56  C   UNL A   1      42.440  32.589  30.386  1.00  0.00     0.029 A 
ATOM     57  C   UNL A   1      43.164  31.630  29.694  1.00  0.00     0.049 A 
ATOM     58  H   UNL A   1      42.577  29.682  29.137  1.00  0.00     0.167 HD
ATOM     59  C   UNL A   1      45.175  30.743  28.511  1.00  0.00     0.074 A 
ATOM     60  C   UNL A   1      46.534  30.873  28.020  1.00  0.00     0.031 C 
ATOM     61  C   UNL A   1      44.513  31.722  29.180  1.00  0.00     0.034 A 
BRANCH  48  62
ATOM     62  C   UNL A   1      38.726  30.250  30.924  1.00  0.00     0.023 A 
ATOM     63  C   UNL A   1      37.726  30.947  30.221  1.00  0.00     0.031 A 
ATOM     64  C   UNL A   1      38.502  29.981  32.285  1.00  0.00     0.131 A 
ATOM     65  C   UNL A   1      36.587  31.411  30.896  1.00  0.00     0.055 A 
ATOM     66  C   UNL A   1      37.327  30.372  32.932  1.00  0.00     0.041 A 
ATOM     67  F   UNL A   1      39.433  29.352  33.020  1.00  0.00    -0.206 F 
ATOM     68  C   UNL A   1      36.368  31.104  32.240  1.00  0.00     0.022 A 
BRANCH  65  69
ATOM     69  S   UNL A   1      35.472  32.554  30.033  1.00  0.00     0.124 S 
ATOM     70  O   UNL A   1      35.179  31.813  28.809  1.00  0.00    -0.237 OA
ATOM     71  O   UNL A   1      34.368  32.690  30.977  1.00  0.00    -0.237 OA
ATOM     72  O   UNL A   1      36.286  33.753  29.847  1.00  0.00    -0.744 OA
ENDBRANCH  65  69
ENDBRANCH  48  62
BRANCH  49  73
ATOM     73  C   UNL A   1      47.091  27.084  26.202  1.00  0.00     0.023 A 
ATOM     74  C   UNL A   1      48.126  26.401  26.856  1.00  0.00     0.031 A 
ATOM     75  C   UNL A   1      47.254  27.371  24.833  1.00  0.00     0.131 A 
ATOM     76  C   UNL A   1      49.298  26.071  26.157  1.00  0.00     0.055 A 
ATOM     77  C   UNL A   1      48.396  26.988  24.128  1.00  0.00     0.041 A 
ATOM     78  F   UNL A   1      46.293  28.022  24.156  1.00  0.00    -0.206 F 
ATOM     79  C   UNL A   1      49.434  26.346  24.795  1.00  0.00     0.022 A 
BRANCH  76  80
ATOM     80  S   UNL A   1      50.687  25.366  27.085  1.00  0.00     0.124 S 
ATOM     81  O   UNL A   1      51.552  24.894  26.009  1.00  0.00    -0.237 OA
ATOM     82  O   UNL A   1      51.168  26.522  27.834  1.00  0.00    -0.237 OA
ATOM     83  O   UNL A   1      50.061  24.319  27.889  1.00  0.00    -0.744 OA
ENDBRANCH  76  80
ENDBRANCH  49  73
BRANCH  61  84
ATOM     84  C   UNL A   1      45.277  32.993  29.456  1.00  0.00     0.023 A 
ATOM     85  C   UNL A   1      45.200  34.103  28.599  1.00  0.00     0.031 A 
ATOM     86  C   UNL A   1      46.098  33.087  30.594  1.00  0.00     0.131 A 
ATOM     87  C   UNL A   1      45.985  35.235  28.857  1.00  0.00     0.055 A 
ATOM     88  C   UNL A   1      46.817  34.245  30.886  1.00  0.00     0.041 A 
ATOM     89  F   UNL A   1      46.209  32.054  31.446  1.00  0.00    -0.206 F 
ATOM     90  C   UNL A   1      46.775  35.322  30.006  1.00  0.00     0.022 A 
BRANCH  87  91
ATOM     91  S   UNL A   1      46.044  36.548  27.608  1.00  0.00     0.124 S 
ATOM     92  O   UNL A   1      45.059  36.085  26.637  1.00  0.00    -0.237 OA
ATOM     93  O   UNL A   1      45.672  37.730  28.379  1.00  0.00    -0.237 OA
ATOM     94  O   UNL A   1      47.431  36.519  27.147  1.00  0.00    -0.744 OA
ENDBRANCH  87  91
ENDBRANCH  61  84
ENDBRANCH  35  36
ENDBRANCH  28  30
ENDBRANCH  27  28
ENDBRANCH  26  27
ENDBRANCH  25  26
ENDBRANCH  24  25
ENDBRANCH   1  24
TORSDOF 21
ENDMDL
MODEL 2
REMARK VINA RESULT:     -10.6      2.430      4.535
REMARK SMILES C[C@@H]1[C@@H](C(=O)OCCOCCOC(=O)c2ccc(-c3c4nc(c(-c5cc(S(=O)(=O)[O-])ccc5F)c5ccc([nH]5)c(-c5cc(S(=O)(=O)[O-])ccc5F)c5nc(c(-c6cc(S(=O)(=O)[O-])ccc6F)c6ccc3[nH]6)C=C5)C=C4)cc2)CCN1C(=O)CC[C@@H]1CCCC[NH2+]1
REMARK SMILES IDX 8 1 7 2 6 3 4 4 5 5 3 6 1 7 2 8 80 9 78 10 79 11 81 12 82 13
REMARK SMILES IDX 83 14 84 15 85 16 86 17 90 18 87 19 89 20 88 23 9 24 10 25
REMARK SMILES IDX 11 26 12 27 13 28 14 29 15 30 16 31 77 32 17 33 76 34 18 35
REMARK SMILES IDX 19 36 20 37 70 38 21 39 75 40 69 41 71 42 22 43 74 44 68 45
REMARK SMILES IDX 67 46 23 48 55 49 35 50 54 51 36 52 39 53 53 54 72 55 37 56
REMARK SMILES IDX 38 57 52 59 73 60 40 61 24 62 25 63 33 64 26 65 32 66 34 67
REMARK SMILES IDX 31 68 27 69 28 70 29 71 30 72 56 73 57 74 65 75 58 76 64 77
REMARK SMILES IDX 66 78 63 79 59 80 60 81 61 82 62 83 41 84 42 85 50 86 43 87
REMARK SMILES IDX 49 88 51 89 48 90 44 91 45 92 46 93 47 94
REMARK H PARENT 90 21 90 22 71 47 39 58
REMARK Flexibility Score: inf
ROOT
ATOM      1  C   UNL A   1      33.625  20.324  25.707  1.00  0.00     0.202 C 
ENDROOT
BRANCH   1   2
ATOM      2  C   UNL A   1      32.296  20.270  24.958  1.00  0.00     0.261 C 
BRANCH   2   3
ATOM      3  O   UNL A   1      31.904  21.580  24.517  1.00  0.00    -0.463 OA
BRANCH   3   4
ATOM      4  C   UNL A   1      32.308  21.875  23.257  1.00  0.00     0.311 C 
ATOM      5  O   UNL A   1      31.871  21.333  22.252  1.00  0.00    -0.252 OA
BRANCH   4   6
ATOM      6  C   UNL A   1      33.345  22.992  23.248  1.00  0.00     0.123 C 
ATOM      7  C   UNL A   1      34.358  24.665  24.900  1.00  0.00     0.032 C 
ATOM      8  C   UNL A   1      33.113  23.894  24.470  1.00  0.00     0.096 C 
ATOM      9  N   UNL A   1      32.028  24.782  24.059  1.00  0.00    -0.339 N 
ATOM     10  C   UNL A   1      33.084  23.940  22.090  1.00  0.00     0.039 C 
ATOM     11  C   UNL A   1      31.904  24.773  22.600  1.00  0.00     0.121 C 
BRANCH   9  12
ATOM     12  C   UNL A   1      30.952  25.187  24.840  1.00  0.00     0.223 C 
ATOM     13  O   UNL A   1      30.627  24.560  25.853  1.00  0.00    -0.275 OA
BRANCH  12  14
ATOM     14  C   UNL A   1      30.048  26.327  24.355  1.00  0.00     0.106 C 
BRANCH  14  15
ATOM     15  C   UNL A   1      30.653  27.719  24.098  1.00  0.00     0.075 C 
BRANCH  15  16
ATOM     16  C   UNL A   1      29.693  28.653  23.347  1.00  0.00     0.182 C 
ATOM     17  C   UNL A   1      29.889  30.100  23.808  1.00  0.00     0.065 C 
ATOM     18  N   UNL A   1      28.259  28.329  23.447  1.00  0.00    -0.344 N 
ATOM     19  C   UNL A   1      29.146  31.039  22.880  1.00  0.00     0.012 C 
ATOM     20  C   UNL A   1      27.511  29.151  22.475  1.00  0.00     0.260 C 
ATOM     21  H   UNL A   1      27.927  28.530  24.390  1.00  0.00     0.346 HD
ATOM     22  H   UNL A   1      28.114  27.340  23.245  1.00  0.00     0.346 HD
ATOM     23  C   UNL A   1      27.680  30.648  22.736  1.00  0.00     0.062 C 
ENDBRANCH  15  16
ENDBRANCH  14  15
ENDBRANCH  12  14
ENDBRANCH   9  12
ENDBRANCH   4   6
ENDBRANCH   3   4
ENDBRANCH   2   3
ENDBRANCH   1   2
BRANCH   1  24
ATOM     24  O   UNL A   1      34.816  20.039  24.974  1.00  0.00    -0.374 OA
BRANCH  24  25
ATOM     25  C   UNL A   1      35.941  20.900  25.135  1.00  0.00     0.202 C 
BRANCH  25  26
ATOM     26  C   UNL A   1      37.344  20.312  25.005  1.00  0.00     0.261 C 
BRANCH  26  27
ATOM     27  O   UNL A   1      38.360  21.300  25.113  1.00  0.00    -0.460 OA
BRANCH  27  28
ATOM     28  C   UNL A   1      39.340  20.980  25.992  1.00  0.00     0.338 C 
ATOM     29  O   UNL A   1      39.864  19.891  26.160  1.00  0.00    -0.246 OA
BRANCH  28  30
ATOM     30  C   UNL A   1      39.843  22.239  26.557  1.00  0.00     0.060 A 
ATOM     31  C   UNL A   1      39.249  23.432  26.125  1.00  0.00     0.016 A 
ATOM     32  C   UNL A   1      40.844  22.231  27.530  1.00  0.00     0.016 A 
ATOM     33  C   UNL A   1      39.694  24.640  26.636  1.00  0.00     0.010 A 
ATOM     34  C   UNL A   1      41.302  23.440  28.030  1.00  0.00     0.010 A 
ATOM     35  C   UNL A   1      40.757  24.641  27.547  1.00  0.00    -0.014 A 
BRANCH  35  36
ATOM     36  C   UNL A   1      41.468  25.900  27.806  1.00  0.00     0.031 A 
ATOM     37  C   UNL A   1      40.724  26.965  28.554  1.00  0.00     0.074 A 
ATOM     38  C   UNL A   1      42.734  26.057  27.392  1.00  0.00     0.049 A 
ATOM     39  N   UNL A   1      41.087  28.184  28.842  1.00  0.00    -0.248 NA
ATOM     40  C   UNL A   1      39.376  26.608  29.031  1.00  0.00     0.031 C 
ATOM     41  C   UNL A   1      43.528  25.038  26.703  1.00  0.00     0.029 A 
ATOM     42  N   UNL A   1      43.568  27.134  27.483  1.00  0.00    -0.354 N 
ATOM     43  C   UNL A   1      40.011  28.741  29.525  1.00  0.00     0.074 A 
ATOM     44  C   UNL A   1      38.967  27.744  29.569  1.00  0.00     0.031 C 
ATOM     45  C   UNL A   1      44.740  25.550  26.425  1.00  0.00     0.029 A 
ATOM     46  C   UNL A   1      44.783  26.938  26.875  1.00  0.00     0.049 A 
ATOM     47  H   UNL A   1      43.322  27.971  27.941  1.00  0.00     0.167 HD
ATOM     48  C   UNL A   1      39.921  29.975  30.073  1.00  0.00     0.034 A 
ATOM     49  C   UNL A   1      45.795  27.805  26.684  1.00  0.00     0.034 A 
ATOM     50  C   UNL A   1      40.984  30.942  29.986  1.00  0.00     0.049 A 
ATOM     51  C   UNL A   1      45.637  29.204  27.229  1.00  0.00     0.074 A 
ATOM     52  C   UNL A   1      41.029  32.227  30.491  1.00  0.00     0.029 A 
ATOM     53  N   UNL A   1      42.195  30.727  29.333  1.00  0.00    -0.354 N 
ATOM     54  N   UNL A   1      44.620  29.729  27.878  1.00  0.00    -0.248 NA
ATOM     55  C   UNL A   1      46.762  30.123  27.027  1.00  0.00     0.031 C 
ATOM     56  C   UNL A   1      42.229  32.814  30.077  1.00  0.00     0.029 A 
ATOM     57  C   UNL A   1      42.977  31.867  29.394  1.00  0.00     0.049 A 
ATOM     58  H   UNL A   1      42.456  29.886  28.893  1.00  0.00     0.167 HD
ATOM     59  C   UNL A   1      44.999  31.030  28.194  1.00  0.00     0.074 A 
ATOM     60  C   UNL A   1      46.343  31.201  27.674  1.00  0.00     0.031 C 
ATOM     61  C   UNL A   1      44.312  31.999  28.853  1.00  0.00     0.034 A 
BRANCH  48  62
ATOM     62  C   UNL A   1      38.619  30.347  30.739  1.00  0.00     0.023 A 
ATOM     63  C   UNL A   1      37.602  31.036  30.054  1.00  0.00     0.031 A 
ATOM     64  C   UNL A   1      38.409  30.051  32.097  1.00  0.00     0.131 A 
ATOM     65  C   UNL A   1      36.459  31.469  30.744  1.00  0.00     0.055 A 
ATOM     66  C   UNL A   1      37.232  30.410  32.757  1.00  0.00     0.041 A 
ATOM     67  F   UNL A   1      39.356  29.428  32.815  1.00  0.00    -0.206 F 
ATOM     68  C   UNL A   1      36.254  31.135  32.084  1.00  0.00     0.022 A 
BRANCH  65  69
ATOM     69  S   UNL A   1      35.317  32.604  29.907  1.00  0.00     0.124 S 
ATOM     70  O   UNL A   1      34.445  33.008  31.007  1.00  0.00    -0.237 OA
ATOM     71  O   UNL A   1      36.215  33.632  29.393  1.00  0.00    -0.237 OA
ATOM     72  O   UNL A   1      34.681  31.766  28.893  1.00  0.00    -0.744 OA
ENDBRANCH  65  69
ENDBRANCH  48  62
BRANCH  49  73
ATOM     73  C   UNL A   1      47.014  27.394  25.933  1.00  0.00     0.023 A 
ATOM     74  C   UNL A   1      47.207  27.783  24.600  1.00  0.00     0.031 A 
ATOM     75  C   UNL A   1      47.991  26.573  26.526  1.00  0.00     0.131 A 
ATOM     76  C   UNL A   1      48.321  27.312  23.887  1.00  0.00     0.055 A 
ATOM     77  C   UNL A   1      49.128  26.157  25.832  1.00  0.00     0.041 A 
ATOM     78  F   UNL A   1      47.858  26.171  27.801  1.00  0.00    -0.206 F 
ATOM     79  C   UNL A   1      49.291  26.515  24.499  1.00  0.00     0.022 A 
BRANCH  76  80
ATOM     80  S   UNL A   1      48.431  27.678  22.115  1.00  0.00     0.124 S 
ATOM     81  O   UNL A   1      49.494  28.675  22.084  1.00  0.00    -0.237 OA
ATOM     82  O   UNL A   1      48.760  26.371  21.557  1.00  0.00    -0.237 OA
ATOM     83  O   UNL A   1      47.096  28.176  21.788  1.00  0.00    -0.744 OA
ENDBRANCH  76  80
ENDBRANCH  49  73
BRANCH  61  84
ATOM     84  C   UNL A   1      45.031  33.304  29.085  1.00  0.00     0.023 A 
ATOM     85  C   UNL A   1      45.809  33.525  30.234  1.00  0.00     0.031 A 
ATOM     86  C   UNL A   1      44.930  34.341  28.141  1.00  0.00     0.131 A 
ATOM     87  C   UNL A   1      46.400  34.778  30.441  1.00  0.00     0.055 A 
ATOM     88  C   UNL A   1      45.583  35.560  28.318  1.00  0.00     0.041 A 
ATOM     89  F   UNL A   1      44.197  34.183  27.026  1.00  0.00    -0.206 F 
ATOM     90  C   UNL A   1      46.311  35.789  29.481  1.00  0.00     0.022 A 
BRANCH  87  91
ATOM     91  S   UNL A   1      47.193  35.106  32.038  1.00  0.00     0.124 S 
ATOM     92  O   UNL A   1      47.187  33.784  32.655  1.00  0.00    -0.237 OA
ATOM     93  O   UNL A   1      48.500  35.618  31.640  1.00  0.00    -0.237 OA
ATOM     94  O   UNL A   1      46.308  36.087  32.665  1.00  0.00    -0.744 OA
ENDBRANCH  87  91
ENDBRANCH  61  84
ENDBRANCH  35  36
ENDBRANCH  28  30
ENDBRANCH  27  28
ENDBRANCH  26  27
ENDBRANCH  25  26
ENDBRANCH  24  25
ENDBRANCH   1  24
TORSDOF 21
ENDMDL
MODEL 3
REMARK VINA RESULT:     -10.6      1.654      3.653
REMARK SMILES C[C@@H]1[C@@H](C(=O)OCCOCCOC(=O)c2ccc(-c3c4nc(c(-c5cc(S(=O)(=O)[O-])ccc5F)c5ccc([nH]5)c(-c5cc(S(=O)(=O)[O-])ccc5F)c5nc(c(-c6cc(S(=O)(=O)[O-])ccc6F)c6ccc3[nH]6)C=C5)C=C4)cc2)CCN1C(=O)CC[C@@H]1CCCC[NH2+]1
REMARK SMILES IDX 8 1 7 2 6 3 4 4 5 5 3 6 1 7 2 8 80 9 78 10 79 11 81 12 82 13
REMARK SMILES IDX 83 14 84 15 85 16 86 17 90 18 87 19 89 20 88 23 9 24 10 25
REMARK SMILES IDX 11 26 12 27 13 28 14 29 15 30 16 31 77 32 17 33 76 34 18 35
REMARK SMILES IDX 19 36 20 37 70 38 21 39 75 40 69 41 71 42 22 43 74 44 68 45
REMARK SMILES IDX 67 46 23 48 55 49 35 50 54 51 36 52 39 53 53 54 72 55 37 56
REMARK SMILES IDX 38 57 52 59 73 60 40 61 24 62 25 63 33 64 26 65 32 66 34 67
REMARK SMILES IDX 31 68 27 69 28 70 29 71 30 72 56 73 57 74 65 75 58 76 64 77
REMARK SMILES IDX 66 78 63 79 59 80 60 81 61 82 62 83 41 84 42 85 50 86 43 87
REMARK SMILES IDX 49 88 51 89 48 90 44 91 45 92 46 93 47 94
REMARK H PARENT 90 21 90 22 71 47 39 58
REMARK Flexibility Score: inf
ROOT
ATOM      1  C   UNL A   1      34.602  21.366  25.020  1.00  0.00     0.202 C 
ENDROOT
BRANCH   1   2
ATOM      2  C   UNL A   1      34.241  21.812  26.434  1.00  0.00     0.261 C 
BRANCH   2   3
ATOM      3  O   UNL A   1      33.609  23.102  26.418  1.00  0.00    -0.463 OA
BRANCH   3   4
ATOM      4  C   UNL A   1      32.324  23.084  26.848  1.00  0.00     0.311 C 
ATOM      5  O   UNL A   1      31.992  22.913  28.013  1.00  0.00    -0.252 OA
BRANCH   4   6
ATOM      6  C   UNL A   1      31.347  23.342  25.707  1.00  0.00     0.123 C 
ATOM      7  C   UNL A   1      31.439  23.888  23.207  1.00  0.00     0.032 C 
ATOM      8  C   UNL A   1      32.087  24.073  24.577  1.00  0.00     0.096 C 
ATOM      9  N   UNL A   1      32.096  25.471  24.998  1.00  0.00    -0.339 N 
ATOM     10  C   UNL A   1      30.306  24.366  26.129  1.00  0.00     0.039 C 
ATOM     11  C   UNL A   1      31.077  25.685  26.029  1.00  0.00     0.121 C 
BRANCH   9  12
ATOM     12  C   UNL A   1      33.155  26.363  24.881  1.00  0.00     0.223 C 
ATOM     13  O   UNL A   1      33.594  26.966  25.864  1.00  0.00    -0.275 OA
BRANCH  12  14
ATOM     14  C   UNL A   1      33.684  26.735  23.490  1.00  0.00     0.106 C 
BRANCH  14  15
ATOM     15  C   UNL A   1      33.112  27.967  22.764  1.00  0.00     0.075 C 
BRANCH  15  16
ATOM     16  C   UNL A   1      31.680  28.304  23.208  1.00  0.00     0.182 C 
ATOM     17  C   UNL A   1      30.674  27.407  22.480  1.00  0.00     0.065 C 
ATOM     18  N   UNL A   1      31.258  29.705  23.034  1.00  0.00    -0.344 N 
ATOM     19  C   UNL A   1      29.306  27.551  23.117  1.00  0.00     0.012 C 
ATOM     20  C   UNL A   1      29.976  29.912  23.736  1.00  0.00     0.260 C 
ATOM     21  H   UNL A   1      31.140  29.906  22.041  1.00  0.00     0.346 HD
ATOM     22  H   UNL A   1      31.966  30.329  23.419  1.00  0.00     0.346 HD
ATOM     23  C   UNL A   1      28.868  29.009  23.190  1.00  0.00     0.062 C 
ENDBRANCH  15  16
ENDBRANCH  14  15
ENDBRANCH  12  14
ENDBRANCH   9  12
ENDBRANCH   4   6
ENDBRANCH   3   4
ENDBRANCH   2   3
ENDBRANCH   1   2
BRANCH   1  24
ATOM     24  O   UNL A   1      35.328  22.278  24.197  1.00  0.00    -0.374 OA
BRANCH  24  25
ATOM     25  C   UNL A   1      36.664  21.948  23.824  1.00  0.00     0.202 C 
BRANCH  25  26
ATOM     26  C   UNL A   1      37.402  20.865  24.607  1.00  0.00     0.261 C 
BRANCH  26  27
ATOM     27  O   UNL A   1      37.829  21.314  25.886  1.00  0.00    -0.460 OA
BRANCH  27  28
ATOM     28  C   UNL A   1      39.142  21.087  26.133  1.00  0.00     0.338 C 
ATOM     29  O   UNL A   1      39.811  20.128  25.783  1.00  0.00    -0.246 OA
BRANCH  28  30
ATOM     30  C   UNL A   1      39.695  22.322  26.701  1.00  0.00     0.060 A 
ATOM     31  C   UNL A   1      39.114  23.537  26.315  1.00  0.00     0.016 A 
ATOM     32  C   UNL A   1      40.732  22.273  27.635  1.00  0.00     0.016 A 
ATOM     33  C   UNL A   1      39.606  24.724  26.831  1.00  0.00     0.010 A 
ATOM     34  C   UNL A   1      41.237  23.461  28.140  1.00  0.00     0.010 A 
ATOM     35  C   UNL A   1      40.702  24.684  27.700  1.00  0.00    -0.014 A 
BRANCH  35  36
ATOM     36  C   UNL A   1      41.452  25.921  27.955  1.00  0.00     0.031 A 
ATOM     37  C   UNL A   1      40.741  27.012  28.699  1.00  0.00     0.074 A 
ATOM     38  C   UNL A   1      42.722  26.037  27.541  1.00  0.00     0.049 A 
ATOM     39  N   UNL A   1      41.141  28.219  28.983  1.00  0.00    -0.248 NA
ATOM     40  C   UNL A   1      39.382  26.697  29.176  1.00  0.00     0.031 C 
ATOM     41  C   UNL A   1      43.484  24.991  26.857  1.00  0.00     0.029 A 
ATOM     42  N   UNL A   1      43.589  27.088  27.629  1.00  0.00    -0.354 N 
ATOM     43  C   UNL A   1      40.083  28.812  29.663  1.00  0.00     0.074 A 
ATOM     44  C   UNL A   1      39.008  27.848  29.710  1.00  0.00     0.031 C 
ATOM     45  C   UNL A   1      44.712  25.464  26.578  1.00  0.00     0.029 A 
ATOM     46  C   UNL A   1      44.798  26.852  27.022  1.00  0.00     0.049 A 
ATOM     47  H   UNL A   1      43.369  27.933  28.083  1.00  0.00     0.167 HD
ATOM     48  C   UNL A   1      40.030  30.050  30.206  1.00  0.00     0.034 A 
ATOM     49  C   UNL A   1      45.836  27.687  26.829  1.00  0.00     0.034 A 
ATOM     50  C   UNL A   1      41.124  30.983  30.117  1.00  0.00     0.049 A 
ATOM     51  C   UNL A   1      45.722  29.092  27.368  1.00  0.00     0.074 A 
ATOM     52  C   UNL A   1      41.208  32.268  30.617  1.00  0.00     0.029 A 
ATOM     53  N   UNL A   1      42.328  30.728  29.465  1.00  0.00    -0.354 N 
ATOM     54  N   UNL A   1      44.721  29.651  28.015  1.00  0.00    -0.248 NA
ATOM     55  C   UNL A   1      46.874  29.974  27.163  1.00  0.00     0.031 C 
ATOM     56  C   UNL A   1      42.426  32.816  30.202  1.00  0.00     0.029 A 
ATOM     57  C   UNL A   1      43.145  31.844  29.522  1.00  0.00     0.049 A 
ATOM     58  H   UNL A   1      42.563  29.878  29.028  1.00  0.00     0.167 HD
ATOM     59  C   UNL A   1      45.140  30.940  28.326  1.00  0.00     0.074 A 
ATOM     60  C   UNL A   1      46.489  31.067  27.806  1.00  0.00     0.031 C 
ATOM     61  C   UNL A   1      44.483  31.932  28.981  1.00  0.00     0.034 A 
BRANCH  48  62
ATOM     62  C   UNL A   1      38.741  30.464  30.870  1.00  0.00     0.023 A 
ATOM     63  C   UNL A   1      37.685  31.049  30.147  1.00  0.00     0.031 A 
ATOM     64  C   UNL A   1      38.581  30.319  32.259  1.00  0.00     0.131 A 
ATOM     65  C   UNL A   1      36.553  31.530  30.823  1.00  0.00     0.055 A 
ATOM     66  C   UNL A   1      37.416  30.722  32.914  1.00  0.00     0.041 A 
ATOM     67  F   UNL A   1      39.566  29.802  33.010  1.00  0.00    -0.206 F 
ATOM     68  C   UNL A   1      36.399  31.345  32.198  1.00  0.00     0.022 A 
BRANCH  65  69
ATOM     69  S   UNL A   1      35.356  32.538  29.904  1.00  0.00     0.124 S 
ATOM     70  O   UNL A   1      36.156  33.713  29.568  1.00  0.00    -0.237 OA
ATOM     71  O   UNL A   1      34.999  31.667  28.790  1.00  0.00    -0.237 OA
ATOM     72  O   UNL A   1      34.291  32.777  30.876  1.00  0.00    -0.744 OA
ENDBRANCH  65  69
ENDBRANCH  48  62
BRANCH  49  73
ATOM     73  C   UNL A   1      47.042  27.235  26.079  1.00  0.00     0.023 A 
ATOM     74  C   UNL A   1      48.110  26.610  26.737  1.00  0.00     0.031 A 
ATOM     75  C   UNL A   1      47.161  27.455  24.694  1.00  0.00     0.131 A 
ATOM     76  C   UNL A   1      49.270  26.271  26.024  1.00  0.00     0.055 A 
ATOM     77  C   UNL A   1      48.293  27.062  23.977  1.00  0.00     0.041 A 
ATOM     78  F   UNL A   1      46.168  28.049  24.012  1.00  0.00    -0.206 F 
ATOM     79  C   UNL A   1      49.363  26.478  24.646  1.00  0.00     0.022 A 
BRANCH  76  80
ATOM     80  S   UNL A   1      50.700  25.645  26.947  1.00  0.00     0.124 S 
ATOM     81  O   UNL A   1      50.149  24.447  27.569  1.00  0.00    -0.237 OA
ATOM     82  O   UNL A   1      51.674  25.425  25.883  1.00  0.00    -0.237 OA
ATOM     83  O   UNL A   1      51.017  26.738  27.864  1.00  0.00    -0.744 OA
ENDBRANCH  76  80
ENDBRANCH  49  73
BRANCH  61  84
ATOM     84  C   UNL A   1      45.242  33.215  29.209  1.00  0.00     0.023 A 
ATOM     85  C   UNL A   1      45.124  34.309  28.337  1.00  0.00     0.031 A 
ATOM     86  C   UNL A   1      46.101  33.337  30.316  1.00  0.00     0.131 A 
ATOM     87  C   UNL A   1      45.904  35.454  28.549  1.00  0.00     0.055 A 
ATOM     88  C   UNL A   1      46.816  34.508  30.564  1.00  0.00     0.041 A 
ATOM     89  F   UNL A   1      46.252  32.321  31.181  1.00  0.00    -0.206 F 
ATOM     90  C   UNL A   1      46.732  35.569  29.668  1.00  0.00     0.022 A 
BRANCH  87  91
ATOM     91  S   UNL A   1      45.906  36.746  27.278  1.00  0.00     0.124 S 
ATOM     92  O   UNL A   1      47.171  36.495  26.594  1.00  0.00    -0.237 OA
ATOM     93  O   UNL A   1      44.699  36.439  26.517  1.00  0.00    -0.237 OA
ATOM     94  O   UNL A   1      45.854  37.987  28.049  1.00  0.00    -0.744 OA
ENDBRANCH  87  91
ENDBRANCH  61  84
ENDBRANCH  35  36
ENDBRANCH  28  30
ENDBRANCH  27  28
ENDBRANCH  26  27
ENDBRANCH  25  26
ENDBRANCH  24  25
ENDBRANCH   1  24
TORSDOF 21
ENDMDL
