MODEL 1
REMARK VINA RESULT:      -9.6      0.000      0.000
REMARK SMILES CC(C)[C@H](C(=O)OCCOCCOC(=O)c1ccc(-c2c3nc(c(-c4cc(S(=O)(=O)[O-])ccc4F)c4ccc([nH]4)c(-c4cc(S(=O)(=O)[O-])ccc4F)c4nc(c(-c5cc(S(=O)(=O)[O-])ccc5F)c5ccc2[nH]5)C=C4)C=C3)cc1)[C@H](C)[C@@H](C)O
REMARK SMILES IDX 10 1 9 2 8 3 7 4 5 5 6 6 4 7 2 8 1 9 3 10 79 11 80 12 81 13
REMARK SMILES IDX 82 14 83 15 11 17 12 18 13 19 14 20 15 21 16 22 17 23 78 24
REMARK SMILES IDX 18 25 77 26 19 27 20 28 21 29 71 30 22 31 76 32 70 33 72 34
REMARK SMILES IDX 23 35 75 36 69 37 68 38 24 40 56 41 36 42 55 43 37 44 40 45
REMARK SMILES IDX 54 46 73 47 38 48 39 49 53 51 74 52 41 53 25 54 26 55 34 56
REMARK SMILES IDX 27 57 33 58 35 59 32 60 28 61 29 62 30 63 31 64 57 65 58 66
REMARK SMILES IDX 66 67 59 68 65 69 67 70 64 71 60 72 61 73 62 74 63 75 42 76
REMARK SMILES IDX 43 77 51 78 44 79 50 80 52 81 49 82 45 83 46 84 47 85 48 86
REMARK H PARENT 83 16 72 39 40 50
REMARK Flexibility Score: inf
ROOT
ATOM      1  O   UNL A   1      31.417  27.815  26.313  1.00  0.00    -0.374 OA
ENDROOT
BRANCH   1   2
ATOM      2  C   UNL A   1      30.810  26.543  26.045  1.00  0.00     0.202 C 
BRANCH   2   3
ATOM      3  C   UNL A   1      31.731  25.336  26.265  1.00  0.00     0.261 C 
BRANCH   3   4
ATOM      4  O   UNL A   1      31.393  24.330  25.296  1.00  0.00    -0.463 OA
BRANCH   4   5
ATOM      5  C   UNL A   1      32.336  23.889  24.458  1.00  0.00     0.309 C 
ATOM      6  O   UNL A   1      32.249  22.839  23.827  1.00  0.00    -0.252 OA
BRANCH   5   7
ATOM      7  C   UNL A   1      33.503  24.883  24.259  1.00  0.00     0.107 C 
BRANCH   7   8
ATOM      8  C   UNL A   1      34.801  24.071  24.709  1.00  0.00    -0.003 C 
ATOM      9  C   UNL A   1      34.685  23.038  25.841  1.00  0.00     0.008 C 
ATOM     10  C   UNL A   1      35.459  23.393  23.498  1.00  0.00     0.008 C 
ENDBRANCH   7   8
BRANCH   7  11
ATOM     11  C   UNL A   1      33.700  25.688  22.908  1.00  0.00     0.029 C 
ATOM     12  C   UNL A   1      33.833  27.183  23.287  1.00  0.00     0.011 C 
BRANCH  11  13
ATOM     13  C   UNL A   1      32.646  25.560  21.763  1.00  0.00     0.115 C 
ATOM     14  C   UNL A   1      31.353  26.352  21.999  1.00  0.00     0.038 C 
BRANCH  13  15
ATOM     15  O   UNL A   1      33.150  26.088  20.538  1.00  0.00    -0.393 OA
ATOM     16  H   UNL A   1      34.097  25.888  20.465  1.00  0.00     0.210 HD
ENDBRANCH  13  15
ENDBRANCH  11  13
ENDBRANCH   7  11
ENDBRANCH   5   7
ENDBRANCH   4   5
ENDBRANCH   3   4
ENDBRANCH   2   3
ENDBRANCH   1   2
BRANCH   1  17
ATOM     17  C   UNL A   1      31.291  28.806  25.295  1.00  0.00     0.202 C 
BRANCH  17  18
ATOM     18  C   UNL A   1      32.037  30.120  25.537  1.00  0.00     0.261 C 
BRANCH  18  19
ATOM     19  O   UNL A   1      32.371  30.294  26.925  1.00  0.00    -0.460 OA
BRANCH  19  20
ATOM     20  C   UNL A   1      33.012  31.460  27.190  1.00  0.00     0.338 C 
ATOM     21  O   UNL A   1      32.539  32.586  27.133  1.00  0.00    -0.246 OA
BRANCH  20  22
ATOM     22  C   UNL A   1      34.354  31.186  27.736  1.00  0.00     0.060 A 
ATOM     23  C   UNL A   1      34.660  29.855  28.042  1.00  0.00     0.016 A 
ATOM     24  C   UNL A   1      35.276  32.205  27.991  1.00  0.00     0.016 A 
ATOM     25  C   UNL A   1      35.873  29.541  28.647  1.00  0.00     0.010 A 
ATOM     26  C   UNL A   1      36.494  31.886  28.599  1.00  0.00     0.010 A 
ATOM     27  C   UNL A   1      36.786  30.557  28.958  1.00  0.00    -0.014 A 
BRANCH  27  28
ATOM     28  C   UNL A   1      37.989  30.236  29.764  1.00  0.00     0.031 A 
ATOM     29  C   UNL A   1      39.024  29.303  29.196  1.00  0.00     0.074 A 
ATOM     30  C   UNL A   1      38.174  30.803  30.969  1.00  0.00     0.049 A 
ATOM     31  N   UNL A   1      40.131  28.863  29.736  1.00  0.00    -0.248 NA
ATOM     32  C   UNL A   1      38.772  28.796  27.839  1.00  0.00     0.031 C 
ATOM     33  C   UNL A   1      37.262  31.757  31.599  1.00  0.00     0.029 A 
ATOM     34  N   UNL A   1      39.190  30.657  31.880  1.00  0.00    -0.354 N 
ATOM     35  C   UNL A   1      40.708  28.024  28.788  1.00  0.00     0.074 A 
ATOM     36  C   UNL A   1      39.806  27.986  27.657  1.00  0.00     0.031 C 
ATOM     37  C   UNL A   1      37.759  32.111  32.796  1.00  0.00     0.029 A 
ATOM     38  C   UNL A   1      38.999  31.375  33.038  1.00  0.00     0.049 A 
ATOM     39  H   UNL A   1      39.981  30.094  31.720  1.00  0.00     0.167 HD
ATOM     40  C   UNL A   1      41.886  27.355  28.855  1.00  0.00     0.034 A 
ATOM     41  C   UNL A   1      39.725  31.409  34.174  1.00  0.00     0.034 A 
ATOM     42  C   UNL A   1      42.770  27.398  29.996  1.00  0.00     0.049 A 
ATOM     43  C   UNL A   1      40.984  30.579  34.261  1.00  0.00     0.074 A 
ATOM     44  C   UNL A   1      43.997  26.780  30.160  1.00  0.00     0.029 A 
ATOM     45  N   UNL A   1      42.514  28.084  31.176  1.00  0.00    -0.354 N 
ATOM     46  N   UNL A   1      41.526  29.800  33.354  1.00  0.00    -0.248 NA
ATOM     47  C   UNL A   1      41.728  30.637  35.526  1.00  0.00     0.031 C 
ATOM     48  C   UNL A   1      44.441  27.022  31.463  1.00  0.00     0.029 A 
ATOM     49  C   UNL A   1      43.537  27.866  32.087  1.00  0.00     0.049 A 
ATOM     50  H   UNL A   1      41.721  28.644  31.342  1.00  0.00     0.167 HD
ATOM     51  C   UNL A   1      42.690  29.296  33.932  1.00  0.00     0.074 A 
ATOM     52  C   UNL A   1      42.778  29.876  35.255  1.00  0.00     0.031 C 
ATOM     53  C   UNL A   1      43.604  28.435  33.414  1.00  0.00     0.034 A 
BRANCH  40  54
ATOM     54  C   UNL A   1      42.257  26.479  27.680  1.00  0.00     0.023 A 
ATOM     55  C   UNL A   1      41.785  25.162  27.556  1.00  0.00     0.031 A 
ATOM     56  C   UNL A   1      43.115  26.968  26.678  1.00  0.00     0.131 A 
ATOM     57  C   UNL A   1      42.228  24.357  26.494  1.00  0.00     0.055 A 
ATOM     58  C   UNL A   1      43.487  26.189  25.581  1.00  0.00     0.041 A 
ATOM     59  F   UNL A   1      43.618  28.210  26.755  1.00  0.00    -0.206 F 
ATOM     60  C   UNL A   1      43.054  24.869  25.492  1.00  0.00     0.022 A 
BRANCH  57  61
ATOM     61  S   UNL A   1      41.824  22.588  26.518  1.00  0.00     0.124 S 
ATOM     62  O   UNL A   1      42.588  22.127  27.675  1.00  0.00    -0.237 OA
ATOM     63  O   UNL A   1      40.374  22.597  26.673  1.00  0.00    -0.237 OA
ATOM     64  O   UNL A   1      42.312  22.107  25.228  1.00  0.00    -0.744 OA
ENDBRANCH  57  61
ENDBRANCH  40  54
BRANCH  41  65
ATOM     65  C   UNL A   1      39.263  32.215  35.341  1.00  0.00     0.023 A 
ATOM     66  C   UNL A   1      38.622  31.610  36.434  1.00  0.00     0.031 A 
ATOM     67  C   UNL A   1      39.404  33.615  35.352  1.00  0.00     0.131 A 
ATOM     68  C   UNL A   1      38.107  32.407  37.470  1.00  0.00     0.055 A 
ATOM     69  C   UNL A   1      38.943  34.396  36.412  1.00  0.00     0.041 A 
ATOM     70  F   UNL A   1      40.003  34.245  34.328  1.00  0.00    -0.206 F 
ATOM     71  C   UNL A   1      38.276  33.794  37.474  1.00  0.00     0.022 A 
BRANCH  68  72
ATOM     72  S   UNL A   1      37.123  31.612  38.770  1.00  0.00     0.124 S 
ATOM     73  O   UNL A   1      37.086  30.228  38.309  1.00  0.00    -0.237 OA
ATOM     74  O   UNL A   1      37.928  31.871  39.960  1.00  0.00    -0.237 OA
ATOM     75  O   UNL A   1      35.848  32.323  38.714  1.00  0.00    -0.744 OA
ENDBRANCH  68  72
ENDBRANCH  41  65
BRANCH  53  76
ATOM     76  C   UNL A   1      44.796  28.097  34.280  1.00  0.00     0.023 A 
ATOM     77  C   UNL A   1      44.874  26.888  34.993  1.00  0.00     0.031 A 
ATOM     78  C   UNL A   1      45.863  29.005  34.402  1.00  0.00     0.131 A 
ATOM     79  C   UNL A   1      45.966  26.645  35.841  1.00  0.00     0.055 A 
ATOM     80  C   UNL A   1      46.978  28.729  35.195  1.00  0.00     0.041 A 
ATOM     81  F   UNL A   1      45.843  30.177  33.747  1.00  0.00    -0.206 F 
ATOM     82  C   UNL A   1      47.027  27.549  35.931  1.00  0.00     0.022 A 
BRANCH  79  83
ATOM     83  S   UNL A   1      45.933  25.175  36.903  1.00  0.00     0.124 S 
ATOM     84  O   UNL A   1      45.165  25.647  38.051  1.00  0.00    -0.237 OA
ATOM     85  O   UNL A   1      45.271  24.190  36.054  1.00  0.00    -0.237 OA
ATOM     86  O   UNL A   1      47.346  24.912  37.169  1.00  0.00    -0.744 OA
ENDBRANCH  79  83
ENDBRANCH  53  76
ENDBRANCH  27  28
ENDBRANCH  20  22
ENDBRANCH  19  20
ENDBRANCH  18  19
ENDBRANCH  17  18
ENDBRANCH   1  17
TORSDOF 21
ENDMDL
MODEL 2
REMARK VINA RESULT:      -9.5      4.756      9.899
REMARK SMILES CC(C)[C@H](C(=O)OCCOCCOC(=O)c1ccc(-c2c3nc(c(-c4cc(S(=O)(=O)[O-])ccc4F)c4ccc([nH]4)c(-c4cc(S(=O)(=O)[O-])ccc4F)c4nc(c(-c5cc(S(=O)(=O)[O-])ccc5F)c5ccc2[nH]5)C=C4)C=C3)cc1)[C@H](C)[C@@H](C)O
REMARK SMILES IDX 10 1 9 2 8 3 7 4 5 5 6 6 4 7 2 8 1 9 3 10 79 11 80 12 81 13
REMARK SMILES IDX 82 14 83 15 11 17 12 18 13 19 14 20 15 21 16 22 17 23 78 24
REMARK SMILES IDX 18 25 77 26 19 27 20 28 21 29 71 30 22 31 76 32 70 33 72 34
REMARK SMILES IDX 23 35 75 36 69 37 68 38 24 40 56 41 36 42 55 43 37 44 40 45
REMARK SMILES IDX 54 46 73 47 38 48 39 49 53 51 74 52 41 53 25 54 26 55 34 56
REMARK SMILES IDX 27 57 33 58 35 59 32 60 28 61 29 62 30 63 31 64 57 65 58 66
REMARK SMILES IDX 66 67 59 68 65 69 67 70 64 71 60 72 61 73 62 74 63 75 42 76
REMARK SMILES IDX 43 77 51 78 44 79 50 80 52 81 49 82 45 83 46 84 47 85 48 86
REMARK H PARENT 83 16 72 39 40 50
REMARK Flexibility Score: inf
ROOT
ATOM      1  O   UNL A   1      34.410  21.941  25.698  1.00  0.00    -0.374 OA
ENDROOT
BRANCH   1   2
ATOM      2  C   UNL A   1      34.010  23.165  26.331  1.00  0.00     0.202 C 
BRANCH   2   3
ATOM      3  C   UNL A   1      33.897  24.367  25.386  1.00  0.00     0.261 C 
BRANCH   3   4
ATOM      4  O   UNL A   1      32.786  25.172  25.812  1.00  0.00    -0.463 OA
BRANCH   4   5
ATOM      5  C   UNL A   1      32.313  26.117  24.993  1.00  0.00     0.309 C 
ATOM      6  O   UNL A   1      31.143  26.175  24.625  1.00  0.00    -0.252 OA
BRANCH   5   7
ATOM      7  C   UNL A   1      33.350  27.207  24.641  1.00  0.00     0.107 C 
BRANCH   7   8
ATOM      8  C   UNL A   1      33.243  27.364  23.056  1.00  0.00    -0.003 C 
ATOM      9  C   UNL A   1      33.994  28.511  22.364  1.00  0.00     0.008 C 
ATOM     10  C   UNL A   1      33.617  26.047  22.358  1.00  0.00     0.008 C 
ENDBRANCH   7   8
BRANCH   7  11
ATOM     11  C   UNL A   1      33.405  28.593  25.408  1.00  0.00     0.029 C 
ATOM     12  C   UNL A   1      34.198  28.354  26.716  1.00  0.00     0.011 C 
BRANCH  11  13
ATOM     13  C   UNL A   1      32.082  29.342  25.763  1.00  0.00     0.115 C 
ATOM     14  C   UNL A   1      32.230  30.414  26.851  1.00  0.00     0.038 C 
BRANCH  13  15
ATOM     15  O   UNL A   1      31.582  30.064  24.640  1.00  0.00    -0.393 OA
ATOM     16  H   UNL A   1      31.222  30.915  24.936  1.00  0.00     0.210 HD
ENDBRANCH  13  15
ENDBRANCH  11  13
ENDBRANCH   7  11
ENDBRANCH   5   7
ENDBRANCH   4   5
ENDBRANCH   3   4
ENDBRANCH   2   3
ENDBRANCH   1   2
BRANCH   1  17
ATOM     17  C   UNL A   1      35.212  22.066  24.525  1.00  0.00     0.202 C 
BRANCH  17  18
ATOM     18  C   UNL A   1      36.608  21.443  24.593  1.00  0.00     0.261 C 
BRANCH  18  19
ATOM     19  O   UNL A   1      37.185  21.574  25.904  1.00  0.00    -0.460 OA
BRANCH  19  20
ATOM     20  C   UNL A   1      38.526  21.371  25.933  1.00  0.00     0.338 C 
ATOM     21  O   UNL A   1      39.136  20.434  25.438  1.00  0.00    -0.246 OA
BRANCH  20  22
ATOM     22  C   UNL A   1      39.203  22.544  26.514  1.00  0.00     0.060 A 
ATOM     23  C   UNL A   1      38.658  23.802  26.231  1.00  0.00     0.016 A 
ATOM     24  C   UNL A   1      40.369  22.429  27.276  1.00  0.00     0.016 A 
ATOM     25  C   UNL A   1      39.302  24.954  26.671  1.00  0.00     0.010 A 
ATOM     26  C   UNL A   1      41.013  23.589  27.717  1.00  0.00     0.010 A 
ATOM     27  C   UNL A   1      40.500  24.858  27.390  1.00  0.00    -0.014 A 
BRANCH  27  28
ATOM     28  C   UNL A   1      41.270  26.089  27.694  1.00  0.00     0.031 A 
ATOM     29  C   UNL A   1      40.622  27.179  28.504  1.00  0.00     0.074 A 
ATOM     30  C   UNL A   1      42.546  26.214  27.286  1.00  0.00     0.049 A 
ATOM     31  N   UNL A   1      41.096  28.345  28.858  1.00  0.00    -0.248 NA
ATOM     32  C   UNL A   1      39.252  26.918  28.972  1.00  0.00     0.031 C 
ATOM     33  C   UNL A   1      43.292  25.203  26.536  1.00  0.00     0.029 A 
ATOM     34  N   UNL A   1      43.439  27.243  27.444  1.00  0.00    -0.354 N 
ATOM     35  C   UNL A   1      40.084  28.960  29.588  1.00  0.00     0.074 A 
ATOM     36  C   UNL A   1      38.957  28.053  29.588  1.00  0.00     0.031 C 
ATOM     37  C   UNL A   1      44.531  25.665  26.297  1.00  0.00     0.029 A 
ATOM     38  C   UNL A   1      44.652  27.019  26.835  1.00  0.00     0.049 A 
ATOM     39  H   UNL A   1      43.233  28.064  27.946  1.00  0.00     0.167 HD
ATOM     40  C   UNL A   1      40.101  30.167  30.207  1.00  0.00     0.034 A 
ATOM     41  C   UNL A   1      45.725  27.825  26.701  1.00  0.00     0.034 A 
ATOM     42  C   UNL A   1      41.233  31.063  30.189  1.00  0.00     0.049 A 
ATOM     43  C   UNL A   1      45.682  29.204  27.316  1.00  0.00     0.074 A 
ATOM     44  C   UNL A   1      41.366  32.297  30.801  1.00  0.00     0.029 A 
ATOM     45  N   UNL A   1      42.422  30.830  29.508  1.00  0.00    -0.354 N 
ATOM     46  N   UNL A   1      44.725  29.770  28.015  1.00  0.00    -0.248 NA
ATOM     47  C   UNL A   1      46.868  30.050  27.125  1.00  0.00     0.031 C 
ATOM     48  C   UNL A   1      42.596  32.844  30.424  1.00  0.00     0.029 A 
ATOM     49  C   UNL A   1      43.273  31.917  29.649  1.00  0.00     0.049 A 
ATOM     50  H   UNL A   1      42.630  30.013  29.000  1.00  0.00     0.167 HD
ATOM     51  C   UNL A   1      45.206  31.029  28.368  1.00  0.00     0.074 A 
ATOM     52  C   UNL A   1      46.544  31.128  27.823  1.00  0.00     0.031 C 
ATOM     53  C   UNL A   1      44.599  32.013  29.082  1.00  0.00     0.034 A 
BRANCH  40  54
ATOM     54  C   UNL A   1      38.837  30.607  30.909  1.00  0.00     0.023 A 
ATOM     55  C   UNL A   1      37.780  31.227  30.220  1.00  0.00     0.031 A 
ATOM     56  C   UNL A   1      38.697  30.419  32.296  1.00  0.00     0.131 A 
ATOM     57  C   UNL A   1      36.664  31.699  30.929  1.00  0.00     0.055 A 
ATOM     58  C   UNL A   1      37.548  30.817  32.982  1.00  0.00     0.041 A 
ATOM     59  F   UNL A   1      39.682  29.855  33.012  1.00  0.00    -0.206 F 
ATOM     60  C   UNL A   1      36.529  31.475  32.301  1.00  0.00     0.022 A 
BRANCH  57  61
ATOM     61  S   UNL A   1      35.457  32.736  30.058  1.00  0.00     0.124 S 
ATOM     62  O   UNL A   1      36.254  33.921  29.751  1.00  0.00    -0.237 OA
ATOM     63  O   UNL A   1      35.086  31.902  28.920  1.00  0.00    -0.237 OA
ATOM     64  O   UNL A   1      34.404  32.944  31.049  1.00  0.00    -0.744 OA
ENDBRANCH  57  61
ENDBRANCH  40  54
BRANCH  41  65
ATOM     65  C   UNL A   1      46.911  27.379  25.915  1.00  0.00     0.023 A 
ATOM     66  C   UNL A   1      47.114  27.814  24.595  1.00  0.00     0.031 A 
ATOM     67  C   UNL A   1      47.830  26.461  26.454  1.00  0.00     0.131 A 
ATOM     68  C   UNL A   1      48.183  27.297  23.846  1.00  0.00     0.055 A 
ATOM     69  C   UNL A   1      48.924  25.996  25.725  1.00  0.00     0.041 A 
ATOM     70  F   UNL A   1      47.679  26.007  27.709  1.00  0.00    -0.206 F 
ATOM     71  C   UNL A   1      49.099  26.402  24.407  1.00  0.00     0.022 A 
BRANCH  68  72
ATOM     72  S   UNL A   1      48.306  27.736  22.090  1.00  0.00     0.124 S 
ATOM     73  O   UNL A   1      48.560  26.437  21.477  1.00  0.00    -0.237 OA
ATOM     74  O   UNL A   1      46.995  28.322  21.832  1.00  0.00    -0.237 OA
ATOM     75  O   UNL A   1      49.426  28.674  22.052  1.00  0.00    -0.744 OA
ENDBRANCH  68  72
ENDBRANCH  41  65
BRANCH  53  76
ATOM     76  C   UNL A   1      45.398  33.270  29.337  1.00  0.00     0.023 A 
ATOM     77  C   UNL A   1      46.230  33.403  30.463  1.00  0.00     0.031 A 
ATOM     78  C   UNL A   1      45.316  34.355  28.445  1.00  0.00     0.131 A 
ATOM     79  C   UNL A   1      46.899  34.613  30.699  1.00  0.00     0.055 A 
ATOM     80  C   UNL A   1      46.036  35.533  28.651  1.00  0.00     0.041 A 
ATOM     81  F   UNL A   1      44.536  34.288  27.354  1.00  0.00    -0.206 F 
ATOM     82  C   UNL A   1      46.823  35.672  29.791  1.00  0.00     0.022 A 
BRANCH  79  83
ATOM     83  S   UNL A   1      47.792  34.823  32.264  1.00  0.00     0.124 S 
ATOM     84  O   UNL A   1      47.068  35.931  32.880  1.00  0.00    -0.237 OA
ATOM     85  O   UNL A   1      47.624  33.520  32.897  1.00  0.00    -0.237 OA
ATOM     86  O   UNL A   1      49.156  35.135  31.841  1.00  0.00    -0.744 OA
ENDBRANCH  79  83
ENDBRANCH  53  76
ENDBRANCH  27  28
ENDBRANCH  20  22
ENDBRANCH  19  20
ENDBRANCH  18  19
ENDBRANCH  17  18
ENDBRANCH   1  17
TORSDOF 21
ENDMDL
MODEL 3
REMARK VINA RESULT:      -9.2      5.240     10.283
REMARK SMILES CC(C)[C@H](C(=O)OCCOCCOC(=O)c1ccc(-c2c3nc(c(-c4cc(S(=O)(=O)[O-])ccc4F)c4ccc([nH]4)c(-c4cc(S(=O)(=O)[O-])ccc4F)c4nc(c(-c5cc(S(=O)(=O)[O-])ccc5F)c5ccc2[nH]5)C=C4)C=C3)cc1)[C@H](C)[C@@H](C)O
REMARK SMILES IDX 10 1 9 2 8 3 7 4 5 5 6 6 4 7 2 8 1 9 3 10 79 11 80 12 81 13
REMARK SMILES IDX 82 14 83 15 11 17 12 18 13 19 14 20 15 21 16 22 17 23 78 24
REMARK SMILES IDX 18 25 77 26 19 27 20 28 21 29 71 30 22 31 76 32 70 33 72 34
REMARK SMILES IDX 23 35 75 36 69 37 68 38 24 40 56 41 36 42 55 43 37 44 40 45
REMARK SMILES IDX 54 46 73 47 38 48 39 49 53 51 74 52 41 53 25 54 26 55 34 56
REMARK SMILES IDX 27 57 33 58 35 59 32 60 28 61 29 62 30 63 31 64 57 65 58 66
REMARK SMILES IDX 66 67 59 68 65 69 67 70 64 71 60 72 61 73 62 74 63 75 42 76
REMARK SMILES IDX 43 77 51 78 44 79 50 80 52 81 49 82 45 83 46 84 47 85 48 86
REMARK H PARENT 83 16 72 39 40 50
REMARK Flexibility Score: inf
ROOT
ATOM      1  O   UNL A   1      34.636  22.122  25.284  1.00  0.00    -0.374 OA
ENDROOT
BRANCH   1   2
ATOM      2  C   UNL A   1      34.446  23.524  25.045  1.00  0.00     0.202 C 
BRANCH   2   3
ATOM      3  C   UNL A   1      34.954  24.015  23.684  1.00  0.00     0.261 C 
BRANCH   3   4
ATOM      4  O   UNL A   1      33.853  24.003  22.762  1.00  0.00    -0.463 OA
BRANCH   4   5
ATOM      5  C   UNL A   1      32.618  24.239  23.217  1.00  0.00     0.309 C 
ATOM      6  O   UNL A   1      31.732  23.390  23.253  1.00  0.00    -0.252 OA
BRANCH   5   7
ATOM      7  C   UNL A   1      32.435  25.655  23.809  1.00  0.00     0.107 C 
BRANCH   7   8
ATOM      8  C   UNL A   1      32.196  26.592  22.540  1.00  0.00    -0.003 C 
ATOM      9  C   UNL A   1      31.024  27.584  22.551  1.00  0.00     0.008 C 
ATOM     10  C   UNL A   1      33.479  27.361  22.189  1.00  0.00     0.008 C 
ENDBRANCH   7   8
BRANCH   7  11
ATOM     11  C   UNL A   1      31.433  25.943  25.003  1.00  0.00     0.029 C 
ATOM     12  C   UNL A   1      32.245  26.653  26.113  1.00  0.00     0.011 C 
BRANCH  11  13
ATOM     13  C   UNL A   1      30.633  24.768  25.651  1.00  0.00     0.115 C 
ATOM     14  C   UNL A   1      31.379  24.034  26.773  1.00  0.00     0.038 C 
BRANCH  13  15
ATOM     15  O   UNL A   1      29.446  25.242  26.283  1.00  0.00    -0.393 OA
ATOM     16  H   UNL A   1      29.505  25.085  27.239  1.00  0.00     0.210 HD
ENDBRANCH  13  15
ENDBRANCH  11  13
ENDBRANCH   7  11
ENDBRANCH   5   7
ENDBRANCH   4   5
ENDBRANCH   3   4
ENDBRANCH   2   3
ENDBRANCH   1   2
BRANCH   1  17
ATOM     17  C   UNL A   1      35.382  21.406  24.302  1.00  0.00     0.202 C 
BRANCH  17  18
ATOM     18  C   UNL A   1      36.730  20.842  24.757  1.00  0.00     0.261 C 
BRANCH  18  19
ATOM     19  O   UNL A   1      37.309  21.632  25.809  1.00  0.00    -0.460 OA
BRANCH  19  20
ATOM     20  C   UNL A   1      38.626  21.383  26.019  1.00  0.00     0.338 C 
ATOM     21  O   UNL A   1      39.240  20.376  25.696  1.00  0.00    -0.246 OA
BRANCH  20  22
ATOM     22  C   UNL A   1      39.288  22.584  26.556  1.00  0.00     0.060 A 
ATOM     23  C   UNL A   1      38.787  23.827  26.152  1.00  0.00     0.016 A 
ATOM     24  C   UNL A   1      40.403  22.507  27.395  1.00  0.00     0.016 A 
ATOM     25  C   UNL A   1      39.424  24.998  26.548  1.00  0.00     0.010 A 
ATOM     26  C   UNL A   1      41.043  23.686  27.791  1.00  0.00     0.010 A 
ATOM     27  C   UNL A   1      40.575  24.935  27.344  1.00  0.00    -0.014 A 
BRANCH  27  28
ATOM     28  C   UNL A   1      41.349  26.173  27.607  1.00  0.00     0.031 A 
ATOM     29  C   UNL A   1      40.716  27.278  28.408  1.00  0.00     0.074 A 
ATOM     30  C   UNL A   1      42.616  26.291  27.171  1.00  0.00     0.049 A 
ATOM     31  N   UNL A   1      41.195  28.452  28.729  1.00  0.00    -0.248 NA
ATOM     32  C   UNL A   1      39.356  27.025  28.909  1.00  0.00     0.031 C 
ATOM     33  C   UNL A   1      43.348  25.267  26.426  1.00  0.00     0.029 A 
ATOM     34  N   UNL A   1      43.510  27.325  27.290  1.00  0.00    -0.354 N 
ATOM     35  C   UNL A   1      40.197  29.081  29.467  1.00  0.00     0.074 A 
ATOM     36  C   UNL A   1      39.071  28.172  29.509  1.00  0.00     0.031 C 
ATOM     37  C   UNL A   1      44.581  25.725  26.153  1.00  0.00     0.029 A 
ATOM     38  C   UNL A   1      44.710  27.090  26.660  1.00  0.00     0.049 A 
ATOM     39  H   UNL A   1      43.313  28.156  27.779  1.00  0.00     0.167 HD
ATOM     40  C   UNL A   1      40.224  30.300  30.060  1.00  0.00     0.034 A 
ATOM     41  C   UNL A   1      45.779  27.895  26.488  1.00  0.00     0.034 A 
ATOM     42  C   UNL A   1      41.354  31.197  30.001  1.00  0.00     0.049 A 
ATOM     43  C   UNL A   1      45.747  29.286  27.075  1.00  0.00     0.074 A 
ATOM     44  C   UNL A   1      41.498  32.443  30.585  1.00  0.00     0.029 A 
ATOM     45  N   UNL A   1      42.529  30.952  29.301  1.00  0.00    -0.354 N 
ATOM     46  N   UNL A   1      44.803  29.865  27.782  1.00  0.00    -0.248 NA
ATOM     47  C   UNL A   1      46.927  30.130  26.843  1.00  0.00     0.031 C 
ATOM     48  C   UNL A   1      42.719  32.984  30.172  1.00  0.00     0.029 A 
ATOM     49  C   UNL A   1      43.381  32.042  29.402  1.00  0.00     0.049 A 
ATOM     50  H   UNL A   1      42.729  30.125  28.806  1.00  0.00     0.167 HD
ATOM     51  C   UNL A   1      45.289  31.131  28.100  1.00  0.00     0.074 A 
ATOM     52  C   UNL A   1      46.615  31.221  27.526  1.00  0.00     0.031 C 
ATOM     53  C   UNL A   1      44.695  32.128  28.806  1.00  0.00     0.034 A 
BRANCH  40  54
ATOM     54  C   UNL A   1      38.974  30.752  30.779  1.00  0.00     0.023 A 
ATOM     55  C   UNL A   1      37.941  31.437  30.117  1.00  0.00     0.031 A 
ATOM     56  C   UNL A   1      38.824  30.510  32.157  1.00  0.00     0.131 A 
ATOM     57  C   UNL A   1      36.840  31.916  30.844  1.00  0.00     0.055 A 
ATOM     58  C   UNL A   1      37.688  30.917  32.858  1.00  0.00     0.041 A 
ATOM     59  F   UNL A   1      39.788  29.882  32.849  1.00  0.00    -0.206 F 
ATOM     60  C   UNL A   1      36.694  31.638  32.205  1.00  0.00     0.022 A 
BRANCH  57  61
ATOM     61  S   UNL A   1      35.672  33.031  30.017  1.00  0.00     0.124 S 
ATOM     62  O   UNL A   1      34.831  32.087  29.285  1.00  0.00    -0.237 OA
ATOM     63  O   UNL A   1      35.038  33.714  31.140  1.00  0.00    -0.237 OA
ATOM     64  O   UNL A   1      36.529  33.867  29.180  1.00  0.00    -0.744 OA
ENDBRANCH  57  61
ENDBRANCH  40  54
BRANCH  41  65
ATOM     65  C   UNL A   1      46.949  27.435  25.686  1.00  0.00     0.023 A 
ATOM     66  C   UNL A   1      47.134  27.857  24.360  1.00  0.00     0.031 A 
ATOM     67  C   UNL A   1      47.871  26.515  26.219  1.00  0.00     0.131 A 
ATOM     68  C   UNL A   1      48.188  27.326  23.598  1.00  0.00     0.055 A 
ATOM     69  C   UNL A   1      48.951  26.037  25.476  1.00  0.00     0.041 A 
ATOM     70  F   UNL A   1      47.738  26.073  27.480  1.00  0.00    -0.206 F 
ATOM     71  C   UNL A   1      49.107  26.431  24.152  1.00  0.00     0.022 A 
BRANCH  68  72
ATOM     72  S   UNL A   1      48.285  27.750  21.837  1.00  0.00     0.124 S 
ATOM     73  O   UNL A   1      48.501  26.441  21.229  1.00  0.00    -0.237 OA
ATOM     74  O   UNL A   1      46.981  28.361  21.600  1.00  0.00    -0.237 OA
ATOM     75  O   UNL A   1      49.422  28.665  21.769  1.00  0.00    -0.744 OA
ENDBRANCH  68  72
ENDBRANCH  41  65
BRANCH  53  76
ATOM     76  C   UNL A   1      45.497  33.392  29.019  1.00  0.00     0.023 A 
ATOM     77  C   UNL A   1      45.412  34.481  28.133  1.00  0.00     0.031 A 
ATOM     78  C   UNL A   1      46.369  33.501  30.117  1.00  0.00     0.131 A 
ATOM     79  C   UNL A   1      46.227  35.606  28.328  1.00  0.00     0.055 A 
ATOM     80  C   UNL A   1      47.128  34.651  30.343  1.00  0.00     0.041 A 
ATOM     81  F   UNL A   1      46.495  32.493  30.995  1.00  0.00    -0.206 F 
ATOM     82  C   UNL A   1      47.070  35.706  29.437  1.00  0.00     0.022 A 
BRANCH  79  83
ATOM     83  S   UNL A   1      46.245  36.899  27.055  1.00  0.00     0.124 S 
ATOM     84  O   UNL A   1      46.861  36.205  25.928  1.00  0.00    -0.237 OA
ATOM     85  O   UNL A   1      44.829  37.217  26.912  1.00  0.00    -0.237 OA
ATOM     86  O   UNL A   1      47.060  37.956  27.652  1.00  0.00    -0.744 OA
ENDBRANCH  79  83
ENDBRANCH  53  76
ENDBRANCH  27  28
ENDBRANCH  20  22
ENDBRANCH  19  20
ENDBRANCH  18  19
ENDBRANCH  17  18
ENDBRANCH   1  17
TORSDOF 21
ENDMDL
