MODEL 1
REMARK VINA RESULT:      -9.8      0.000      0.000
REMARK SMILES C[NH2+]CCCC(=O)N[C@H]1C=C[C@@H](C(=O)OCCOCCOC(=O)c2ccc(-c3c4nc(c(-c5cc(S(=O)(=O)[O-])ccc5F)c5ccc([nH]5)c(-c5cc(S(=O)(=O)[O-])ccc5F)c5nc(c(-c6cc(S(=O)(=O)[O-])ccc6F)c6ccc3[nH]6)C=C5)C=C4)cc2)C1
REMARK SMILES IDX 17 1 16 2 15 3 13 4 14 5 12 6 9 7 10 8 87 9 11 10 8 11 6 12
REMARK SMILES IDX 7 13 5 15 4 16 3 17 2 18 1 19 18 22 19 23 20 24 21 25 22 26
REMARK SMILES IDX 23 27 24 28 25 29 86 30 26 31 85 32 27 33 28 34 29 35 79 36
REMARK SMILES IDX 30 37 84 38 78 39 80 40 31 41 83 42 77 43 76 44 32 46 64 47
REMARK SMILES IDX 44 48 63 49 45 50 48 51 62 52 81 53 46 54 47 55 61 57 82 58
REMARK SMILES IDX 49 59 33 60 34 61 42 62 35 63 41 64 43 65 40 66 36 67 37 68
REMARK SMILES IDX 38 69 39 70 65 71 66 72 74 73 67 74 73 75 75 76 72 77 68 78
REMARK SMILES IDX 69 79 70 80 71 81 50 82 51 83 59 84 52 85 58 86 60 87 57 88
REMARK SMILES IDX 53 89 54 90 55 91 56 92
REMARK H PARENT 8 14 2 20 2 21 80 45 48 56
REMARK Flexibility Score: inf
ROOT
ATOM      1  C   UNL A   1      35.797  22.797  25.584  1.00  0.00     0.202 C 
ENDROOT
BRANCH   1   2
ATOM      2  C   UNL A   1      34.957  21.842  26.438  1.00  0.00     0.261 C 
BRANCH   2   3
ATOM      3  O   UNL A   1      33.573  22.056  26.127  1.00  0.00    -0.463 OA
BRANCH   3   4
ATOM      4  C   UNL A   1      32.795  22.637  27.074  1.00  0.00     0.312 C 
ATOM      5  O   UNL A   1      32.980  22.566  28.283  1.00  0.00    -0.252 OA
BRANCH   4   6
ATOM      6  C   UNL A   1      31.737  23.528  26.432  1.00  0.00     0.124 C 
ATOM      7  C   UNL A   1      31.147  25.138  24.741  1.00  0.00     0.106 C 
ATOM      8  C   UNL A   1      30.566  23.791  24.423  1.00  0.00    -0.006 C 
ATOM      9  C   UNL A   1      32.294  24.714  25.646  1.00  0.00     0.048 C 
ATOM     10  C   UNL A   1      30.880  22.897  25.377  1.00  0.00    -0.014 C 
BRANCH   7  11
ATOM     11  N   UNL A   1      31.524  25.864  23.558  1.00  0.00    -0.350 N 
ATOM     12  C   UNL A   1      30.899  26.938  22.988  1.00  0.00     0.220 C 
ATOM     13  O   UNL A   1      31.103  27.168  21.795  1.00  0.00    -0.275 OA
ATOM     14  H   UNL A   1      32.335  25.547  23.099  1.00  0.00     0.164 HD
BRANCH  12  15
ATOM     15  C   UNL A   1      30.013  27.860  23.809  1.00  0.00     0.106 C 
BRANCH  15  16
ATOM     16  C   UNL A   1      30.534  29.283  24.009  1.00  0.00     0.071 C 
BRANCH  16  17
ATOM     17  C   UNL A   1      29.795  30.419  23.288  1.00  0.00     0.260 C 
BRANCH  17  18
ATOM     18  N   UNL A   1      29.850  30.410  21.826  1.00  0.00    -0.349 N 
ATOM     19  C   UNL A   1      28.574  30.673  21.182  1.00  0.00     0.330 C 
ATOM     20  H   UNL A   1      30.513  31.124  21.525  1.00  0.00     0.346 HD
ATOM     21  H   UNL A   1      30.131  29.469  21.548  1.00  0.00     0.346 HD
ENDBRANCH  17  18
ENDBRANCH  16  17
ENDBRANCH  15  16
ENDBRANCH  12  15
ENDBRANCH   7  11
ENDBRANCH   4   6
ENDBRANCH   3   4
ENDBRANCH   2   3
ENDBRANCH   1   2
BRANCH   1  22
ATOM     22  O   UNL A   1      36.607  22.155  24.592  1.00  0.00    -0.374 OA
BRANCH  22  23
ATOM     23  C   UNL A   1      36.628  20.729  24.595  1.00  0.00     0.202 C 
BRANCH  23  24
ATOM     24  C   UNL A   1      37.992  20.079  24.861  1.00  0.00     0.261 C 
BRANCH  24  25
ATOM     25  O   UNL A   1      38.495  20.364  26.176  1.00  0.00    -0.460 OA
BRANCH  25  26
ATOM     26  C   UNL A   1      39.846  20.481  26.239  1.00  0.00     0.338 C 
ATOM     27  O   UNL A   1      40.669  19.733  25.743  1.00  0.00    -0.246 OA
BRANCH  26  28
ATOM     28  C   UNL A   1      40.213  21.769  26.858  1.00  0.00     0.060 A 
ATOM     29  C   UNL A   1      39.664  22.925  26.292  1.00  0.00     0.016 A 
ATOM     30  C   UNL A   1      41.130  21.857  27.908  1.00  0.00     0.016 A 
ATOM     31  C   UNL A   1      40.065  24.178  26.743  1.00  0.00     0.010 A 
ATOM     32  C   UNL A   1      41.536  23.119  28.357  1.00  0.00     0.010 A 
ATOM     33  C   UNL A   1      41.031  24.286  27.753  1.00  0.00    -0.014 A 
BRANCH  33  34
ATOM     34  C   UNL A   1      41.603  25.621  28.055  1.00  0.00     0.031 A 
ATOM     35  C   UNL A   1      42.989  25.948  27.568  1.00  0.00     0.074 A 
ATOM     36  C   UNL A   1      40.867  26.552  28.689  1.00  0.00     0.049 A 
ATOM     37  N   UNL A   1      43.664  27.064  27.670  1.00  0.00    -0.248 NA
ATOM     38  C   UNL A   1      43.709  24.871  26.872  1.00  0.00     0.031 C 
ATOM     39  C   UNL A   1      39.499  26.356  29.172  1.00  0.00     0.029 A 
ATOM     40  N   UNL A   1      41.160  27.848  29.025  1.00  0.00    -0.354 N 
ATOM     41  C   UNL A   1      44.885  26.828  27.047  1.00  0.00     0.074 A 
ATOM     42  C   UNL A   1      44.874  25.447  26.614  1.00  0.00     0.031 C 
ATOM     43  C   UNL A   1      39.071  27.496  29.741  1.00  0.00     0.029 A 
ATOM     44  C   UNL A   1      40.141  28.490  29.688  1.00  0.00     0.049 A 
ATOM     45  H   UNL A   1      42.019  28.279  28.812  1.00  0.00     0.167 HD
ATOM     46  C   UNL A   1      45.915  27.686  26.844  1.00  0.00     0.034 A 
ATOM     47  C   UNL A   1      40.083  29.735  30.204  1.00  0.00     0.034 A 
ATOM     48  C   UNL A   1      45.918  29.056  27.299  1.00  0.00     0.049 A 
ATOM     49  C   UNL A   1      41.271  30.651  30.032  1.00  0.00     0.074 A 
ATOM     50  C   UNL A   1      46.901  30.017  27.144  1.00  0.00     0.029 A 
ATOM     51  N   UNL A   1      44.888  29.658  28.013  1.00  0.00    -0.354 N 
ATOM     52  N   UNL A   1      42.414  30.420  29.423  1.00  0.00    -0.248 NA
ATOM     53  C   UNL A   1      41.156  31.999  30.601  1.00  0.00     0.031 C 
ATOM     54  C   UNL A   1      46.499  31.173  27.823  1.00  0.00     0.029 A 
ATOM     55  C   UNL A   1      45.227  30.964  28.333  1.00  0.00     0.049 A 
ATOM     56  H   UNL A   1      44.040  29.221  28.257  1.00  0.00     0.167 HD
ATOM     57  C   UNL A   1      43.137  31.607  29.512  1.00  0.00     0.074 A 
ATOM     58  C   UNL A   1      42.295  32.553  30.216  1.00  0.00     0.031 C 
ATOM     59  C   UNL A   1      44.383  31.892  29.050  1.00  0.00     0.034 A 
BRANCH  46  60
ATOM     60  C   UNL A   1      47.140  27.145  26.144  1.00  0.00     0.023 A 
ATOM     61  C   UNL A   1      48.120  26.406  26.830  1.00  0.00     0.031 A 
ATOM     62  C   UNL A   1      47.348  27.401  24.777  1.00  0.00     0.131 A 
ATOM     63  C   UNL A   1      49.294  26.014  26.168  1.00  0.00     0.055 A 
ATOM     64  C   UNL A   1      48.481  26.940  24.105  1.00  0.00     0.041 A 
ATOM     65  F   UNL A   1      46.459  28.121  24.073  1.00  0.00    -0.206 F 
ATOM     66  C   UNL A   1      49.470  26.255  24.803  1.00  0.00     0.022 A 
BRANCH  63  67
ATOM     67  S   UNL A   1      50.651  25.312  27.146  1.00  0.00     0.124 S 
ATOM     68  O   UNL A   1      49.950  24.310  27.946  1.00  0.00    -0.237 OA
ATOM     69  O   UNL A   1      51.548  24.798  26.118  1.00  0.00    -0.237 OA
ATOM     70  O   UNL A   1      51.158  26.457  27.901  1.00  0.00    -0.744 OA
ENDBRANCH  63  67
ENDBRANCH  46  60
BRANCH  47  71
ATOM     71  C   UNL A   1      38.877  30.187  30.957  1.00  0.00     0.023 A 
ATOM     72  C   UNL A   1      37.823  30.856  30.315  1.00  0.00     0.031 A 
ATOM     73  C   UNL A   1      38.788  29.999  32.347  1.00  0.00     0.131 A 
ATOM     74  C   UNL A   1      36.747  31.352  31.068  1.00  0.00     0.055 A 
ATOM     75  C   UNL A   1      37.692  30.449  33.086  1.00  0.00     0.041 A 
ATOM     76  F   UNL A   1      39.767  29.366  33.012  1.00  0.00    -0.206 F 
ATOM     77  C   UNL A   1      36.669  31.143  32.447  1.00  0.00     0.022 A 
BRANCH  74  78
ATOM     78  S   UNL A   1      35.488  32.355  30.231  1.00  0.00     0.124 S 
ATOM     79  O   UNL A   1      36.208  33.600  29.993  1.00  0.00    -0.237 OA
ATOM     80  O   UNL A   1      35.194  31.547  29.052  1.00  0.00    -0.237 OA
ATOM     81  O   UNL A   1      34.409  32.435  31.213  1.00  0.00    -0.744 OA
ENDBRANCH  74  78
ENDBRANCH  47  71
BRANCH  59  82
ATOM     82  C   UNL A   1      44.883  33.303  29.257  1.00  0.00     0.023 A 
ATOM     83  C   UNL A   1      44.748  34.291  28.266  1.00  0.00     0.031 A 
ATOM     84  C   UNL A   1      45.525  33.655  30.457  1.00  0.00     0.131 A 
ATOM     85  C   UNL A   1      45.304  35.563  28.467  1.00  0.00     0.055 A 
ATOM     86  C   UNL A   1      46.019  34.943  30.678  1.00  0.00     0.041 A 
ATOM     87  F   UNL A   1      45.684  32.753  31.439  1.00  0.00    -0.206 F 
ATOM     88  C   UNL A   1      45.923  35.900  29.673  1.00  0.00     0.022 A 
BRANCH  85  89
ATOM     89  S   UNL A   1      45.302  36.742  27.088  1.00  0.00     0.124 S 
ATOM     90  O   UNL A   1      46.138  37.820  27.609  1.00  0.00    -0.237 OA
ATOM     91  O   UNL A   1      45.881  35.955  26.004  1.00  0.00    -0.237 OA
ATOM     92  O   UNL A   1      43.889  37.078  26.924  1.00  0.00    -0.744 OA
ENDBRANCH  85  89
ENDBRANCH  59  82
ENDBRANCH  33  34
ENDBRANCH  26  28
ENDBRANCH  25  26
ENDBRANCH  24  25
ENDBRANCH  23  24
ENDBRANCH  22  23
ENDBRANCH   1  22
TORSDOF 22
ENDMDL
MODEL 2
REMARK VINA RESULT:      -9.4      2.378      7.977
REMARK SMILES C[NH2+]CCCC(=O)N[C@H]1C=C[C@@H](C(=O)OCCOCCOC(=O)c2ccc(-c3c4nc(c(-c5cc(S(=O)(=O)[O-])ccc5F)c5ccc([nH]5)c(-c5cc(S(=O)(=O)[O-])ccc5F)c5nc(c(-c6cc(S(=O)(=O)[O-])ccc6F)c6ccc3[nH]6)C=C5)C=C4)cc2)C1
REMARK SMILES IDX 17 1 16 2 15 3 13 4 14 5 12 6 9 7 10 8 87 9 11 10 8 11 6 12
REMARK SMILES IDX 7 13 5 15 4 16 3 17 2 18 1 19 18 22 19 23 20 24 21 25 22 26
REMARK SMILES IDX 23 27 24 28 25 29 86 30 26 31 85 32 27 33 28 34 29 35 79 36
REMARK SMILES IDX 30 37 84 38 78 39 80 40 31 41 83 42 77 43 76 44 32 46 64 47
REMARK SMILES IDX 44 48 63 49 45 50 48 51 62 52 81 53 46 54 47 55 61 57 82 58
REMARK SMILES IDX 49 59 33 60 34 61 42 62 35 63 41 64 43 65 40 66 36 67 37 68
REMARK SMILES IDX 38 69 39 70 65 71 66 72 74 73 67 74 73 75 75 76 72 77 68 78
REMARK SMILES IDX 69 79 70 80 71 81 50 82 51 83 59 84 52 85 58 86 60 87 57 88
REMARK SMILES IDX 53 89 54 90 55 91 56 92
REMARK H PARENT 8 14 2 20 2 21 80 45 48 56
REMARK Flexibility Score: inf
ROOT
ATOM      1  C   UNL A   1      35.949  22.624  25.547  1.00  0.00     0.202 C 
ENDROOT
BRANCH   1   2
ATOM      2  C   UNL A   1      35.043  21.805  26.471  1.00  0.00     0.261 C 
BRANCH   2   3
ATOM      3  O   UNL A   1      33.678  22.082  26.127  1.00  0.00    -0.463 OA
BRANCH   3   4
ATOM      4  C   UNL A   1      32.903  22.691  27.059  1.00  0.00     0.312 C 
ATOM      5  O   UNL A   1      32.835  22.373  28.240  1.00  0.00    -0.252 OA
BRANCH   4   6
ATOM      6  C   UNL A   1      32.237  23.933  26.478  1.00  0.00     0.124 C 
ATOM      7  C   UNL A   1      32.403  25.925  25.135  1.00  0.00     0.106 C 
ATOM      8  C   UNL A   1      31.617  24.864  24.422  1.00  0.00    -0.006 C 
ATOM      9  C   UNL A   1      33.202  25.053  26.091  1.00  0.00     0.048 C 
ATOM     10  C   UNL A   1      31.509  23.758  25.180  1.00  0.00    -0.014 C 
BRANCH   7  11
ATOM     11  N   UNL A   1      33.179  26.731  24.231  1.00  0.00    -0.350 N 
ATOM     12  C   UNL A   1      33.646  28.002  24.417  1.00  0.00     0.220 C 
ATOM     13  O   UNL A   1      33.923  28.675  23.422  1.00  0.00    -0.275 OA
ATOM     14  H   UNL A   1      33.403  26.315  23.368  1.00  0.00     0.164 HD
BRANCH  12  15
ATOM     15  C   UNL A   1      33.870  28.563  25.811  1.00  0.00     0.106 C 
BRANCH  15  16
ATOM     16  C   UNL A   1      32.611  28.956  26.584  1.00  0.00     0.071 C 
BRANCH  16  17
ATOM     17  C   UNL A   1      32.075  30.381  26.393  1.00  0.00     0.260 C 
BRANCH  17  18
ATOM     18  N   UNL A   1      32.754  31.440  27.142  1.00  0.00    -0.349 N 
ATOM     19  C   UNL A   1      32.079  32.726  27.094  1.00  0.00     0.330 C 
ATOM     20  H   UNL A   1      32.819  31.150  28.118  1.00  0.00     0.346 HD
ATOM     21  H   UNL A   1      33.666  31.570  26.707  1.00  0.00     0.346 HD
ENDBRANCH  17  18
ENDBRANCH  16  17
ENDBRANCH  15  16
ENDBRANCH  12  15
ENDBRANCH   7  11
ENDBRANCH   4   6
ENDBRANCH   3   4
ENDBRANCH   2   3
ENDBRANCH   1   2
BRANCH   1  22
ATOM     22  O   UNL A   1      36.724  21.846  24.627  1.00  0.00    -0.374 OA
BRANCH  22  23
ATOM     23  C   UNL A   1      36.718  20.431  24.808  1.00  0.00     0.202 C 
BRANCH  23  24
ATOM     24  C   UNL A   1      38.087  19.778  25.033  1.00  0.00     0.261 C 
BRANCH  24  25
ATOM     25  O   UNL A   1      38.647  20.095  26.318  1.00  0.00    -0.460 OA
BRANCH  25  26
ATOM     26  C   UNL A   1      39.999  20.227  26.315  1.00  0.00     0.338 C 
ATOM     27  O   UNL A   1      40.810  19.442  25.859  1.00  0.00    -0.246 OA
BRANCH  26  28
ATOM     28  C   UNL A   1      40.375  21.570  26.796  1.00  0.00     0.060 A 
ATOM     29  C   UNL A   1      39.801  22.664  26.140  1.00  0.00     0.016 A 
ATOM     30  C   UNL A   1      41.323  21.761  27.805  1.00  0.00     0.016 A 
ATOM     31  C   UNL A   1      40.208  23.956  26.456  1.00  0.00     0.010 A 
ATOM     32  C   UNL A   1      41.734  23.063  28.118  1.00  0.00     0.010 A 
ATOM     33  C   UNL A   1      41.204  24.164  27.421  1.00  0.00    -0.014 A 
BRANCH  33  34
ATOM     34  C   UNL A   1      41.775  25.524  27.576  1.00  0.00     0.031 A 
ATOM     35  C   UNL A   1      40.996  26.561  28.340  1.00  0.00     0.074 A 
ATOM     36  C   UNL A   1      43.003  25.806  27.105  1.00  0.00     0.049 A 
ATOM     37  N   UNL A   1      41.324  27.791  28.642  1.00  0.00    -0.248 NA
ATOM     38  C   UNL A   1      39.670  26.154  28.828  1.00  0.00     0.031 C 
ATOM     39  C   UNL A   1      43.862  24.867  26.382  1.00  0.00     0.029 A 
ATOM     40  N   UNL A   1      43.746  26.956  27.172  1.00  0.00    -0.354 N 
ATOM     41  C   UNL A   1      40.249  28.304  29.361  1.00  0.00     0.074 A 
ATOM     42  C   UNL A   1      39.242  27.266  29.407  1.00  0.00     0.031 C 
ATOM     43  C   UNL A   1      45.018  25.481  26.075  1.00  0.00     0.029 A 
ATOM     44  C   UNL A   1      44.970  26.861  26.554  1.00  0.00     0.049 A 
ATOM     45  H   UNL A   1      43.432  27.774  27.621  1.00  0.00     0.167 HD
ATOM     46  C   UNL A   1      40.120  29.523  29.941  1.00  0.00     0.034 A 
ATOM     47  C   UNL A   1      45.937  27.787  26.383  1.00  0.00     0.034 A 
ATOM     48  C   UNL A   1      41.128  30.554  29.870  1.00  0.00     0.049 A 
ATOM     49  C   UNL A   1      45.740  29.162  26.973  1.00  0.00     0.074 A 
ATOM     50  C   UNL A   1      41.108  31.823  30.424  1.00  0.00     0.029 A 
ATOM     51  N   UNL A   1      42.335  30.440  29.190  1.00  0.00    -0.354 N 
ATOM     52  N   UNL A   1      44.725  29.629  27.667  1.00  0.00    -0.248 NA
ATOM     53  C   UNL A   1      46.824  30.131  26.769  1.00  0.00     0.031 C 
ATOM     54  C   UNL A   1      42.266  32.497  30.021  1.00  0.00     0.029 A 
ATOM     55  C   UNL A   1      43.051  31.625  29.283  1.00  0.00     0.049 A 
ATOM     56  H   UNL A   1      42.639  29.635  28.711  1.00  0.00     0.167 HD
ATOM     57  C   UNL A   1      45.068  30.935  28.008  1.00  0.00     0.074 A 
ATOM     58  C   UNL A   1      46.387  31.174  27.458  1.00  0.00     0.031 C 
ATOM     59  C   UNL A   1      44.360  31.853  28.716  1.00  0.00     0.034 A 
BRANCH  46  60
ATOM     60  C   UNL A   1      38.820  29.817  30.653  1.00  0.00     0.023 A 
ATOM     61  C   UNL A   1      37.797  30.569  30.048  1.00  0.00     0.031 A 
ATOM     62  C   UNL A   1      38.615  29.368  31.970  1.00  0.00     0.131 A 
ATOM     63  C   UNL A   1      36.651  30.911  30.783  1.00  0.00     0.055 A 
ATOM     64  C   UNL A   1      37.438  29.644  32.667  1.00  0.00     0.041 A 
ATOM     65  F   UNL A   1      39.564  28.665  32.608  1.00  0.00    -0.206 F 
ATOM     66  C   UNL A   1      36.453  30.432  32.080  1.00  0.00     0.022 A 
BRANCH  63  67
ATOM     67  S   UNL A   1      35.488  32.108  30.071  1.00  0.00     0.124 S 
ATOM     68  O   UNL A   1      36.368  33.237  29.779  1.00  0.00    -0.237 OA
ATOM     69  O   UNL A   1      34.963  31.389  28.916  1.00  0.00    -0.237 OA
ATOM     70  O   UNL A   1      34.529  32.338  31.151  1.00  0.00    -0.744 OA
ENDBRANCH  63  67
ENDBRANCH  46  60
BRANCH  47  71
ATOM     71  C   UNL A   1      47.164  27.463  25.600  1.00  0.00     0.023 A 
ATOM     72  C   UNL A   1      47.274  27.800  24.242  1.00  0.00     0.031 A 
ATOM     73  C   UNL A   1      48.228  26.761  26.192  1.00  0.00     0.131 A 
ATOM     74  C   UNL A   1      48.403  27.396  23.510  1.00  0.00     0.055 A 
ATOM     75  C   UNL A   1      49.371  26.406  25.474  1.00  0.00     0.041 A 
ATOM     76  F   UNL A   1      48.175  26.413  27.488  1.00  0.00    -0.206 F 
ATOM     77  C   UNL A   1      49.456  26.712  24.120  1.00  0.00     0.022 A 
BRANCH  74  78
ATOM     78  S   UNL A   1      48.436  27.703  21.722  1.00  0.00     0.124 S 
ATOM     79  O   UNL A   1      48.684  26.365  21.195  1.00  0.00    -0.237 OA
ATOM     80  O   UNL A   1      47.104  28.250  21.485  1.00  0.00    -0.237 OA
ATOM     81  O   UNL A   1      49.535  28.652  21.560  1.00  0.00    -0.744 OA
ENDBRANCH  74  78
ENDBRANCH  47  71
BRANCH  59  82
ATOM     82  C   UNL A   1      45.027  33.185  28.970  1.00  0.00     0.023 A 
ATOM     83  C   UNL A   1      45.886  33.388  30.064  1.00  0.00     0.031 A 
ATOM     84  C   UNL A   1      44.779  34.274  28.114  1.00  0.00     0.131 A 
ATOM     85  C   UNL A   1      46.415  34.664  30.309  1.00  0.00     0.055 A 
ATOM     86  C   UNL A   1      45.362  35.524  28.326  1.00  0.00     0.041 A 
ATOM     87  F   UNL A   1      43.966  34.139  27.053  1.00  0.00    -0.206 F 
ATOM     88  C   UNL A   1      46.172  35.729  29.438  1.00  0.00     0.022 A 
BRANCH  85  89
ATOM     89  S   UNL A   1      47.341  34.942  31.844  1.00  0.00     0.124 S 
ATOM     90  O   UNL A   1      46.594  34.132  32.801  1.00  0.00    -0.237 OA
ATOM     91  O   UNL A   1      48.672  34.454  31.499  1.00  0.00    -0.237 OA
ATOM     92  O   UNL A   1      47.245  36.387  32.047  1.00  0.00    -0.744 OA
ENDBRANCH  85  89
ENDBRANCH  59  82
ENDBRANCH  33  34
ENDBRANCH  26  28
ENDBRANCH  25  26
ENDBRANCH  24  25
ENDBRANCH  23  24
ENDBRANCH  22  23
ENDBRANCH   1  22
TORSDOF 22
ENDMDL
MODEL 3
REMARK VINA RESULT:      -9.2      3.362      5.028
REMARK SMILES C[NH2+]CCCC(=O)N[C@H]1C=C[C@@H](C(=O)OCCOCCOC(=O)c2ccc(-c3c4nc(c(-c5cc(S(=O)(=O)[O-])ccc5F)c5ccc([nH]5)c(-c5cc(S(=O)(=O)[O-])ccc5F)c5nc(c(-c6cc(S(=O)(=O)[O-])ccc6F)c6ccc3[nH]6)C=C5)C=C4)cc2)C1
REMARK SMILES IDX 17 1 16 2 15 3 13 4 14 5 12 6 9 7 10 8 87 9 11 10 8 11 6 12
REMARK SMILES IDX 7 13 5 15 4 16 3 17 2 18 1 19 18 22 19 23 20 24 21 25 22 26
REMARK SMILES IDX 23 27 24 28 25 29 86 30 26 31 85 32 27 33 28 34 29 35 79 36
REMARK SMILES IDX 30 37 84 38 78 39 80 40 31 41 83 42 77 43 76 44 32 46 64 47
REMARK SMILES IDX 44 48 63 49 45 50 48 51 62 52 81 53 46 54 47 55 61 57 82 58
REMARK SMILES IDX 49 59 33 60 34 61 42 62 35 63 41 64 43 65 40 66 36 67 37 68
REMARK SMILES IDX 38 69 39 70 65 71 66 72 74 73 67 74 73 75 75 76 72 77 68 78
REMARK SMILES IDX 69 79 70 80 71 81 50 82 51 83 59 84 52 85 58 86 60 87 57 88
REMARK SMILES IDX 53 89 54 90 55 91 56 92
REMARK H PARENT 8 14 2 20 2 21 80 45 48 56
REMARK Flexibility Score: inf
ROOT
ATOM      1  C   UNL A   1      41.171  21.077  26.188  1.00  0.00     0.202 C 
ENDROOT
BRANCH   1   2
ATOM      2  C   UNL A   1      40.036  21.828  26.892  1.00  0.00     0.261 C 
BRANCH   2   3
ATOM      3  O   UNL A   1      38.900  21.852  26.017  1.00  0.00    -0.463 OA
BRANCH   3   4
ATOM      4  C   UNL A   1      38.117  22.960  26.029  1.00  0.00     0.312 C 
ATOM      5  O   UNL A   1      38.397  24.018  26.577  1.00  0.00    -0.252 OA
BRANCH   4   6
ATOM      6  C   UNL A   1      36.897  22.768  25.135  1.00  0.00     0.124 C 
ATOM      7  C   UNL A   1      34.578  22.155  24.913  1.00  0.00     0.106 C 
ATOM      8  C   UNL A   1      34.755  23.639  24.778  1.00  0.00    -0.006 C 
ATOM      9  C   UNL A   1      35.839  21.818  25.695  1.00  0.00     0.048 C 
ATOM     10  C   UNL A   1      36.051  23.979  24.884  1.00  0.00    -0.014 C 
BRANCH   7  11
ATOM     11  N   UNL A   1      33.338  21.807  25.552  1.00  0.00    -0.350 N 
ATOM     12  C   UNL A   1      32.278  21.122  25.028  1.00  0.00     0.220 C 
ATOM     13  O   UNL A   1      31.171  21.268  25.549  1.00  0.00    -0.275 OA
ATOM     14  H   UNL A   1      33.238  22.100  26.486  1.00  0.00     0.164 HD
BRANCH  12  15
ATOM     15  C   UNL A   1      32.458  20.162  23.863  1.00  0.00     0.106 C 
BRANCH  15  16
ATOM     16  C   UNL A   1      33.297  18.916  24.147  1.00  0.00     0.071 C 
BRANCH  16  17
ATOM     17  C   UNL A   1      32.957  17.638  23.370  1.00  0.00     0.260 C 
BRANCH  17  18
ATOM     18  N   UNL A   1      32.755  16.425  24.164  1.00  0.00    -0.349 N 
ATOM     19  C   UNL A   1      32.829  16.637  25.599  1.00  0.00     0.330 C 
ATOM     20  H   UNL A   1      31.833  16.047  23.943  1.00  0.00     0.346 HD
ATOM     21  H   UNL A   1      33.512  15.786  23.922  1.00  0.00     0.346 HD
ENDBRANCH  17  18
ENDBRANCH  16  17
ENDBRANCH  15  16
ENDBRANCH  12  15
ENDBRANCH   7  11
ENDBRANCH   4   6
ENDBRANCH   3   4
ENDBRANCH   2   3
ENDBRANCH   1   2
BRANCH   1  22
ATOM     22  O   UNL A   1      41.191  19.665  26.428  1.00  0.00    -0.374 OA
BRANCH  22  23
ATOM     23  C   UNL A   1      42.463  19.064  26.661  1.00  0.00     0.202 C 
BRANCH  23  24
ATOM     24  C   UNL A   1      43.270  18.696  25.410  1.00  0.00     0.261 C 
BRANCH  24  25
ATOM     25  O   UNL A   1      44.573  19.302  25.393  1.00  0.00    -0.460 OA
BRANCH  25  26
ATOM     26  C   UNL A   1      44.699  20.319  24.502  1.00  0.00     0.338 C 
ATOM     27  O   UNL A   1      44.761  20.226  23.289  1.00  0.00    -0.246 OA
BRANCH  26  28
ATOM     28  C   UNL A   1      44.575  21.616  25.194  1.00  0.00     0.060 A 
ATOM     29  C   UNL A   1      44.153  22.708  24.428  1.00  0.00     0.016 A 
ATOM     30  C   UNL A   1      44.936  21.783  26.533  1.00  0.00     0.016 A 
ATOM     31  C   UNL A   1      44.136  23.982  24.983  1.00  0.00     0.010 A 
ATOM     32  C   UNL A   1      44.923  23.068  27.090  1.00  0.00     0.010 A 
ATOM     33  C   UNL A   1      44.556  24.178  26.307  1.00  0.00    -0.014 A 
BRANCH  33  34
ATOM     34  C   UNL A   1      44.742  25.565  26.799  1.00  0.00     0.031 A 
ATOM     35  C   UNL A   1      46.094  26.213  26.660  1.00  0.00     0.074 A 
ATOM     36  C   UNL A   1      43.702  26.260  27.293  1.00  0.00     0.049 A 
ATOM     37  N   UNL A   1      46.470  27.428  26.971  1.00  0.00    -0.248 NA
ATOM     38  C   UNL A   1      47.165  25.378  26.095  1.00  0.00     0.031 C 
ATOM     39  C   UNL A   1      42.340  25.745  27.439  1.00  0.00     0.029 A 
ATOM     40  N   UNL A   1      43.624  27.549  27.753  1.00  0.00    -0.354 N 
ATOM     41  C   UNL A   1      47.817  27.506  26.633  1.00  0.00     0.074 A 
ATOM     42  C   UNL A   1      48.202  26.201  26.140  1.00  0.00     0.031 C 
ATOM     43  C   UNL A   1      41.561  26.712  27.952  1.00  0.00     0.029 A 
ATOM     44  C   UNL A   1      42.372  27.903  28.196  1.00  0.00     0.049 A 
ATOM     45  H   UNL A   1      44.393  28.164  27.765  1.00  0.00     0.167 HD
ATOM     46  C   UNL A   1      48.652  28.571  26.716  1.00  0.00     0.034 A 
ATOM     47  C   UNL A   1      41.933  29.053  28.748  1.00  0.00     0.034 A 
ATOM     48  C   UNL A   1      48.256  29.862  27.228  1.00  0.00     0.049 A 
ATOM     49  C   UNL A   1      42.900  30.203  28.899  1.00  0.00     0.074 A 
ATOM     50  C   UNL A   1      49.015  31.013  27.352  1.00  0.00     0.029 A 
ATOM     51  N   UNL A   1      46.991  30.168  27.717  1.00  0.00    -0.354 N 
ATOM     52  N   UNL A   1      44.168  30.270  28.558  1.00  0.00    -0.248 NA
ATOM     53  C   UNL A   1      42.372  31.437  29.494  1.00  0.00     0.031 C 
ATOM     54  C   UNL A   1      48.233  31.990  27.978  1.00  0.00     0.029 A 
ATOM     55  C   UNL A   1      46.959  31.478  28.172  1.00  0.00     0.049 A 
ATOM     56  H   UNL A   1      46.228  29.547  27.737  1.00  0.00     0.167 HD
ATOM     57  C   UNL A   1      44.577  31.565  28.871  1.00  0.00     0.074 A 
ATOM     58  C   UNL A   1      43.417  32.246  29.409  1.00  0.00     0.031 C 
ATOM     59  C   UNL A   1      45.798  32.140  28.721  1.00  0.00     0.034 A 
BRANCH  46  60
ATOM     60  C   UNL A   1      50.086  28.362  26.289  1.00  0.00     0.023 A 
ATOM     61  C   UNL A   1      50.520  28.647  24.982  1.00  0.00     0.031 A 
ATOM     62  C   UNL A   1      51.026  27.837  27.194  1.00  0.00     0.131 A 
ATOM     63  C   UNL A   1      51.833  28.337  24.596  1.00  0.00     0.055 A 
ATOM     64  C   UNL A   1      52.353  27.605  26.825  1.00  0.00     0.041 A 
ATOM     65  F   UNL A   1      50.667  27.523  28.448  1.00  0.00    -0.206 F 
ATOM     66  C   UNL A   1      52.760  27.841  25.517  1.00  0.00     0.022 A 
BRANCH  63  67
ATOM     67  S   UNL A   1      52.275  28.457  22.841  1.00  0.00     0.124 S 
ATOM     68  O   UNL A   1      51.238  29.353  22.336  1.00  0.00    -0.237 OA
ATOM     69  O   UNL A   1      53.625  29.004  22.891  1.00  0.00    -0.237 OA
ATOM     70  O   UNL A   1      52.178  27.077  22.368  1.00  0.00    -0.744 OA
ENDBRANCH  63  67
ENDBRANCH  46  60
BRANCH  47  71
ATOM     71  C   UNL A   1      40.525  29.175  29.225  1.00  0.00     0.023 A 
ATOM     72  C   UNL A   1      40.206  29.087  30.589  1.00  0.00     0.031 A 
ATOM     73  C   UNL A   1      39.469  29.329  28.311  1.00  0.00     0.131 A 
ATOM     74  C   UNL A   1      38.862  29.109  30.997  1.00  0.00     0.055 A 
ATOM     75  C   UNL A   1      38.137  29.403  28.724  1.00  0.00     0.041 A 
ATOM     76  F   UNL A   1      39.717  29.419  26.994  1.00  0.00    -0.206 F 
ATOM     77  C   UNL A   1      37.828  29.278  30.074  1.00  0.00     0.022 A 
BRANCH  74  78
ATOM     78  S   UNL A   1      38.479  28.825  32.747  1.00  0.00     0.124 S 
ATOM     79  O   UNL A   1      39.758  29.119  33.384  1.00  0.00    -0.237 OA
ATOM     80  O   UNL A   1      37.409  29.789  32.981  1.00  0.00    -0.237 OA
ATOM     81  O   UNL A   1      38.070  27.423  32.783  1.00  0.00    -0.744 OA
ENDBRANCH  74  78
ENDBRANCH  47  71
BRANCH  59  82
ATOM     82  C   UNL A   1      45.920  33.596  29.108  1.00  0.00     0.023 A 
ATOM     83  C   UNL A   1      45.793  34.628  28.163  1.00  0.00     0.031 A 
ATOM     84  C   UNL A   1      46.191  33.951  30.442  1.00  0.00     0.131 A 
ATOM     85  C   UNL A   1      46.000  35.961  28.551  1.00  0.00     0.055 A 
ATOM     86  C   UNL A   1      46.331  35.284  30.835  1.00  0.00     0.041 A 
ATOM     87  F   UNL A   1      46.325  33.008  31.389  1.00  0.00    -0.206 F 
ATOM     88  C   UNL A   1      46.251  36.296  29.884  1.00  0.00     0.022 A 
BRANCH  85  89
ATOM     89  S   UNL A   1      46.043  37.244  27.270  1.00  0.00     0.124 S 
ATOM     90  O   UNL A   1      44.675  37.751  27.302  1.00  0.00    -0.237 OA
ATOM     91  O   UNL A   1      47.070  38.152  27.771  1.00  0.00    -0.237 OA
ATOM     92  O   UNL A   1      46.404  36.510  26.058  1.00  0.00    -0.744 OA
ENDBRANCH  85  89
ENDBRANCH  59  82
ENDBRANCH  33  34
ENDBRANCH  26  28
ENDBRANCH  25  26
ENDBRANCH  24  25
ENDBRANCH  23  24
ENDBRANCH  22  23
ENDBRANCH   1  22
TORSDOF 22
ENDMDL
