MODEL 1
REMARK VINA RESULT:     -10.5      0.000      0.000
REMARK SMILES COCc1cc(OCC(=O)OCCOCCOC(=O)c2ccc(-c3c4nc(c(-c5cc(S(=O)(=O)[O-])ccc5F)c5ccc([nH]5)c(-c5cc(S(=O)(=O)[O-])ccc5F)c5nc(c(-c6cc(S(=O)(=O)[O-])ccc6F)c6ccc3[nH]6)C=C5)C=C4)cc2)nc(Nc2cccc(C)c2C)n1
REMARK SMILES IDX 13 1 12 2 11 3 9 4 10 5 8 6 7 7 6 8 4 9 5 10 94 11 84 12
REMARK SMILES IDX 83 13 3 14 2 15 1 16 85 17 86 19 87 20 92 21 88 22 90 23
REMARK SMILES IDX 93 24 89 25 91 26 14 27 15 28 16 29 17 30 18 31 19 32 20 33
REMARK SMILES IDX 21 34 82 35 22 36 81 37 23 38 24 39 25 40 75 41 26 42 80 43
REMARK SMILES IDX 74 44 76 45 27 46 79 47 73 48 72 49 28 51 60 52 40 53 59 54
REMARK SMILES IDX 41 55 44 56 58 57 77 58 42 59 43 60 57 62 78 63 45 64 29 65
REMARK SMILES IDX 30 66 38 67 31 68 37 69 39 70 36 71 32 72 33 73 34 74 35 75
REMARK SMILES IDX 61 76 62 77 70 78 63 79 69 80 71 81 68 82 64 83 65 84 66 85
REMARK SMILES IDX 67 86 46 87 47 88 55 89 48 90 54 91 56 92 53 93 49 94 50 95
REMARK SMILES IDX 51 96 52 97
REMARK H PARENT 85 18 76 50 44 61
REMARK Flexibility Score: inf
ROOT
ATOM      1  C   UNL A   1      31.478  27.843  26.010  1.00  0.00     0.202 C 
ENDROOT
BRANCH   1   2
ATOM      2  C   UNL A   1      30.679  26.533  26.089  1.00  0.00     0.261 C 
BRANCH   2   3
ATOM      3  O   UNL A   1      30.792  25.698  24.916  1.00  0.00    -0.461 OA
BRANCH   3   4
ATOM      4  C   UNL A   1      30.815  24.355  25.139  1.00  0.00     0.344 C 
ATOM      5  O   UNL A   1      30.754  23.496  24.264  1.00  0.00    -0.248 OA
BRANCH   4   6
ATOM      6  C   UNL A   1      30.905  23.980  26.622  1.00  0.00     0.353 C 
BRANCH   6   7
ATOM      7  O   UNL A   1      32.158  23.746  27.226  1.00  0.00    -0.466 OA
BRANCH   7   8
ATOM      8  C   UNL A   1      33.148  23.094  26.552  1.00  0.00     0.219 A 
ATOM      9  C   UNL A   1      35.291  22.778  25.648  1.00  0.00     0.076 A 
ATOM     10  C   UNL A   1      34.319  23.659  26.091  1.00  0.00     0.095 A 
ATOM     11  N   UNL A   1      35.068  21.454  25.618  1.00  0.00    -0.215 NA
ATOM     12  C   UNL A   1      33.880  20.985  26.013  1.00  0.00     0.230 A 
ATOM     13  N   UNL A   1      32.907  21.772  26.478  1.00  0.00    -0.177 NA
BRANCH   9  14
ATOM     14  C   UNL A   1      36.735  23.217  25.481  1.00  0.00     0.216 C 
BRANCH  14  15
ATOM     15  O   UNL A   1      37.695  22.489  26.251  1.00  0.00    -0.378 OA
ATOM     16  C   UNL A   1      38.424  21.531  25.484  1.00  0.00     0.195 C 
ENDBRANCH  14  15
ENDBRANCH   9  14
BRANCH  12  17
ATOM     17  N   UNL A   1      33.660  19.613  26.002  1.00  0.00    -0.324 N 
ATOM     18  H   UNL A   1      33.507  19.186  26.875  1.00  0.00     0.170 HD
BRANCH  17  19
ATOM     19  C   UNL A   1      33.635  18.771  24.880  1.00  0.00     0.044 A 
ATOM     20  C   UNL A   1      34.409  17.604  24.924  1.00  0.00     0.026 A 
ATOM     21  C   UNL A   1      32.909  19.080  23.702  1.00  0.00    -0.025 A 
ATOM     22  C   UNL A   1      34.404  16.699  23.867  1.00  0.00     0.002 A 
ATOM     23  C   UNL A   1      32.890  18.148  22.635  1.00  0.00    -0.046 A 
ATOM     24  C   UNL A   1      32.147  20.376  23.573  1.00  0.00     0.047 C 
ATOM     25  C   UNL A   1      33.639  16.965  22.735  1.00  0.00     0.004 A 
ATOM     26  C   UNL A   1      32.104  18.357  21.365  1.00  0.00     0.044 C 
ENDBRANCH  17  19
ENDBRANCH  12  17
ENDBRANCH   7   8
ENDBRANCH   6   7
ENDBRANCH   4   6
ENDBRANCH   3   4
ENDBRANCH   2   3
ENDBRANCH   1   2
BRANCH   1  27
ATOM     27  O   UNL A   1      31.027  28.842  25.097  1.00  0.00    -0.374 OA
BRANCH  27  28
ATOM     28  C   UNL A   1      31.761  30.057  25.044  1.00  0.00     0.202 C 
BRANCH  28  29
ATOM     29  C   UNL A   1      31.598  31.055  26.193  1.00  0.00     0.261 C 
BRANCH  29  30
ATOM     30  O   UNL A   1      32.551  30.892  27.237  1.00  0.00    -0.460 OA
BRANCH  30  31
ATOM     31  C   UNL A   1      33.267  32.007  27.490  1.00  0.00     0.338 C 
ATOM     32  O   UNL A   1      32.870  33.166  27.505  1.00  0.00    -0.246 OA
BRANCH  31  33
ATOM     33  C   UNL A   1      34.609  31.611  27.907  1.00  0.00     0.060 A 
ATOM     34  C   UNL A   1      34.803  30.273  28.265  1.00  0.00     0.016 A 
ATOM     35  C   UNL A   1      35.635  32.554  28.000  1.00  0.00     0.016 A 
ATOM     36  C   UNL A   1      36.027  29.880  28.784  1.00  0.00     0.010 A 
ATOM     37  C   UNL A   1      36.861  32.157  28.523  1.00  0.00     0.010 A 
ATOM     38  C   UNL A   1      37.041  30.831  28.954  1.00  0.00    -0.014 A 
BRANCH  38  39
ATOM     39  C   UNL A   1      38.230  30.478  29.754  1.00  0.00     0.031 A 
ATOM     40  C   UNL A   1      39.234  29.538  29.153  1.00  0.00     0.074 A 
ATOM     41  C   UNL A   1      38.403  31.012  30.973  1.00  0.00     0.049 A 
ATOM     42  N   UNL A   1      40.316  29.032  29.679  1.00  0.00    -0.248 NA
ATOM     43  C   UNL A   1      38.971  29.099  27.772  1.00  0.00     0.031 C 
ATOM     44  C   UNL A   1      37.496  31.970  31.607  1.00  0.00     0.029 A 
ATOM     45  N   UNL A   1      39.392  30.818  31.898  1.00  0.00    -0.354 N 
ATOM     46  C   UNL A   1      40.860  28.208  28.700  1.00  0.00     0.074 A 
ATOM     47  C   UNL A   1      39.964  28.250  27.564  1.00  0.00     0.031 C 
ATOM     48  C   UNL A   1      37.970  32.274  32.827  1.00  0.00     0.029 A 
ATOM     49  C   UNL A   1      39.182  31.497  33.074  1.00  0.00     0.049 A 
ATOM     50  H   UNL A   1      40.178  30.248  31.737  1.00  0.00     0.167 HD
ATOM     51  C   UNL A   1      42.007  27.490  28.750  1.00  0.00     0.034 A 
ATOM     52  C   UNL A   1      39.878  31.463  34.227  1.00  0.00     0.034 A 
ATOM     53  C   UNL A   1      42.864  27.463  29.910  1.00  0.00     0.049 A 
ATOM     54  C   UNL A   1      41.110  30.594  34.292  1.00  0.00     0.074 A 
ATOM     55  C   UNL A   1      44.055  26.785  30.090  1.00  0.00     0.029 A 
ATOM     56  N   UNL A   1      42.607  28.139  31.098  1.00  0.00    -0.354 N 
ATOM     57  N   UNL A   1      41.623  29.819  33.361  1.00  0.00    -0.248 NA
ATOM     58  C   UNL A   1      41.860  30.597  35.553  1.00  0.00     0.031 C 
ATOM     59  C   UNL A   1      44.476  26.988  31.407  1.00  0.00     0.029 A 
ATOM     60  C   UNL A   1      43.599  27.867  32.026  1.00  0.00     0.049 A 
ATOM     61  H   UNL A   1      41.832  28.726  31.257  1.00  0.00     0.167 HD
ATOM     62  C   UNL A   1      42.778  29.273  33.913  1.00  0.00     0.074 A 
ATOM     63  C   UNL A   1      42.884  29.808  35.255  1.00  0.00     0.031 C 
ATOM     64  C   UNL A   1      43.675  28.418  33.359  1.00  0.00     0.034 A 
BRANCH  51  65
ATOM     65  C   UNL A   1      42.349  26.639  27.551  1.00  0.00     0.023 A 
ATOM     66  C   UNL A   1      42.112  25.252  27.529  1.00  0.00     0.031 A 
ATOM     67  C   UNL A   1      42.969  27.215  26.427  1.00  0.00     0.131 A 
ATOM     68  C   UNL A   1      42.566  24.480  26.448  1.00  0.00     0.055 A 
ATOM     69  C   UNL A   1      43.339  26.454  25.316  1.00  0.00     0.041 A 
ATOM     70  F   UNL A   1      43.247  28.528  26.398  1.00  0.00    -0.206 F 
ATOM     71  C   UNL A   1      43.153  25.075  25.329  1.00  0.00     0.022 A 
BRANCH  68  72
ATOM     72  S   UNL A   1      42.519  22.672  26.593  1.00  0.00     0.124 S 
ATOM     73  O   UNL A   1      42.195  22.274  25.225  1.00  0.00    -0.237 OA
ATOM     74  O   UNL A   1      43.868  22.357  27.048  1.00  0.00    -0.237 OA
ATOM     75  O   UNL A   1      41.459  22.435  27.571  1.00  0.00    -0.744 OA
ENDBRANCH  68  72
ENDBRANCH  51  65
BRANCH  52  76
ATOM     76  C   UNL A   1      39.412  32.243  35.407  1.00  0.00     0.023 A 
ATOM     77  C   UNL A   1      39.823  33.568  35.613  1.00  0.00     0.031 A 
ATOM     78  C   UNL A   1      38.556  31.663  36.363  1.00  0.00     0.131 A 
ATOM     79  C   UNL A   1      39.408  34.259  36.764  1.00  0.00     0.055 A 
ATOM     80  C   UNL A   1      38.104  32.370  37.478  1.00  0.00     0.041 A 
ATOM     81  F   UNL A   1      38.129  30.398  36.213  1.00  0.00    -0.206 F 
ATOM     82  C   UNL A   1      38.540  33.674  37.690  1.00  0.00     0.022 A 
BRANCH  79  83
ATOM     83  S   UNL A   1      40.082  35.913  37.074  1.00  0.00     0.124 S 
ATOM     84  O   UNL A   1      41.505  35.629  37.227  1.00  0.00    -0.237 OA
ATOM     85  O   UNL A   1      39.696  36.628  35.862  1.00  0.00    -0.237 OA
ATOM     86  O   UNL A   1      39.396  36.337  38.292  1.00  0.00    -0.744 OA
ENDBRANCH  79  83
ENDBRANCH  52  76
BRANCH  64  87
ATOM     87  C   UNL A   1      44.884  28.059  34.186  1.00  0.00     0.023 A 
ATOM     88  C   UNL A   1      44.918  26.915  35.001  1.00  0.00     0.031 A 
ATOM     89  C   UNL A   1      46.034  28.868  34.127  1.00  0.00     0.131 A 
ATOM     90  C   UNL A   1      46.066  26.632  35.754  1.00  0.00     0.055 A 
ATOM     91  C   UNL A   1      47.193  28.548  34.832  1.00  0.00     0.041 A 
ATOM     92  F   UNL A   1      46.053  29.974  33.365  1.00  0.00    -0.206 F 
ATOM     93  C   UNL A   1      47.211  27.429  35.658  1.00  0.00     0.022 A 
BRANCH  90  94
ATOM     94  S   UNL A   1      46.024  25.241  36.917  1.00  0.00     0.124 S 
ATOM     95  O   UNL A   1      44.765  25.469  37.616  1.00  0.00    -0.237 OA
ATOM     96  O   UNL A   1      46.060  24.086  36.026  1.00  0.00    -0.237 OA
ATOM     97  O   UNL A   1      47.227  25.436  37.726  1.00  0.00    -0.744 OA
ENDBRANCH  90  94
ENDBRANCH  64  87
ENDBRANCH  38  39
ENDBRANCH  31  33
ENDBRANCH  30  31
ENDBRANCH  29  30
ENDBRANCH  28  29
ENDBRANCH  27  28
ENDBRANCH   1  27
TORSDOF 23
ENDMDL
MODEL 2
REMARK VINA RESULT:     -10.5      0.757      7.612
REMARK SMILES COCc1cc(OCC(=O)OCCOCCOC(=O)c2ccc(-c3c4nc(c(-c5cc(S(=O)(=O)[O-])ccc5F)c5ccc([nH]5)c(-c5cc(S(=O)(=O)[O-])ccc5F)c5nc(c(-c6cc(S(=O)(=O)[O-])ccc6F)c6ccc3[nH]6)C=C5)C=C4)cc2)nc(Nc2cccc(C)c2C)n1
REMARK SMILES IDX 13 1 12 2 11 3 9 4 10 5 8 6 7 7 6 8 4 9 5 10 94 11 84 12
REMARK SMILES IDX 83 13 3 14 2 15 1 16 85 17 86 19 87 20 92 21 88 22 90 23
REMARK SMILES IDX 93 24 89 25 91 26 14 27 15 28 16 29 17 30 18 31 19 32 20 33
REMARK SMILES IDX 21 34 82 35 22 36 81 37 23 38 24 39 25 40 75 41 26 42 80 43
REMARK SMILES IDX 74 44 76 45 27 46 79 47 73 48 72 49 28 51 60 52 40 53 59 54
REMARK SMILES IDX 41 55 44 56 58 57 77 58 42 59 43 60 57 62 78 63 45 64 29 65
REMARK SMILES IDX 30 66 38 67 31 68 37 69 39 70 36 71 32 72 33 73 34 74 35 75
REMARK SMILES IDX 61 76 62 77 70 78 63 79 69 80 71 81 68 82 64 83 65 84 66 85
REMARK SMILES IDX 67 86 46 87 47 88 55 89 48 90 54 91 56 92 53 93 49 94 50 95
REMARK SMILES IDX 51 96 52 97
REMARK H PARENT 85 18 76 50 44 61
REMARK Flexibility Score: inf
ROOT
ATOM      1  C   UNL A   1      31.859  27.814  26.039  1.00  0.00     0.202 C 
ENDROOT
BRANCH   1   2
ATOM      2  C   UNL A   1      30.886  26.626  26.081  1.00  0.00     0.261 C 
BRANCH   2   3
ATOM      3  O   UNL A   1      30.946  25.769  24.920  1.00  0.00    -0.461 OA
BRANCH   3   4
ATOM      4  C   UNL A   1      30.673  24.452  25.135  1.00  0.00     0.344 C 
ATOM      5  O   UNL A   1      30.455  23.627  24.253  1.00  0.00    -0.248 OA
BRANCH   4   6
ATOM      6  C   UNL A   1      30.636  24.067  26.618  1.00  0.00     0.353 C 
BRANCH   6   7
ATOM      7  O   UNL A   1      31.833  23.832  27.326  1.00  0.00    -0.466 OA
BRANCH   7   8
ATOM      8  C   UNL A   1      32.841  23.102  26.771  1.00  0.00     0.219 A 
ATOM      9  C   UNL A   1      35.045  22.618  26.123  1.00  0.00     0.076 A 
ATOM     10  C   UNL A   1      34.097  23.573  26.450  1.00  0.00     0.095 A 
ATOM     11  N   UNL A   1      34.726  21.314  26.065  1.00  0.00    -0.215 NA
ATOM     12  C   UNL A   1      33.468  20.940  26.318  1.00  0.00     0.230 A 
ATOM     13  N   UNL A   1      32.510  21.801  26.668  1.00  0.00    -0.177 NA
BRANCH   9  14
ATOM     14  C   UNL A   1      36.527  22.945  26.126  1.00  0.00     0.216 C 
BRANCH  14  15
ATOM     15  O   UNL A   1      37.405  21.835  25.918  1.00  0.00    -0.378 OA
ATOM     16  C   UNL A   1      37.564  21.491  24.542  1.00  0.00     0.195 C 
ENDBRANCH  14  15
ENDBRANCH   9  14
BRANCH  12  17
ATOM     17  N   UNL A   1      33.147  19.588  26.279  1.00  0.00    -0.324 N 
ATOM     18  H   UNL A   1      32.837  19.186  27.122  1.00  0.00     0.170 HD
BRANCH  17  19
ATOM     19  C   UNL A   1      33.220  18.735  25.168  1.00  0.00     0.044 A 
ATOM     20  C   UNL A   1      33.869  17.503  25.334  1.00  0.00     0.026 A 
ATOM     21  C   UNL A   1      32.716  19.089  23.892  1.00  0.00    -0.025 A 
ATOM     22  C   UNL A   1      33.946  16.587  24.290  1.00  0.00     0.002 A 
ATOM     23  C   UNL A   1      32.779  18.146  22.835  1.00  0.00    -0.046 A 
ATOM     24  C   UNL A   1      32.104  20.446  23.644  1.00  0.00     0.047 C 
ATOM     25  C   UNL A   1      33.393  16.903  23.053  1.00  0.00     0.004 A 
ATOM     26  C   UNL A   1      32.222  18.405  21.458  1.00  0.00     0.044 C 
ENDBRANCH  17  19
ENDBRANCH  12  17
ENDBRANCH   7   8
ENDBRANCH   6   7
ENDBRANCH   4   6
ENDBRANCH   3   4
ENDBRANCH   2   3
ENDBRANCH   1   2
BRANCH   1  27
ATOM     27  O   UNL A   1      31.467  28.968  25.297  1.00  0.00    -0.374 OA
BRANCH  27  28
ATOM     28  C   UNL A   1      32.279  30.128  25.417  1.00  0.00     0.202 C 
BRANCH  28  29
ATOM     29  C   UNL A   1      31.911  31.165  26.481  1.00  0.00     0.261 C 
BRANCH  29  30
ATOM     30  O   UNL A   1      32.745  31.130  27.633  1.00  0.00    -0.460 OA
BRANCH  30  31
ATOM     31  C   UNL A   1      33.649  32.130  27.672  1.00  0.00     0.338 C 
ATOM     32  O   UNL A   1      33.442  33.333  27.580  1.00  0.00    -0.246 OA
BRANCH  31  33
ATOM     33  C   UNL A   1      34.954  31.562  28.003  1.00  0.00     0.060 A 
ATOM     34  C   UNL A   1      35.008  30.191  28.274  1.00  0.00     0.016 A 
ATOM     35  C   UNL A   1      36.083  32.377  28.102  1.00  0.00     0.016 A 
ATOM     36  C   UNL A   1      36.200  29.632  28.712  1.00  0.00     0.010 A 
ATOM     37  C   UNL A   1      37.276  31.814  28.544  1.00  0.00     0.010 A 
ATOM     38  C   UNL A   1      37.322  30.452  28.888  1.00  0.00    -0.014 A 
BRANCH  38  39
ATOM     39  C   UNL A   1      38.493  29.920  29.611  1.00  0.00     0.031 A 
ATOM     40  C   UNL A   1      38.780  30.455  30.984  1.00  0.00     0.074 A 
ATOM     41  C   UNL A   1      39.254  28.969  29.049  1.00  0.00     0.049 A 
ATOM     42  N   UNL A   1      39.778  30.193  31.784  1.00  0.00    -0.248 NA
ATOM     43  C   UNL A   1      37.813  31.426  31.520  1.00  0.00     0.031 C 
ATOM     44  C   UNL A   1      39.014  28.364  27.739  1.00  0.00     0.029 A 
ATOM     45  N   UNL A   1      40.388  28.351  29.504  1.00  0.00    -0.354 N 
ATOM     46  C   UNL A   1      39.567  30.975  32.915  1.00  0.00     0.074 A 
ATOM     47  C   UNL A   1      38.368  31.750  32.677  1.00  0.00     0.031 C 
ATOM     48  C   UNL A   1      39.980  27.465  27.490  1.00  0.00     0.029 A 
ATOM     49  C   UNL A   1      40.929  27.468  28.601  1.00  0.00     0.049 A 
ATOM     50  H   UNL A   1      40.777  28.523  30.391  1.00  0.00     0.167 HD
ATOM     51  C   UNL A   1      40.308  31.030  34.047  1.00  0.00     0.034 A 
ATOM     52  C   UNL A   1      42.080  26.769  28.660  1.00  0.00     0.034 A 
ATOM     53  C   UNL A   1      41.506  30.251  34.237  1.00  0.00     0.049 A 
ATOM     54  C   UNL A   1      42.934  26.905  29.896  1.00  0.00     0.074 A 
ATOM     55  C   UNL A   1      42.344  30.206  35.335  1.00  0.00     0.029 A 
ATOM     56  N   UNL A   1      42.046  29.387  33.289  1.00  0.00    -0.354 N 
ATOM     57  N   UNL A   1      42.728  27.642  30.965  1.00  0.00    -0.248 NA
ATOM     58  C   UNL A   1      44.168  26.113  29.941  1.00  0.00     0.031 C 
ATOM     59  C   UNL A   1      43.426  29.378  35.024  1.00  0.00     0.029 A 
ATOM     60  C   UNL A   1      43.221  28.832  33.765  1.00  0.00     0.049 A 
ATOM     61  H   UNL A   1      41.648  29.197  32.408  1.00  0.00     0.167 HD
ATOM     62  C   UNL A   1      43.788  27.373  31.825  1.00  0.00     0.074 A 
ATOM     63  C   UNL A   1      44.630  26.406  31.150  1.00  0.00     0.031 C 
ATOM     64  C   UNL A   1      44.039  27.868  33.064  1.00  0.00     0.034 A 
BRANCH  51  65
ATOM     65  C   UNL A   1      39.873  32.003  35.117  1.00  0.00     0.023 A 
ATOM     66  C   UNL A   1      40.304  33.342  35.125  1.00  0.00     0.031 A 
ATOM     67  C   UNL A   1      39.054  31.572  36.176  1.00  0.00     0.131 A 
ATOM     68  C   UNL A   1      39.984  34.176  36.209  1.00  0.00     0.055 A 
ATOM     69  C   UNL A   1      38.667  32.431  37.207  1.00  0.00     0.041 A 
ATOM     70  F   UNL A   1      38.633  30.299  36.240  1.00  0.00    -0.206 F 
ATOM     71  C   UNL A   1      39.146  33.738  37.236  1.00  0.00     0.022 A 
BRANCH  68  72
ATOM     72  S   UNL A   1      40.806  35.788  36.335  1.00  0.00     0.124 S 
ATOM     73  O   UNL A   1      39.693  36.706  36.103  1.00  0.00    -0.237 OA
ATOM     74  O   UNL A   1      41.342  35.764  37.691  1.00  0.00    -0.237 OA
ATOM     75  O   UNL A   1      41.803  35.748  35.268  1.00  0.00    -0.744 OA
ENDBRANCH  68  72
ENDBRANCH  51  65
BRANCH  52  76
ATOM     76  C   UNL A   1      42.499  25.917  27.512  1.00  0.00     0.023 A 
ATOM     77  C   UNL A   1      42.095  24.578  27.415  1.00  0.00     0.031 A 
ATOM     78  C   UNL A   1      43.330  26.430  26.498  1.00  0.00     0.131 A 
ATOM     79  C   UNL A   1      42.551  23.785  26.348  1.00  0.00     0.055 A 
ATOM     80  C   UNL A   1      43.738  25.654  25.413  1.00  0.00     0.041 A 
ATOM     81  F   UNL A   1      43.743  27.707  26.541  1.00  0.00    -0.206 F 
ATOM     82  C   UNL A   1      43.357  24.319  25.339  1.00  0.00     0.022 A 
BRANCH  79  83
ATOM     83  S   UNL A   1      42.135  22.021  26.338  1.00  0.00     0.124 S 
ATOM     84  O   UNL A   1      40.711  22.053  26.023  1.00  0.00    -0.237 OA
ATOM     85  O   UNL A   1      43.014  21.510  25.291  1.00  0.00    -0.237 OA
ATOM     86  O   UNL A   1      42.465  21.586  27.693  1.00  0.00    -0.744 OA
ENDBRANCH  79  83
ENDBRANCH  52  76
BRANCH  64  87
ATOM     87  C   UNL A   1      45.241  27.322  33.793  1.00  0.00     0.023 A 
ATOM     88  C   UNL A   1      45.167  26.169  34.593  1.00  0.00     0.031 A 
ATOM     89  C   UNL A   1      46.488  27.956  33.654  1.00  0.00     0.131 A 
ATOM     90  C   UNL A   1      46.314  25.708  35.254  1.00  0.00     0.055 A 
ATOM     91  C   UNL A   1      47.638  27.458  34.265  1.00  0.00     0.041 A 
ATOM     92  F   UNL A   1      46.612  29.063  32.902  1.00  0.00    -0.206 F 
ATOM     93  C   UNL A   1      47.553  26.332  35.078  1.00  0.00     0.022 A 
BRANCH  90  94
ATOM     94  S   UNL A   1      46.156  24.315  36.404  1.00  0.00     0.124 S 
ATOM     95  O   UNL A   1      46.628  23.198  35.593  1.00  0.00    -0.237 OA
ATOM     96  O   UNL A   1      47.026  24.716  37.505  1.00  0.00    -0.237 OA
ATOM     97  O   UNL A   1      44.728  24.292  36.721  1.00  0.00    -0.744 OA
ENDBRANCH  90  94
ENDBRANCH  64  87
ENDBRANCH  38  39
ENDBRANCH  31  33
ENDBRANCH  30  31
ENDBRANCH  29  30
ENDBRANCH  28  29
ENDBRANCH  27  28
ENDBRANCH   1  27
TORSDOF 23
ENDMDL
MODEL 3
REMARK VINA RESULT:     -10.3      5.568      9.831
REMARK SMILES COCc1cc(OCC(=O)OCCOCCOC(=O)c2ccc(-c3c4nc(c(-c5cc(S(=O)(=O)[O-])ccc5F)c5ccc([nH]5)c(-c5cc(S(=O)(=O)[O-])ccc5F)c5nc(c(-c6cc(S(=O)(=O)[O-])ccc6F)c6ccc3[nH]6)C=C5)C=C4)cc2)nc(Nc2cccc(C)c2C)n1
REMARK SMILES IDX 13 1 12 2 11 3 9 4 10 5 8 6 7 7 6 8 4 9 5 10 94 11 84 12
REMARK SMILES IDX 83 13 3 14 2 15 1 16 85 17 86 19 87 20 92 21 88 22 90 23
REMARK SMILES IDX 93 24 89 25 91 26 14 27 15 28 16 29 17 30 18 31 19 32 20 33
REMARK SMILES IDX 21 34 82 35 22 36 81 37 23 38 24 39 25 40 75 41 26 42 80 43
REMARK SMILES IDX 74 44 76 45 27 46 79 47 73 48 72 49 28 51 60 52 40 53 59 54
REMARK SMILES IDX 41 55 44 56 58 57 77 58 42 59 43 60 57 62 78 63 45 64 29 65
REMARK SMILES IDX 30 66 38 67 31 68 37 69 39 70 36 71 32 72 33 73 34 74 35 75
REMARK SMILES IDX 61 76 62 77 70 78 63 79 69 80 71 81 68 82 64 83 65 84 66 85
REMARK SMILES IDX 67 86 46 87 47 88 55 89 48 90 54 91 56 92 53 93 49 94 50 95
REMARK SMILES IDX 51 96 52 97
REMARK H PARENT 85 18 76 50 44 61
REMARK Flexibility Score: inf
ROOT
ATOM      1  C   UNL A   1      41.522  20.872  26.148  1.00  0.00     0.202 C 
ENDROOT
BRANCH   1   2
ATOM      2  C   UNL A   1      40.183  21.260  26.793  1.00  0.00     0.261 C 
BRANCH   2   3
ATOM      3  O   UNL A   1      39.300  22.002  25.924  1.00  0.00    -0.461 OA
BRANCH   3   4
ATOM      4  C   UNL A   1      38.874  23.208  26.393  1.00  0.00     0.344 C 
ATOM      5  O   UNL A   1      39.576  24.015  26.995  1.00  0.00    -0.248 OA
BRANCH   4   6
ATOM      6  C   UNL A   1      37.391  23.483  26.124  1.00  0.00     0.353 C 
BRANCH   6   7
ATOM      7  O   UNL A   1      36.802  23.097  24.901  1.00  0.00    -0.466 OA
BRANCH   7   8
ATOM      8  C   UNL A   1      35.478  22.777  24.834  1.00  0.00     0.219 A 
ATOM      9  C   UNL A   1      33.610  21.371  24.625  1.00  0.00     0.076 A 
ATOM     10  C   UNL A   1      34.958  21.581  24.386  1.00  0.00     0.095 A 
ATOM     11  N   UNL A   1      32.853  22.316  25.206  1.00  0.00    -0.215 NA
ATOM     12  C   UNL A   1      33.412  23.481  25.546  1.00  0.00     0.230 A 
ATOM     13  N   UNL A   1      34.710  23.742  25.373  1.00  0.00    -0.177 NA
BRANCH   9  14
ATOM     14  C   UNL A   1      33.002  19.983  24.540  1.00  0.00     0.216 C 
BRANCH  14  15
ATOM     15  O   UNL A   1      33.095  19.194  25.730  1.00  0.00    -0.378 OA
ATOM     16  C   UNL A   1      32.610  17.862  25.564  1.00  0.00     0.195 C 
ENDBRANCH  14  15
ENDBRANCH   9  14
BRANCH  12  17
ATOM     17  N   UNL A   1      32.629  24.447  26.168  1.00  0.00    -0.324 N 
ATOM     18  H   UNL A   1      32.585  24.411  27.150  1.00  0.00     0.170 HD
BRANCH  17  19
ATOM     19  C   UNL A   1      31.895  25.467  25.545  1.00  0.00     0.044 A 
ATOM     20  C   UNL A   1      30.711  25.108  24.886  1.00  0.00     0.026 A 
ATOM     21  C   UNL A   1      32.328  26.817  25.512  1.00  0.00    -0.025 A 
ATOM     22  C   UNL A   1      29.908  26.070  24.281  1.00  0.00     0.002 A 
ATOM     23  C   UNL A   1      31.498  27.796  24.911  1.00  0.00    -0.046 A 
ATOM     24  C   UNL A   1      33.648  27.227  26.117  1.00  0.00     0.047 C 
ATOM     25  C   UNL A   1      30.294  27.406  24.304  1.00  0.00     0.004 A 
ATOM     26  C   UNL A   1      31.842  29.264  24.873  1.00  0.00     0.044 C 
ENDBRANCH  17  19
ENDBRANCH  12  17
ENDBRANCH   7   8
ENDBRANCH   6   7
ENDBRANCH   4   6
ENDBRANCH   3   4
ENDBRANCH   2   3
ENDBRANCH   1   2
BRANCH   1  27
ATOM     27  O   UNL A   1      41.611  19.593  25.521  1.00  0.00    -0.374 OA
BRANCH  27  28
ATOM     28  C   UNL A   1      42.590  18.690  26.016  1.00  0.00     0.202 C 
BRANCH  28  29
ATOM     29  C   UNL A   1      43.887  18.516  25.222  1.00  0.00     0.261 C 
BRANCH  29  30
ATOM     30  O   UNL A   1      44.120  19.546  24.268  1.00  0.00    -0.460 OA
BRANCH  30  31
ATOM     31  C   UNL A   1      45.306  20.167  24.427  1.00  0.00     0.338 C 
ATOM     32  O   UNL A   1      46.410  19.782  24.062  1.00  0.00    -0.246 OA
BRANCH  31  33
ATOM     33  C   UNL A   1      45.063  21.493  24.990  1.00  0.00     0.060 A 
ATOM     34  C   UNL A   1      44.722  22.517  24.101  1.00  0.00     0.016 A 
ATOM     35  C   UNL A   1      45.228  21.729  26.356  1.00  0.00     0.016 A 
ATOM     36  C   UNL A   1      44.602  23.815  24.573  1.00  0.00     0.010 A 
ATOM     37  C   UNL A   1      45.109  23.032  26.827  1.00  0.00     0.010 A 
ATOM     38  C   UNL A   1      44.839  24.079  25.928  1.00  0.00    -0.014 A 
BRANCH  38  39
ATOM     39  C   UNL A   1      44.986  25.479  26.371  1.00  0.00     0.031 A 
ATOM     40  C   UNL A   1      46.354  26.095  26.328  1.00  0.00     0.074 A 
ATOM     41  C   UNL A   1      43.911  26.173  26.775  1.00  0.00     0.049 A 
ATOM     42  N   UNL A   1      46.745  27.276  26.722  1.00  0.00    -0.248 NA
ATOM     43  C   UNL A   1      47.430  25.255  25.775  1.00  0.00     0.031 C 
ATOM     44  C   UNL A   1      42.540  25.661  26.801  1.00  0.00     0.029 A 
ATOM     45  N   UNL A   1      43.803  27.452  27.250  1.00  0.00    -0.354 N 
ATOM     46  C   UNL A   1      48.113  27.321  26.475  1.00  0.00     0.074 A 
ATOM     47  C   UNL A   1      48.489  26.032  25.937  1.00  0.00     0.031 C 
ATOM     48  C   UNL A   1      41.727  26.617  27.278  1.00  0.00     0.029 A 
ATOM     49  C   UNL A   1      42.526  27.787  27.633  1.00  0.00     0.049 A 
ATOM     50  H   UNL A   1      44.565  28.072  27.310  1.00  0.00     0.167 HD
ATOM     51  C   UNL A   1      48.969  28.351  26.677  1.00  0.00     0.034 A 
ATOM     52  C   UNL A   1      42.071  28.904  28.234  1.00  0.00     0.034 A 
ATOM     53  C   UNL A   1      48.555  29.616  27.232  1.00  0.00     0.049 A 
ATOM     54  C   UNL A   1      43.054  30.010  28.525  1.00  0.00     0.074 A 
ATOM     55  C   UNL A   1      49.316  30.742  27.480  1.00  0.00     0.029 A 
ATOM     56  N   UNL A   1      47.259  29.913  27.640  1.00  0.00    -0.354 N 
ATOM     57  N   UNL A   1      44.347  30.049  28.286  1.00  0.00    -0.248 NA
ATOM     58  C   UNL A   1      42.523  31.223  29.157  1.00  0.00     0.031 C 
ATOM     59  C   UNL A   1      48.501  31.689  28.107  1.00  0.00     0.029 A 
ATOM     60  C   UNL A   1      47.206  31.192  28.168  1.00  0.00     0.049 A 
ATOM     61  H   UNL A   1      46.489  29.304  27.563  1.00  0.00     0.167 HD
ATOM     62  C   UNL A   1      44.775  31.305  28.704  1.00  0.00     0.074 A 
ATOM     63  C   UNL A   1      43.603  31.992  29.209  1.00  0.00     0.031 C 
ATOM     64  C   UNL A   1      46.019  31.849  28.665  1.00  0.00     0.034 A 
BRANCH  51  65
ATOM     65  C   UNL A   1      50.426  28.118  26.358  1.00  0.00     0.023 A 
ATOM     66  C   UNL A   1      50.953  28.343  25.073  1.00  0.00     0.031 A 
ATOM     67  C   UNL A   1      51.294  27.613  27.343  1.00  0.00     0.131 A 
ATOM     68  C   UNL A   1      52.281  27.988  24.787  1.00  0.00     0.055 A 
ATOM     69  C   UNL A   1      52.638  27.343  27.074  1.00  0.00     0.041 A 
ATOM     70  F   UNL A   1      50.846  27.350  28.580  1.00  0.00    -0.206 F 
ATOM     71  C   UNL A   1      53.135  27.515  25.785  1.00  0.00     0.022 A 
BRANCH  68  72
ATOM     72  S   UNL A   1      52.830  28.005  23.058  1.00  0.00     0.124 S 
ATOM     73  O   UNL A   1      52.778  26.584  22.718  1.00  0.00    -0.237 OA
ATOM     74  O   UNL A   1      51.830  28.852  22.417  1.00  0.00    -0.237 OA
ATOM     75  O   UNL A   1      54.175  28.571  23.131  1.00  0.00    -0.744 OA
ENDBRANCH  68  72
ENDBRANCH  51  65
BRANCH  52  76
ATOM     76  C   UNL A   1      40.637  29.013  28.624  1.00  0.00     0.023 A 
ATOM     77  C   UNL A   1      40.237  28.908  29.964  1.00  0.00     0.031 A 
ATOM     78  C   UNL A   1      39.638  29.207  27.652  1.00  0.00     0.131 A 
ATOM     79  C   UNL A   1      38.873  28.963  30.294  1.00  0.00     0.055 A 
ATOM     80  C   UNL A   1      38.288  29.312  27.989  1.00  0.00     0.041 A 
ATOM     81  F   UNL A   1      39.966  29.317  26.354  1.00  0.00    -0.206 F 
ATOM     82  C   UNL A   1      37.897  29.178  29.317  1.00  0.00     0.022 A 
BRANCH  79  83
ATOM     83  S   UNL A   1      38.383  28.670  32.014  1.00  0.00     0.124 S 
ATOM     84  O   UNL A   1      38.608  27.235  32.147  1.00  0.00    -0.237 OA
ATOM     85  O   UNL A   1      39.305  29.536  32.742  1.00  0.00    -0.237 OA
ATOM     86  O   UNL A   1      36.983  29.087  32.045  1.00  0.00    -0.744 OA
ENDBRANCH  79  83
ENDBRANCH  52  76
BRANCH  64  87
ATOM     87  C   UNL A   1      46.160  33.278  29.124  1.00  0.00     0.023 A 
ATOM     88  C   UNL A   1      46.054  34.360  28.234  1.00  0.00     0.031 A 
ATOM     89  C   UNL A   1      46.374  33.555  30.486  1.00  0.00     0.131 A 
ATOM     90  C   UNL A   1      46.200  35.670  28.713  1.00  0.00     0.055 A 
ATOM     91  C   UNL A   1      46.458  34.861  30.965  1.00  0.00     0.041 A 
ATOM     92  F   UNL A   1      46.485  32.556  31.377  1.00  0.00    -0.206 F 
ATOM     93  C   UNL A   1      46.379  35.928  30.075  1.00  0.00     0.022 A 
BRANCH  90  94
ATOM     94  S   UNL A   1      46.218  37.037  27.522  1.00  0.00     0.124 S 
ATOM     95  O   UNL A   1      45.015  37.774  27.889  1.00  0.00    -0.237 OA
ATOM     96  O   UNL A   1      47.486  37.696  27.819  1.00  0.00    -0.237 OA
ATOM     97  O   UNL A   1      46.161  36.361  26.225  1.00  0.00    -0.744 OA
ENDBRANCH  90  94
ENDBRANCH  64  87
ENDBRANCH  38  39
ENDBRANCH  31  33
ENDBRANCH  30  31
ENDBRANCH  29  30
ENDBRANCH  28  29
ENDBRANCH  27  28
ENDBRANCH   1  27
TORSDOF 23
ENDMDL
