MODEL 1
REMARK VINA RESULT:     -10.2      0.000      0.000
REMARK SMILES COCC[C@H](NC(=O)c1ccc(Br)nc1)C(=O)OCCOCCOC(=O)c1ccc(-c2c3nc(c(-c4cc(S(=O)(=O)[O-])ccc4F)c4ccc([nH]4)c(-c4cc(S(=O)(=O)[O-])ccc4F)c4nc(c(-c5cc(S(=O)(=O)[O-])ccc5F)c5ccc2[nH]5)C=C4)C=C3)cc1
REMARK SMILES IDX 21 1 20 2 19 3 18 4 16 5 17 6 5 7 4 8 3 9 2 10 1 11 6 12
REMARK SMILES IDX 7 13 8 15 9 16 10 17 15 18 11 19 14 20 12 21 13 22 22 23
REMARK SMILES IDX 23 24 24 25 25 26 26 27 27 28 28 29 89 30 29 31 88 32 30 33
REMARK SMILES IDX 31 34 32 35 82 36 33 37 87 38 81 39 83 40 34 41 86 42 80 43
REMARK SMILES IDX 79 44 35 46 67 47 47 48 66 49 48 50 51 51 65 52 84 53 49 54
REMARK SMILES IDX 50 55 64 57 85 58 52 59 36 60 37 61 45 62 38 63 44 64 46 65
REMARK SMILES IDX 43 66 39 67 40 68 41 69 42 70 68 71 69 72 77 73 70 74 76 75
REMARK SMILES IDX 78 76 75 77 71 78 72 79 73 80 74 81 53 82 54 83 62 84 55 85
REMARK SMILES IDX 61 86 63 87 60 88 56 89 57 90 58 91 59 92
REMARK H PARENT 6 14 83 45 51 56
REMARK Flexibility Score: inf
ROOT
ATOM      1  O   UNL A   1      35.773  20.846  25.354  1.00  0.00    -0.374 OA
ENDROOT
BRANCH   1   2
ATOM      2  C   UNL A   1      34.885  21.589  24.517  1.00  0.00     0.202 C 
BRANCH   2   3
ATOM      3  C   UNL A   1      35.495  22.764  23.745  1.00  0.00     0.261 C 
BRANCH   3   4
ATOM      4  O   UNL A   1      34.572  23.860  23.636  1.00  0.00    -0.462 OA
BRANCH   4   5
ATOM      5  C   UNL A   1      33.609  23.719  22.686  1.00  0.00     0.328 C 
ATOM      6  O   UNL A   1      33.765  23.164  21.603  1.00  0.00    -0.250 OA
BRANCH   5   7
ATOM      7  C   UNL A   1      32.219  24.149  23.200  1.00  0.00     0.194 C 
BRANCH   7   8
ATOM      8  C   UNL A   1      31.376  22.936  23.612  1.00  0.00     0.065 C 
BRANCH   8   9
ATOM      9  C   UNL A   1      31.400  22.694  25.127  1.00  0.00     0.162 C 
BRANCH   9  10
ATOM     10  O   UNL A   1      30.407  23.468  25.805  1.00  0.00    -0.385 OA
ATOM     11  C   UNL A   1      29.927  22.875  27.002  1.00  0.00     0.194 C 
ENDBRANCH   9  10
ENDBRANCH   8   9
ENDBRANCH   7   8
BRANCH   7  12
ATOM     12  N   UNL A   1      31.483  25.166  22.431  1.00  0.00    -0.338 N 
ATOM     13  C   UNL A   1      31.407  26.527  22.546  1.00  0.00     0.253 C 
ATOM     14  H   UNL A   1      30.942  24.798  21.695  1.00  0.00     0.164 HD
ATOM     15  O   UNL A   1      30.716  27.174  21.768  1.00  0.00    -0.269 OA
BRANCH  13  16
ATOM     16  C   UNL A   1      32.118  27.220  23.621  1.00  0.00     0.058 A 
ATOM     17  C   UNL A   1      33.409  27.709  23.454  1.00  0.00     0.018 A 
ATOM     18  C   UNL A   1      31.461  27.456  24.816  1.00  0.00     0.126 A 
ATOM     19  C   UNL A   1      34.037  28.332  24.530  1.00  0.00     0.037 A 
ATOM     20  N   UNL A   1      32.050  28.061  25.874  1.00  0.00    -0.249 NA
ATOM     21  C   UNL A   1      33.327  28.477  25.715  1.00  0.00     0.106 A 
ATOM     22  Br  UNL A   1      34.184  29.291  27.196  1.00  0.00    -0.029 Br
ENDBRANCH  13  16
ENDBRANCH   7  12
ENDBRANCH   5   7
ENDBRANCH   4   5
ENDBRANCH   3   4
ENDBRANCH   2   3
ENDBRANCH   1   2
BRANCH   1  23
ATOM     23  C   UNL A   1      36.459  19.732  24.786  1.00  0.00     0.202 C 
BRANCH  23  24
ATOM     24  C   UNL A   1      37.955  19.572  25.089  1.00  0.00     0.261 C 
BRANCH  24  25
ATOM     25  O   UNL A   1      38.597  20.819  25.402  1.00  0.00    -0.460 OA
BRANCH  25  26
ATOM     26  C   UNL A   1      39.673  20.697  26.219  1.00  0.00     0.338 C 
ATOM     27  O   UNL A   1      40.386  19.709  26.343  1.00  0.00    -0.246 OA
BRANCH  26  28
ATOM     28  C   UNL A   1      40.026  21.993  26.824  1.00  0.00     0.060 A 
ATOM     29  C   UNL A   1      39.390  23.130  26.310  1.00  0.00     0.016 A 
ATOM     30  C   UNL A   1      41.042  22.115  27.774  1.00  0.00     0.016 A 
ATOM     31  C   UNL A   1      39.816  24.398  26.689  1.00  0.00     0.010 A 
ATOM     32  C   UNL A   1      41.476  23.394  28.147  1.00  0.00     0.010 A 
ATOM     33  C   UNL A   1      40.897  24.540  27.569  1.00  0.00    -0.014 A 
BRANCH  33  34
ATOM     34  C   UNL A   1      41.518  25.881  27.713  1.00  0.00     0.031 A 
ATOM     35  C   UNL A   1      40.782  26.943  28.488  1.00  0.00     0.074 A 
ATOM     36  C   UNL A   1      42.756  26.119  27.243  1.00  0.00     0.049 A 
ATOM     37  N   UNL A   1      41.157  28.158  28.798  1.00  0.00    -0.248 NA
ATOM     38  C   UNL A   1      39.444  26.583  28.978  1.00  0.00     0.031 C 
ATOM     39  C   UNL A   1      43.580  25.156  26.515  1.00  0.00     0.029 A 
ATOM     40  N   UNL A   1      43.540  27.242  27.321  1.00  0.00    -0.354 N 
ATOM     41  C   UNL A   1      40.105  28.706  29.525  1.00  0.00     0.074 A 
ATOM     42  C   UNL A   1      39.060  27.705  29.568  1.00  0.00     0.031 C 
ATOM     43  C   UNL A   1      44.758  25.731  26.214  1.00  0.00     0.029 A 
ATOM     44  C   UNL A   1      44.762  27.107  26.706  1.00  0.00     0.049 A 
ATOM     45  H   UNL A   1      43.254  28.068  27.776  1.00  0.00     0.167 HD
ATOM     46  C   UNL A   1      40.021  29.926  30.112  1.00  0.00     0.034 A 
ATOM     47  C   UNL A   1      45.763  27.998  26.548  1.00  0.00     0.034 A 
ATOM     48  C   UNL A   1      41.065  30.921  30.047  1.00  0.00     0.049 A 
ATOM     49  C   UNL A   1      45.620  29.373  27.152  1.00  0.00     0.074 A 
ATOM     50  C   UNL A   1      41.086  32.188  30.603  1.00  0.00     0.029 A 
ATOM     51  N   UNL A   1      42.269  30.766  29.372  1.00  0.00    -0.354 N 
ATOM     52  N   UNL A   1      44.624  29.875  27.848  1.00  0.00    -0.248 NA
ATOM     53  C   UNL A   1      46.745  30.297  26.963  1.00  0.00     0.031 C 
ATOM     54  C   UNL A   1      42.271  32.822  30.211  1.00  0.00     0.029 A 
ATOM     55  C   UNL A   1      43.027  31.924  29.474  1.00  0.00     0.049 A 
ATOM     56  H   UNL A   1      42.545  29.954  28.890  1.00  0.00     0.167 HD
ATOM     57  C   UNL A   1      45.019  31.163  28.202  1.00  0.00     0.074 A 
ATOM     58  C   UNL A   1      46.349  31.351  27.660  1.00  0.00     0.031 C 
ATOM     59  C   UNL A   1      44.347  32.104  28.915  1.00  0.00     0.034 A 
BRANCH  46  60
ATOM     60  C   UNL A   1      38.732  30.262  30.827  1.00  0.00     0.023 A 
ATOM     61  C   UNL A   1      37.730  31.040  30.221  1.00  0.00     0.031 A 
ATOM     62  C   UNL A   1      38.520  29.829  32.147  1.00  0.00     0.131 A 
ATOM     63  C   UNL A   1      36.597  31.421  30.959  1.00  0.00     0.055 A 
ATOM     64  C   UNL A   1      37.357  30.147  32.849  1.00  0.00     0.041 A 
ATOM     65  F   UNL A   1      39.452  29.102  32.785  1.00  0.00    -0.206 F 
ATOM     66  C   UNL A   1      36.393  30.959  32.261  1.00  0.00     0.022 A 
BRANCH  63  67
ATOM     67  S   UNL A   1      35.464  32.645  30.243  1.00  0.00     0.124 S 
ATOM     68  O   UNL A   1      34.943  31.923  29.086  1.00  0.00    -0.237 OA
ATOM     69  O   UNL A   1      34.520  32.875  31.331  1.00  0.00    -0.237 OA
ATOM     70  O   UNL A   1      36.335  33.774  29.924  1.00  0.00    -0.744 OA
ENDBRANCH  63  67
ENDBRANCH  46  60
BRANCH  47  71
ATOM     71  C   UNL A   1      46.978  27.635  25.763  1.00  0.00     0.023 A 
ATOM     72  C   UNL A   1      47.083  27.938  24.396  1.00  0.00     0.031 A 
ATOM     73  C   UNL A   1      48.032  26.923  26.364  1.00  0.00     0.131 A 
ATOM     74  C   UNL A   1      48.196  27.492  23.665  1.00  0.00     0.055 A 
ATOM     75  C   UNL A   1      49.160  26.527  25.645  1.00  0.00     0.041 A 
ATOM     76  F   UNL A   1      47.979  26.606  27.668  1.00  0.00    -0.206 F 
ATOM     77  C   UNL A   1      49.240  26.799  24.283  1.00  0.00     0.022 A 
BRANCH  74  78
ATOM     78  S   UNL A   1      48.220  27.757  21.871  1.00  0.00     0.124 S 
ATOM     79  O   UNL A   1      48.403  26.399  21.370  1.00  0.00    -0.237 OA
ATOM     80  O   UNL A   1      46.912  28.357  21.635  1.00  0.00    -0.237 OA
ATOM     81  O   UNL A   1      49.358  28.653  21.674  1.00  0.00    -0.744 OA
ENDBRANCH  74  78
ENDBRANCH  47  71
BRANCH  59  82
ATOM     82  C   UNL A   1      45.069  33.405  29.180  1.00  0.00     0.023 A 
ATOM     83  C   UNL A   1      44.915  34.523  28.341  1.00  0.00     0.031 A 
ATOM     84  C   UNL A   1      45.947  33.516  30.273  1.00  0.00     0.131 A 
ATOM     85  C   UNL A   1      45.680  35.677  28.566  1.00  0.00     0.055 A 
ATOM     86  C   UNL A   1      46.656  34.690  30.531  1.00  0.00     0.041 A 
ATOM     87  F   UNL A   1      46.134  32.482  31.108  1.00  0.00    -0.206 F 
ATOM     88  C   UNL A   1      46.537  35.774  29.665  1.00  0.00     0.022 A 
BRANCH  85  89
ATOM     89  S   UNL A   1      45.624  37.014  27.340  1.00  0.00     0.124 S 
ATOM     90  O   UNL A   1      46.663  36.608  26.400  1.00  0.00    -0.237 OA
ATOM     91  O   UNL A   1      44.252  36.930  26.850  1.00  0.00    -0.237 OA
ATOM     92  O   UNL A   1      45.929  38.211  28.123  1.00  0.00    -0.744 OA
ENDBRANCH  85  89
ENDBRANCH  59  82
ENDBRANCH  33  34
ENDBRANCH  26  28
ENDBRANCH  25  26
ENDBRANCH  24  25
ENDBRANCH  23  24
ENDBRANCH   1  23
TORSDOF 22
ENDMDL
MODEL 2
REMARK VINA RESULT:      -9.9      2.095      7.863
REMARK SMILES COCC[C@H](NC(=O)c1ccc(Br)nc1)C(=O)OCCOCCOC(=O)c1ccc(-c2c3nc(c(-c4cc(S(=O)(=O)[O-])ccc4F)c4ccc([nH]4)c(-c4cc(S(=O)(=O)[O-])ccc4F)c4nc(c(-c5cc(S(=O)(=O)[O-])ccc5F)c5ccc2[nH]5)C=C4)C=C3)cc1
REMARK SMILES IDX 21 1 20 2 19 3 18 4 16 5 17 6 5 7 4 8 3 9 2 10 1 11 6 12
REMARK SMILES IDX 7 13 8 15 9 16 10 17 15 18 11 19 14 20 12 21 13 22 22 23
REMARK SMILES IDX 23 24 24 25 25 26 26 27 27 28 28 29 89 30 29 31 88 32 30 33
REMARK SMILES IDX 31 34 32 35 82 36 33 37 87 38 81 39 83 40 34 41 86 42 80 43
REMARK SMILES IDX 79 44 35 46 67 47 47 48 66 49 48 50 51 51 65 52 84 53 49 54
REMARK SMILES IDX 50 55 64 57 85 58 52 59 36 60 37 61 45 62 38 63 44 64 46 65
REMARK SMILES IDX 43 66 39 67 40 68 41 69 42 70 68 71 69 72 77 73 70 74 76 75
REMARK SMILES IDX 78 76 75 77 71 78 72 79 73 80 74 81 53 82 54 83 62 84 55 85
REMARK SMILES IDX 61 86 63 87 60 88 56 89 57 90 58 91 59 92
REMARK H PARENT 6 14 83 45 51 56
REMARK Flexibility Score: inf
ROOT
ATOM      1  O   UNL A   1      34.950  20.482  25.393  1.00  0.00    -0.374 OA
ENDROOT
BRANCH   1   2
ATOM      2  C   UNL A   1      34.165  21.154  24.407  1.00  0.00     0.202 C 
BRANCH   2   3
ATOM      3  C   UNL A   1      34.140  22.685  24.481  1.00  0.00     0.261 C 
BRANCH   3   4
ATOM      4  O   UNL A   1      33.742  23.266  23.228  1.00  0.00    -0.462 OA
BRANCH   4   5
ATOM      5  C   UNL A   1      32.432  23.622  23.140  1.00  0.00     0.328 C 
ATOM      6  O   UNL A   1      31.507  22.849  22.916  1.00  0.00    -0.250 OA
BRANCH   5   7
ATOM      7  C   UNL A   1      32.200  25.088  23.562  1.00  0.00     0.194 C 
BRANCH   7   8
ATOM      8  C   UNL A   1      33.365  25.986  23.127  1.00  0.00     0.065 C 
BRANCH   8   9
ATOM      9  C   UNL A   1      33.940  26.804  24.291  1.00  0.00     0.162 C 
BRANCH   9  10
ATOM     10  O   UNL A   1      34.243  28.145  23.900  1.00  0.00    -0.385 OA
ATOM     11  C   UNL A   1      33.924  28.441  22.548  1.00  0.00     0.194 C 
ENDBRANCH   9  10
ENDBRANCH   8   9
ENDBRANCH   7   8
BRANCH   7  12
ATOM     12  N   UNL A   1      31.715  25.344  24.929  1.00  0.00    -0.338 N 
ATOM     13  C   UNL A   1      30.826  26.254  25.432  1.00  0.00     0.253 C 
ATOM     14  H   UNL A   1      32.105  24.749  25.610  1.00  0.00     0.164 HD
ATOM     15  O   UNL A   1      30.575  26.271  26.631  1.00  0.00    -0.269 OA
BRANCH  13  16
ATOM     16  C   UNL A   1      30.198  27.239  24.552  1.00  0.00     0.058 A 
ATOM     17  C   UNL A   1      30.774  28.481  24.306  1.00  0.00     0.018 A 
ATOM     18  C   UNL A   1      29.030  26.900  23.891  1.00  0.00     0.126 A 
ATOM     19  C   UNL A   1      30.104  29.382  23.482  1.00  0.00     0.037 A 
ATOM     20  N   UNL A   1      28.364  27.757  23.084  1.00  0.00    -0.249 NA
ATOM     21  C   UNL A   1      28.907  28.983  22.902  1.00  0.00     0.106 A 
ATOM     22  Br  UNL A   1      27.970  30.213  21.808  1.00  0.00    -0.029 Br
ENDBRANCH  13  16
ENDBRANCH   7  12
ENDBRANCH   5   7
ENDBRANCH   4   5
ENDBRANCH   3   4
ENDBRANCH   2   3
ENDBRANCH   1   2
BRANCH   1  23
ATOM     23  C   UNL A   1      36.144  19.825  24.970  1.00  0.00     0.202 C 
BRANCH  23  24
ATOM     24  C   UNL A   1      37.358  20.691  24.612  1.00  0.00     0.261 C 
BRANCH  24  25
ATOM     25  O   UNL A   1      37.759  21.560  25.685  1.00  0.00    -0.460 OA
BRANCH  25  26
ATOM     26  C   UNL A   1      39.056  21.418  26.057  1.00  0.00     0.338 C 
ATOM     27  O   UNL A   1      39.825  20.537  25.694  1.00  0.00    -0.246 OA
BRANCH  26  28
ATOM     28  C   UNL A   1      39.516  22.587  26.825  1.00  0.00     0.060 A 
ATOM     29  C   UNL A   1      38.902  23.814  26.545  1.00  0.00     0.016 A 
ATOM     30  C   UNL A   1      40.605  22.520  27.697  1.00  0.00     0.016 A 
ATOM     31  C   UNL A   1      39.417  24.990  27.080  1.00  0.00     0.010 A 
ATOM     32  C   UNL A   1      41.129  23.707  28.227  1.00  0.00     0.010 A 
ATOM     33  C   UNL A   1      40.566  24.950  27.881  1.00  0.00    -0.014 A 
BRANCH  33  34
ATOM     34  C   UNL A   1      41.263  26.227  28.179  1.00  0.00     0.031 A 
ATOM     35  C   UNL A   1      42.668  26.424  27.672  1.00  0.00     0.074 A 
ATOM     36  C   UNL A   1      40.623  27.229  28.808  1.00  0.00     0.049 A 
ATOM     37  N   UNL A   1      43.443  27.475  27.753  1.00  0.00    -0.248 NA
ATOM     38  C   UNL A   1      43.278  25.279  26.979  1.00  0.00     0.031 C 
ATOM     39  C   UNL A   1      39.249  27.169  29.307  1.00  0.00     0.029 A 
ATOM     40  N   UNL A   1      41.039  28.498  29.122  1.00  0.00    -0.354 N 
ATOM     41  C   UNL A   1      44.629  27.122  27.117  1.00  0.00     0.074 A 
ATOM     42  C   UNL A   1      44.486  25.743  26.698  1.00  0.00     0.031 C 
ATOM     43  C   UNL A   1      38.937  28.353  29.864  1.00  0.00     0.029 A 
ATOM     44  C   UNL A   1      40.092  29.243  29.783  1.00  0.00     0.049 A 
ATOM     45  H   UNL A   1      41.934  28.842  28.894  1.00  0.00     0.167 HD
ATOM     46  C   UNL A   1      45.733  27.879  26.893  1.00  0.00     0.034 A 
ATOM     47  C   UNL A   1      40.157  30.497  30.276  1.00  0.00     0.034 A 
ATOM     48  C   UNL A   1      45.870  29.248  27.332  1.00  0.00     0.049 A 
ATOM     49  C   UNL A   1      41.420  31.298  30.075  1.00  0.00     0.074 A 
ATOM     50  C   UNL A   1      46.940  30.107  27.160  1.00  0.00     0.029 A 
ATOM     51  N   UNL A   1      44.907  29.954  28.043  1.00  0.00    -0.354 N 
ATOM     52  N   UNL A   1      42.531  30.957  29.461  1.00  0.00    -0.248 NA
ATOM     53  C   UNL A   1      41.430  32.662  30.619  1.00  0.00     0.031 C 
ATOM     54  C   UNL A   1      46.654  31.307  27.822  1.00  0.00     0.029 A 
ATOM     55  C   UNL A   1      45.371  31.226  28.342  1.00  0.00     0.049 A 
ATOM     56  H   UNL A   1      44.024  29.602  28.298  1.00  0.00     0.167 HD
ATOM     57  C   UNL A   1      43.359  32.075  29.523  1.00  0.00     0.074 A 
ATOM     58  C   UNL A   1      42.611  33.105  30.214  1.00  0.00     0.031 C 
ATOM     59  C   UNL A   1      44.620  32.240  29.047  1.00  0.00     0.034 A 
BRANCH  46  60
ATOM     60  C   UNL A   1      46.894  27.216  26.188  1.00  0.00     0.023 A 
ATOM     61  C   UNL A   1      47.886  26.512  26.894  1.00  0.00     0.031 A 
ATOM     62  C   UNL A   1      47.031  27.324  24.793  1.00  0.00     0.131 A 
ATOM     63  C   UNL A   1      49.004  26.007  26.213  1.00  0.00     0.055 A 
ATOM     64  C   UNL A   1      48.106  26.752  24.112  1.00  0.00     0.041 A 
ATOM     65  F   UNL A   1      46.127  28.004  24.069  1.00  0.00    -0.206 F 
ATOM     66  C   UNL A   1      49.109  26.101  24.824  1.00  0.00     0.022 A 
BRANCH  63  67
ATOM     67  S   UNL A   1      50.390  25.349  27.183  1.00  0.00     0.124 S 
ATOM     68  O   UNL A   1      51.338  24.984  26.134  1.00  0.00    -0.237 OA
ATOM     69  O   UNL A   1      50.763  26.489  28.013  1.00  0.00    -0.237 OA
ATOM     70  O   UNL A   1      49.801  24.220  27.901  1.00  0.00    -0.744 OA
ENDBRANCH  63  67
ENDBRANCH  46  60
BRANCH  47  71
ATOM     71  C   UNL A   1      39.008  31.069  31.034  1.00  0.00     0.023 A 
ATOM     72  C   UNL A   1      37.835  31.484  30.382  1.00  0.00     0.031 A 
ATOM     73  C   UNL A   1      39.094  31.264  32.425  1.00  0.00     0.131 A 
ATOM     74  C   UNL A   1      36.814  32.112  31.114  1.00  0.00     0.055 A 
ATOM     75  C   UNL A   1      38.055  31.843  33.155  1.00  0.00     0.041 A 
ATOM     76  F   UNL A   1      40.195  30.889  33.095  1.00  0.00    -0.206 F 
ATOM     77  C   UNL A   1      36.911  32.283  32.497  1.00  0.00     0.022 A 
BRANCH  74  78
ATOM     78  S   UNL A   1      35.387  32.782  30.216  1.00  0.00     0.124 S 
ATOM     79  O   UNL A   1      35.196  31.784  29.170  1.00  0.00    -0.237 OA
ATOM     80  O   UNL A   1      34.366  32.825  31.257  1.00  0.00    -0.237 OA
ATOM     81  O   UNL A   1      35.857  34.087  29.755  1.00  0.00    -0.744 OA
ENDBRANCH  74  78
ENDBRANCH  47  71
BRANCH  59  82
ATOM     82  C   UNL A   1      45.246  33.604  29.226  1.00  0.00     0.023 A 
ATOM     83  C   UNL A   1      45.080  34.627  28.277  1.00  0.00     0.031 A 
ATOM     84  C   UNL A   1      46.047  33.870  30.351  1.00  0.00     0.131 A 
ATOM     85  C   UNL A   1      45.760  35.844  28.433  1.00  0.00     0.055 A 
ATOM     86  C   UNL A   1      46.669  35.107  30.535  1.00  0.00     0.041 A 
ATOM     87  F   UNL A   1      46.243  32.931  31.290  1.00  0.00    -0.206 F 
ATOM     88  C   UNL A   1      46.541  36.096  29.564  1.00  0.00     0.022 A 
BRANCH  85  89
ATOM     89  S   UNL A   1      45.702  37.055  27.084  1.00  0.00     0.124 S 
ATOM     90  O   UNL A   1      46.285  36.305  25.976  1.00  0.00    -0.237 OA
ATOM     91  O   UNL A   1      44.274  37.339  26.981  1.00  0.00    -0.237 OA
ATOM     92  O   UNL A   1      46.519  38.162  27.580  1.00  0.00    -0.744 OA
ENDBRANCH  85  89
ENDBRANCH  59  82
ENDBRANCH  33  34
ENDBRANCH  26  28
ENDBRANCH  25  26
ENDBRANCH  24  25
ENDBRANCH  23  24
ENDBRANCH   1  23
TORSDOF 22
ENDMDL
MODEL 3
REMARK VINA RESULT:      -9.9      5.123      9.946
REMARK SMILES COCC[C@H](NC(=O)c1ccc(Br)nc1)C(=O)OCCOCCOC(=O)c1ccc(-c2c3nc(c(-c4cc(S(=O)(=O)[O-])ccc4F)c4ccc([nH]4)c(-c4cc(S(=O)(=O)[O-])ccc4F)c4nc(c(-c5cc(S(=O)(=O)[O-])ccc5F)c5ccc2[nH]5)C=C4)C=C3)cc1
REMARK SMILES IDX 21 1 20 2 19 3 18 4 16 5 17 6 5 7 4 8 3 9 2 10 1 11 6 12
REMARK SMILES IDX 7 13 8 15 9 16 10 17 15 18 11 19 14 20 12 21 13 22 22 23
REMARK SMILES IDX 23 24 24 25 25 26 26 27 27 28 28 29 89 30 29 31 88 32 30 33
REMARK SMILES IDX 31 34 32 35 82 36 33 37 87 38 81 39 83 40 34 41 86 42 80 43
REMARK SMILES IDX 79 44 35 46 67 47 47 48 66 49 48 50 51 51 65 52 84 53 49 54
REMARK SMILES IDX 50 55 64 57 85 58 52 59 36 60 37 61 45 62 38 63 44 64 46 65
REMARK SMILES IDX 43 66 39 67 40 68 41 69 42 70 68 71 69 72 77 73 70 74 76 75
REMARK SMILES IDX 78 76 75 77 71 78 72 79 73 80 74 81 53 82 54 83 62 84 55 85
REMARK SMILES IDX 61 86 63 87 60 88 56 89 57 90 58 91 59 92
REMARK H PARENT 6 14 83 45 51 56
REMARK Flexibility Score: inf
ROOT
ATOM      1  O   UNL A   1      32.695  27.796  27.010  1.00  0.00    -0.374 OA
ENDROOT
BRANCH   1   2
ATOM      2  C   UNL A   1      32.475  26.815  25.995  1.00  0.00     0.202 C 
BRANCH   2   3
ATOM      3  C   UNL A   1      33.036  25.414  26.266  1.00  0.00     0.261 C 
BRANCH   3   4
ATOM      4  O   UNL A   1      34.368  25.269  25.744  1.00  0.00    -0.462 OA
BRANCH   4   5
ATOM      5  C   UNL A   1      34.731  23.999  25.418  1.00  0.00     0.328 C 
ATOM      6  O   UNL A   1      35.790  23.468  25.733  1.00  0.00    -0.250 OA
BRANCH   5   7
ATOM      7  C   UNL A   1      33.569  23.210  24.778  1.00  0.00     0.194 C 
BRANCH   7   8
ATOM      8  C   UNL A   1      33.180  21.997  25.634  1.00  0.00     0.065 C 
BRANCH   8   9
ATOM      9  C   UNL A   1      31.989  21.227  25.049  1.00  0.00     0.162 C 
BRANCH   9  10
ATOM     10  O   UNL A   1      32.213  19.815  25.057  1.00  0.00    -0.385 OA
ATOM     11  C   UNL A   1      33.572  19.443  24.884  1.00  0.00     0.194 C 
ENDBRANCH   9  10
ENDBRANCH   8   9
ENDBRANCH   7   8
BRANCH   7  12
ATOM     12  N   UNL A   1      33.632  22.937  23.333  1.00  0.00    -0.338 N 
ATOM     13  C   UNL A   1      33.303  23.692  22.241  1.00  0.00     0.253 C 
ATOM     14  H   UNL A   1      33.977  22.042  23.109  1.00  0.00     0.164 HD
ATOM     15  O   UNL A   1      33.452  23.240  21.112  1.00  0.00    -0.269 OA
BRANCH  13  16
ATOM     16  C   UNL A   1      32.733  25.028  22.410  1.00  0.00     0.058 A 
ATOM     17  C   UNL A   1      33.502  26.179  22.272  1.00  0.00     0.018 A 
ATOM     18  C   UNL A   1      31.375  25.154  22.646  1.00  0.00     0.126 A 
ATOM     19  C   UNL A   1      32.900  27.419  22.476  1.00  0.00     0.037 A 
ATOM     20  N   UNL A   1      30.769  26.347  22.845  1.00  0.00    -0.249 NA
ATOM     21  C   UNL A   1      31.543  27.454  22.766  1.00  0.00     0.106 A 
ATOM     22  Br  UNL A   1      30.722  29.132  23.081  1.00  0.00    -0.029 Br
ENDBRANCH  13  16
ENDBRANCH   7  12
ENDBRANCH   5   7
ENDBRANCH   4   5
ENDBRANCH   3   4
ENDBRANCH   2   3
ENDBRANCH   1   2
BRANCH   1  23
ATOM     23  C   UNL A   1      31.623  28.680  27.334  1.00  0.00     0.202 C 
BRANCH  23  24
ATOM     24  C   UNL A   1      31.711  30.133  26.850  1.00  0.00     0.261 C 
BRANCH  24  25
ATOM     25  O   UNL A   1      33.047  30.519  26.484  1.00  0.00    -0.460 OA
BRANCH  25  26
ATOM     26  C   UNL A   1      33.564  31.513  27.248  1.00  0.00     0.338 C 
ATOM     27  O   UNL A   1      32.971  32.505  27.652  1.00  0.00    -0.246 OA
BRANCH  26  28
ATOM     28  C   UNL A   1      34.915  31.166  27.722  1.00  0.00     0.060 A 
ATOM     29  C   UNL A   1      35.169  29.815  27.985  1.00  0.00     0.016 A 
ATOM     30  C   UNL A   1      35.867  32.142  28.028  1.00  0.00     0.016 A 
ATOM     31  C   UNL A   1      36.348  29.438  28.622  1.00  0.00     0.010 A 
ATOM     32  C   UNL A   1      37.048  31.762  28.678  1.00  0.00     0.010 A 
ATOM     33  C   UNL A   1      37.271  30.414  29.021  1.00  0.00    -0.014 A 
BRANCH  33  34
ATOM     34  C   UNL A   1      38.354  30.020  29.956  1.00  0.00     0.031 A 
ATOM     35  C   UNL A   1      39.394  29.034  29.490  1.00  0.00     0.074 A 
ATOM     36  C   UNL A   1      38.464  30.600  31.165  1.00  0.00     0.049 A 
ATOM     37  N   UNL A   1      40.462  28.596  30.105  1.00  0.00    -0.248 NA
ATOM     38  C   UNL A   1      39.200  28.468  28.146  1.00  0.00     0.031 C 
ATOM     39  C   UNL A   1      37.541  31.597  31.708  1.00  0.00     0.029 A 
ATOM     40  N   UNL A   1      39.407  30.443  32.149  1.00  0.00    -0.354 N 
ATOM     41  C   UNL A   1      41.072  27.709  29.224  1.00  0.00     0.074 A 
ATOM     42  C   UNL A   1      40.227  27.638  28.050  1.00  0.00     0.031 C 
ATOM     43  C   UNL A   1      37.968  31.963  32.929  1.00  0.00     0.029 A 
ATOM     44  C   UNL A   1      39.175  31.213  33.264  1.00  0.00     0.049 A 
ATOM     45  H   UNL A   1      40.178  29.835  32.063  1.00  0.00     0.167 HD
ATOM     46  C   UNL A   1      42.234  27.025  29.373  1.00  0.00     0.034 A 
ATOM     47  C   UNL A   1      39.856  31.291  34.426  1.00  0.00     0.034 A 
ATOM     48  C   UNL A   1      43.058  27.092  30.557  1.00  0.00     0.049 A 
ATOM     49  C   UNL A   1      41.110  30.470  34.597  1.00  0.00     0.074 A 
ATOM     50  C   UNL A   1      44.253  26.443  30.815  1.00  0.00     0.029 A 
ATOM     51  N   UNL A   1      42.766  27.846  31.687  1.00  0.00    -0.354 N 
ATOM     52  N   UNL A   1      41.683  29.643  33.750  1.00  0.00    -0.248 NA
ATOM     53  C   UNL A   1      41.819  30.605  35.876  1.00  0.00     0.031 C 
ATOM     54  C   UNL A   1      44.648  26.751  32.123  1.00  0.00     0.029 A 
ATOM     55  C   UNL A   1      43.741  27.654  32.654  1.00  0.00     0.049 A 
ATOM     56  H   UNL A   1      41.980  28.430  31.787  1.00  0.00     0.167 HD
ATOM     57  C   UNL A   1      42.833  29.184  34.386  1.00  0.00     0.074 A 
ATOM     58  C   UNL A   1      42.882  29.841  35.677  1.00  0.00     0.031 C 
ATOM     59  C   UNL A   1      43.769  28.305  33.945  1.00  0.00     0.034 A 
BRANCH  46  60
ATOM     60  C   UNL A   1      42.645  26.106  28.246  1.00  0.00     0.023 A 
ATOM     61  C   UNL A   1      41.989  24.884  28.009  1.00  0.00     0.031 A 
ATOM     62  C   UNL A   1      43.732  26.440  27.419  1.00  0.00     0.131 A 
ATOM     63  C   UNL A   1      42.473  24.010  27.023  1.00  0.00     0.055 A 
ATOM     64  C   UNL A   1      44.159  25.601  26.390  1.00  0.00     0.041 A 
ATOM     65  F   UNL A   1      44.411  27.582  27.612  1.00  0.00    -0.206 F 
ATOM     66  C   UNL A   1      43.538  24.371  26.195  1.00  0.00     0.022 A 
BRANCH  63  67
ATOM     67  S   UNL A   1      41.780  22.335  26.929  1.00  0.00     0.124 S 
ATOM     68  O   UNL A   1      42.101  21.959  25.555  1.00  0.00    -0.237 OA
ATOM     69  O   UNL A   1      42.516  21.631  27.973  1.00  0.00    -0.237 OA
ATOM     70  O   UNL A   1      40.357  22.537  27.197  1.00  0.00    -0.744 OA
ENDBRANCH  63  67
ENDBRANCH  46  60
BRANCH  47  71
ATOM     71  C   UNL A   1      39.357  32.155  35.534  1.00  0.00     0.023 A 
ATOM     72  C   UNL A   1      39.789  33.484  35.677  1.00  0.00     0.031 A 
ATOM     73  C   UNL A   1      38.481  31.638  36.506  1.00  0.00     0.131 A 
ATOM     74  C   UNL A   1      39.379  34.236  36.790  1.00  0.00     0.055 A 
ATOM     75  C   UNL A   1      38.036  32.406  37.583  1.00  0.00     0.041 A 
ATOM     76  F   UNL A   1      38.041  30.373  36.418  1.00  0.00    -0.206 F 
ATOM     77  C   UNL A   1      38.496  33.710  37.736  1.00  0.00     0.022 A 
BRANCH  74  78
ATOM     78  S   UNL A   1      40.085  35.890  37.030  1.00  0.00     0.124 S 
ATOM     79  O   UNL A   1      39.400  36.336  38.237  1.00  0.00    -0.237 OA
ATOM     80  O   UNL A   1      41.507  35.595  37.171  1.00  0.00    -0.237 OA
ATOM     81  O   UNL A   1      39.717  36.598  35.805  1.00  0.00    -0.744 OA
ENDBRANCH  74  78
ENDBRANCH  47  71
BRANCH  59  82
ATOM     82  C   UNL A   1      44.946  28.041  34.857  1.00  0.00     0.023 A 
ATOM     83  C   UNL A   1      44.932  27.002  35.803  1.00  0.00     0.031 A 
ATOM     84  C   UNL A   1      46.084  28.865  34.797  1.00  0.00     0.131 A 
ATOM     85  C   UNL A   1      46.004  26.855  36.697  1.00  0.00     0.055 A 
ATOM     86  C   UNL A   1      47.176  28.674  35.645  1.00  0.00     0.041 A 
ATOM     87  F   UNL A   1      46.153  29.874  33.914  1.00  0.00    -0.206 F 
ATOM     88  C   UNL A   1      47.132  27.675  36.614  1.00  0.00     0.022 A 
BRANCH  85  89
ATOM     89  S   UNL A   1      45.856  25.650  38.045  1.00  0.00     0.124 S 
ATOM     90  O   UNL A   1      44.438  25.311  37.997  1.00  0.00    -0.237 OA
ATOM     91  O   UNL A   1      46.778  24.599  37.626  1.00  0.00    -0.237 OA
ATOM     92  O   UNL A   1      46.273  26.404  39.227  1.00  0.00    -0.744 OA
ENDBRANCH  85  89
ENDBRANCH  59  82
ENDBRANCH  33  34
ENDBRANCH  26  28
ENDBRANCH  25  26
ENDBRANCH  24  25
ENDBRANCH  23  24
ENDBRANCH   1  23
TORSDOF 22
ENDMDL
