MODEL 1
REMARK VINA RESULT:     -10.1      0.000      0.000
REMARK SMILES CCCCCCNC(=O)Oc1cccc(-c2ccc([C@@H](C)C(=O)OCCOCCOC(=O)c3ccc(-c4c5nc(c(-c6cc(S(=O)(=O)[O-])ccc6F)c6ccc([nH]6)c(-c6cc(S(=O)(=O)[O-])ccc6F)c6nc(c(-c7cc(S(=O)(=O)[O-])ccc7F)c7ccc4[nH]7)C=C6)C=C5)cc3)cc2F)c1
REMARK SMILES IDX 24 1 22 2 23 3 20 4 21 5 19 6 16 7 17 8 97 9 18 10 96 11
REMARK SMILES IDX 98 12 15 13 11 14 12 15 99 16 13 17 14 18 10 19 8 20 7 21
REMARK SMILES IDX 9 23 6 24 5 25 4 26 3 27 2 28 1 29 25 30 26 31 27 32 28 33
REMARK SMILES IDX 29 34 30 35 31 36 32 37 33 38 34 39 95 40 35 41 94 42 36 43
REMARK SMILES IDX 37 44 38 45 88 46 39 47 93 48 87 49 89 50 40 51 92 52 86 53
REMARK SMILES IDX 85 54 41 56 73 57 53 58 72 59 54 60 57 61 71 62 90 63 55 64
REMARK SMILES IDX 56 65 70 67 91 68 58 69 42 70 43 71 51 72 44 73 50 74 52 75
REMARK SMILES IDX 49 76 45 77 46 78 47 79 48 80 74 81 75 82 83 83 76 84 82 85
REMARK SMILES IDX 84 86 81 87 77 88 78 89 79 90 80 91 59 92 60 93 68 94 61 95
REMARK SMILES IDX 67 96 69 97 66 98 62 99 63 100 64 101 65 102
REMARK H PARENT 7 22 89 55 57 66
REMARK Flexibility Score: inf
ROOT
ATOM      1  O   UNL A   1      41.622  19.687  26.995  1.00  0.00    -0.463 OA
ENDROOT
BRANCH   1   2
ATOM      2  C   UNL A   1      40.537  19.909  26.210  1.00  0.00     0.313 C 
ATOM      3  O   UNL A   1      39.951  19.040  25.569  1.00  0.00    -0.252 OA
BRANCH   2   4
ATOM      4  C   UNL A   1      40.107  21.366  26.152  1.00  0.00     0.126 C 
ATOM      5  C   UNL A   1      40.426  22.035  27.486  1.00  0.00     0.025 C 
BRANCH   4   6
ATOM      6  C   UNL A   1      38.692  21.686  25.681  1.00  0.00    -0.031 A 
ATOM      7  C   UNL A   1      35.963  22.286  25.065  1.00  0.00     0.018 A 
ATOM      8  C   UNL A   1      36.537  21.050  24.724  1.00  0.00     0.012 A 
ATOM      9  C   UNL A   1      36.801  23.228  25.672  1.00  0.00     0.131 A 
ATOM     10  C   UNL A   1      37.876  20.753  25.029  1.00  0.00     0.005 A 
ATOM     11  C   UNL A   1      38.136  22.942  25.977  1.00  0.00     0.044 A 
ATOM     12  F   UNL A   1      36.324  24.431  26.031  1.00  0.00    -0.206 F 
BRANCH   7  13
ATOM     13  C   UNL A   1      34.526  22.549  24.851  1.00  0.00    -0.012 A 
ATOM     14  C   UNL A   1      32.707  23.693  23.711  1.00  0.00     0.133 A 
ATOM     15  C   UNL A   1      31.767  23.093  24.545  1.00  0.00     0.047 A 
ATOM     16  C   UNL A   1      34.074  23.441  23.863  1.00  0.00     0.056 A 
ATOM     17  C   UNL A   1      32.195  22.205  25.527  1.00  0.00     0.004 A 
ATOM     18  C   UNL A   1      33.560  21.937  25.675  1.00  0.00     0.009 A 
BRANCH  14  19
ATOM     19  O   UNL A   1      32.218  24.645  22.799  1.00  0.00    -0.410 OA
BRANCH  19  20
ATOM     20  C   UNL A   1      32.994  25.757  22.522  1.00  0.00     0.412 C 
ATOM     21  N   UNL A   1      32.807  26.784  23.402  1.00  0.00    -0.321 N 
ATOM     22  H   UNL A   1      33.339  27.598  23.245  1.00  0.00     0.167 HD
ATOM     23  O   UNL A   1      33.786  25.868  21.585  1.00  0.00    -0.224 OA
BRANCH  21  24
ATOM     24  C   UNL A   1      31.911  26.806  24.541  1.00  0.00     0.119 C 
BRANCH  24  25
ATOM     25  C   UNL A   1      30.800  27.844  24.376  1.00  0.00     0.021 C 
BRANCH  25  26
ATOM     26  C   UNL A   1      31.247  29.302  24.546  1.00  0.00     0.002 C 
BRANCH  26  27
ATOM     27  C   UNL A   1      32.335  29.542  25.598  1.00  0.00    -0.000 C 
BRANCH  27  28
ATOM     28  C   UNL A   1      31.917  30.400  26.795  1.00  0.00    -0.003 C 
ATOM     29  C   UNL A   1      31.355  31.757  26.398  1.00  0.00     0.004 C 
ENDBRANCH  27  28
ENDBRANCH  26  27
ENDBRANCH  25  26
ENDBRANCH  24  25
ENDBRANCH  21  24
ENDBRANCH  19  20
ENDBRANCH  14  19
ENDBRANCH   7  13
ENDBRANCH   4   6
ENDBRANCH   2   4
ENDBRANCH   1   2
BRANCH   1  30
ATOM     30  C   UNL A   1      42.483  18.606  26.594  1.00  0.00     0.261 C 
BRANCH  30  31
ATOM     31  C   UNL A   1      43.442  19.040  25.484  1.00  0.00     0.202 C 
BRANCH  31  32
ATOM     32  O   UNL A   1      44.755  18.482  25.524  1.00  0.00    -0.374 OA
BRANCH  32  33
ATOM     33  C   UNL A   1      45.846  19.329  25.164  1.00  0.00     0.202 C 
BRANCH  33  34
ATOM     34  C   UNL A   1      45.517  20.741  24.666  1.00  0.00     0.261 C 
BRANCH  34  35
ATOM     35  O   UNL A   1      45.972  21.772  25.559  1.00  0.00    -0.460 OA
BRANCH  35  36
ATOM     36  C   UNL A   1      46.175  22.972  24.958  1.00  0.00     0.338 C 
ATOM     37  O   UNL A   1      46.595  23.159  23.828  1.00  0.00    -0.246 OA
BRANCH  36  38
ATOM     38  C   UNL A   1      45.621  24.066  25.780  1.00  0.00     0.060 A 
ATOM     39  C   UNL A   1      45.051  25.144  25.091  1.00  0.00     0.016 A 
ATOM     40  C   UNL A   1      45.738  24.098  27.172  1.00  0.00     0.016 A 
ATOM     41  C   UNL A   1      44.668  26.290  25.779  1.00  0.00     0.010 A 
ATOM     42  C   UNL A   1      45.350  25.255  27.865  1.00  0.00     0.010 A 
ATOM     43  C   UNL A   1      44.862  26.375  27.164  1.00  0.00    -0.014 A 
BRANCH  43  44
ATOM     44  C   UNL A   1      44.728  27.705  27.816  1.00  0.00     0.031 A 
ATOM     45  C   UNL A   1      45.929  28.615  27.863  1.00  0.00     0.074 A 
ATOM     46  C   UNL A   1      43.534  28.140  28.262  1.00  0.00     0.049 A 
ATOM     47  N   UNL A   1      46.032  29.834  28.327  1.00  0.00    -0.248 NA
ATOM     48  C   UNL A   1      47.179  28.077  27.306  1.00  0.00     0.031 C 
ATOM     49  C   UNL A   1      42.289  27.376  28.215  1.00  0.00     0.029 A 
ATOM     50  N   UNL A   1      43.171  29.338  28.824  1.00  0.00    -0.354 N 
ATOM     51  C   UNL A   1      47.354  30.212  28.109  1.00  0.00     0.074 A 
ATOM     52  C   UNL A   1      48.024  29.073  27.523  1.00  0.00     0.031 C 
ATOM     53  C   UNL A   1      41.294  28.130  28.716  1.00  0.00     0.029 A 
ATOM     54  C   UNL A   1      41.837  29.415  29.153  1.00  0.00     0.049 A 
ATOM     55  H   UNL A   1      43.806  30.074  28.978  1.00  0.00     0.167 HD
ATOM     56  C   UNL A   1      47.949  31.406  28.356  1.00  0.00     0.034 A 
ATOM     57  C   UNL A   1      41.138  30.405  29.747  1.00  0.00     0.034 A 
ATOM     58  C   UNL A   1      47.275  32.533  28.952  1.00  0.00     0.049 A 
ATOM     59  C   UNL A   1      41.852  31.686  30.114  1.00  0.00     0.074 A 
ATOM     60  C   UNL A   1      47.785  33.784  29.254  1.00  0.00     0.029 A 
ATOM     61  N   UNL A   1      45.942  32.544  29.347  1.00  0.00    -0.354 N 
ATOM     62  N   UNL A   1      43.103  32.028  29.903  1.00  0.00    -0.248 NA
ATOM     63  C   UNL A   1      41.054  32.718  30.789  1.00  0.00     0.031 C 
ATOM     64  C   UNL A   1      46.783  34.525  29.893  1.00  0.00     0.029 A 
ATOM     65  C   UNL A   1      45.624  33.768  29.919  1.00  0.00     0.049 A 
ATOM     66  H   UNL A   1      45.315  31.793  29.236  1.00  0.00     0.167 HD
ATOM     67  C   UNL A   1      43.228  33.328  30.389  1.00  0.00     0.074 A 
ATOM     68  C   UNL A   1      41.924  33.713  30.886  1.00  0.00     0.031 C 
ATOM     69  C   UNL A   1      44.320  34.135  30.420  1.00  0.00     0.034 A 
BRANCH  56  70
ATOM     70  C   UNL A   1      49.418  31.530  28.021  1.00  0.00     0.023 A 
ATOM     71  C   UNL A   1      49.858  32.200  26.866  1.00  0.00     0.031 A 
ATOM     72  C   UNL A   1      50.388  30.947  28.855  1.00  0.00     0.131 A 
ATOM     73  C   UNL A   1      51.224  32.212  26.541  1.00  0.00     0.055 A 
ATOM     74  C   UNL A   1      51.752  31.030  28.566  1.00  0.00     0.041 A 
ATOM     75  F   UNL A   1      50.027  30.274  29.959  1.00  0.00    -0.206 F 
ATOM     76  C   UNL A   1      52.176  31.653  27.397  1.00  0.00     0.022 A 
BRANCH  73  77
ATOM     77  S   UNL A   1      51.727  32.848  24.919  1.00  0.00     0.124 S 
ATOM     78  O   UNL A   1      51.621  31.653  24.086  1.00  0.00    -0.237 OA
ATOM     79  O   UNL A   1      50.739  33.892  24.670  1.00  0.00    -0.237 OA
ATOM     80  O   UNL A   1      53.091  33.322  25.144  1.00  0.00    -0.744 OA
ENDBRANCH  73  77
ENDBRANCH  56  70
BRANCH  57  81
ATOM     81  C   UNL A   1      39.693  30.228  30.073  1.00  0.00     0.023 A 
ATOM     82  C   UNL A   1      38.691  30.798  29.270  1.00  0.00     0.031 A 
ATOM     83  C   UNL A   1      39.294  29.556  31.243  1.00  0.00     0.131 A 
ATOM     84  C   UNL A   1      37.348  30.733  29.676  1.00  0.00     0.055 A 
ATOM     85  C   UNL A   1      37.953  29.443  31.610  1.00  0.00     0.041 A 
ATOM     86  F   UNL A   1      40.209  28.998  32.051  1.00  0.00    -0.206 F 
ATOM     87  C   UNL A   1      36.971  30.048  30.833  1.00  0.00     0.022 A 
BRANCH  84  88
ATOM     88  S   UNL A   1      36.107  31.655  28.724  1.00  0.00     0.124 S 
ATOM     89  O   UNL A   1      35.065  31.866  29.722  1.00  0.00    -0.237 OA
ATOM     90  O   UNL A   1      36.857  32.838  28.317  1.00  0.00    -0.237 OA
ATOM     91  O   UNL A   1      35.759  30.737  27.642  1.00  0.00    -0.744 OA
ENDBRANCH  84  88
ENDBRANCH  57  81
BRANCH  69  92
ATOM     92  C   UNL A   1      44.131  35.528  30.972  1.00  0.00     0.023 A 
ATOM     93  C   UNL A   1      43.875  36.628  30.135  1.00  0.00     0.031 A 
ATOM     94  C   UNL A   1      44.227  35.759  32.356  1.00  0.00     0.131 A 
ATOM     95  C   UNL A   1      43.786  37.918  30.683  1.00  0.00     0.055 A 
ATOM     96  C   UNL A   1      44.073  37.036  32.901  1.00  0.00     0.041 A 
ATOM     97  F   UNL A   1      44.472  34.747  33.204  1.00  0.00    -0.206 F 
ATOM     98  C   UNL A   1      43.866  38.126  32.061  1.00  0.00     0.022 A 
BRANCH  95  99
ATOM     99  S   UNL A   1      43.661  39.334  29.556  1.00  0.00     0.124 S 
ATOM    100  O   UNL A   1      45.062  39.696  29.366  1.00  0.00    -0.237 OA
ATOM    101  O   UNL A   1      42.990  38.755  28.397  1.00  0.00    -0.237 OA
ATOM    102  O   UNL A   1      42.867  40.304  30.310  1.00  0.00    -0.744 OA
ENDBRANCH  95  99
ENDBRANCH  69  92
ENDBRANCH  43  44
ENDBRANCH  36  38
ENDBRANCH  35  36
ENDBRANCH  34  35
ENDBRANCH  33  34
ENDBRANCH  32  33
ENDBRANCH  31  32
ENDBRANCH  30  31
ENDBRANCH   1  30
TORSDOF 26
ENDMDL
MODEL 2
REMARK VINA RESULT:      -9.5      6.466     11.823
REMARK SMILES CCCCCCNC(=O)Oc1cccc(-c2ccc([C@@H](C)C(=O)OCCOCCOC(=O)c3ccc(-c4c5nc(c(-c6cc(S(=O)(=O)[O-])ccc6F)c6ccc([nH]6)c(-c6cc(S(=O)(=O)[O-])ccc6F)c6nc(c(-c7cc(S(=O)(=O)[O-])ccc7F)c7ccc4[nH]7)C=C6)C=C5)cc3)cc2F)c1
REMARK SMILES IDX 24 1 22 2 23 3 20 4 21 5 19 6 16 7 17 8 97 9 18 10 96 11
REMARK SMILES IDX 98 12 15 13 11 14 12 15 99 16 13 17 14 18 10 19 8 20 7 21
REMARK SMILES IDX 9 23 6 24 5 25 4 26 3 27 2 28 1 29 25 30 26 31 27 32 28 33
REMARK SMILES IDX 29 34 30 35 31 36 32 37 33 38 34 39 95 40 35 41 94 42 36 43
REMARK SMILES IDX 37 44 38 45 88 46 39 47 93 48 87 49 89 50 40 51 92 52 86 53
REMARK SMILES IDX 85 54 41 56 73 57 53 58 72 59 54 60 57 61 71 62 90 63 55 64
REMARK SMILES IDX 56 65 70 67 91 68 58 69 42 70 43 71 51 72 44 73 50 74 52 75
REMARK SMILES IDX 49 76 45 77 46 78 47 79 48 80 74 81 75 82 83 83 76 84 82 85
REMARK SMILES IDX 84 86 81 87 77 88 78 89 79 90 80 91 59 92 60 93 68 94 61 95
REMARK SMILES IDX 67 96 69 97 66 98 62 99 63 100 64 101 65 102
REMARK H PARENT 7 22 89 55 57 66
REMARK Flexibility Score: inf
ROOT
ATOM      1  O   UNL A   1      33.637  34.117  30.017  1.00  0.00    -0.463 OA
ENDROOT
BRANCH   1   2
ATOM      2  C   UNL A   1      34.568  34.056  29.031  1.00  0.00     0.313 C 
ATOM      3  O   UNL A   1      34.734  34.923  28.176  1.00  0.00    -0.252 OA
BRANCH   2   4
ATOM      4  C   UNL A   1      35.394  32.780  29.041  1.00  0.00     0.126 C 
ATOM      5  C   UNL A   1      36.853  33.126  28.759  1.00  0.00     0.025 C 
BRANCH   4   6
ATOM      6  C   UNL A   1      34.918  31.602  28.197  1.00  0.00    -0.031 A 
ATOM      7  C   UNL A   1      33.846  29.336  26.816  1.00  0.00     0.018 A 
ATOM      8  C   UNL A   1      35.157  29.335  27.321  1.00  0.00     0.012 A 
ATOM      9  C   UNL A   1      33.108  30.515  26.975  1.00  0.00     0.131 A 
ATOM     10  C   UNL A   1      35.683  30.445  28.002  1.00  0.00     0.005 A 
ATOM     11  C   UNL A   1      33.625  31.626  27.648  1.00  0.00     0.044 A 
ATOM     12  F   UNL A   1      31.846  30.593  26.522  1.00  0.00    -0.206 F 
BRANCH   7  13
ATOM     13  C   UNL A   1      33.256  28.127  26.208  1.00  0.00    -0.012 A 
ATOM     14  C   UNL A   1      33.050  26.535  24.380  1.00  0.00     0.133 A 
ATOM     15  C   UNL A   1      32.027  25.860  25.044  1.00  0.00     0.047 A 
ATOM     16  C   UNL A   1      33.654  27.664  24.942  1.00  0.00     0.056 A 
ATOM     17  C   UNL A   1      31.622  26.302  26.299  1.00  0.00     0.004 A 
ATOM     18  C   UNL A   1      32.232  27.423  26.873  1.00  0.00     0.009 A 
BRANCH  14  19
ATOM     19  O   UNL A   1      33.352  26.092  23.081  1.00  0.00    -0.410 OA
BRANCH  19  20
ATOM     20  C   UNL A   1      32.308  25.736  22.244  1.00  0.00     0.412 C 
ATOM     21  N   UNL A   1      32.313  24.416  21.897  1.00  0.00    -0.321 N 
ATOM     22  H   UNL A   1      31.588  24.115  21.302  1.00  0.00     0.167 HD
ATOM     23  O   UNL A   1      31.436  26.495  21.816  1.00  0.00    -0.224 OA
BRANCH  21  24
ATOM     24  C   UNL A   1      33.270  23.407  22.311  1.00  0.00     0.119 C 
BRANCH  24  25
ATOM     25  C   UNL A   1      32.582  22.146  22.834  1.00  0.00     0.021 C 
BRANCH  25  26
ATOM     26  C   UNL A   1      31.946  22.285  24.223  1.00  0.00     0.002 C 
BRANCH  26  27
ATOM     27  C   UNL A   1      32.153  21.097  25.169  1.00  0.00    -0.000 C 
BRANCH  27  28
ATOM     28  C   UNL A   1      33.607  20.664  25.376  1.00  0.00    -0.003 C 
ATOM     29  C   UNL A   1      33.970  19.392  24.626  1.00  0.00     0.004 C 
ENDBRANCH  27  28
ENDBRANCH  26  27
ENDBRANCH  25  26
ENDBRANCH  24  25
ENDBRANCH  21  24
ENDBRANCH  19  20
ENDBRANCH  14  19
ENDBRANCH   7  13
ENDBRANCH   4   6
ENDBRANCH   2   4
ENDBRANCH   1   2
BRANCH   1  30
ATOM     30  C   UNL A   1      33.533  35.373  30.712  1.00  0.00     0.261 C 
BRANCH  30  31
ATOM     31  C   UNL A   1      34.493  35.432  31.903  1.00  0.00     0.202 C 
BRANCH  31  32
ATOM     32  O   UNL A   1      34.021  34.870  33.127  1.00  0.00    -0.374 OA
BRANCH  32  33
ATOM     33  C   UNL A   1      34.028  33.448  33.249  1.00  0.00     0.202 C 
BRANCH  33  34
ATOM     34  C   UNL A   1      35.320  32.707  32.883  1.00  0.00     0.261 C 
BRANCH  34  35
ATOM     35  O   UNL A   1      36.193  32.511  34.009  1.00  0.00    -0.460 OA
BRANCH  35  36
ATOM     36  C   UNL A   1      37.291  33.307  34.000  1.00  0.00     0.338 C 
ATOM     37  O   UNL A   1      37.308  34.525  33.934  1.00  0.00    -0.246 OA
BRANCH  36  38
ATOM     38  C   UNL A   1      38.506  32.521  34.294  1.00  0.00     0.060 A 
ATOM     39  C   UNL A   1      39.734  33.130  34.007  1.00  0.00     0.016 A 
ATOM     40  C   UNL A   1      38.459  31.197  34.738  1.00  0.00     0.016 A 
ATOM     41  C   UNL A   1      40.913  32.397  34.086  1.00  0.00     0.010 A 
ATOM     42  C   UNL A   1      39.650  30.459  34.818  1.00  0.00     0.010 A 
ATOM     43  C   UNL A   1      40.876  31.043  34.443  1.00  0.00    -0.014 A 
BRANCH  43  44
ATOM     44  C   UNL A   1      42.096  30.221  34.227  1.00  0.00     0.031 A 
ATOM     45  C   UNL A   1      43.075  30.062  35.362  1.00  0.00     0.074 A 
ATOM     46  C   UNL A   1      42.278  29.538  33.080  1.00  0.00     0.049 A 
ATOM     47  N   UNL A   1      44.172  29.351  35.423  1.00  0.00    -0.248 NA
ATOM     48  C   UNL A   1      42.771  30.802  36.596  1.00  0.00     0.031 C 
ATOM     49  C   UNL A   1      41.370  29.562  31.934  1.00  0.00     0.029 A 
ATOM     50  N   UNL A   1      43.276  28.678  32.698  1.00  0.00    -0.354 N 
ATOM     51  C   UNL A   1      44.683  29.550  36.703  1.00  0.00     0.074 A 
ATOM     52  C   UNL A   1      43.805  30.491  37.362  1.00  0.00     0.031 C 
ATOM     53  C   UNL A   1      41.848  28.743  30.981  1.00  0.00     0.029 A 
ATOM     54  C   UNL A   1      43.112  28.164  31.432  1.00  0.00     0.049 A 
ATOM     55  H   UNL A   1      44.040  28.450  33.276  1.00  0.00     0.167 HD
ATOM     56  C   UNL A   1      45.772  28.985  37.281  1.00  0.00     0.034 A 
ATOM     57  C   UNL A   1      43.897  27.332  30.718  1.00  0.00     0.034 A 
ATOM     58  C   UNL A   1      46.648  28.056  36.611  1.00  0.00     0.049 A 
ATOM     59  C   UNL A   1      45.166  26.802  31.347  1.00  0.00     0.074 A 
ATOM     60  C   UNL A   1      47.783  27.432  37.100  1.00  0.00     0.029 A 
ATOM     61  N   UNL A   1      46.494  27.623  35.299  1.00  0.00    -0.354 N 
ATOM     62  N   UNL A   1      45.637  27.001  32.558  1.00  0.00    -0.248 NA
ATOM     63  C   UNL A   1      46.002  25.927  30.515  1.00  0.00     0.031 C 
ATOM     64  C   UNL A   1      48.352  26.679  36.066  1.00  0.00     0.029 A 
ATOM     65  C   UNL A   1      47.530  26.767  34.954  1.00  0.00     0.049 A 
ATOM     66  H   UNL A   1      45.756  27.885  34.702  1.00  0.00     0.167 HD
ATOM     67  C   UNL A   1      46.805  26.245  32.639  1.00  0.00     0.074 A 
ATOM     68  C   UNL A   1      46.956  25.576  31.365  1.00  0.00     0.031 C 
ATOM     69  C   UNL A   1      47.674  26.113  33.675  1.00  0.00     0.034 A 
BRANCH  56  70
ATOM     70  C   UNL A   1      46.096  29.399  38.698  1.00  0.00     0.023 A 
ATOM     71  C   UNL A   1      45.608  28.683  39.807  1.00  0.00     0.031 A 
ATOM     72  C   UNL A   1      46.882  30.538  38.944  1.00  0.00     0.131 A 
ATOM     73  C   UNL A   1      45.853  29.154  41.107  1.00  0.00     0.055 A 
ATOM     74  C   UNL A   1      47.187  30.956  40.241  1.00  0.00     0.041 A 
ATOM     75  F   UNL A   1      47.356  31.274  37.926  1.00  0.00    -0.206 F 
ATOM     76  C   UNL A   1      46.661  30.272  41.331  1.00  0.00     0.022 A 
BRANCH  73  77
ATOM     77  S   UNL A   1      44.991  28.365  42.494  1.00  0.00     0.124 S 
ATOM     78  O   UNL A   1      44.154  27.387  41.804  1.00  0.00    -0.237 OA
ATOM     79  O   UNL A   1      46.091  27.825  43.283  1.00  0.00    -0.237 OA
ATOM     80  O   UNL A   1      44.261  29.469  43.116  1.00  0.00    -0.744 OA
ENDBRANCH  73  77
ENDBRANCH  56  70
BRANCH  57  81
ATOM     81  C   UNL A   1      43.544  26.966  29.315  1.00  0.00     0.023 A 
ATOM     82  C   UNL A   1      42.958  25.725  29.012  1.00  0.00     0.031 A 
ATOM     83  C   UNL A   1      43.864  27.821  28.244  1.00  0.00     0.131 A 
ATOM     84  C   UNL A   1      42.764  25.352  27.672  1.00  0.00     0.055 A 
ATOM     85  C   UNL A   1      43.613  27.469  26.917  1.00  0.00     0.041 A 
ATOM     86  F   UNL A   1      44.430  29.016  28.475  1.00  0.00    -0.206 F 
ATOM     87  C   UNL A   1      43.074  26.221  26.624  1.00  0.00     0.022 A 
BRANCH  84  88
ATOM     88  S   UNL A   1      42.199  23.665  27.314  1.00  0.00     0.124 S 
ATOM     89  O   UNL A   1      42.128  23.679  25.857  1.00  0.00    -0.237 OA
ATOM     90  O   UNL A   1      43.266  22.859  27.897  1.00  0.00    -0.237 OA
ATOM     91  O   UNL A   1      40.912  23.585  28.002  1.00  0.00    -0.744 OA
ENDBRANCH  84  88
ENDBRANCH  57  81
BRANCH  69  92
ATOM     92  C   UNL A   1      48.840  25.173  33.478  1.00  0.00     0.023 A 
ATOM     93  C   UNL A   1      48.775  23.822  33.862  1.00  0.00     0.031 A 
ATOM     94  C   UNL A   1      50.040  25.643  32.913  1.00  0.00     0.131 A 
ATOM     95  C   UNL A   1      49.909  23.004  33.735  1.00  0.00     0.055 A 
ATOM     96  C   UNL A   1      51.143  24.807  32.730  1.00  0.00     0.041 A 
ATOM     97  F   UNL A   1      50.160  26.923  32.529  1.00  0.00    -0.206 F 
ATOM     98  C   UNL A   1      51.086  23.483  33.155  1.00  0.00     0.022 A 
BRANCH  95  99
ATOM     99  S   UNL A   1      49.855  21.329  34.429  1.00  0.00     0.124 S 
ATOM    100  O   UNL A   1      51.127  21.253  35.140  1.00  0.00    -0.237 OA
ATOM    101  O   UNL A   1      48.660  21.374  35.264  1.00  0.00    -0.237 OA
ATOM    102  O   UNL A   1      49.751  20.471  33.248  1.00  0.00    -0.744 OA
ENDBRANCH  95  99
ENDBRANCH  69  92
ENDBRANCH  43  44
ENDBRANCH  36  38
ENDBRANCH  35  36
ENDBRANCH  34  35
ENDBRANCH  33  34
ENDBRANCH  32  33
ENDBRANCH  31  32
ENDBRANCH  30  31
ENDBRANCH   1  30
TORSDOF 26
ENDMDL
MODEL 3
REMARK VINA RESULT:      -9.1      5.059     11.494
REMARK SMILES CCCCCCNC(=O)Oc1cccc(-c2ccc([C@@H](C)C(=O)OCCOCCOC(=O)c3ccc(-c4c5nc(c(-c6cc(S(=O)(=O)[O-])ccc6F)c6ccc([nH]6)c(-c6cc(S(=O)(=O)[O-])ccc6F)c6nc(c(-c7cc(S(=O)(=O)[O-])ccc7F)c7ccc4[nH]7)C=C6)C=C5)cc3)cc2F)c1
REMARK SMILES IDX 24 1 22 2 23 3 20 4 21 5 19 6 16 7 17 8 97 9 18 10 96 11
REMARK SMILES IDX 98 12 15 13 11 14 12 15 99 16 13 17 14 18 10 19 8 20 7 21
REMARK SMILES IDX 9 23 6 24 5 25 4 26 3 27 2 28 1 29 25 30 26 31 27 32 28 33
REMARK SMILES IDX 29 34 30 35 31 36 32 37 33 38 34 39 95 40 35 41 94 42 36 43
REMARK SMILES IDX 37 44 38 45 88 46 39 47 93 48 87 49 89 50 40 51 92 52 86 53
REMARK SMILES IDX 85 54 41 56 73 57 53 58 72 59 54 60 57 61 71 62 90 63 55 64
REMARK SMILES IDX 56 65 70 67 91 68 58 69 42 70 43 71 51 72 44 73 50 74 52 75
REMARK SMILES IDX 49 76 45 77 46 78 47 79 48 80 74 81 75 82 83 83 76 84 82 85
REMARK SMILES IDX 84 86 81 87 77 88 78 89 79 90 80 91 59 92 60 93 68 94 61 95
REMARK SMILES IDX 67 96 69 97 66 98 62 99 63 100 64 101 65 102
REMARK H PARENT 7 22 89 55 57 66
REMARK Flexibility Score: inf
ROOT
ATOM      1  O   UNL A   1      34.117  33.140  31.769  1.00  0.00    -0.463 OA
ENDROOT
BRANCH   1   2
ATOM      2  C   UNL A   1      34.477  33.245  30.464  1.00  0.00     0.313 C 
ATOM      3  O   UNL A   1      33.699  33.155  29.518  1.00  0.00    -0.252 OA
BRANCH   2   4
ATOM      4  C   UNL A   1      35.968  33.454  30.252  1.00  0.00     0.126 C 
ATOM      5  C   UNL A   1      36.181  34.700  29.397  1.00  0.00     0.025 C 
BRANCH   4   6
ATOM      6  C   UNL A   1      36.802  32.277  29.757  1.00  0.00    -0.031 A 
ATOM      7  C   UNL A   1      38.400  29.999  29.092  1.00  0.00     0.018 A 
ATOM      8  C   UNL A   1      38.867  31.308  28.885  1.00  0.00     0.012 A 
ATOM      9  C   UNL A   1      37.099  29.862  29.590  1.00  0.00     0.131 A 
ATOM     10  C   UNL A   1      38.085  32.427  29.214  1.00  0.00     0.005 A 
ATOM     11  C   UNL A   1      36.312  30.971  29.917  1.00  0.00     0.044 A 
ATOM     12  F   UNL A   1      36.583  28.643  29.818  1.00  0.00    -0.206 F 
BRANCH   7  13
ATOM     13  C   UNL A   1      39.269  28.828  28.858  1.00  0.00    -0.012 A 
ATOM     14  C   UNL A   1      41.264  27.798  27.925  1.00  0.00     0.133 A 
ATOM     15  C   UNL A   1      40.850  26.538  28.351  1.00  0.00     0.047 A 
ATOM     16  C   UNL A   1      40.483  28.934  28.159  1.00  0.00     0.056 A 
ATOM     17  C   UNL A   1      39.652  26.415  29.046  1.00  0.00     0.004 A 
ATOM     18  C   UNL A   1      38.872  27.548  29.297  1.00  0.00     0.009 A 
BRANCH  14  19
ATOM     19  O   UNL A   1      42.439  27.842  27.153  1.00  0.00    -0.410 OA
BRANCH  19  20
ATOM     20  C   UNL A   1      42.333  27.715  25.779  1.00  0.00     0.412 C 
ATOM     21  N   UNL A   1      42.765  26.509  25.308  1.00  0.00    -0.321 N 
ATOM     22  H   UNL A   1      42.709  26.373  24.334  1.00  0.00     0.167 HD
ATOM     23  O   UNL A   1      41.906  28.575  25.006  1.00  0.00    -0.224 OA
BRANCH  21  24
ATOM     24  C   UNL A   1      43.298  25.407  26.086  1.00  0.00     0.119 C 
BRANCH  24  25
ATOM     25  C   UNL A   1      44.827  25.418  26.122  1.00  0.00     0.021 C 
BRANCH  25  26
ATOM     26  C   UNL A   1      45.505  24.623  24.999  1.00  0.00     0.002 C 
BRANCH  26  27
ATOM     27  C   UNL A   1      46.258  23.363  25.442  1.00  0.00    -0.000 C 
BRANCH  27  28
ATOM     28  C   UNL A   1      45.410  22.093  25.556  1.00  0.00    -0.003 C 
ATOM     29  C   UNL A   1      46.029  20.891  24.859  1.00  0.00     0.004 C 
ENDBRANCH  27  28
ENDBRANCH  26  27
ENDBRANCH  25  26
ENDBRANCH  24  25
ENDBRANCH  21  24
ENDBRANCH  19  20
ENDBRANCH  14  19
ENDBRANCH   7  13
ENDBRANCH   4   6
ENDBRANCH   2   4
ENDBRANCH   1   2
BRANCH   1  30
ATOM     30  C   UNL A   1      33.288  34.199  32.283  1.00  0.00     0.261 C 
BRANCH  30  31
ATOM     31  C   UNL A   1      34.045  35.528  32.326  1.00  0.00     0.202 C 
BRANCH  31  32
ATOM     32  O   UNL A   1      34.601  35.902  33.587  1.00  0.00    -0.374 OA
BRANCH  32  33
ATOM     33  C   UNL A   1      35.273  34.893  34.339  1.00  0.00     0.202 C 
BRANCH  33  34
ATOM     34  C   UNL A   1      36.608  34.369  33.794  1.00  0.00     0.261 C 
BRANCH  34  35
ATOM     35  O   UNL A   1      36.699  32.934  33.818  1.00  0.00    -0.460 OA
BRANCH  35  36
ATOM     36  C   UNL A   1      37.512  32.450  34.791  1.00  0.00     0.338 C 
ATOM     37  O   UNL A   1      37.363  32.576  35.995  1.00  0.00    -0.246 OA
BRANCH  36  38
ATOM     38  C   UNL A   1      38.530  31.547  34.217  1.00  0.00     0.060 A 
ATOM     39  C   UNL A   1      39.797  31.568  34.813  1.00  0.00     0.016 A 
ATOM     40  C   UNL A   1      38.298  30.777  33.074  1.00  0.00     0.016 A 
ATOM     41  C   UNL A   1      40.857  30.885  34.227  1.00  0.00     0.010 A 
ATOM     42  C   UNL A   1      39.369  30.088  32.485  1.00  0.00     0.010 A 
ATOM     43  C   UNL A   1      40.664  30.182  33.031  1.00  0.00    -0.014 A 
BRANCH  43  44
ATOM     44  C   UNL A   1      41.861  29.722  32.279  1.00  0.00     0.031 A 
ATOM     45  C   UNL A   1      42.406  30.596  31.178  1.00  0.00     0.074 A 
ATOM     46  C   UNL A   1      42.518  28.604  32.639  1.00  0.00     0.049 A 
ATOM     47  N   UNL A   1      43.466  30.428  30.429  1.00  0.00    -0.248 NA
ATOM     48  C   UNL A   1      41.654  31.826  30.886  1.00  0.00     0.031 C 
ATOM     49  C   UNL A   1      42.124  27.710  33.727  1.00  0.00     0.029 A 
ATOM     50  N   UNL A   1      43.665  28.038  32.140  1.00  0.00    -0.354 N 
ATOM     51  C   UNL A   1      43.515  31.535  29.586  1.00  0.00     0.074 A 
ATOM     52  C   UNL A   1      42.347  32.336  29.880  1.00  0.00     0.031 C 
ATOM     53  C   UNL A   1      43.023  26.714  33.822  1.00  0.00     0.029 A 
ATOM     54  C   UNL A   1      44.036  26.878  32.780  1.00  0.00     0.049 A 
ATOM     55  H   UNL A   1      44.175  28.427  31.394  1.00  0.00     0.167 HD
ATOM     56  C   UNL A   1      44.456  31.864  28.666  1.00  0.00     0.034 A 
ATOM     57  C   UNL A   1      45.067  26.041  32.545  1.00  0.00     0.034 A 
ATOM     58  C   UNL A   1      45.611  31.052  28.373  1.00  0.00     0.049 A 
ATOM     59  C   UNL A   1      46.042  26.373  31.438  1.00  0.00     0.074 A 
ATOM     60  C   UNL A   1      46.621  31.287  27.455  1.00  0.00     0.029 A 
ATOM     61  N   UNL A   1      45.909  29.841  28.986  1.00  0.00    -0.354 N 
ATOM     62  N   UNL A   1      46.073  27.423  30.648  1.00  0.00    -0.248 NA
ATOM     63  C   UNL A   1      47.127  25.412  31.200  1.00  0.00     0.031 C 
ATOM     64  C   UNL A   1      47.488  30.187  27.464  1.00  0.00     0.029 A 
ATOM     65  C   UNL A   1      47.067  29.303  28.443  1.00  0.00     0.049 A 
ATOM     66  H   UNL A   1      45.376  29.426  29.703  1.00  0.00     0.167 HD
ATOM     67  C   UNL A   1      47.202  27.261  29.847  1.00  0.00     0.074 A 
ATOM     68  C   UNL A   1      47.831  26.025  30.260  1.00  0.00     0.031 C 
ATOM     69  C   UNL A   1      47.678  28.062  28.859  1.00  0.00     0.034 A 
BRANCH  56  70
ATOM     70  C   UNL A   1      44.242  33.138  27.882  1.00  0.00     0.023 A 
ATOM     71  C   UNL A   1      44.440  34.405  28.460  1.00  0.00     0.031 A 
ATOM     72  C   UNL A   1      43.810  33.085  26.545  1.00  0.00     0.131 A 
ATOM     73  C   UNL A   1      44.140  35.564  27.727  1.00  0.00     0.055 A 
ATOM     74  C   UNL A   1      43.589  34.243  25.796  1.00  0.00     0.041 A 
ATOM     75  F   UNL A   1      43.582  31.905  25.946  1.00  0.00    -0.206 F 
ATOM     76  C   UNL A   1      43.740  35.491  26.391  1.00  0.00     0.022 A 
BRANCH  73  77
ATOM     77  S   UNL A   1      44.150  37.162  28.585  1.00  0.00     0.124 S 
ATOM     78  O   UNL A   1      45.581  37.393  28.764  1.00  0.00    -0.237 OA
ATOM     79  O   UNL A   1      43.473  38.035  27.633  1.00  0.00    -0.237 OA
ATOM     80  O   UNL A   1      43.411  36.893  29.818  1.00  0.00    -0.744 OA
ENDBRANCH  73  77
ENDBRANCH  56  70
BRANCH  57  81
ATOM     81  C   UNL A   1      45.226  24.785  33.336  1.00  0.00     0.023 A 
ATOM     82  C   UNL A   1      46.071  24.734  34.457  1.00  0.00     0.031 A 
ATOM     83  C   UNL A   1      44.598  23.593  32.931  1.00  0.00     0.131 A 
ATOM     84  C   UNL A   1      46.308  23.507  35.099  1.00  0.00     0.055 A 
ATOM     85  C   UNL A   1      44.791  22.389  33.609  1.00  0.00     0.041 A 
ATOM     86  F   UNL A   1      43.785  23.583  31.863  1.00  0.00    -0.206 F 
ATOM     87  C   UNL A   1      45.664  22.338  34.691  1.00  0.00     0.022 A 
BRANCH  84  88
ATOM     88  S   UNL A   1      47.561  23.441  36.410  1.00  0.00     0.124 S 
ATOM     89  O   UNL A   1      46.763  23.722  37.597  1.00  0.00    -0.237 OA
ATOM     90  O   UNL A   1      48.062  22.078  36.280  1.00  0.00    -0.237 OA
ATOM     91  O   UNL A   1      48.506  24.489  36.030  1.00  0.00    -0.744 OA
ENDBRANCH  84  88
ENDBRANCH  57  81
BRANCH  69  92
ATOM     92  C   UNL A   1      48.968  27.641  28.193  1.00  0.00     0.023 A 
ATOM     93  C   UNL A   1      50.222  27.958  28.742  1.00  0.00     0.031 A 
ATOM     94  C   UNL A   1      48.937  26.926  26.982  1.00  0.00     0.131 A 
ATOM     95  C   UNL A   1      51.395  27.616  28.048  1.00  0.00     0.055 A 
ATOM     96  C   UNL A   1      50.107  26.533  26.330  1.00  0.00     0.041 A 
ATOM     97  F   UNL A   1      47.767  26.597  26.411  1.00  0.00    -0.206 F 
ATOM     98  C   UNL A   1      51.345  26.891  26.856  1.00  0.00     0.022 A 
BRANCH  95  99
ATOM     99  S   UNL A   1      52.985  28.220  28.678  1.00  0.00     0.124 S 
ATOM    100  O   UNL A   1      53.158  27.419  29.886  1.00  0.00    -0.237 OA
ATOM    101  O   UNL A   1      53.893  27.918  27.578  1.00  0.00    -0.237 OA
ATOM    102  O   UNL A   1      52.745  29.645  28.908  1.00  0.00    -0.744 OA
ENDBRANCH  95  99
ENDBRANCH  69  92
ENDBRANCH  43  44
ENDBRANCH  36  38
ENDBRANCH  35  36
ENDBRANCH  34  35
ENDBRANCH  33  34
ENDBRANCH  32  33
ENDBRANCH  31  32
ENDBRANCH  30  31
ENDBRANCH   1  30
TORSDOF 26
ENDMDL
