MODEL 1
REMARK VINA RESULT:      -9.8      0.000      0.000
REMARK SMILES CCOC[C@@H](O)C[C@]1(C(=O)OCCOCCOC(=O)c2ccc(-c3c4nc(c(-c5cc(S(=O)(=O)[O-])ccc5F)c5ccc([nH]5)c(-c5cc(S(=O)(=O)[O-])ccc5F)c5nc(c(-c6cc(S(=O)(=O)[O-])ccc6F)c6ccc3[nH]6)C=C5)C=C4)cc2)CCc2ccccc21
REMARK SMILES IDX 13 1 12 2 11 3 9 4 10 5 8 6 83 7 90 8 84 9 85 10 89 11 86 12
REMARK SMILES IDX 88 13 87 14 7 15 5 16 4 17 3 18 2 19 1 20 6 21 14 23 15 24
REMARK SMILES IDX 16 25 17 26 18 27 19 28 20 29 21 30 82 31 22 32 81 33 23 34
REMARK SMILES IDX 24 35 25 36 75 37 26 38 80 39 74 40 76 41 27 42 79 43 73 44
REMARK SMILES IDX 72 45 28 47 60 48 40 49 59 50 41 51 44 52 58 53 77 54 42 55
REMARK SMILES IDX 43 56 57 58 78 59 45 60 29 61 30 62 38 63 31 64 37 65 39 66
REMARK SMILES IDX 36 67 32 68 33 69 34 70 35 71 61 72 62 73 70 74 63 75 69 76
REMARK SMILES IDX 71 77 68 78 64 79 65 80 66 81 67 82 46 83 47 84 55 85 48 86
REMARK SMILES IDX 54 87 56 88 53 89 49 90 50 91 51 92 52 93
REMARK H PARENT 6 22 76 46 44 57
REMARK Flexibility Score: inf
ROOT
ATOM      1  C   UNL A   1      45.980  20.515  40.565  1.00  0.00     0.202 C 
ENDROOT
BRANCH   1   2
ATOM      2  C   UNL A   1      45.048  20.318  41.764  1.00  0.00     0.261 C 
BRANCH   2   3
ATOM      3  O   UNL A   1      45.393  19.132  42.508  1.00  0.00    -0.463 OA
BRANCH   3   4
ATOM      4  C   UNL A   1      44.354  18.408  43.005  1.00  0.00     0.316 C 
ATOM      5  O   UNL A   1      43.345  18.897  43.502  1.00  0.00    -0.251 OA
BRANCH   4   6
ATOM      6  C   UNL A   1      44.570  16.890  42.874  1.00  0.00     0.096 C 
ATOM      7  C   UNL A   1      43.514  15.993  43.578  1.00  0.00     0.028 C 
ATOM      8  C   UNL A   1      44.325  16.497  41.426  1.00  0.00    -0.027 A 
ATOM      9  C   UNL A   1      42.397  15.675  42.577  1.00  0.00     0.037 C 
ATOM     10  C   UNL A   1      43.126  15.790  41.280  1.00  0.00    -0.044 A 
ATOM     11  C   UNL A   1      45.090  16.820  40.313  1.00  0.00     0.005 A 
ATOM     12  C   UNL A   1      42.693  15.357  40.038  1.00  0.00     0.004 A 
ATOM     13  C   UNL A   1      44.657  16.397  39.057  1.00  0.00     0.000 A 
ATOM     14  C   UNL A   1      43.472  15.660  38.921  1.00  0.00     0.000 A 
BRANCH   6  15
ATOM     15  C   UNL A   1      46.021  16.536  43.319  1.00  0.00     0.057 C 
BRANCH  15  16
ATOM     16  C   UNL A   1      46.215  15.734  44.624  1.00  0.00     0.141 C 
BRANCH  16  17
ATOM     17  C   UNL A   1      46.821  14.332  44.428  1.00  0.00     0.191 C 
BRANCH  17  18
ATOM     18  O   UNL A   1      45.854  13.292  44.251  1.00  0.00    -0.379 OA
BRANCH  18  19
ATOM     19  C   UNL A   1      46.209  11.982  44.681  1.00  0.00     0.157 C 
ATOM     20  C   UNL A   1      45.036  11.042  44.903  1.00  0.00     0.035 C 
ENDBRANCH  18  19
ENDBRANCH  17  18
ENDBRANCH  16  17
BRANCH  16  21
ATOM     21  O   UNL A   1      47.127  16.504  45.428  1.00  0.00    -0.391 OA
ATOM     22  H   UNL A   1      47.883  16.778  44.885  1.00  0.00     0.211 HD
ENDBRANCH  16  21
ENDBRANCH  15  16
ENDBRANCH   6  15
ENDBRANCH   4   6
ENDBRANCH   3   4
ENDBRANCH   2   3
ENDBRANCH   1   2
BRANCH   1  23
ATOM     23  O   UNL A   1      46.490  21.837  40.367  1.00  0.00    -0.374 OA
BRANCH  23  24
ATOM     24  C   UNL A   1      45.670  22.754  39.648  1.00  0.00     0.202 C 
BRANCH  24  25
ATOM     25  C   UNL A   1      46.287  24.095  39.242  1.00  0.00     0.261 C 
BRANCH  25  26
ATOM     26  O   UNL A   1      46.166  24.340  37.835  1.00  0.00    -0.460 OA
BRANCH  26  27
ATOM     27  C   UNL A   1      46.440  25.621  37.493  1.00  0.00     0.338 C 
ATOM     28  O   UNL A   1      47.316  26.334  37.967  1.00  0.00    -0.246 OA
BRANCH  27  29
ATOM     29  C   UNL A   1      45.655  26.021  36.314  1.00  0.00     0.060 A 
ATOM     30  C   UNL A   1      45.973  27.260  35.747  1.00  0.00     0.016 A 
ATOM     31  C   UNL A   1      44.595  25.258  35.816  1.00  0.00     0.016 A 
ATOM     32  C   UNL A   1      45.171  27.791  34.747  1.00  0.00     0.010 A 
ATOM     33  C   UNL A   1      43.785  25.795  34.808  1.00  0.00     0.010 A 
ATOM     34  C   UNL A   1      44.038  27.089  34.316  1.00  0.00    -0.014 A 
BRANCH  34  35
ATOM     35  C   UNL A   1      43.025  27.834  33.531  1.00  0.00     0.031 A 
ATOM     36  C   UNL A   1      42.880  27.515  32.066  1.00  0.00     0.074 A 
ATOM     37  C   UNL A   1      42.170  28.675  34.140  1.00  0.00     0.049 A 
ATOM     38  N   UNL A   1      41.997  27.946  31.204  1.00  0.00    -0.248 NA
ATOM     39  C   UNL A   1      43.865  26.579  31.500  1.00  0.00     0.031 C 
ATOM     40  C   UNL A   1      42.194  29.015  35.562  1.00  0.00     0.029 A 
ATOM     41  N   UNL A   1      41.102  29.375  33.643  1.00  0.00    -0.354 N 
ATOM     42  C   UNL A   1      42.312  27.327  29.998  1.00  0.00     0.074 A 
ATOM     43  C   UNL A   1      43.500  26.535  30.229  1.00  0.00     0.031 C 
ATOM     44  C   UNL A   1      41.175  29.852  35.826  1.00  0.00     0.029 A 
ATOM     45  C   UNL A   1      40.445  30.124  34.590  1.00  0.00     0.049 A 
ATOM     46  H   UNL A   1      40.831  29.345  32.697  1.00  0.00     0.167 HD
ATOM     47  C   UNL A   1      41.660  27.399  28.812  1.00  0.00     0.034 A 
ATOM     48  C   UNL A   1      39.377  30.938  34.467  1.00  0.00     0.034 A 
ATOM     49  C   UNL A   1      40.483  28.205  28.598  1.00  0.00     0.049 A 
ATOM     50  C   UNL A   1      38.711  31.059  33.118  1.00  0.00     0.074 A 
ATOM     51  C   UNL A   1      39.738  28.359  27.442  1.00  0.00     0.029 A 
ATOM     52  N   UNL A   1      39.885  29.006  29.565  1.00  0.00    -0.354 N 
ATOM     53  N   UNL A   1      39.012  30.459  31.988  1.00  0.00    -0.248 NA
ATOM     54  C   UNL A   1      37.553  31.957  33.034  1.00  0.00     0.031 C 
ATOM     55  C   UNL A   1      38.734  29.302  27.691  1.00  0.00     0.029 A 
ATOM     56  C   UNL A   1      38.803  29.682  29.022  1.00  0.00     0.049 A 
ATOM     57  H   UNL A   1      40.187  29.083  30.498  1.00  0.00     0.167 HD
ATOM     58  C   UNL A   1      38.062  30.890  31.065  1.00  0.00     0.074 A 
ATOM     59  C   UNL A   1      37.167  31.778  31.779  1.00  0.00     0.031 C 
ATOM     60  C   UNL A   1      37.938  30.583  29.747  1.00  0.00     0.034 A 
BRANCH  47  61
ATOM     61  C   UNL A   1      42.247  26.627  27.653  1.00  0.00     0.023 A 
ATOM     62  C   UNL A   1      41.898  25.287  27.400  1.00  0.00     0.031 A 
ATOM     63  C   UNL A   1      43.205  27.225  26.817  1.00  0.00     0.131 A 
ATOM     64  C   UNL A   1      42.556  24.571  26.388  1.00  0.00     0.055 A 
ATOM     65  C   UNL A   1      43.799  26.531  25.761  1.00  0.00     0.041 A 
ATOM     66  F   UNL A   1      43.597  28.492  27.025  1.00  0.00    -0.206 F 
ATOM     67  C   UNL A   1      43.487  25.191  25.551  1.00  0.00     0.022 A 
BRANCH  64  68
ATOM     68  S   UNL A   1      42.288  22.780  26.274  1.00  0.00     0.124 S 
ATOM     69  O   UNL A   1      43.049  22.295  27.422  1.00  0.00    -0.237 OA
ATOM     70  O   UNL A   1      40.838  22.671  26.375  1.00  0.00    -0.237 OA
ATOM     71  O   UNL A   1      42.851  22.431  24.971  1.00  0.00    -0.744 OA
ENDBRANCH  64  68
ENDBRANCH  47  61
BRANCH  48  72
ATOM     72  C   UNL A   1      38.884  31.721  35.637  1.00  0.00     0.023 A 
ATOM     73  C   UNL A   1      38.230  31.101  36.713  1.00  0.00     0.031 A 
ATOM     74  C   UNL A   1      39.014  33.122  35.664  1.00  0.00     0.131 A 
ATOM     75  C   UNL A   1      37.691  31.882  37.747  1.00  0.00     0.055 A 
ATOM     76  C   UNL A   1      38.520  33.890  36.719  1.00  0.00     0.041 A 
ATOM     77  F   UNL A   1      39.629  33.767  34.660  1.00  0.00    -0.206 F 
ATOM     78  C   UNL A   1      37.842  33.270  37.764  1.00  0.00     0.022 A 
BRANCH  75  79
ATOM     79  S   UNL A   1      36.710  31.062  39.036  1.00  0.00     0.124 S 
ATOM     80  O   UNL A   1      35.574  31.967  39.165  1.00  0.00    -0.237 OA
ATOM     81  O   UNL A   1      36.434  29.766  38.426  1.00  0.00    -0.237 OA
ATOM     82  O   UNL A   1      37.615  31.029  40.183  1.00  0.00    -0.744 OA
ENDBRANCH  75  79
ENDBRANCH  48  72
BRANCH  60  83
ATOM     83  C   UNL A   1      36.772  31.202  29.014  1.00  0.00     0.023 A 
ATOM     84  C   UNL A   1      35.693  30.425  28.557  1.00  0.00     0.031 A 
ATOM     85  C   UNL A   1      36.755  32.582  28.742  1.00  0.00     0.131 A 
ATOM     86  C   UNL A   1      34.680  31.018  27.789  1.00  0.00     0.055 A 
ATOM     87  C   UNL A   1      35.709  33.179  28.036  1.00  0.00     0.041 A 
ATOM     88  F   UNL A   1      37.758  33.373  29.154  1.00  0.00    -0.206 F 
ATOM     89  C   UNL A   1      34.673  32.393  27.540  1.00  0.00     0.022 A 
BRANCH  86  90
ATOM     90  S   UNL A   1      33.434  29.947  27.021  1.00  0.00     0.124 S 
ATOM     91  O   UNL A   1      33.722  28.656  27.637  1.00  0.00    -0.237 OA
ATOM     92  O   UNL A   1      32.184  30.582  27.426  1.00  0.00    -0.237 OA
ATOM     93  O   UNL A   1      33.739  30.035  25.594  1.00  0.00    -0.744 OA
ENDBRANCH  86  90
ENDBRANCH  60  83
ENDBRANCH  34  35
ENDBRANCH  27  29
ENDBRANCH  26  27
ENDBRANCH  25  26
ENDBRANCH  24  25
ENDBRANCH  23  24
ENDBRANCH   1  23
TORSDOF 23
ENDMDL
MODEL 2
REMARK VINA RESULT:      -9.5      6.134     13.339
REMARK SMILES CCOC[C@@H](O)C[C@]1(C(=O)OCCOCCOC(=O)c2ccc(-c3c4nc(c(-c5cc(S(=O)(=O)[O-])ccc5F)c5ccc([nH]5)c(-c5cc(S(=O)(=O)[O-])ccc5F)c5nc(c(-c6cc(S(=O)(=O)[O-])ccc6F)c6ccc3[nH]6)C=C5)C=C4)cc2)CCc2ccccc21
REMARK SMILES IDX 13 1 12 2 11 3 9 4 10 5 8 6 83 7 90 8 84 9 85 10 89 11 86 12
REMARK SMILES IDX 88 13 87 14 7 15 5 16 4 17 3 18 2 19 1 20 6 21 14 23 15 24
REMARK SMILES IDX 16 25 17 26 18 27 19 28 20 29 21 30 82 31 22 32 81 33 23 34
REMARK SMILES IDX 24 35 25 36 75 37 26 38 80 39 74 40 76 41 27 42 79 43 73 44
REMARK SMILES IDX 72 45 28 47 60 48 40 49 59 50 41 51 44 52 58 53 77 54 42 55
REMARK SMILES IDX 43 56 57 58 78 59 45 60 29 61 30 62 38 63 31 64 37 65 39 66
REMARK SMILES IDX 36 67 32 68 33 69 34 70 35 71 61 72 62 73 70 74 63 75 69 76
REMARK SMILES IDX 71 77 68 78 64 79 65 80 66 81 67 82 46 83 47 84 55 85 48 86
REMARK SMILES IDX 54 87 56 88 53 89 49 90 50 91 51 92 52 93
REMARK H PARENT 6 22 76 46 44 57
REMARK Flexibility Score: inf
ROOT
ATOM      1  C   UNL A   1      37.768  31.992  37.814  1.00  0.00     0.202 C 
ENDROOT
BRANCH   1   2
ATOM      2  C   UNL A   1      38.470  31.820  36.464  1.00  0.00     0.261 C 
BRANCH   2   3
ATOM      3  O   UNL A   1      37.519  31.633  35.397  1.00  0.00    -0.463 OA
BRANCH   3   4
ATOM      4  C   UNL A   1      38.037  31.368  34.167  1.00  0.00     0.316 C 
ATOM      5  O   UNL A   1      38.941  30.566  33.955  1.00  0.00    -0.251 OA
BRANCH   4   6
ATOM      6  C   UNL A   1      37.361  32.182  33.049  1.00  0.00     0.096 C 
ATOM      7  C   UNL A   1      38.157  33.413  32.533  1.00  0.00     0.028 C 
ATOM      8  C   UNL A   1      37.341  31.334  31.787  1.00  0.00    -0.027 A 
ATOM      9  C   UNL A   1      39.028  32.971  31.351  1.00  0.00     0.037 C 
ATOM     10  C   UNL A   1      38.251  31.807  30.836  1.00  0.00    -0.044 A 
ATOM     11  C   UNL A   1      36.610  30.178  31.548  1.00  0.00     0.005 A 
ATOM     12  C   UNL A   1      38.417  31.166  29.619  1.00  0.00     0.004 A 
ATOM     13  C   UNL A   1      36.777  29.520  30.330  1.00  0.00     0.000 A 
ATOM     14  C   UNL A   1      37.665  30.018  29.366  1.00  0.00     0.000 A 
BRANCH   6  15
ATOM     15  C   UNL A   1      35.918  32.569  33.494  1.00  0.00     0.057 C 
BRANCH  15  16
ATOM     16  C   UNL A   1      35.358  33.941  33.061  1.00  0.00     0.141 C 
BRANCH  16  17
ATOM     17  C   UNL A   1      34.530  33.912  31.763  1.00  0.00     0.191 C 
BRANCH  17  18
ATOM     18  O   UNL A   1      33.327  34.686  31.815  1.00  0.00    -0.379 OA
BRANCH  18  19
ATOM     19  C   UNL A   1      33.375  36.013  31.302  1.00  0.00     0.157 C 
ATOM     20  C   UNL A   1      32.928  36.156  29.856  1.00  0.00     0.035 C 
ENDBRANCH  18  19
ENDBRANCH  17  18
ENDBRANCH  16  17
BRANCH  16  21
ATOM     21  O   UNL A   1      34.495  34.369  34.130  1.00  0.00    -0.391 OA
ATOM     22  H   UNL A   1      33.705  33.805  34.153  1.00  0.00     0.211 HD
ENDBRANCH  16  21
ENDBRANCH  15  16
ENDBRANCH   6  15
ENDBRANCH   4   6
ENDBRANCH   3   4
ENDBRANCH   2   3
ENDBRANCH   1   2
BRANCH   1  23
ATOM     23  O   UNL A   1      37.792  33.306  38.379  1.00  0.00    -0.374 OA
BRANCH  23  24
ATOM     24  C   UNL A   1      38.509  33.482  39.598  1.00  0.00     0.202 C 
BRANCH  24  25
ATOM     25  C   UNL A   1      38.917  34.905  39.986  1.00  0.00     0.261 C 
BRANCH  25  26
ATOM     26  O   UNL A   1      40.249  35.218  39.558  1.00  0.00    -0.460 OA
BRANCH  26  27
ATOM     27  C   UNL A   1      40.291  36.188  38.614  1.00  0.00     0.338 C 
ATOM     28  O   UNL A   1      40.056  37.379  38.778  1.00  0.00    -0.246 OA
BRANCH  27  29
ATOM     29  C   UNL A   1      40.848  35.663  37.357  1.00  0.00     0.060 A 
ATOM     30  C   UNL A   1      39.928  35.380  36.341  1.00  0.00     0.016 A 
ATOM     31  C   UNL A   1      42.207  35.383  37.190  1.00  0.00     0.016 A 
ATOM     32  C   UNL A   1      40.346  34.720  35.194  1.00  0.00     0.010 A 
ATOM     33  C   UNL A   1      42.627  34.717  36.032  1.00  0.00     0.010 A 
ATOM     34  C   UNL A   1      41.685  34.331  35.061  1.00  0.00    -0.014 A 
BRANCH  34  35
ATOM     35  C   UNL A   1      42.009  33.330  34.018  1.00  0.00     0.031 A 
ATOM     36  C   UNL A   1      42.335  33.822  32.631  1.00  0.00     0.074 A 
ATOM     37  C   UNL A   1      42.139  32.029  34.333  1.00  0.00     0.049 A 
ATOM     38  N   UNL A   1      42.757  33.155  31.589  1.00  0.00    -0.248 NA
ATOM     39  C   UNL A   1      42.164  35.264  32.393  1.00  0.00     0.031 C 
ATOM     40  C   UNL A   1      41.895  31.456  35.657  1.00  0.00     0.029 A 
ATOM     41  N   UNL A   1      42.532  30.960  33.570  1.00  0.00    -0.354 N 
ATOM     42  C   UNL A   1      42.912  34.096  30.576  1.00  0.00     0.074 A 
ATOM     43  C   UNL A   1      42.486  35.369  31.114  1.00  0.00     0.031 C 
ATOM     44  C   UNL A   1      42.157  30.138  35.615  1.00  0.00     0.029 A 
ATOM     45  C   UNL A   1      42.564  29.772  34.260  1.00  0.00     0.049 A 
ATOM     46  H   UNL A   1      42.770  31.037  32.618  1.00  0.00     0.167 HD
ATOM     47  C   UNL A   1      43.383  33.918  29.318  1.00  0.00     0.034 A 
ATOM     48  C   UNL A   1      42.882  28.532  33.840  1.00  0.00     0.034 A 
ATOM     49  C   UNL A   1      43.792  32.637  28.795  1.00  0.00     0.049 A 
ATOM     50  C   UNL A   1      43.334  28.345  32.412  1.00  0.00     0.074 A 
ATOM     51  C   UNL A   1      44.285  32.332  27.538  1.00  0.00     0.029 A 
ATOM     52  N   UNL A   1      43.745  31.440  29.503  1.00  0.00    -0.354 N 
ATOM     53  N   UNL A   1      43.488  29.245  31.467  1.00  0.00    -0.248 NA
ATOM     54  C   UNL A   1      43.670  26.976  32.002  1.00  0.00     0.031 C 
ATOM     55  C   UNL A   1      44.468  30.946  27.464  1.00  0.00     0.029 A 
ATOM     56  C   UNL A   1      44.165  30.393  28.697  1.00  0.00     0.049 A 
ATOM     57  H   UNL A   1      43.454  31.350  30.438  1.00  0.00     0.167 HD
ATOM     58  C   UNL A   1      43.963  28.552  30.356  1.00  0.00     0.074 A 
ATOM     59  C   UNL A   1      44.093  27.166  30.760  1.00  0.00     0.031 C 
ATOM     60  C   UNL A   1      44.264  29.013  29.114  1.00  0.00     0.034 A 
BRANCH  47  61
ATOM     61  C   UNL A   1      43.423  35.129  28.416  1.00  0.00     0.023 A 
ATOM     62  C   UNL A   1      44.626  35.798  28.122  1.00  0.00     0.031 A 
ATOM     63  C   UNL A   1      42.234  35.653  27.881  1.00  0.00     0.131 A 
ATOM     64  C   UNL A   1      44.603  36.989  27.380  1.00  0.00     0.055 A 
ATOM     65  C   UNL A   1      42.226  36.795  27.076  1.00  0.00     0.041 A 
ATOM     66  F   UNL A   1      41.052  35.074  28.147  1.00  0.00    -0.206 F 
ATOM     67  C   UNL A   1      43.414  37.479  26.834  1.00  0.00     0.022 A 
BRANCH  64  68
ATOM     68  S   UNL A   1      46.125  37.969  27.260  1.00  0.00     0.124 S 
ATOM     69  O   UNL A   1      46.165  38.613  28.571  1.00  0.00    -0.237 OA
ATOM     70  O   UNL A   1      47.138  36.950  27.015  1.00  0.00    -0.237 OA
ATOM     71  O   UNL A   1      45.864  38.872  26.140  1.00  0.00    -0.744 OA
ENDBRANCH  64  68
ENDBRANCH  47  61
BRANCH  48  72
ATOM     72  C   UNL A   1      42.762  27.366  34.763  1.00  0.00     0.023 A 
ATOM     73  C   UNL A   1      43.829  26.966  35.583  1.00  0.00     0.031 A 
ATOM     74  C   UNL A   1      41.584  26.596  34.792  1.00  0.00     0.131 A 
ATOM     75  C   UNL A   1      43.714  25.805  36.364  1.00  0.00     0.055 A 
ATOM     76  C   UNL A   1      41.457  25.471  35.608  1.00  0.00     0.041 A 
ATOM     77  F   UNL A   1      40.534  26.933  34.027  1.00  0.00    -0.206 F 
ATOM     78  C   UNL A   1      42.532  25.062  36.390  1.00  0.00     0.022 A 
BRANCH  75  79
ATOM     79  S   UNL A   1      45.167  25.227  37.283  1.00  0.00     0.124 S 
ATOM     80  O   UNL A   1      45.067  23.781  37.120  1.00  0.00    -0.237 OA
ATOM     81  O   UNL A   1      46.257  25.881  36.568  1.00  0.00    -0.237 OA
ATOM     82  O   UNL A   1      44.930  25.719  38.639  1.00  0.00    -0.744 OA
ENDBRANCH  75  79
ENDBRANCH  48  72
BRANCH  60  83
ATOM     83  C   UNL A   1      44.786  28.001  28.123  1.00  0.00     0.023 A 
ATOM     84  C   UNL A   1      43.921  27.287  27.275  1.00  0.00     0.031 A 
ATOM     85  C   UNL A   1      46.163  27.723  28.048  1.00  0.00     0.131 A 
ATOM     86  C   UNL A   1      44.432  26.280  26.443  1.00  0.00     0.055 A 
ATOM     87  C   UNL A   1      46.673  26.768  27.168  1.00  0.00     0.041 A 
ATOM     88  F   UNL A   1      47.035  28.374  28.833  1.00  0.00    -0.206 F 
ATOM     89  C   UNL A   1      45.804  26.027  26.372  1.00  0.00     0.022 A 
BRANCH  86  90
ATOM     90  S   UNL A   1      43.264  25.224  25.541  1.00  0.00     0.124 S 
ATOM     91  O   UNL A   1      44.156  24.447  24.686  1.00  0.00    -0.237 OA
ATOM     92  O   UNL A   1      42.613  24.488  26.619  1.00  0.00    -0.237 OA
ATOM     93  O   UNL A   1      42.410  26.180  24.839  1.00  0.00    -0.744 OA
ENDBRANCH  86  90
ENDBRANCH  60  83
ENDBRANCH  34  35
ENDBRANCH  27  29
ENDBRANCH  26  27
ENDBRANCH  25  26
ENDBRANCH  24  25
ENDBRANCH  23  24
ENDBRANCH   1  23
TORSDOF 23
ENDMDL
MODEL 3
REMARK VINA RESULT:      -9.5      5.767     12.646
REMARK SMILES CCOC[C@@H](O)C[C@]1(C(=O)OCCOCCOC(=O)c2ccc(-c3c4nc(c(-c5cc(S(=O)(=O)[O-])ccc5F)c5ccc([nH]5)c(-c5cc(S(=O)(=O)[O-])ccc5F)c5nc(c(-c6cc(S(=O)(=O)[O-])ccc6F)c6ccc3[nH]6)C=C5)C=C4)cc2)CCc2ccccc21
REMARK SMILES IDX 13 1 12 2 11 3 9 4 10 5 8 6 83 7 90 8 84 9 85 10 89 11 86 12
REMARK SMILES IDX 88 13 87 14 7 15 5 16 4 17 3 18 2 19 1 20 6 21 14 23 15 24
REMARK SMILES IDX 16 25 17 26 18 27 19 28 20 29 21 30 82 31 22 32 81 33 23 34
REMARK SMILES IDX 24 35 25 36 75 37 26 38 80 39 74 40 76 41 27 42 79 43 73 44
REMARK SMILES IDX 72 45 28 47 60 48 40 49 59 50 41 51 44 52 58 53 77 54 42 55
REMARK SMILES IDX 43 56 57 58 78 59 45 60 29 61 30 62 38 63 31 64 37 65 39 66
REMARK SMILES IDX 36 67 32 68 33 69 34 70 35 71 61 72 62 73 70 74 63 75 69 76
REMARK SMILES IDX 71 77 68 78 64 79 65 80 66 81 67 82 46 83 47 84 55 85 48 86
REMARK SMILES IDX 54 87 56 88 53 89 49 90 50 91 51 92 52 93
REMARK H PARENT 6 22 76 46 44 57
REMARK Flexibility Score: inf
ROOT
ATOM      1  C   UNL A   1      48.439  27.100  23.843  1.00  0.00     0.202 C 
ENDROOT
BRANCH   1   2
ATOM      2  C   UNL A   1      47.901  25.696  24.134  1.00  0.00     0.261 C 
BRANCH   2   3
ATOM      3  O   UNL A   1      46.970  25.709  25.235  1.00  0.00    -0.463 OA
BRANCH   3   4
ATOM      4  C   UNL A   1      46.199  24.598  25.385  1.00  0.00     0.316 C 
ATOM      5  O   UNL A   1      46.620  23.448  25.315  1.00  0.00    -0.251 OA
BRANCH   4   6
ATOM      6  C   UNL A   1      44.722  24.932  25.661  1.00  0.00     0.096 C 
ATOM      7  C   UNL A   1      43.685  24.215  24.753  1.00  0.00     0.028 C 
ATOM      8  C   UNL A   1      44.344  24.342  27.010  1.00  0.00    -0.027 A 
ATOM      9  C   UNL A   1      43.263  22.906  25.433  1.00  0.00     0.037 C 
ATOM     10  C   UNL A   1      43.502  23.233  26.868  1.00  0.00    -0.044 A 
ATOM     11  C   UNL A   1      44.789  24.732  28.266  1.00  0.00     0.005 A 
ATOM     12  C   UNL A   1      43.055  22.524  27.971  1.00  0.00     0.004 A 
ATOM     13  C   UNL A   1      44.353  24.018  29.382  1.00  0.00     0.000 A 
ATOM     14  C   UNL A   1      43.481  22.929  29.237  1.00  0.00     0.000 A 
BRANCH   6  15
ATOM     15  C   UNL A   1      44.533  26.480  25.647  1.00  0.00     0.057 C 
BRANCH  15  16
ATOM     16  C   UNL A   1      43.100  27.045  25.537  1.00  0.00     0.141 C 
BRANCH  16  17
ATOM     17  C   UNL A   1      42.750  28.106  26.597  1.00  0.00     0.191 C 
BRANCH  17  18
ATOM     18  O   UNL A   1      41.504  27.881  27.265  1.00  0.00    -0.379 OA
BRANCH  18  19
ATOM     19  C   UNL A   1      40.886  26.610  27.094  1.00  0.00     0.157 C 
ATOM     20  C   UNL A   1      40.969  25.692  28.303  1.00  0.00     0.035 C 
ENDBRANCH  18  19
ENDBRANCH  17  18
ENDBRANCH  16  17
BRANCH  16  21
ATOM     21  O   UNL A   1      43.020  27.666  24.242  1.00  0.00    -0.391 OA
ATOM     22  H   UNL A   1      43.776  27.385  23.701  1.00  0.00     0.211 HD
ENDBRANCH  16  21
ENDBRANCH  15  16
ENDBRANCH   6  15
ENDBRANCH   4   6
ENDBRANCH   3   4
ENDBRANCH   2   3
ENDBRANCH   1   2
BRANCH   1  23
ATOM     23  O   UNL A   1      49.817  27.187  23.465  1.00  0.00    -0.374 OA
BRANCH  23  24
ATOM     24  C   UNL A   1      50.707  27.823  24.377  1.00  0.00     0.202 C 
BRANCH  24  25
ATOM     25  C   UNL A   1      52.058  27.154  24.638  1.00  0.00     0.261 C 
BRANCH  25  26
ATOM     26  O   UNL A   1      52.358  27.073  26.037  1.00  0.00    -0.460 OA
BRANCH  26  27
ATOM     27  C   UNL A   1      51.890  25.944  26.618  1.00  0.00     0.338 C 
ATOM     28  O   UNL A   1      52.366  24.819  26.519  1.00  0.00    -0.246 OA
BRANCH  27  29
ATOM     29  C   UNL A   1      50.808  26.258  27.565  1.00  0.00     0.060 A 
ATOM     30  C   UNL A   1      49.644  25.489  27.455  1.00  0.00     0.016 A 
ATOM     31  C   UNL A   1      50.886  27.311  28.480  1.00  0.00     0.016 A 
ATOM     32  C   UNL A   1      48.516  25.834  28.186  1.00  0.00     0.010 A 
ATOM     33  C   UNL A   1      49.747  27.658  29.217  1.00  0.00     0.010 A 
ATOM     34  C   UNL A   1      48.543  26.956  29.023  1.00  0.00    -0.014 A 
BRANCH  34  35
ATOM     35  C   UNL A   1      47.244  27.495  29.492  1.00  0.00     0.031 A 
ATOM     36  C   UNL A   1      46.567  26.819  30.656  1.00  0.00     0.074 A 
ATOM     37  C   UNL A   1      46.751  28.636  28.978  1.00  0.00     0.049 A 
ATOM     38  N   UNL A   1      45.494  27.171  31.313  1.00  0.00    -0.248 NA
ATOM     39  C   UNL A   1      47.192  25.580  31.145  1.00  0.00     0.031 C 
ATOM     40  C   UNL A   1      47.355  29.395  27.883  1.00  0.00     0.029 A 
ATOM     41  N   UNL A   1      45.645  29.367  29.326  1.00  0.00    -0.354 N 
ATOM     42  C   UNL A   1      45.320  26.204  32.299  1.00  0.00     0.074 A 
ATOM     43  C   UNL A   1      46.367  25.223  32.116  1.00  0.00     0.031 C 
ATOM     44  C   UNL A   1      46.615  30.495  27.657  1.00  0.00     0.029 A 
ATOM     45  C   UNL A   1      45.477  30.504  28.573  1.00  0.00     0.049 A 
ATOM     46  H   UNL A   1      45.030  29.102  30.047  1.00  0.00     0.167 HD
ATOM     47  C   UNL A   1      44.383  26.149  33.277  1.00  0.00     0.034 A 
ATOM     48  C   UNL A   1      44.510  31.442  28.621  1.00  0.00     0.034 A 
ATOM     49  C   UNL A   1      43.339  27.132  33.435  1.00  0.00     0.049 A 
ATOM     50  C   UNL A   1      43.434  31.320  29.672  1.00  0.00     0.074 A 
ATOM     51  C   UNL A   1      42.334  27.181  34.386  1.00  0.00     0.029 A 
ATOM     52  N   UNL A   1      43.158  28.236  32.609  1.00  0.00    -0.354 N 
ATOM     53  N   UNL A   1      43.288  30.407  30.606  1.00  0.00    -0.248 NA
ATOM     54  C   UNL A   1      42.403  32.365  29.683  1.00  0.00     0.031 C 
ATOM     55  C   UNL A   1      41.508  28.273  34.094  1.00  0.00     0.029 A 
ATOM     56  C   UNL A   1      42.039  28.951  33.008  1.00  0.00     0.049 A 
ATOM     57  H   UNL A   1      43.739  28.474  31.852  1.00  0.00     0.167 HD
ATOM     58  C   UNL A   1      42.160  30.784  31.332  1.00  0.00     0.074 A 
ATOM     59  C   UNL A   1      41.684  32.019  30.742  1.00  0.00     0.031 C 
ATOM     60  C   UNL A   1      41.568  30.168  32.389  1.00  0.00     0.034 A 
BRANCH  47  61
ATOM     61  C   UNL A   1      44.423  24.959  34.206  1.00  0.00     0.023 A 
ATOM     62  C   UNL A   1      44.928  25.055  35.516  1.00  0.00     0.031 A 
ATOM     63  C   UNL A   1      43.994  23.697  33.759  1.00  0.00     0.131 A 
ATOM     64  C   UNL A   1      45.060  23.900  36.303  1.00  0.00     0.055 A 
ATOM     65  C   UNL A   1      44.054  22.565  34.575  1.00  0.00     0.041 A 
ATOM     66  F   UNL A   1      43.527  23.538  32.510  1.00  0.00    -0.206 F 
ATOM     67  C   UNL A   1      44.603  22.660  35.850  1.00  0.00     0.022 A 
BRANCH  64  68
ATOM     68  S   UNL A   1      45.969  24.012  37.869  1.00  0.00     0.124 S 
ATOM     69  O   UNL A   1      47.081  24.886  37.501  1.00  0.00    -0.237 OA
ATOM     70  O   UNL A   1      44.977  24.584  38.770  1.00  0.00    -0.237 OA
ATOM     71  O   UNL A   1      46.343  22.627  38.149  1.00  0.00    -0.744 OA
ENDBRANCH  64  68
ENDBRANCH  47  61
BRANCH  48  72
ATOM     72  C   UNL A   1      44.492  32.561  27.634  1.00  0.00     0.023 A 
ATOM     73  C   UNL A   1      44.996  33.831  27.954  1.00  0.00     0.031 A 
ATOM     74  C   UNL A   1      43.910  32.384  26.364  1.00  0.00     0.131 A 
ATOM     75  C   UNL A   1      44.870  34.885  27.037  1.00  0.00     0.055 A 
ATOM     76  C   UNL A   1      43.833  33.423  25.436  1.00  0.00     0.041 A 
ATOM     77  F   UNL A   1      43.411  31.191  26.006  1.00  0.00    -0.206 F 
ATOM     78  C   UNL A   1      44.303  34.688  25.776  1.00  0.00     0.022 A 
BRANCH  75  79
ATOM     79  S   UNL A   1      45.383  36.550  27.547  1.00  0.00     0.124 S 
ATOM     80  O   UNL A   1      45.682  36.349  28.961  1.00  0.00    -0.237 OA
ATOM     81  O   UNL A   1      46.527  36.794  26.676  1.00  0.00    -0.237 OA
ATOM     82  O   UNL A   1      44.205  37.369  27.269  1.00  0.00    -0.744 OA
ENDBRANCH  75  79
ENDBRANCH  48  72
BRANCH  60  83
ATOM     83  C   UNL A   1      40.356  30.849  32.978  1.00  0.00     0.023 A 
ATOM     84  C   UNL A   1      40.453  31.672  34.114  1.00  0.00     0.031 A 
ATOM     85  C   UNL A   1      39.083  30.649  32.415  1.00  0.00     0.131 A 
ATOM     86  C   UNL A   1      39.291  32.202  34.695  1.00  0.00     0.055 A 
ATOM     87  C   UNL A   1      37.938  31.235  32.956  1.00  0.00     0.041 A 
ATOM     88  F   UNL A   1      38.930  29.874  31.329  1.00  0.00    -0.206 F 
ATOM     89  C   UNL A   1      38.037  32.003  34.114  1.00  0.00     0.022 A 
BRANCH  86  90
ATOM     90  S   UNL A   1      39.431  33.059  36.288  1.00  0.00     0.124 S 
ATOM     91  O   UNL A   1      40.666  33.818  36.116  1.00  0.00    -0.237 OA
ATOM     92  O   UNL A   1      38.201  33.843  36.329  1.00  0.00    -0.237 OA
ATOM     93  O   UNL A   1      39.504  31.968  37.258  1.00  0.00    -0.744 OA
ENDBRANCH  86  90
ENDBRANCH  60  83
ENDBRANCH  34  35
ENDBRANCH  27  29
ENDBRANCH  26  27
ENDBRANCH  25  26
ENDBRANCH  24  25
ENDBRANCH  23  24
ENDBRANCH   1  23
TORSDOF 23
ENDMDL
