MODEL 1
REMARK VINA RESULT:     -11.4      0.000      0.000
REMARK SMILES O=C(OCCOCCOC(=O)c1cccc(Nc2ccc([N+](=O)[O-])cc2)c1)c1ccc(-c2c3nc(c(-c4cc(S(=O)(=O)[O-])ccc4F)c4ccc([nH]4)c(-c4cc(S(=O)(=O)[O-])ccc4F)c4nc(c(-c5cc(S(=O)(=O)[O-])ccc5F)c5ccc2[nH]5)C=C4)C=C3)cc1
REMARK SMILES IDX 6 1 5 2 4 3 3 4 2 5 1 6 28 7 29 8 90 9 30 10 89 11 31 12
REMARK SMILES IDX 32 13 33 14 83 15 34 16 88 17 82 18 84 19 35 20 87 21 81 22
REMARK SMILES IDX 80 23 36 25 68 26 48 27 67 28 49 29 52 30 66 31 85 32 50 33
REMARK SMILES IDX 51 34 65 36 86 37 53 38 37 39 38 40 46 41 39 42 45 43 47 44
REMARK SMILES IDX 44 45 40 46 41 47 42 48 43 49 69 50 70 51 78 52 71 53 77 54
REMARK SMILES IDX 79 55 76 56 72 57 73 58 74 59 75 60 54 61 55 62 63 63 56 64
REMARK SMILES IDX 62 65 64 66 61 67 57 68 58 69 59 70 60 71 7 72 8 73 9 74
REMARK SMILES IDX 10 75 11 76 12 77 13 78 27 79 14 80 16 81 15 82 17 83 18 85
REMARK SMILES IDX 19 86 26 87 20 88 25 89 21 90 22 91 23 92 24 93
REMARK H PARENT 84 24 52 35 17 84
REMARK Flexibility Score: inf
ROOT
ATOM      1  O   UNL A   1      31.427  28.998  24.375  1.00  0.00    -0.374 OA
ENDROOT
BRANCH   1   2
ATOM      2  C   UNL A   1      31.285  30.119  25.250  1.00  0.00     0.202 C 
BRANCH   2   3
ATOM      3  C   UNL A   1      32.534  30.450  26.071  1.00  0.00     0.261 C 
BRANCH   3   4
ATOM      4  O   UNL A   1      32.290  31.583  26.921  1.00  0.00    -0.460 OA
BRANCH   4   5
ATOM      5  C   UNL A   1      33.196  32.363  27.558  1.00  0.00     0.338 C 
ATOM      6  O   UNL A   1      32.927  33.552  27.721  1.00  0.00    -0.246 OA
BRANCH   5   7
ATOM      7  C   UNL A   1      34.504  31.862  28.084  1.00  0.00     0.060 A 
ATOM      8  C   UNL A   1      34.744  30.562  28.528  1.00  0.00     0.016 A 
ATOM      9  C   UNL A   1      35.591  32.755  28.049  1.00  0.00     0.016 A 
ATOM     10  C   UNL A   1      35.984  30.173  29.006  1.00  0.00     0.010 A 
ATOM     11  C   UNL A   1      36.860  32.359  28.486  1.00  0.00     0.010 A 
ATOM     12  C   UNL A   1      37.048  31.070  28.993  1.00  0.00    -0.014 A 
BRANCH  12  13
ATOM     13  C   UNL A   1      38.291  30.642  29.660  1.00  0.00     0.031 A 
ATOM     14  C   UNL A   1      38.502  31.057  31.084  1.00  0.00     0.074 A 
ATOM     15  C   UNL A   1      39.095  29.753  29.050  1.00  0.00     0.049 A 
ATOM     16  N   UNL A   1      39.483  30.773  31.896  1.00  0.00    -0.248 NA
ATOM     17  C   UNL A   1      37.447  31.893  31.682  1.00  0.00     0.031 C 
ATOM     18  C   UNL A   1      38.867  29.198  27.712  1.00  0.00     0.029 A 
ATOM     19  N   UNL A   1      40.227  29.120  29.483  1.00  0.00    -0.354 N 
ATOM     20  C   UNL A   1      39.178  31.414  33.091  1.00  0.00     0.074 A 
ATOM     21  C   UNL A   1      37.928  32.111  32.894  1.00  0.00     0.031 C 
ATOM     22  C   UNL A   1      39.809  28.276  27.454  1.00  0.00     0.029 A 
ATOM     23  C   UNL A   1      40.744  28.229  28.571  1.00  0.00     0.049 A 
ATOM     24  H   UNL A   1      40.633  29.286  30.365  1.00  0.00     0.167 HD
ATOM     25  C   UNL A   1      39.891  31.418  34.243  1.00  0.00     0.034 A 
ATOM     26  C   UNL A   1      41.864  27.482  28.634  1.00  0.00     0.034 A 
ATOM     27  C   UNL A   1      41.143  30.718  34.384  1.00  0.00     0.049 A 
ATOM     28  C   UNL A   1      42.696  27.588  29.888  1.00  0.00     0.074 A 
ATOM     29  C   UNL A   1      42.020  30.708  35.452  1.00  0.00     0.029 A 
ATOM     30  N   UNL A   1      41.699  29.899  33.404  1.00  0.00    -0.354 N 
ATOM     31  N   UNL A   1      42.450  28.271  30.987  1.00  0.00    -0.248 NA
ATOM     32  C   UNL A   1      43.953  26.835  29.914  1.00  0.00     0.031 C 
ATOM     33  C   UNL A   1      43.132  29.936  35.094  1.00  0.00     0.029 A 
ATOM     34  C   UNL A   1      42.917  29.398  33.833  1.00  0.00     0.049 A 
ATOM     35  H   UNL A   1      41.286  29.704  32.532  1.00  0.00     0.167 HD
ATOM     36  C   UNL A   1      43.514  28.009  31.843  1.00  0.00     0.074 A 
ATOM     37  C   UNL A   1      44.387  27.088  31.140  1.00  0.00     0.031 C 
ATOM     38  C   UNL A   1      43.758  28.485  33.092  1.00  0.00     0.034 A 
BRANCH  25  39
ATOM     39  C   UNL A   1      39.374  32.295  35.357  1.00  0.00     0.023 A 
ATOM     40  C   UNL A   1      39.714  33.657  35.458  1.00  0.00     0.031 A 
ATOM     41  C   UNL A   1      38.626  31.728  36.403  1.00  0.00     0.131 A 
ATOM     42  C   UNL A   1      39.390  34.376  36.620  1.00  0.00     0.055 A 
ATOM     43  C   UNL A   1      38.231  32.471  37.517  1.00  0.00     0.041 A 
ATOM     44  F   UNL A   1      38.299  30.426  36.381  1.00  0.00    -0.206 F 
ATOM     45  C   UNL A   1      38.630  33.798  37.640  1.00  0.00     0.022 A 
BRANCH  42  46
ATOM     46  S   UNL A   1      40.126  36.018  36.863  1.00  0.00     0.124 S 
ATOM     47  O   UNL A   1      39.288  36.563  37.929  1.00  0.00    -0.237 OA
ATOM     48  O   UNL A   1      41.500  35.698  37.232  1.00  0.00    -0.237 OA
ATOM     49  O   UNL A   1      39.964  36.664  35.563  1.00  0.00    -0.744 OA
ENDBRANCH  42  46
ENDBRANCH  25  39
BRANCH  26  50
ATOM     50  C   UNL A   1      42.294  26.638  27.479  1.00  0.00     0.023 A 
ATOM     51  C   UNL A   1      41.927  25.285  27.378  1.00  0.00     0.031 A 
ATOM     52  C   UNL A   1      43.130  27.163  26.475  1.00  0.00     0.131 A 
ATOM     53  C   UNL A   1      42.427  24.498  26.326  1.00  0.00     0.055 A 
ATOM     54  C   UNL A   1      43.576  26.393  25.399  1.00  0.00     0.041 A 
ATOM     55  F   UNL A   1      43.524  28.446  26.520  1.00  0.00    -0.206 F 
ATOM     56  C   UNL A   1      43.237  25.047  25.329  1.00  0.00     0.022 A 
BRANCH  53  57
ATOM     57  S   UNL A   1      42.086  22.716  26.328  1.00  0.00     0.124 S 
ATOM     58  O   UNL A   1      42.892  22.256  25.204  1.00  0.00    -0.237 OA
ATOM     59  O   UNL A   1      42.548  22.321  27.654  1.00  0.00    -0.237 OA
ATOM     60  O   UNL A   1      40.640  22.647  26.128  1.00  0.00    -0.744 OA
ENDBRANCH  53  57
ENDBRANCH  26  50
BRANCH  38  61
ATOM     61  C   UNL A   1      44.996  27.965  33.776  1.00  0.00     0.023 A 
ATOM     62  C   UNL A   1      44.963  26.819  34.589  1.00  0.00     0.031 A 
ATOM     63  C   UNL A   1      46.220  28.641  33.625  1.00  0.00     0.131 A 
ATOM     64  C   UNL A   1      46.119  26.421  35.275  1.00  0.00     0.055 A 
ATOM     65  C   UNL A   1      47.382  28.201  34.257  1.00  0.00     0.041 A 
ATOM     66  F   UNL A   1      46.303  29.740  32.859  1.00  0.00    -0.206 F 
ATOM     67  C   UNL A   1      47.332  27.094  35.100  1.00  0.00     0.022 A 
BRANCH  64  68
ATOM     68  S   UNL A   1      45.989  25.076  36.483  1.00  0.00     0.124 S 
ATOM     69  O   UNL A   1      46.251  23.901  35.658  1.00  0.00    -0.237 OA
ATOM     70  O   UNL A   1      47.027  25.421  37.447  1.00  0.00    -0.237 OA
ATOM     71  O   UNL A   1      44.619  25.193  36.978  1.00  0.00    -0.744 OA
ENDBRANCH  64  68
ENDBRANCH  38  61
ENDBRANCH  12  13
ENDBRANCH   5   7
ENDBRANCH   4   5
ENDBRANCH   3   4
ENDBRANCH   2   3
ENDBRANCH   1   2
BRANCH   1  72
ATOM     72  C   UNL A   1      30.763  27.797  24.781  1.00  0.00     0.202 C 
BRANCH  72  73
ATOM     73  C   UNL A   1      31.801  26.754  25.204  1.00  0.00     0.261 C 
BRANCH  73  74
ATOM     74  O   UNL A   1      31.193  25.456  25.120  1.00  0.00    -0.460 OA
BRANCH  74  75
ATOM     75  C   UNL A   1      31.643  24.567  26.043  1.00  0.00     0.338 C 
ATOM     76  O   UNL A   1      31.281  24.447  27.201  1.00  0.00    -0.246 OA
BRANCH  75  77
ATOM     77  C   UNL A   1      32.511  23.602  25.343  1.00  0.00     0.062 A 
ATOM     78  C   UNL A   1      33.879  23.875  25.259  1.00  0.00     0.016 A 
ATOM     79  C   UNL A   1      31.992  22.404  24.842  1.00  0.00     0.041 A 
ATOM     80  C   UNL A   1      34.737  22.922  24.722  1.00  0.00     0.003 A 
ATOM     81  C   UNL A   1      32.835  21.475  24.230  1.00  0.00     0.039 A 
ATOM     82  C   UNL A   1      34.215  21.729  24.214  1.00  0.00     0.026 A 
BRANCH  81  83
ATOM     83  N   UNL A   1      32.271  20.312  23.660  1.00  0.00    -0.355 N 
ATOM     84  H   UNL A   1      31.600  20.433  22.949  1.00  0.00     0.167 HD
BRANCH  83  85
ATOM     85  C   UNL A   1      32.596  18.998  24.031  1.00  0.00     0.039 A 
ATOM     86  C   UNL A   1      33.193  18.146  23.093  1.00  0.00     0.033 A 
ATOM     87  C   UNL A   1      32.422  18.564  25.349  1.00  0.00     0.033 A 
ATOM     88  C   UNL A   1      33.633  16.876  23.468  1.00  0.00     0.088 A 
ATOM     89  C   UNL A   1      32.852  17.292  25.735  1.00  0.00     0.088 A 
ATOM     90  C   UNL A   1      33.464  16.457  24.793  1.00  0.00     0.269 A 
BRANCH  90  91
ATOM     91  N   UNL A   1      33.950  15.134  25.199  1.00  0.00     0.062 N 
ATOM     92  O   UNL A   1      35.175  14.945  25.204  1.00  0.00    -0.258 OA
ATOM     93  O   UNL A   1      33.108  14.278  25.510  1.00  0.00    -0.258 OA
ENDBRANCH  90  91
ENDBRANCH  83  85
ENDBRANCH  81  83
ENDBRANCH  75  77
ENDBRANCH  74  75
ENDBRANCH  73  74
ENDBRANCH  72  73
ENDBRANCH   1  72
TORSDOF 20
ENDMDL
MODEL 2
REMARK VINA RESULT:     -11.4      2.014      2.423
REMARK SMILES O=C(OCCOCCOC(=O)c1cccc(Nc2ccc([N+](=O)[O-])cc2)c1)c1ccc(-c2c3nc(c(-c4cc(S(=O)(=O)[O-])ccc4F)c4ccc([nH]4)c(-c4cc(S(=O)(=O)[O-])ccc4F)c4nc(c(-c5cc(S(=O)(=O)[O-])ccc5F)c5ccc2[nH]5)C=C4)C=C3)cc1
REMARK SMILES IDX 6 1 5 2 4 3 3 4 2 5 1 6 28 7 29 8 90 9 30 10 89 11 31 12
REMARK SMILES IDX 32 13 33 14 83 15 34 16 88 17 82 18 84 19 35 20 87 21 81 22
REMARK SMILES IDX 80 23 36 25 68 26 48 27 67 28 49 29 52 30 66 31 85 32 50 33
REMARK SMILES IDX 51 34 65 36 86 37 53 38 37 39 38 40 46 41 39 42 45 43 47 44
REMARK SMILES IDX 44 45 40 46 41 47 42 48 43 49 69 50 70 51 78 52 71 53 77 54
REMARK SMILES IDX 79 55 76 56 72 57 73 58 74 59 75 60 54 61 55 62 63 63 56 64
REMARK SMILES IDX 62 65 64 66 61 67 57 68 58 69 59 70 60 71 7 72 8 73 9 74
REMARK SMILES IDX 10 75 11 76 12 77 13 78 27 79 14 80 16 81 15 82 17 83 18 85
REMARK SMILES IDX 19 86 26 87 20 88 25 89 21 90 22 91 23 92 24 93
REMARK H PARENT 84 24 52 35 17 84
REMARK Flexibility Score: inf
ROOT
ATOM      1  O   UNL A   1      31.533  29.254  24.254  1.00  0.00    -0.374 OA
ENDROOT
BRANCH   1   2
ATOM      2  C   UNL A   1      31.557  30.029  25.454  1.00  0.00     0.202 C 
BRANCH   2   3
ATOM      3  C   UNL A   1      32.914  30.069  26.161  1.00  0.00     0.261 C 
BRANCH   3   4
ATOM      4  O   UNL A   1      32.875  30.980  27.272  1.00  0.00    -0.460 OA
BRANCH   4   5
ATOM      5  C   UNL A   1      33.876  31.749  27.761  1.00  0.00     0.338 C 
ATOM      6  O   UNL A   1      33.688  32.962  27.852  1.00  0.00    -0.246 OA
BRANCH   5   7
ATOM      7  C   UNL A   1      35.200  31.212  28.205  1.00  0.00     0.060 A 
ATOM      8  C   UNL A   1      35.459  29.877  28.514  1.00  0.00     0.016 A 
ATOM      9  C   UNL A   1      36.280  32.113  28.233  1.00  0.00     0.016 A 
ATOM     10  C   UNL A   1      36.713  29.454  28.923  1.00  0.00     0.010 A 
ATOM     11  C   UNL A   1      37.562  31.688  28.599  1.00  0.00     0.010 A 
ATOM     12  C   UNL A   1      37.771  30.358  28.974  1.00  0.00    -0.014 A 
BRANCH  12  13
ATOM     13  C   UNL A   1      39.032  29.878  29.567  1.00  0.00     0.031 A 
ATOM     14  C   UNL A   1      39.376  30.338  30.951  1.00  0.00     0.074 A 
ATOM     15  C   UNL A   1      39.730  28.913  28.942  1.00  0.00     0.049 A 
ATOM     16  N   UNL A   1      40.397  30.025  31.700  1.00  0.00    -0.248 NA
ATOM     17  C   UNL A   1      38.424  31.266  31.584  1.00  0.00     0.031 C 
ATOM     18  C   UNL A   1      39.366  28.318  27.652  1.00  0.00     0.029 A 
ATOM     19  N   UNL A   1      40.850  28.227  29.320  1.00  0.00    -0.354 N 
ATOM     20  C   UNL A   1      40.224  30.734  32.883  1.00  0.00     0.074 A 
ATOM     21  C   UNL A   1      39.008  31.503  32.746  1.00  0.00     0.031 C 
ATOM     22  C   UNL A   1      40.227  27.327  27.369  1.00  0.00     0.029 A 
ATOM     23  C   UNL A   1      41.240  27.266  28.416  1.00  0.00     0.049 A 
ATOM     24  H   UNL A   1      41.332  28.402  30.161  1.00  0.00     0.167 HD
ATOM     25  C   UNL A   1      41.022  30.740  33.978  1.00  0.00     0.034 A 
ATOM     26  C   UNL A   1      42.313  26.450  28.431  1.00  0.00     0.034 A 
ATOM     27  C   UNL A   1      42.235  29.966  34.060  1.00  0.00     0.049 A 
ATOM     28  C   UNL A   1      43.243  26.555  29.615  1.00  0.00     0.074 A 
ATOM     29  C   UNL A   1      43.188  29.944  35.060  1.00  0.00     0.029 A 
ATOM     30  N   UNL A   1      42.663  29.072  33.081  1.00  0.00    -0.354 N 
ATOM     31  N   UNL A   1      43.125  27.298  30.695  1.00  0.00    -0.248 NA
ATOM     32  C   UNL A   1      44.449  25.722  29.583  1.00  0.00     0.031 C 
ATOM     33  C   UNL A   1      44.220  29.087  34.658  1.00  0.00     0.029 A 
ATOM     34  C   UNL A   1      43.876  28.512  33.443  1.00  0.00     0.049 A 
ATOM     35  H   UNL A   1      42.173  28.868  32.252  1.00  0.00     0.167 HD
ATOM     36  C   UNL A   1      44.232  27.003  31.482  1.00  0.00     0.074 A 
ATOM     37  C   UNL A   1      44.990  25.998  30.761  1.00  0.00     0.031 C 
ATOM     38  C   UNL A   1      44.600  27.514  32.686  1.00  0.00     0.034 A 
BRANCH  25  39
ATOM     39  C   UNL A   1      40.647  31.696  35.085  1.00  0.00     0.023 A 
ATOM     40  C   UNL A   1      39.675  31.377  36.053  1.00  0.00     0.031 A 
ATOM     41  C   UNL A   1      41.185  32.994  35.099  1.00  0.00     0.131 A 
ATOM     42  C   UNL A   1      39.206  32.371  36.928  1.00  0.00     0.055 A 
ATOM     43  C   UNL A   1      40.777  33.953  36.029  1.00  0.00     0.041 A 
ATOM     44  F   UNL A   1      42.091  33.368  34.182  1.00  0.00    -0.206 F 
ATOM     45  C   UNL A   1      39.768  33.651  36.937  1.00  0.00     0.022 A 
BRANCH  42  46
ATOM     46  S   UNL A   1      37.732  32.026  37.928  1.00  0.00     0.124 S 
ATOM     47  O   UNL A   1      38.236  32.242  39.283  1.00  0.00    -0.237 OA
ATOM     48  O   UNL A   1      36.777  33.012  37.438  1.00  0.00    -0.237 OA
ATOM     49  O   UNL A   1      37.414  30.637  37.606  1.00  0.00    -0.744 OA
ENDBRANCH  42  46
ENDBRANCH  25  39
BRANCH  26  50
ATOM     50  C   UNL A   1      42.600  25.532  27.288  1.00  0.00     0.023 A 
ATOM     51  C   UNL A   1      42.135  24.206  27.275  1.00  0.00     0.031 A 
ATOM     52  C   UNL A   1      43.396  25.955  26.207  1.00  0.00     0.131 A 
ATOM     53  C   UNL A   1      42.504  23.343  26.227  1.00  0.00     0.055 A 
ATOM     54  C   UNL A   1      43.710  25.112  25.139  1.00  0.00     0.041 A 
ATOM     55  F   UNL A   1      43.879  27.207  26.167  1.00  0.00    -0.206 F 
ATOM     56  C   UNL A   1      43.276  23.792  25.153  1.00  0.00     0.022 A 
BRANCH  53  57
ATOM     57  S   UNL A   1      42.042  21.591  26.333  1.00  0.00     0.124 S 
ATOM     58  O   UNL A   1      40.616  21.640  26.035  1.00  0.00    -0.237 OA
ATOM     59  O   UNL A   1      42.892  20.992  25.310  1.00  0.00    -0.237 OA
ATOM     60  O   UNL A   1      42.379  21.234  27.709  1.00  0.00    -0.744 OA
ENDBRANCH  53  57
ENDBRANCH  26  50
BRANCH  38  61
ATOM     61  C   UNL A   1      45.852  26.944  33.300  1.00  0.00     0.023 A 
ATOM     62  C   UNL A   1      47.115  27.512  33.059  1.00  0.00     0.031 A 
ATOM     63  C   UNL A   1      45.779  25.805  34.121  1.00  0.00     0.131 A 
ATOM     64  C   UNL A   1      48.263  26.899  33.580  1.00  0.00     0.055 A 
ATOM     65  C   UNL A   1      46.918  25.239  34.690  1.00  0.00     0.041 A 
ATOM     66  F   UNL A   1      44.596  25.227  34.381  1.00  0.00    -0.206 F 
ATOM     67  C   UNL A   1      48.171  25.776  34.408  1.00  0.00     0.022 A 
BRANCH  64  68
ATOM     68  S   UNL A   1      49.886  27.524  33.070  1.00  0.00     0.124 S 
ATOM     69  O   UNL A   1      50.670  27.365  34.290  1.00  0.00    -0.237 OA
ATOM     70  O   UNL A   1      50.233  26.631  31.970  1.00  0.00    -0.237 OA
ATOM     71  O   UNL A   1      49.613  28.907  32.683  1.00  0.00    -0.744 OA
ENDBRANCH  64  68
ENDBRANCH  38  61
ENDBRANCH  12  13
ENDBRANCH   5   7
ENDBRANCH   4   5
ENDBRANCH   3   4
ENDBRANCH   2   3
ENDBRANCH   1   2
BRANCH   1  72
ATOM     72  C   UNL A   1      30.808  28.021  24.317  1.00  0.00     0.202 C 
BRANCH  72  73
ATOM     73  C   UNL A   1      31.784  26.862  24.533  1.00  0.00     0.261 C 
BRANCH  73  74
ATOM     74  O   UNL A   1      31.026  25.697  24.891  1.00  0.00    -0.460 OA
BRANCH  74  75
ATOM     75  C   UNL A   1      31.600  24.930  25.854  1.00  0.00     0.338 C 
ATOM     76  O   UNL A   1      31.318  24.884  27.038  1.00  0.00    -0.246 OA
BRANCH  75  77
ATOM     77  C   UNL A   1      32.501  23.975  25.181  1.00  0.00     0.062 A 
ATOM     78  C   UNL A   1      33.867  24.270  25.131  1.00  0.00     0.016 A 
ATOM     79  C   UNL A   1      32.014  22.768  24.671  1.00  0.00     0.041 A 
ATOM     80  C   UNL A   1      34.753  23.329  24.621  1.00  0.00     0.003 A 
ATOM     81  C   UNL A   1      32.888  21.849  24.086  1.00  0.00     0.039 A 
ATOM     82  C   UNL A   1      34.264  22.126  24.105  1.00  0.00     0.026 A 
BRANCH  81  83
ATOM     83  N   UNL A   1      32.358  20.676  23.506  1.00  0.00    -0.355 N 
ATOM     84  H   UNL A   1      31.719  20.783  22.764  1.00  0.00     0.167 HD
BRANCH  83  85
ATOM     85  C   UNL A   1      32.674  19.369  23.909  1.00  0.00     0.039 A 
ATOM     86  C   UNL A   1      32.699  19.058  25.275  1.00  0.00     0.033 A 
ATOM     87  C   UNL A   1      32.867  18.356  22.965  1.00  0.00     0.033 A 
ATOM     88  C   UNL A   1      32.895  17.742  25.698  1.00  0.00     0.088 A 
ATOM     89  C   UNL A   1      33.071  17.037  23.375  1.00  0.00     0.088 A 
ATOM     90  C   UNL A   1      33.075  16.735  24.743  1.00  0.00     0.269 A 
BRANCH  90  91
ATOM     91  N   UNL A   1      33.252  15.347  25.181  1.00  0.00     0.062 N 
ATOM     92  O   UNL A   1      32.233  14.675  25.399  1.00  0.00    -0.258 OA
ATOM     93  O   UNL A   1      34.411  14.926  25.315  1.00  0.00    -0.258 OA
ENDBRANCH  90  91
ENDBRANCH  83  85
ENDBRANCH  81  83
ENDBRANCH  75  77
ENDBRANCH  74  75
ENDBRANCH  73  74
ENDBRANCH  72  73
ENDBRANCH   1  72
TORSDOF 20
ENDMDL
MODEL 3
REMARK VINA RESULT:     -10.8      5.291     10.276
REMARK SMILES O=C(OCCOCCOC(=O)c1cccc(Nc2ccc([N+](=O)[O-])cc2)c1)c1ccc(-c2c3nc(c(-c4cc(S(=O)(=O)[O-])ccc4F)c4ccc([nH]4)c(-c4cc(S(=O)(=O)[O-])ccc4F)c4nc(c(-c5cc(S(=O)(=O)[O-])ccc5F)c5ccc2[nH]5)C=C4)C=C3)cc1
REMARK SMILES IDX 6 1 5 2 4 3 3 4 2 5 1 6 28 7 29 8 90 9 30 10 89 11 31 12
REMARK SMILES IDX 32 13 33 14 83 15 34 16 88 17 82 18 84 19 35 20 87 21 81 22
REMARK SMILES IDX 80 23 36 25 68 26 48 27 67 28 49 29 52 30 66 31 85 32 50 33
REMARK SMILES IDX 51 34 65 36 86 37 53 38 37 39 38 40 46 41 39 42 45 43 47 44
REMARK SMILES IDX 44 45 40 46 41 47 42 48 43 49 69 50 70 51 78 52 71 53 77 54
REMARK SMILES IDX 79 55 76 56 72 57 73 58 74 59 75 60 54 61 55 62 63 63 56 64
REMARK SMILES IDX 62 65 64 66 61 67 57 68 58 69 59 70 60 71 7 72 8 73 9 74
REMARK SMILES IDX 10 75 11 76 12 77 13 78 27 79 14 80 16 81 15 82 17 83 18 85
REMARK SMILES IDX 19 86 26 87 20 88 25 89 21 90 22 91 23 92 24 93
REMARK H PARENT 84 24 52 35 17 84
REMARK Flexibility Score: inf
ROOT
ATOM      1  O   UNL A   1      39.023  21.246  25.374  1.00  0.00    -0.374 OA
ENDROOT
BRANCH   1   2
ATOM      2  C   UNL A   1      39.905  20.841  26.423  1.00  0.00     0.202 C 
BRANCH   2   3
ATOM      3  C   UNL A   1      40.414  19.401  26.309  1.00  0.00     0.261 C 
BRANCH   3   4
ATOM      4  O   UNL A   1      41.553  19.339  25.435  1.00  0.00    -0.460 OA
BRANCH   4   5
ATOM      5  C   UNL A   1      42.779  19.887  25.615  1.00  0.00     0.338 C 
ATOM      6  O   UNL A   1      43.766  19.176  25.431  1.00  0.00    -0.246 OA
BRANCH   5   7
ATOM      7  C   UNL A   1      43.005  21.309  26.019  1.00  0.00     0.060 A 
ATOM      8  C   UNL A   1      42.925  22.407  25.163  1.00  0.00     0.016 A 
ATOM      9  C   UNL A   1      43.238  21.557  27.384  1.00  0.00     0.016 A 
ATOM     10  C   UNL A   1      43.153  23.697  25.611  1.00  0.00     0.010 A 
ATOM     11  C   UNL A   1      43.422  22.861  27.857  1.00  0.00     0.010 A 
ATOM     12  C   UNL A   1      43.409  23.933  26.959  1.00  0.00    -0.014 A 
BRANCH  12  13
ATOM     13  C   UNL A   1      43.797  25.303  27.337  1.00  0.00     0.031 A 
ATOM     14  C   UNL A   1      45.170  25.772  26.961  1.00  0.00     0.074 A 
ATOM     15  C   UNL A   1      42.867  26.141  27.827  1.00  0.00     0.049 A 
ATOM     16  N   UNL A   1      45.727  26.938  27.141  1.00  0.00    -0.248 NA
ATOM     17  C   UNL A   1      46.025  24.794  26.269  1.00  0.00     0.031 C 
ATOM     18  C   UNL A   1      41.468  25.783  28.082  1.00  0.00     0.029 A 
ATOM     19  N   UNL A   1      42.933  27.469  28.149  1.00  0.00    -0.354 N 
ATOM     20  C   UNL A   1      47.006  26.828  26.606  1.00  0.00     0.074 A 
ATOM     21  C   UNL A   1      47.145  25.478  26.109  1.00  0.00     0.031 C 
ATOM     22  C   UNL A   1      40.801  26.878  28.481  1.00  0.00     0.029 A 
ATOM     23  C   UNL A   1      41.736  27.992  28.580  1.00  0.00     0.049 A 
ATOM     24  H   UNL A   1      43.759  28.000  28.076  1.00  0.00     0.167 HD
ATOM     25  C   UNL A   1      47.972  27.776  26.548  1.00  0.00     0.034 A 
ATOM     26  C   UNL A   1      41.446  29.230  29.028  1.00  0.00     0.034 A 
ATOM     27  C   UNL A   1      47.788  29.105  27.075  1.00  0.00     0.049 A 
ATOM     28  C   UNL A   1      42.570  30.236  29.052  1.00  0.00     0.074 A 
ATOM     29  C   UNL A   1      48.702  30.137  27.173  1.00  0.00     0.029 A 
ATOM     30  N   UNL A   1      46.591  29.582  27.603  1.00  0.00    -0.354 N 
ATOM     31  N   UNL A   1      43.810  30.100  28.629  1.00  0.00    -0.248 NA
ATOM     32  C   UNL A   1      42.266  31.554  29.615  1.00  0.00     0.031 C 
ATOM     33  C   UNL A   1      48.077  31.212  27.815  1.00  0.00     0.029 A 
ATOM     34  C   UNL A   1      46.749  30.883  28.049  1.00  0.00     0.049 A 
ATOM     35  H   UNL A   1      45.752  29.068  27.651  1.00  0.00     0.167 HD
ATOM     36  C   UNL A   1      44.426  31.326  28.856  1.00  0.00     0.074 A 
ATOM     37  C   UNL A   1      43.412  32.192  29.430  1.00  0.00     0.031 C 
ATOM     38  C   UNL A   1      45.709  31.708  28.621  1.00  0.00     0.034 A 
BRANCH  25  39
ATOM     39  C   UNL A   1      49.314  27.344  26.008  1.00  0.00     0.023 A 
ATOM     40  C   UNL A   1      50.378  26.975  26.852  1.00  0.00     0.031 A 
ATOM     41  C   UNL A   1      49.568  27.420  24.628  1.00  0.00     0.131 A 
ATOM     42  C   UNL A   1      51.664  26.790  26.318  1.00  0.00     0.055 A 
ATOM     43  C   UNL A   1      50.830  27.151  24.093  1.00  0.00     0.041 A 
ATOM     44  F   UNL A   1      48.603  27.799  23.775  1.00  0.00    -0.206 F 
ATOM     45  C   UNL A   1      51.891  26.853  24.941  1.00  0.00     0.022 A 
BRANCH  42  46
ATOM     46  S   UNL A   1      53.068  26.647  27.459  1.00  0.00     0.124 S 
ATOM     47  O   UNL A   1      52.390  26.493  28.744  1.00  0.00    -0.237 OA
ATOM     48  O   UNL A   1      53.764  25.467  26.959  1.00  0.00    -0.237 OA
ATOM     49  O   UNL A   1      53.782  27.911  27.288  1.00  0.00    -0.744 OA
ENDBRANCH  42  46
ENDBRANCH  25  39
BRANCH  26  50
ATOM     50  C   UNL A   1      40.084  29.566  29.540  1.00  0.00     0.023 A 
ATOM     51  C   UNL A   1      39.796  29.577  30.915  1.00  0.00     0.031 A 
ATOM     52  C   UNL A   1      39.026  29.831  28.650  1.00  0.00     0.131 A 
ATOM     53  C   UNL A   1      38.480  29.806  31.356  1.00  0.00     0.055 A 
ATOM     54  C   UNL A   1      37.733  30.117  29.095  1.00  0.00     0.041 A 
ATOM     55  F   UNL A   1      39.234  29.825  27.324  1.00  0.00    -0.206 F 
ATOM     56  C   UNL A   1      37.451  30.090  30.455  1.00  0.00     0.022 A 
BRANCH  53  57
ATOM     57  S   UNL A   1      38.107  29.630  33.124  1.00  0.00     0.124 S 
ATOM     58  O   UNL A   1      37.310  28.410  33.140  1.00  0.00    -0.237 OA
ATOM     59  O   UNL A   1      39.441  29.535  33.706  1.00  0.00    -0.237 OA
ATOM     60  O   UNL A   1      37.377  30.856  33.440  1.00  0.00    -0.744 OA
ENDBRANCH  53  57
ENDBRANCH  26  50
BRANCH  38  61
ATOM     61  C   UNL A   1      46.050  33.139  28.946  1.00  0.00     0.023 A 
ATOM     62  C   UNL A   1      45.914  34.163  27.993  1.00  0.00     0.031 A 
ATOM     63  C   UNL A   1      46.538  33.474  30.221  1.00  0.00     0.131 A 
ATOM     64  C   UNL A   1      46.325  35.465  28.310  1.00  0.00     0.055 A 
ATOM     65  C   UNL A   1      46.883  34.784  30.551  1.00  0.00     0.041 A 
ATOM     66  F   UNL A   1      46.687  32.532  31.165  1.00  0.00    -0.206 F 
ATOM     67  C   UNL A   1      46.792  35.786  29.588  1.00  0.00     0.022 A 
BRANCH  64  68
ATOM     68  S   UNL A   1      46.343  36.712  26.994  1.00  0.00     0.124 S 
ATOM     69  O   UNL A   1      44.944  37.122  26.945  1.00  0.00    -0.237 OA
ATOM     70  O   UNL A   1      47.279  37.702  27.515  1.00  0.00    -0.237 OA
ATOM     71  O   UNL A   1      46.813  35.969  25.826  1.00  0.00    -0.744 OA
ENDBRANCH  64  68
ENDBRANCH  38  61
ENDBRANCH  12  13
ENDBRANCH   5   7
ENDBRANCH   4   5
ENDBRANCH   3   4
ENDBRANCH   2   3
ENDBRANCH   1   2
BRANCH   1  72
ATOM     72  C   UNL A   1      38.042  22.228  25.724  1.00  0.00     0.202 C 
BRANCH  72  73
ATOM     73  C   UNL A   1      37.178  22.549  24.501  1.00  0.00     0.261 C 
BRANCH  73  74
ATOM     74  O   UNL A   1      36.384  23.705  24.803  1.00  0.00    -0.460 OA
BRANCH  74  75
ATOM     75  C   UNL A   1      35.207  23.429  25.423  1.00  0.00     0.338 C 
ATOM     76  O   UNL A   1      34.914  23.623  26.589  1.00  0.00    -0.246 OA
BRANCH  75  77
ATOM     77  C   UNL A   1      34.238  23.041  24.380  1.00  0.00     0.062 A 
ATOM     78  C   UNL A   1      34.025  23.916  23.311  1.00  0.00     0.016 A 
ATOM     79  C   UNL A   1      33.603  21.797  24.420  1.00  0.00     0.041 A 
ATOM     80  C   UNL A   1      33.218  23.518  22.250  1.00  0.00     0.003 A 
ATOM     81  C   UNL A   1      32.729  21.421  23.397  1.00  0.00     0.039 A 
ATOM     82  C   UNL A   1      32.578  22.277  22.296  1.00  0.00     0.026 A 
BRANCH  81  83
ATOM     83  N   UNL A   1      32.039  20.193  23.505  1.00  0.00    -0.355 N 
ATOM     84  H   UNL A   1      31.083  20.186  23.269  1.00  0.00     0.167 HD
BRANCH  83  85
ATOM     85  C   UNL A   1      32.616  18.983  23.923  1.00  0.00     0.039 A 
ATOM     86  C   UNL A   1      32.556  18.625  25.276  1.00  0.00     0.033 A 
ATOM     87  C   UNL A   1      33.160  18.092  22.993  1.00  0.00     0.033 A 
ATOM     88  C   UNL A   1      33.017  17.377  25.699  1.00  0.00     0.088 A 
ATOM     89  C   UNL A   1      33.630  16.843  23.405  1.00  0.00     0.088 A 
ATOM     90  C   UNL A   1      33.548  16.488  24.757  1.00  0.00     0.269 A 
BRANCH  90  91
ATOM     91  N   UNL A   1      34.007  15.164  25.192  1.00  0.00     0.062 N 
ATOM     92  O   UNL A   1      35.229  14.963  25.235  1.00  0.00    -0.258 OA
ATOM     93  O   UNL A   1      33.147  14.321  25.485  1.00  0.00    -0.258 OA
ENDBRANCH  90  91
ENDBRANCH  83  85
ENDBRANCH  81  83
ENDBRANCH  75  77
ENDBRANCH  74  75
ENDBRANCH  73  74
ENDBRANCH  72  73
ENDBRANCH   1  72
TORSDOF 20
ENDMDL
