MODEL 1
REMARK VINA RESULT:     -10.7      0.000      0.000
REMARK SMILES O=C(N[C@@H](Cc1ccc(O)cc1)C(=O)N[C@@H](CO)C(=O)OCCOCCOC(=O)c1ccc(-c2c3nc(c(-c4cc(S(=O)(=O)[O-])ccc4F)c4ccc([nH]4)c(-c4cc(S(=O)(=O)[O-])ccc4F)c4nc(c(-c5cc(S(=O)(=O)[O-])ccc5F)c5ccc2[nH]5)C=C4)C=C3)cc1)c1ccc(F)cc1
REMARK SMILES IDX 23 1 22 2 21 3 19 4 20 5 16 6 15 7 13 8 14 9 4 11 3 12 1 13
REMARK SMILES IDX 2 14 93 16 94 17 99 18 95 19 98 20 96 21 97 22 5 23 6 24
REMARK SMILES IDX 7 25 12 26 8 27 11 28 9 29 10 30 17 32 18 33 24 35 25 36
REMARK SMILES IDX 26 37 27 38 28 39 29 40 30 41 31 42 92 43 32 44 91 45 33 46
REMARK SMILES IDX 34 47 35 48 85 49 36 50 90 51 84 52 86 53 37 54 89 55 83 56
REMARK SMILES IDX 82 57 38 59 70 60 50 61 69 62 51 63 54 64 68 65 87 66 52 67
REMARK SMILES IDX 53 68 67 70 88 71 55 72 39 73 40 74 48 75 41 76 47 77 49 78
REMARK SMILES IDX 46 79 42 80 43 81 44 82 45 83 71 84 72 85 80 86 73 87 79 88
REMARK SMILES IDX 81 89 78 90 74 91 75 92 76 93 77 94 56 95 57 96 65 97 58 98
REMARK SMILES IDX 64 99 66 100 63 101 59 102 60 103 61 104 62 105
REMARK H PARENT 15 10 3 15 10 31 18 34 86 58 54 69
REMARK Flexibility Score: inf
ROOT
ATOM      1  C   UNL A   1      30.920  30.554  24.965  1.00  0.00     0.202 C 
ENDROOT
BRANCH   1   2
ATOM      2  C   UNL A   1      30.645  29.424  23.975  1.00  0.00     0.261 C 
BRANCH   2   3
ATOM      3  O   UNL A   1      30.591  28.183  24.699  1.00  0.00    -0.462 OA
BRANCH   3   4
ATOM      4  C   UNL A   1      30.381  27.067  23.951  1.00  0.00     0.331 C 
ATOM      5  O   UNL A   1      29.330  26.804  23.378  1.00  0.00    -0.250 OA
BRANCH   4   6
ATOM      6  C   UNL A   1      31.654  26.194  23.897  1.00  0.00     0.218 C 
BRANCH   6   7
ATOM      7  N   UNL A   1      32.307  26.226  22.576  1.00  0.00    -0.339 N 
ATOM      8  C   UNL A   1      32.919  25.268  21.832  1.00  0.00     0.243 C 
ATOM      9  O   UNL A   1      33.040  25.514  20.625  1.00  0.00    -0.273 OA
ATOM     10  H   UNL A   1      32.297  27.112  22.150  1.00  0.00     0.164 HD
BRANCH   8  11
ATOM     11  C   UNL A   1      33.393  23.897  22.362  1.00  0.00     0.176 C 
BRANCH  11  12
ATOM     12  N   UNL A   1      32.551  22.761  21.981  1.00  0.00    -0.340 N 
ATOM     13  O   UNL A   1      31.763  20.658  22.144  1.00  0.00    -0.269 OA
ATOM     14  C   UNL A   1      32.299  21.615  22.695  1.00  0.00     0.251 C 
ATOM     15  H   UNL A   1      32.110  22.827  21.103  1.00  0.00     0.164 HD
BRANCH  14  16
ATOM     16  C   UNL A   1      32.707  21.506  24.114  1.00  0.00     0.040 A 
ATOM     17  C   UNL A   1      33.643  20.548  24.530  1.00  0.00     0.017 A 
ATOM     18  C   UNL A   1      32.167  22.411  25.036  1.00  0.00     0.017 A 
ATOM     19  C   UNL A   1      33.988  20.459  25.879  1.00  0.00     0.040 A 
ATOM     20  C   UNL A   1      32.524  22.323  26.384  1.00  0.00     0.040 A 
ATOM     21  C   UNL A   1      33.424  21.343  26.793  1.00  0.00     0.123 A 
ATOM     22  F   UNL A   1      33.757  21.256  28.088  1.00  0.00    -0.207 F 
ENDBRANCH  14  16
ENDBRANCH  11  12
BRANCH  11  23
ATOM     23  C   UNL A   1      34.907  23.618  22.224  1.00  0.00     0.070 C 
BRANCH  23  24
ATOM     24  C   UNL A   1      35.667  23.343  23.496  1.00  0.00    -0.045 A 
ATOM     25  C   UNL A   1      35.380  24.091  24.644  1.00  0.00     0.007 A 
ATOM     26  C   UNL A   1      36.670  22.369  23.563  1.00  0.00     0.007 A 
ATOM     27  C   UNL A   1      36.174  23.994  25.784  1.00  0.00     0.046 A 
ATOM     28  C   UNL A   1      37.461  22.255  24.709  1.00  0.00     0.046 A 
ATOM     29  C   UNL A   1      37.234  23.102  25.786  1.00  0.00     0.115 A 
BRANCH  29  30
ATOM     30  O   UNL A   1      38.111  23.086  26.826  1.00  0.00    -0.508 OA
ATOM     31  H   UNL A   1      38.766  22.417  26.877  1.00  0.00     0.293 HD
ENDBRANCH  29  30
ENDBRANCH  23  24
ENDBRANCH  11  23
ENDBRANCH   8  11
ENDBRANCH   6   7
BRANCH   6  32
ATOM     32  C   UNL A   1      32.613  26.635  25.002  1.00  0.00     0.193 C 
BRANCH  32  33
ATOM     33  O   UNL A   1      32.409  25.895  26.203  1.00  0.00    -0.394 OA
ATOM     34  H   UNL A   1      32.293  26.508  26.945  1.00  0.00     0.210 HD
ENDBRANCH  32  33
ENDBRANCH   6  32
ENDBRANCH   4   6
ENDBRANCH   3   4
ENDBRANCH   2   3
ENDBRANCH   1   2
BRANCH   1  35
ATOM     35  O   UNL A   1      31.679  30.171  26.120  1.00  0.00    -0.374 OA
BRANCH  35  36
ATOM     36  C   UNL A   1      33.097  30.100  25.966  1.00  0.00     0.202 C 
BRANCH  36  37
ATOM     37  C   UNL A   1      33.930  29.764  27.206  1.00  0.00     0.261 C 
BRANCH  37  38
ATOM     38  O   UNL A   1      34.106  30.902  28.043  1.00  0.00    -0.460 OA
BRANCH  38  39
ATOM     39  C   UNL A   1      35.300  31.513  27.833  1.00  0.00     0.338 C 
ATOM     40  O   UNL A   1      35.504  32.699  27.685  1.00  0.00    -0.246 OA
BRANCH  39  41
ATOM     41  C   UNL A   1      36.374  30.523  28.031  1.00  0.00     0.060 A 
ATOM     42  C   UNL A   1      36.261  29.706  29.159  1.00  0.00     0.016 A 
ATOM     43  C   UNL A   1      37.458  30.400  27.153  1.00  0.00     0.016 A 
ATOM     44  C   UNL A   1      37.290  28.836  29.480  1.00  0.00     0.010 A 
ATOM     45  C   UNL A   1      38.496  29.528  27.476  1.00  0.00     0.010 A 
ATOM     46  C   UNL A   1      38.439  28.807  28.678  1.00  0.00    -0.014 A 
BRANCH  46  47
ATOM     47  C   UNL A   1      39.672  28.285  29.301  1.00  0.00     0.031 A 
ATOM     48  C   UNL A   1      40.119  28.936  30.582  1.00  0.00     0.074 A 
ATOM     49  C   UNL A   1      40.281  27.195  28.807  1.00  0.00     0.049 A 
ATOM     50  N   UNL A   1      41.077  28.594  31.400  1.00  0.00    -0.248 NA
ATOM     51  C   UNL A   1      39.369  30.133  31.002  1.00  0.00     0.031 C 
ATOM     52  C   UNL A   1      39.880  26.479  27.597  1.00  0.00     0.029 A 
ATOM     53  N   UNL A   1      41.352  26.488  29.281  1.00  0.00    -0.354 N 
ATOM     54  C   UNL A   1      41.033  29.523  32.436  1.00  0.00     0.074 A 
ATOM     55  C   UNL A   1      39.992  30.471  32.117  1.00  0.00     0.031 C 
ATOM     56  C   UNL A   1      40.695  25.423  27.427  1.00  0.00     0.029 A 
ATOM     57  C   UNL A   1      41.679  25.401  28.508  1.00  0.00     0.049 A 
ATOM     58  H   UNL A   1      41.842  26.734  30.099  1.00  0.00     0.167 HD
ATOM     59  C   UNL A   1      41.784  29.566  33.562  1.00  0.00     0.034 A 
ATOM     60  C   UNL A   1      42.663  24.495  28.669  1.00  0.00     0.034 A 
ATOM     61  C   UNL A   1      42.839  28.624  33.834  1.00  0.00     0.049 A 
ATOM     62  C   UNL A   1      43.531  24.599  29.899  1.00  0.00     0.074 A 
ATOM     63  C   UNL A   1      43.710  28.581  34.905  1.00  0.00     0.029 A 
ATOM     64  N   UNL A   1      43.169  27.557  33.006  1.00  0.00    -0.354 N 
ATOM     65  N   UNL A   1      43.482  25.480  30.875  1.00  0.00    -0.248 NA
ATOM     66  C   UNL A   1      44.566  23.573  30.064  1.00  0.00     0.031 C 
ATOM     67  C   UNL A   1      44.603  27.522  34.697  1.00  0.00     0.029 A 
ATOM     68  C   UNL A   1      44.243  26.860  33.533  1.00  0.00     0.049 A 
ATOM     69  H   UNL A   1      42.707  27.330  32.167  1.00  0.00     0.167 HD
ATOM     70  C   UNL A   1      44.459  25.092  31.786  1.00  0.00     0.074 A 
ATOM     71  C   UNL A   1      45.068  23.891  31.248  1.00  0.00     0.031 C 
ATOM     72  C   UNL A   1      44.825  25.667  32.962  1.00  0.00     0.034 A 
BRANCH  59  73
ATOM     73  C   UNL A   1      41.521  30.706  34.517  1.00  0.00     0.023 A 
ATOM     74  C   UNL A   1      40.398  30.716  35.368  1.00  0.00     0.031 A 
ATOM     75  C   UNL A   1      42.356  31.836  34.519  1.00  0.00     0.131 A 
ATOM     76  C   UNL A   1      40.102  31.861  36.123  1.00  0.00     0.055 A 
ATOM     77  C   UNL A   1      42.098  32.941  35.332  1.00  0.00     0.041 A 
ATOM     78  F   UNL A   1      43.422  31.898  33.706  1.00  0.00    -0.206 F 
ATOM     79  C   UNL A   1      40.957  32.965  36.128  1.00  0.00     0.022 A 
BRANCH  76  80
ATOM     80  S   UNL A   1      38.504  31.951  36.979  1.00  0.00     0.124 S 
ATOM     81  O   UNL A   1      37.839  33.029  36.250  1.00  0.00    -0.237 OA
ATOM     82  O   UNL A   1      37.962  30.613  36.779  1.00  0.00    -0.237 OA
ATOM     83  O   UNL A   1      38.870  32.276  38.356  1.00  0.00    -0.744 OA
ENDBRANCH  76  80
ENDBRANCH  59  73
BRANCH  60  84
ATOM     84  C   UNL A   1      42.885  23.431  27.648  1.00  0.00     0.023 A 
ATOM     85  C   UNL A   1      43.888  23.544  26.673  1.00  0.00     0.031 A 
ATOM     86  C   UNL A   1      42.062  22.290  27.617  1.00  0.00     0.131 A 
ATOM     87  C   UNL A   1      44.015  22.557  25.682  1.00  0.00     0.055 A 
ATOM     88  C   UNL A   1      42.223  21.288  26.657  1.00  0.00     0.041 A 
ATOM     89  F   UNL A   1      41.091  22.128  28.530  1.00  0.00    -0.206 F 
ATOM     90  C   UNL A   1      43.197  21.425  25.675  1.00  0.00     0.022 A 
BRANCH  87  91
ATOM     91  S   UNL A   1      45.224  22.808  24.352  1.00  0.00     0.124 S 
ATOM     92  O   UNL A   1      46.363  22.036  24.834  1.00  0.00    -0.237 OA
ATOM     93  O   UNL A   1      44.519  22.261  23.198  1.00  0.00    -0.237 OA
ATOM     94  O   UNL A   1      45.414  24.257  24.334  1.00  0.00    -0.744 OA
ENDBRANCH  87  91
ENDBRANCH  60  84
BRANCH  72  95
ATOM     95  C   UNL A   1      45.899  24.966  33.754  1.00  0.00     0.023 A 
ATOM     96  C   UNL A   1      47.262  25.247  33.558  1.00  0.00     0.031 A 
ATOM     97  C   UNL A   1      45.549  23.991  34.704  1.00  0.00     0.131 A 
ATOM     98  C   UNL A   1      48.229  24.512  34.255  1.00  0.00     0.055 A 
ATOM     99  C   UNL A   1      46.515  23.306  35.439  1.00  0.00     0.041 A 
ATOM    100  F   UNL A   1      44.260  23.688  34.930  1.00  0.00    -0.206 F 
ATOM    101  C   UNL A   1      47.865  23.553  35.206  1.00  0.00     0.022 A 
BRANCH  98 102
ATOM    102  S   UNL A   1      49.974  24.749  33.824  1.00  0.00     0.124 S 
ATOM    103  O   UNL A   1      50.623  23.690  34.592  1.00  0.00    -0.237 OA
ATOM    104  O   UNL A   1      49.964  24.573  32.376  1.00  0.00    -0.237 OA
ATOM    105  O   UNL A   1      50.258  26.108  34.281  1.00  0.00    -0.744 OA
ENDBRANCH  98 102
ENDBRANCH  72  95
ENDBRANCH  46  47
ENDBRANCH  39  41
ENDBRANCH  38  39
ENDBRANCH  37  38
ENDBRANCH  36  37
ENDBRANCH  35  36
ENDBRANCH   1  35
TORSDOF 26
ENDMDL
MODEL 2
REMARK VINA RESULT:     -10.6      1.992      2.497
REMARK SMILES O=C(N[C@@H](Cc1ccc(O)cc1)C(=O)N[C@@H](CO)C(=O)OCCOCCOC(=O)c1ccc(-c2c3nc(c(-c4cc(S(=O)(=O)[O-])ccc4F)c4ccc([nH]4)c(-c4cc(S(=O)(=O)[O-])ccc4F)c4nc(c(-c5cc(S(=O)(=O)[O-])ccc5F)c5ccc2[nH]5)C=C4)C=C3)cc1)c1ccc(F)cc1
REMARK SMILES IDX 23 1 22 2 21 3 19 4 20 5 16 6 15 7 13 8 14 9 4 11 3 12 1 13
REMARK SMILES IDX 2 14 93 16 94 17 99 18 95 19 98 20 96 21 97 22 5 23 6 24
REMARK SMILES IDX 7 25 12 26 8 27 11 28 9 29 10 30 17 32 18 33 24 35 25 36
REMARK SMILES IDX 26 37 27 38 28 39 29 40 30 41 31 42 92 43 32 44 91 45 33 46
REMARK SMILES IDX 34 47 35 48 85 49 36 50 90 51 84 52 86 53 37 54 89 55 83 56
REMARK SMILES IDX 82 57 38 59 70 60 50 61 69 62 51 63 54 64 68 65 87 66 52 67
REMARK SMILES IDX 53 68 67 70 88 71 55 72 39 73 40 74 48 75 41 76 47 77 49 78
REMARK SMILES IDX 46 79 42 80 43 81 44 82 45 83 71 84 72 85 80 86 73 87 79 88
REMARK SMILES IDX 81 89 78 90 74 91 75 92 76 93 77 94 56 95 57 96 65 97 58 98
REMARK SMILES IDX 64 99 66 100 63 101 59 102 60 103 61 104 62 105
REMARK H PARENT 15 10 3 15 10 31 18 34 86 58 54 69
REMARK Flexibility Score: inf
ROOT
ATOM      1  C   UNL A   1      31.039  30.166  25.027  1.00  0.00     0.202 C 
ENDROOT
BRANCH   1   2
ATOM      2  C   UNL A   1      30.430  29.334  23.900  1.00  0.00     0.261 C 
BRANCH   2   3
ATOM      3  O   UNL A   1      31.083  28.053  23.871  1.00  0.00    -0.462 OA
BRANCH   3   4
ATOM      4  C   UNL A   1      31.499  27.626  22.648  1.00  0.00     0.331 C 
ATOM      5  O   UNL A   1      30.830  27.698  21.624  1.00  0.00    -0.250 OA
BRANCH   4   6
ATOM      6  C   UNL A   1      32.937  27.069  22.721  1.00  0.00     0.218 C 
BRANCH   6   7
ATOM      7  N   UNL A   1      33.127  25.880  21.871  1.00  0.00    -0.339 N 
ATOM      8  C   UNL A   1      33.518  24.608  22.145  1.00  0.00     0.243 C 
ATOM      9  O   UNL A   1      33.230  23.756  21.296  1.00  0.00    -0.273 OA
ATOM     10  H   UNL A   1      32.931  26.037  20.919  1.00  0.00     0.164 HD
BRANCH   8  11
ATOM     11  C   UNL A   1      34.212  24.153  23.448  1.00  0.00     0.176 C 
BRANCH  11  12
ATOM     12  N   UNL A   1      33.354  24.133  24.633  1.00  0.00    -0.340 N 
ATOM     13  O   UNL A   1      31.723  23.326  25.961  1.00  0.00    -0.269 OA
ATOM     14  C   UNL A   1      32.558  23.110  25.088  1.00  0.00     0.251 C 
ATOM     15  H   UNL A   1      33.346  24.956  25.174  1.00  0.00     0.164 HD
BRANCH  14  16
ATOM     16  C   UNL A   1      32.667  21.754  24.503  1.00  0.00     0.040 A 
ATOM     17  C   UNL A   1      32.061  21.439  23.279  1.00  0.00     0.017 A 
ATOM     18  C   UNL A   1      33.429  20.793  25.180  1.00  0.00     0.017 A 
ATOM     19  C   UNL A   1      32.166  20.145  22.767  1.00  0.00     0.040 A 
ATOM     20  C   UNL A   1      33.539  19.502  24.658  1.00  0.00     0.040 A 
ATOM     21  C   UNL A   1      32.899  19.188  23.462  1.00  0.00     0.123 A 
ATOM     22  F   UNL A   1      32.999  17.946  22.970  1.00  0.00    -0.207 F 
ENDBRANCH  14  16
ENDBRANCH  11  12
BRANCH  11  23
ATOM     23  C   UNL A   1      35.117  22.906  23.318  1.00  0.00     0.070 C 
BRANCH  23  24
ATOM     24  C   UNL A   1      36.311  22.832  24.235  1.00  0.00    -0.045 A 
ATOM     25  C   UNL A   1      37.033  21.637  24.328  1.00  0.00     0.007 A 
ATOM     26  C   UNL A   1      36.712  23.922  25.017  1.00  0.00     0.007 A 
ATOM     27  C   UNL A   1      38.028  21.470  25.288  1.00  0.00     0.046 A 
ATOM     28  C   UNL A   1      37.720  23.765  25.971  1.00  0.00     0.046 A 
ATOM     29  C   UNL A   1      38.330  22.529  26.128  1.00  0.00     0.115 A 
BRANCH  29  30
ATOM     30  O   UNL A   1      39.193  22.352  27.165  1.00  0.00    -0.508 OA
ATOM     31  H   UNL A   1      40.104  22.203  26.997  1.00  0.00     0.293 HD
ENDBRANCH  29  30
ENDBRANCH  23  24
ENDBRANCH  11  23
ENDBRANCH   8  11
ENDBRANCH   6   7
BRANCH   6  32
ATOM     32  C   UNL A   1      33.925  28.176  22.355  1.00  0.00     0.193 C 
BRANCH  32  33
ATOM     33  O   UNL A   1      33.587  29.411  22.981  1.00  0.00    -0.394 OA
ATOM     34  H   UNL A   1      33.497  30.102  22.307  1.00  0.00     0.210 HD
ENDBRANCH  32  33
ENDBRANCH   6  32
ENDBRANCH   4   6
ENDBRANCH   3   4
ENDBRANCH   2   3
ENDBRANCH   1   2
BRANCH   1  35
ATOM     35  O   UNL A   1      32.335  29.732  25.461  1.00  0.00    -0.374 OA
BRANCH  35  36
ATOM     36  C   UNL A   1      32.650  29.917  26.842  1.00  0.00     0.202 C 
BRANCH  36  37
ATOM     37  C   UNL A   1      32.959  31.340  27.315  1.00  0.00     0.261 C 
BRANCH  37  38
ATOM     38  O   UNL A   1      34.355  31.614  27.275  1.00  0.00    -0.460 OA
BRANCH  38  39
ATOM     39  C   UNL A   1      34.906  31.647  28.516  1.00  0.00     0.338 C 
ATOM     40  O   UNL A   1      34.463  32.194  29.503  1.00  0.00    -0.246 OA
BRANCH  39  41
ATOM     41  C   UNL A   1      36.048  30.715  28.547  1.00  0.00     0.060 A 
ATOM     42  C   UNL A   1      36.023  29.743  29.551  1.00  0.00     0.016 A 
ATOM     43  C   UNL A   1      37.109  30.792  27.637  1.00  0.00     0.016 A 
ATOM     44  C   UNL A   1      37.116  28.909  29.722  1.00  0.00     0.010 A 
ATOM     45  C   UNL A   1      38.211  29.956  27.810  1.00  0.00     0.010 A 
ATOM     46  C   UNL A   1      38.239  29.071  28.899  1.00  0.00    -0.014 A 
BRANCH  46  47
ATOM     47  C   UNL A   1      39.521  28.553  29.414  1.00  0.00     0.031 A 
ATOM     48  C   UNL A   1      40.047  29.169  30.683  1.00  0.00     0.074 A 
ATOM     49  C   UNL A   1      40.113  27.493  28.841  1.00  0.00     0.049 A 
ATOM     50  N   UNL A   1      41.068  28.820  31.419  1.00  0.00    -0.248 NA
ATOM     51  C   UNL A   1      39.309  30.337  31.197  1.00  0.00     0.031 C 
ATOM     52  C   UNL A   1      39.639  26.811  27.638  1.00  0.00     0.029 A 
ATOM     53  N   UNL A   1      41.227  26.791  29.213  1.00  0.00    -0.354 N 
ATOM     54  C   UNL A   1      41.082  29.712  32.487  1.00  0.00     0.074 A 
ATOM     55  C   UNL A   1      40.004  30.649  32.276  1.00  0.00     0.031 C 
ATOM     56  C   UNL A   1      40.458  25.777  27.374  1.00  0.00     0.029 A 
ATOM     57  C   UNL A   1      41.516  25.738  28.381  1.00  0.00     0.049 A 
ATOM     58  H   UNL A   1      41.770  27.020  30.003  1.00  0.00     0.167 HD
ATOM     59  C   UNL A   1      41.911  29.732  33.558  1.00  0.00     0.034 A 
ATOM     60  C   UNL A   1      42.525  24.847  28.440  1.00  0.00     0.034 A 
ATOM     61  C   UNL A   1      42.998  28.802  33.721  1.00  0.00     0.049 A 
ATOM     62  C   UNL A   1      43.476  24.926  29.609  1.00  0.00     0.074 A 
ATOM     63  C   UNL A   1      43.944  28.740  34.726  1.00  0.00     0.029 A 
ATOM     64  N   UNL A   1      43.287  27.770  32.835  1.00  0.00    -0.354 N 
ATOM     65  N   UNL A   1      43.482  25.773  30.616  1.00  0.00    -0.248 NA
ATOM     66  C   UNL A   1      44.538  23.915  29.664  1.00  0.00     0.031 C 
ATOM     67  C   UNL A   1      44.838  27.707  34.418  1.00  0.00     0.029 A 
ATOM     68  C   UNL A   1      44.407  27.077  33.260  1.00  0.00     0.049 A 
ATOM     69  H   UNL A   1      42.770  27.563  32.023  1.00  0.00     0.167 HD
ATOM     70  C   UNL A   1      44.529  25.374  31.442  1.00  0.00     0.074 A 
ATOM     71  C   UNL A   1      45.118  24.204  30.820  1.00  0.00     0.031 C 
ATOM     72  C   UNL A   1      44.967  25.916  32.608  1.00  0.00     0.034 A 
BRANCH  59  73
ATOM     73  C   UNL A   1      41.697  30.833  34.568  1.00  0.00     0.023 A 
ATOM     74  C   UNL A   1      40.545  30.883  35.378  1.00  0.00     0.031 A 
ATOM     75  C   UNL A   1      42.613  31.893  34.666  1.00  0.00     0.131 A 
ATOM     76  C   UNL A   1      40.306  32.004  36.189  1.00  0.00     0.055 A 
ATOM     77  C   UNL A   1      42.407  32.968  35.534  1.00  0.00     0.041 A 
ATOM     78  F   UNL A   1      43.712  31.918  33.896  1.00  0.00    -0.206 F 
ATOM     79  C   UNL A   1      41.242  33.036  36.289  1.00  0.00     0.022 A 
BRANCH  76  80
ATOM     80  S   UNL A   1      38.687  32.169  36.992  1.00  0.00     0.124 S 
ATOM     81  O   UNL A   1      39.050  32.096  38.405  1.00  0.00    -0.237 OA
ATOM     82  O   UNL A   1      38.229  33.468  36.515  1.00  0.00    -0.237 OA
ATOM     83  O   UNL A   1      37.936  31.020  36.490  1.00  0.00    -0.744 OA
ENDBRANCH  76  80
ENDBRANCH  59  73
BRANCH  60  84
ATOM     84  C   UNL A   1      42.692  23.822  27.370  1.00  0.00     0.023 A 
ATOM     85  C   UNL A   1      42.167  22.527  27.503  1.00  0.00     0.031 A 
ATOM     86  C   UNL A   1      43.418  24.122  26.202  1.00  0.00     0.131 A 
ATOM     87  C   UNL A   1      42.412  21.568  26.507  1.00  0.00     0.055 A 
ATOM     88  C   UNL A   1      43.618  23.178  25.193  1.00  0.00     0.041 A 
ATOM     89  F   UNL A   1      43.936  25.347  26.021  1.00  0.00    -0.206 F 
ATOM     90  C   UNL A   1      43.123  21.888  25.348  1.00  0.00     0.022 A 
BRANCH  87  91
ATOM     91  S   UNL A   1      41.846  19.865  26.779  1.00  0.00     0.124 S 
ATOM     92  O   UNL A   1      41.342  19.503  25.459  1.00  0.00    -0.237 OA
ATOM     93  O   UNL A   1      43.076  19.203  27.202  1.00  0.00    -0.237 OA
ATOM     94  O   UNL A   1      40.828  20.007  27.820  1.00  0.00    -0.744 OA
ENDBRANCH  87  91
ENDBRANCH  60  84
BRANCH  72  95
ATOM     95  C   UNL A   1      46.107  25.210  33.297  1.00  0.00     0.023 A 
ATOM     96  C   UNL A   1      45.884  24.166  34.210  1.00  0.00     0.031 A 
ATOM     97  C   UNL A   1      47.433  25.604  33.045  1.00  0.00     0.131 A 
ATOM     98  C   UNL A   1      46.967  23.594  34.890  1.00  0.00     0.055 A 
ATOM     99  C   UNL A   1      48.512  24.989  33.679  1.00  0.00     0.041 A 
ATOM    100  F   UNL A   1      47.700  26.595  32.179  1.00  0.00    -0.206 F 
ATOM    101  C   UNL A   1      48.282  23.989  34.619  1.00  0.00     0.022 A 
BRANCH  98 102
ATOM    102  S   UNL A   1      46.629  22.402  36.212  1.00  0.00     0.124 S 
ATOM    103  O   UNL A   1      47.395  22.956  37.325  1.00  0.00    -0.237 OA
ATOM    104  O   UNL A   1      45.177  22.480  36.338  1.00  0.00    -0.237 OA
ATOM    105  O   UNL A   1      47.138  21.141  35.677  1.00  0.00    -0.744 OA
ENDBRANCH  98 102
ENDBRANCH  72  95
ENDBRANCH  46  47
ENDBRANCH  39  41
ENDBRANCH  38  39
ENDBRANCH  37  38
ENDBRANCH  36  37
ENDBRANCH  35  36
ENDBRANCH   1  35
TORSDOF 26
ENDMDL
MODEL 3
REMARK VINA RESULT:     -10.5      1.772      2.228
REMARK SMILES O=C(N[C@@H](Cc1ccc(O)cc1)C(=O)N[C@@H](CO)C(=O)OCCOCCOC(=O)c1ccc(-c2c3nc(c(-c4cc(S(=O)(=O)[O-])ccc4F)c4ccc([nH]4)c(-c4cc(S(=O)(=O)[O-])ccc4F)c4nc(c(-c5cc(S(=O)(=O)[O-])ccc5F)c5ccc2[nH]5)C=C4)C=C3)cc1)c1ccc(F)cc1
REMARK SMILES IDX 23 1 22 2 21 3 19 4 20 5 16 6 15 7 13 8 14 9 4 11 3 12 1 13
REMARK SMILES IDX 2 14 93 16 94 17 99 18 95 19 98 20 96 21 97 22 5 23 6 24
REMARK SMILES IDX 7 25 12 26 8 27 11 28 9 29 10 30 17 32 18 33 24 35 25 36
REMARK SMILES IDX 26 37 27 38 28 39 29 40 30 41 31 42 92 43 32 44 91 45 33 46
REMARK SMILES IDX 34 47 35 48 85 49 36 50 90 51 84 52 86 53 37 54 89 55 83 56
REMARK SMILES IDX 82 57 38 59 70 60 50 61 69 62 51 63 54 64 68 65 87 66 52 67
REMARK SMILES IDX 53 68 67 70 88 71 55 72 39 73 40 74 48 75 41 76 47 77 49 78
REMARK SMILES IDX 46 79 42 80 43 81 44 82 45 83 71 84 72 85 80 86 73 87 79 88
REMARK SMILES IDX 81 89 78 90 74 91 75 92 76 93 77 94 56 95 57 96 65 97 58 98
REMARK SMILES IDX 64 99 66 100 63 101 59 102 60 103 61 104 62 105
REMARK H PARENT 15 10 3 15 10 31 18 34 86 58 54 69
REMARK Flexibility Score: inf
ROOT
ATOM      1  C   UNL A   1      31.402  29.972  25.130  1.00  0.00     0.202 C 
ENDROOT
BRANCH   1   2
ATOM      2  C   UNL A   1      30.699  29.228  23.996  1.00  0.00     0.261 C 
BRANCH   2   3
ATOM      3  O   UNL A   1      31.242  27.899  23.912  1.00  0.00    -0.462 OA
BRANCH   3   4
ATOM      4  C   UNL A   1      31.573  27.471  22.664  1.00  0.00     0.331 C 
ATOM      5  O   UNL A   1      30.904  27.680  21.659  1.00  0.00    -0.250 OA
BRANCH   4   6
ATOM      6  C   UNL A   1      32.917  26.712  22.682  1.00  0.00     0.218 C 
BRANCH   6   7
ATOM      7  N   UNL A   1      32.972  25.633  21.680  1.00  0.00    -0.339 N 
ATOM      8  C   UNL A   1      33.288  24.315  21.767  1.00  0.00     0.243 C 
ATOM      9  O   UNL A   1      32.890  23.599  20.839  1.00  0.00    -0.273 OA
ATOM     10  H   UNL A   1      32.732  25.923  20.771  1.00  0.00     0.164 HD
BRANCH   8  11
ATOM     11  C   UNL A   1      34.023  23.652  22.953  1.00  0.00     0.176 C 
BRANCH  11  12
ATOM     12  N   UNL A   1      33.312  22.537  23.578  1.00  0.00    -0.340 N 
ATOM     13  O   UNL A   1      32.197  21.497  25.236  1.00  0.00    -0.269 OA
ATOM     14  C   UNL A   1      32.533  22.553  24.710  1.00  0.00     0.251 C 
ATOM     15  H   UNL A   1      33.402  21.663  23.132  1.00  0.00     0.164 HD
BRANCH  14  16
ATOM     16  C   UNL A   1      32.131  23.837  25.328  1.00  0.00     0.040 A 
ATOM     17  C   UNL A   1      33.083  24.718  25.860  1.00  0.00     0.017 A 
ATOM     18  C   UNL A   1      30.772  24.179  25.335  1.00  0.00     0.017 A 
ATOM     19  C   UNL A   1      32.666  25.910  26.455  1.00  0.00     0.040 A 
ATOM     20  C   UNL A   1      30.362  25.378  25.922  1.00  0.00     0.040 A 
ATOM     21  C   UNL A   1      31.311  26.227  26.484  1.00  0.00     0.123 A 
ATOM     22  F   UNL A   1      30.914  27.372  27.055  1.00  0.00    -0.207 F 
ENDBRANCH  14  16
ENDBRANCH  11  12
BRANCH  11  23
ATOM     23  C   UNL A   1      35.529  23.380  22.733  1.00  0.00     0.070 C 
BRANCH  23  24
ATOM     24  C   UNL A   1      36.337  23.000  23.947  1.00  0.00    -0.045 A 
ATOM     25  C   UNL A   1      36.545  23.945  24.958  1.00  0.00     0.007 A 
ATOM     26  C   UNL A   1      36.907  21.729  24.089  1.00  0.00     0.007 A 
ATOM     27  C   UNL A   1      37.427  23.696  26.007  1.00  0.00     0.046 A 
ATOM     28  C   UNL A   1      37.781  21.467  25.146  1.00  0.00     0.046 A 
ATOM     29  C   UNL A   1      38.067  22.469  26.063  1.00  0.00     0.115 A 
BRANCH  29  30
ATOM     30  O   UNL A   1      39.039  22.248  26.990  1.00  0.00    -0.508 OA
ATOM     31  H   UNL A   1      39.004  21.484  27.533  1.00  0.00     0.293 HD
ENDBRANCH  29  30
ENDBRANCH  23  24
ENDBRANCH  11  23
ENDBRANCH   8  11
ENDBRANCH   6   7
BRANCH   6  32
ATOM     32  C   UNL A   1      34.060  27.709  22.489  1.00  0.00     0.193 C 
BRANCH  32  33
ATOM     33  O   UNL A   1      33.632  29.050  22.712  1.00  0.00    -0.394 OA
ATOM     34  H   UNL A   1      34.150  29.651  22.157  1.00  0.00     0.210 HD
ENDBRANCH  32  33
ENDBRANCH   6  32
ENDBRANCH   4   6
ENDBRANCH   3   4
ENDBRANCH   2   3
ENDBRANCH   1   2
BRANCH   1  35
ATOM     35  O   UNL A   1      32.689  29.449  25.484  1.00  0.00    -0.374 OA
BRANCH  35  36
ATOM     36  C   UNL A   1      33.211  29.825  26.759  1.00  0.00     0.202 C 
BRANCH  36  37
ATOM     37  C   UNL A   1      33.074  31.290  27.179  1.00  0.00     0.261 C 
BRANCH  37  38
ATOM     38  O   UNL A   1      34.345  31.911  27.337  1.00  0.00    -0.460 OA
BRANCH  38  39
ATOM     39  C   UNL A   1      34.802  31.826  28.613  1.00  0.00     0.338 C 
ATOM     40  O   UNL A   1      34.287  32.283  29.611  1.00  0.00    -0.246 OA
BRANCH  39  41
ATOM     41  C   UNL A   1      35.937  30.886  28.643  1.00  0.00     0.060 A 
ATOM     42  C   UNL A   1      36.011  30.043  29.756  1.00  0.00     0.016 A 
ATOM     43  C   UNL A   1      36.899  30.834  27.629  1.00  0.00     0.016 A 
ATOM     44  C   UNL A   1      37.112  29.218  29.916  1.00  0.00     0.010 A 
ATOM     45  C   UNL A   1      38.010  30.007  27.791  1.00  0.00     0.010 A 
ATOM     46  C   UNL A   1      38.145  29.260  28.971  1.00  0.00    -0.014 A 
BRANCH  46  47
ATOM     47  C   UNL A   1      39.471  28.787  29.414  1.00  0.00     0.031 A 
ATOM     48  C   UNL A   1      40.047  29.425  30.651  1.00  0.00     0.074 A 
ATOM     49  C   UNL A   1      40.066  27.746  28.810  1.00  0.00     0.049 A 
ATOM     50  N   UNL A   1      41.118  29.111  31.328  1.00  0.00    -0.248 NA
ATOM     51  C   UNL A   1      39.299  30.567  31.204  1.00  0.00     0.031 C 
ATOM     52  C   UNL A   1      39.548  27.045  27.635  1.00  0.00     0.029 A 
ATOM     53  N   UNL A   1      41.222  27.084  29.119  1.00  0.00    -0.354 N 
ATOM     54  C   UNL A   1      41.161  30.006  32.393  1.00  0.00     0.074 A 
ATOM     55  C   UNL A   1      40.043  30.907  32.243  1.00  0.00     0.031 C 
ATOM     56  C   UNL A   1      40.386  26.039  27.327  1.00  0.00     0.029 A 
ATOM     57  C   UNL A   1      41.500  26.038  28.273  1.00  0.00     0.049 A 
ATOM     58  H   UNL A   1      41.800  27.332  29.876  1.00  0.00     0.167 HD
ATOM     59  C   UNL A   1      42.048  30.058  33.416  1.00  0.00     0.034 A 
ATOM     60  C   UNL A   1      42.540  25.182  28.276  1.00  0.00     0.034 A 
ATOM     61  C   UNL A   1      43.174  29.166  33.519  1.00  0.00     0.049 A 
ATOM     62  C   UNL A   1      43.552  25.297  29.389  1.00  0.00     0.074 A 
ATOM     63  C   UNL A   1      44.176  29.138  34.469  1.00  0.00     0.029 A 
ATOM     64  N   UNL A   1      43.447  28.141  32.618  1.00  0.00    -0.354 N 
ATOM     65  N   UNL A   1      43.585  26.146  30.394  1.00  0.00    -0.248 NA
ATOM     66  C   UNL A   1      44.649  24.323  29.386  1.00  0.00     0.031 C 
ATOM     67  C   UNL A   1      45.086  28.135  34.112  1.00  0.00     0.029 A 
ATOM     68  C   UNL A   1      44.613  27.488  32.981  1.00  0.00     0.049 A 
ATOM     69  H   UNL A   1      42.893  27.914  31.837  1.00  0.00     0.167 HD
ATOM     70  C   UNL A   1      44.690  25.785  31.160  1.00  0.00     0.074 A 
ATOM     71  C   UNL A   1      45.283  24.634  30.507  1.00  0.00     0.031 C 
ATOM     72  C   UNL A   1      45.174  26.345  32.299  1.00  0.00     0.034 A 
BRANCH  59  73
ATOM     73  C   UNL A   1      41.854  31.154  34.436  1.00  0.00     0.023 A 
ATOM     74  C   UNL A   1      40.795  31.123  35.365  1.00  0.00     0.031 A 
ATOM     75  C   UNL A   1      42.686  32.286  34.426  1.00  0.00     0.131 A 
ATOM     76  C   UNL A   1      40.554  32.233  36.189  1.00  0.00     0.055 A 
ATOM     77  C   UNL A   1      42.486  33.354  35.304  1.00  0.00     0.041 A 
ATOM     78  F   UNL A   1      43.690  32.387  33.542  1.00  0.00    -0.206 F 
ATOM     79  C   UNL A   1      41.406  33.339  36.180  1.00  0.00     0.022 A 
BRANCH  76  80
ATOM     80  S   UNL A   1      39.022  32.280  37.161  1.00  0.00     0.124 S 
ATOM     81  O   UNL A   1      38.456  30.963  36.883  1.00  0.00    -0.237 OA
ATOM     82  O   UNL A   1      39.513  32.494  38.516  1.00  0.00    -0.237 OA
ATOM     83  O   UNL A   1      38.282  33.401  36.582  1.00  0.00    -0.744 OA
ENDBRANCH  76  80
ENDBRANCH  59  73
BRANCH  60  84
ATOM     84  C   UNL A   1      42.681  24.161  27.199  1.00  0.00     0.023 A 
ATOM     85  C   UNL A   1      42.161  22.865  27.340  1.00  0.00     0.031 A 
ATOM     86  C   UNL A   1      43.378  24.465  26.015  1.00  0.00     0.131 A 
ATOM     87  C   UNL A   1      42.381  21.909  26.336  1.00  0.00     0.055 A 
ATOM     88  C   UNL A   1      43.554  23.523  24.998  1.00  0.00     0.041 A 
ATOM     89  F   UNL A   1      43.891  25.691  25.824  1.00  0.00    -0.206 F 
ATOM     90  C   UNL A   1      43.064  22.233  25.161  1.00  0.00     0.022 A 
BRANCH  87  91
ATOM     91  S   UNL A   1      41.823  20.205  26.617  1.00  0.00     0.124 S 
ATOM     92  O   UNL A   1      41.386  20.260  28.008  1.00  0.00    -0.237 OA
ATOM     93  O   UNL A   1      40.770  20.064  25.617  1.00  0.00    -0.237 OA
ATOM     94  O   UNL A   1      43.023  19.408  26.371  1.00  0.00    -0.744 OA
ENDBRANCH  87  91
ENDBRANCH  60  84
BRANCH  72  95
ATOM     95  C   UNL A   1      46.375  25.679  32.923  1.00  0.00     0.023 A 
ATOM     96  C   UNL A   1      47.673  25.884  32.426  1.00  0.00     0.031 A 
ATOM     97  C   UNL A   1      46.208  24.816  34.020  1.00  0.00     0.131 A 
ATOM     98  C   UNL A   1      48.748  25.180  32.984  1.00  0.00     0.055 A 
ATOM     99  C   UNL A   1      47.291  24.166  34.610  1.00  0.00     0.041 A 
ATOM    100  F   UNL A   1      44.989  24.589  34.534  1.00  0.00    -0.206 F 
ATOM    101  C   UNL A   1      48.569  24.333  34.082  1.00  0.00     0.022 A 
BRANCH  98 102
ATOM    102  S   UNL A   1      50.371  25.303  32.185  1.00  0.00     0.124 S 
ATOM    103  O   UNL A   1      50.757  23.900  32.064  1.00  0.00    -0.237 OA
ATOM    104  O   UNL A   1      50.052  25.986  30.935  1.00  0.00    -0.237 OA
ATOM    105  O   UNL A   1      51.162  26.084  33.133  1.00  0.00    -0.744 OA
ENDBRANCH  98 102
ENDBRANCH  72  95
ENDBRANCH  46  47
ENDBRANCH  39  41
ENDBRANCH  38  39
ENDBRANCH  37  38
ENDBRANCH  36  37
ENDBRANCH  35  36
ENDBRANCH   1  35
TORSDOF 26
ENDMDL
