MODEL 1
REMARK VINA RESULT:     -11.4      0.000      0.000
REMARK SMILES O=C(OCCOCCOC(=O)c1ccc(-c2c3nc(c(-c4cc(S(=O)(=O)[O-])ccc4F)c4ccc([nH]4)c(-c4cc(S(=O)(=O)[O-])ccc4F)c4nc(c(-c5cc(S(=O)(=O)[O-])ccc5F)c5ccc2[nH]5)C=C4)C=C3)cc1)c1ccc(C#CC#C[C@H]2C[C@@H](O)C2)cc1
REMARK SMILES IDX 5 1 4 2 3 3 2 4 1 5 75 6 76 7 89 8 77 9 88 10 78 11 79 12
REMARK SMILES IDX 80 13 81 14 82 15 83 16 87 17 84 18 85 19 86 20 6 22 7 23
REMARK SMILES IDX 8 24 9 25 10 26 11 27 12 28 13 29 74 30 14 31 73 32 15 33
REMARK SMILES IDX 16 34 17 35 67 36 18 37 72 38 66 39 68 40 19 41 71 42 65 43
REMARK SMILES IDX 64 44 20 46 52 47 32 48 51 49 33 50 36 51 50 52 69 53 34 54
REMARK SMILES IDX 35 55 49 57 70 58 37 59 21 60 22 61 30 62 23 63 29 64 31 65
REMARK SMILES IDX 28 66 24 67 25 68 26 69 27 70 53 71 54 72 62 73 55 74 61 75
REMARK SMILES IDX 63 76 60 77 56 78 57 79 58 80 59 81 38 82 39 83 47 84 40 85
REMARK SMILES IDX 46 86 48 87 45 88 41 89 42 90 43 91 44 92
REMARK H PARENT 86 21 68 45 36 56
REMARK Flexibility Score: inf
ROOT
ATOM      1  C   UNL A   1      32.321  29.740  27.205  1.00  0.00     0.202 C 
ENDROOT
BRANCH   1   2
ATOM      2  C   UNL A   1      31.796  28.510  26.467  1.00  0.00     0.261 C 
BRANCH   2   3
ATOM      3  O   UNL A   1      31.950  28.671  25.048  1.00  0.00    -0.460 OA
BRANCH   3   4
ATOM      4  C   UNL A   1      31.228  28.019  24.107  1.00  0.00     0.338 C 
ATOM      5  O   UNL A   1      30.379  28.619  23.453  1.00  0.00    -0.246 OA
BRANCH   4   6
ATOM      6  C   UNL A   1      31.488  26.595  23.772  1.00  0.00     0.060 A 
ATOM      7  C   UNL A   1      32.761  26.020  23.726  1.00  0.00     0.017 A 
ATOM      8  C   UNL A   1      30.371  25.764  23.641  1.00  0.00     0.017 A 
ATOM      9  C   UNL A   1      32.930  24.659  23.508  1.00  0.00     0.018 A 
ATOM     10  C   UNL A   1      30.533  24.390  23.443  1.00  0.00     0.018 A 
ATOM     11  C   UNL A   1      31.814  23.844  23.375  1.00  0.00     0.026 A 
BRANCH  11  12
ATOM     12  C   UNL A   1      32.034  22.450  23.216  1.00  0.00    -0.053 C 
ATOM     13  C   UNL A   1      32.188  21.263  23.230  1.00  0.00    -0.010 C 
BRANCH  13  14
ATOM     14  C   UNL A   1      32.389  19.761  23.352  1.00  0.00    -0.015 C 
ATOM     15  C   UNL A   1      32.553  18.585  23.494  1.00  0.00    -0.085 C 
BRANCH  15  16
ATOM     16  C   UNL A   1      32.806  17.186  23.710  1.00  0.00     0.070 C 
ATOM     17  C   UNL A   1      34.219  16.669  23.345  1.00  0.00     0.048 C 
ATOM     18  C   UNL A   1      33.128  16.770  25.165  1.00  0.00     0.048 C 
ATOM     19  C   UNL A   1      34.083  15.714  24.558  1.00  0.00     0.116 C 
BRANCH  19  20
ATOM     20  O   UNL A   1      35.280  15.424  25.297  1.00  0.00    -0.393 OA
ATOM     21  H   UNL A   1      35.413  14.463  25.333  1.00  0.00     0.210 HD
ENDBRANCH  19  20
ENDBRANCH  15  16
ENDBRANCH  13  14
ENDBRANCH  11  12
ENDBRANCH   4   6
ENDBRANCH   3   4
ENDBRANCH   2   3
ENDBRANCH   1   2
BRANCH   1  22
ATOM     22  O   UNL A   1      32.400  30.913  26.401  1.00  0.00    -0.374 OA
BRANCH  22  23
ATOM     23  C   UNL A   1      31.380  31.900  26.589  1.00  0.00     0.202 C 
BRANCH  23  24
ATOM     24  C   UNL A   1      32.029  33.275  26.753  1.00  0.00     0.261 C 
BRANCH  24  25
ATOM     25  O   UNL A   1      32.421  33.419  28.120  1.00  0.00    -0.460 OA
BRANCH  25  26
ATOM     26  C   UNL A   1      33.504  34.217  28.305  1.00  0.00     0.338 C 
ATOM     27  O   UNL A   1      33.517  35.425  28.457  1.00  0.00    -0.246 OA
BRANCH  26  28
ATOM     28  C   UNL A   1      34.668  33.333  28.519  1.00  0.00     0.060 A 
ATOM     29  C   UNL A   1      34.438  32.016  28.938  1.00  0.00     0.016 A 
ATOM     30  C   UNL A   1      35.968  33.792  28.282  1.00  0.00     0.016 A 
ATOM     31  C   UNL A   1      35.517  31.184  29.217  1.00  0.00     0.010 A 
ATOM     32  C   UNL A   1      37.045  32.961  28.554  1.00  0.00     0.010 A 
ATOM     33  C   UNL A   1      36.817  31.686  29.094  1.00  0.00    -0.014 A 
BRANCH  33  34
ATOM     34  C   UNL A   1      37.926  31.010  29.790  1.00  0.00     0.031 A 
ATOM     35  C   UNL A   1      38.167  31.374  31.229  1.00  0.00     0.074 A 
ATOM     36  C   UNL A   1      38.682  30.100  29.158  1.00  0.00     0.049 A 
ATOM     37  N   UNL A   1      39.104  30.973  32.044  1.00  0.00    -0.248 NA
ATOM     38  C   UNL A   1      37.229  32.345  31.820  1.00  0.00     0.031 C 
ATOM     39  C   UNL A   1      38.491  29.656  27.779  1.00  0.00     0.029 A 
ATOM     40  N   UNL A   1      39.762  29.387  29.602  1.00  0.00    -0.354 N 
ATOM     41  C   UNL A   1      38.881  31.656  33.235  1.00  0.00     0.074 A 
ATOM     42  C   UNL A   1      37.756  32.536  33.017  1.00  0.00     0.031 C 
ATOM     43  C   UNL A   1      39.423  28.732  27.491  1.00  0.00     0.029 A 
ATOM     44  C   UNL A   1      40.299  28.559  28.648  1.00  0.00     0.049 A 
ATOM     45  H   UNL A   1      40.119  29.461  30.516  1.00  0.00     0.167 HD
ATOM     46  C   UNL A   1      39.552  31.545  34.407  1.00  0.00     0.034 A 
ATOM     47  C   UNL A   1      41.387  27.770  28.708  1.00  0.00     0.034 A 
ATOM     48  C   UNL A   1      40.680  30.666  34.581  1.00  0.00     0.049 A 
ATOM     49  C   UNL A   1      42.170  27.722  29.998  1.00  0.00     0.074 A 
ATOM     50  C   UNL A   1      41.433  30.445  35.719  1.00  0.00     0.029 A 
ATOM     51  N   UNL A   1      41.231  29.874  33.579  1.00  0.00    -0.354 N 
ATOM     52  N   UNL A   1      41.951  28.359  31.126  1.00  0.00    -0.248 NA
ATOM     53  C   UNL A   1      43.339  26.837  30.023  1.00  0.00     0.031 C 
ATOM     54  C   UNL A   1      42.497  29.604  35.380  1.00  0.00     0.029 A 
ATOM     55  C   UNL A   1      42.340  29.199  34.061  1.00  0.00     0.049 A 
ATOM     56  H   UNL A   1      40.884  29.805  32.660  1.00  0.00     0.167 HD
ATOM     57  C   UNL A   1      42.927  27.911  32.013  1.00  0.00     0.074 A 
ATOM     58  C   UNL A   1      43.730  26.949  31.284  1.00  0.00     0.031 C 
ATOM     59  C   UNL A   1      43.134  28.249  33.313  1.00  0.00     0.034 A 
BRANCH  46  60
ATOM     60  C   UNL A   1      39.123  32.447  35.542  1.00  0.00     0.023 A 
ATOM     61  C   UNL A   1      39.543  33.787  35.633  1.00  0.00     0.031 A 
ATOM     62  C   UNL A   1      38.334  31.937  36.588  1.00  0.00     0.131 A 
ATOM     63  C   UNL A   1      39.256  34.534  36.785  1.00  0.00     0.055 A 
ATOM     64  C   UNL A   1      37.964  32.720  37.683  1.00  0.00     0.041 A 
ATOM     65  F   UNL A   1      37.930  30.657  36.580  1.00  0.00    -0.206 F 
ATOM     66  C   UNL A   1      38.442  34.021  37.796  1.00  0.00     0.022 A 
BRANCH  63  67
ATOM     67  S   UNL A   1      40.120  36.111  37.030  1.00  0.00     0.124 S 
ATOM     68  O   UNL A   1      39.346  36.704  38.118  1.00  0.00    -0.237 OA
ATOM     69  O   UNL A   1      41.472  35.682  37.368  1.00  0.00    -0.237 OA
ATOM     70  O   UNL A   1      39.981  36.783  35.739  1.00  0.00    -0.744 OA
ENDBRANCH  63  67
ENDBRANCH  46  60
BRANCH  47  71
ATOM     71  C   UNL A   1      41.797  26.964  27.525  1.00  0.00     0.023 A 
ATOM     72  C   UNL A   1      41.530  25.588  27.465  1.00  0.00     0.031 A 
ATOM     73  C   UNL A   1      42.486  27.550  26.449  1.00  0.00     0.131 A 
ATOM     74  C   UNL A   1      41.990  24.833  26.375  1.00  0.00     0.055 A 
ATOM     75  C   UNL A   1      42.888  26.808  25.338  1.00  0.00     0.041 A 
ATOM     76  F   UNL A   1      42.768  28.863  26.456  1.00  0.00    -0.206 F 
ATOM     77  C   UNL A   1      42.650  25.437  25.303  1.00  0.00     0.022 A 
BRANCH  74  78
ATOM     78  S   UNL A   1      41.793  23.033  26.427  1.00  0.00     0.124 S 
ATOM     79  O   UNL A   1      40.342  22.895  26.446  1.00  0.00    -0.237 OA
ATOM     80  O   UNL A   1      42.462  22.619  25.199  1.00  0.00    -0.237 OA
ATOM     81  O   UNL A   1      42.474  22.652  27.663  1.00  0.00    -0.744 OA
ENDBRANCH  74  78
ENDBRANCH  47  71
BRANCH  59  82
ATOM     82  C   UNL A   1      44.229  27.513  34.051  1.00  0.00     0.023 A 
ATOM     83  C   UNL A   1      44.001  26.293  34.710  1.00  0.00     0.031 A 
ATOM     84  C   UNL A   1      45.524  28.062  34.111  1.00  0.00     0.131 A 
ATOM     85  C   UNL A   1      45.026  25.708  35.467  1.00  0.00     0.055 A 
ATOM     86  C   UNL A   1      46.563  27.428  34.791  1.00  0.00     0.041 A 
ATOM     87  F   UNL A   1      45.801  29.229  33.508  1.00  0.00    -0.206 F 
ATOM     88  C   UNL A   1      46.312  26.253  35.492  1.00  0.00     0.022 A 
BRANCH  85  89
ATOM     89  S   UNL A   1      44.616  24.307  36.544  1.00  0.00     0.124 S 
ATOM     90  O   UNL A   1      45.915  23.983  37.125  1.00  0.00    -0.237 OA
ATOM     91  O   UNL A   1      43.637  24.889  37.456  1.00  0.00    -0.237 OA
ATOM     92  O   UNL A   1      44.085  23.308  35.619  1.00  0.00    -0.744 OA
ENDBRANCH  85  89
ENDBRANCH  59  82
ENDBRANCH  33  34
ENDBRANCH  26  28
ENDBRANCH  25  26
ENDBRANCH  24  25
ENDBRANCH  23  24
ENDBRANCH  22  23
ENDBRANCH   1  22
TORSDOF 21
ENDMDL
MODEL 2
REMARK VINA RESULT:     -11.2      5.334     12.455
REMARK SMILES O=C(OCCOCCOC(=O)c1ccc(-c2c3nc(c(-c4cc(S(=O)(=O)[O-])ccc4F)c4ccc([nH]4)c(-c4cc(S(=O)(=O)[O-])ccc4F)c4nc(c(-c5cc(S(=O)(=O)[O-])ccc5F)c5ccc2[nH]5)C=C4)C=C3)cc1)c1ccc(C#CC#C[C@H]2C[C@@H](O)C2)cc1
REMARK SMILES IDX 5 1 4 2 3 3 2 4 1 5 75 6 76 7 89 8 77 9 88 10 78 11 79 12
REMARK SMILES IDX 80 13 81 14 82 15 83 16 87 17 84 18 85 19 86 20 6 22 7 23
REMARK SMILES IDX 8 24 9 25 10 26 11 27 12 28 13 29 74 30 14 31 73 32 15 33
REMARK SMILES IDX 16 34 17 35 67 36 18 37 72 38 66 39 68 40 19 41 71 42 65 43
REMARK SMILES IDX 64 44 20 46 52 47 32 48 51 49 33 50 36 51 50 52 69 53 34 54
REMARK SMILES IDX 35 55 49 57 70 58 37 59 21 60 22 61 30 62 23 63 29 64 31 65
REMARK SMILES IDX 28 66 24 67 25 68 26 69 27 70 53 71 54 72 62 73 55 74 61 75
REMARK SMILES IDX 63 76 60 77 56 78 57 79 58 80 59 81 38 82 39 83 47 84 40 85
REMARK SMILES IDX 46 86 48 87 45 88 41 89 42 90 43 91 44 92
REMARK H PARENT 86 21 68 45 36 56
REMARK Flexibility Score: inf
ROOT
ATOM      1  C   UNL A   1      43.405  19.243  25.053  1.00  0.00     0.202 C 
ENDROOT
BRANCH   1   2
ATOM      2  C   UNL A   1      44.754  19.952  24.964  1.00  0.00     0.261 C 
BRANCH   2   3
ATOM      3  O   UNL A   1      44.634  21.169  24.211  1.00  0.00    -0.460 OA
BRANCH   3   4
ATOM      4  C   UNL A   1      45.197  22.353  24.546  1.00  0.00     0.338 C 
ATOM      5  O   UNL A   1      45.831  22.995  23.713  1.00  0.00    -0.246 OA
BRANCH   4   6
ATOM      6  C   UNL A   1      45.003  22.956  25.890  1.00  0.00     0.060 A 
ATOM      7  C   UNL A   1      43.841  22.811  26.654  1.00  0.00     0.017 A 
ATOM      8  C   UNL A   1      46.113  23.578  26.469  1.00  0.00     0.017 A 
ATOM      9  C   UNL A   1      43.760  23.314  27.945  1.00  0.00     0.018 A 
ATOM     10  C   UNL A   1      46.046  24.067  27.777  1.00  0.00     0.018 A 
ATOM     11  C   UNL A   1      44.867  23.933  28.509  1.00  0.00     0.026 A 
BRANCH  11  12
ATOM     12  C   UNL A   1      44.760  24.375  29.854  1.00  0.00    -0.053 C 
ATOM     13  C   UNL A   1      44.610  24.612  31.018  1.00  0.00    -0.010 C 
BRANCH  13  14
ATOM     14  C   UNL A   1      44.356  24.830  32.501  1.00  0.00    -0.015 C 
ATOM     15  C   UNL A   1      44.119  25.028  33.656  1.00  0.00    -0.085 C 
BRANCH  15  16
ATOM     16  C   UNL A   1      43.820  25.335  35.029  1.00  0.00     0.070 C 
ATOM     17  C   UNL A   1      42.388  25.838  35.335  1.00  0.00     0.048 C 
ATOM     18  C   UNL A   1      43.492  24.127  35.940  1.00  0.00     0.048 C 
ATOM     19  C   UNL A   1      42.498  25.061  36.671  1.00  0.00     0.116 C 
BRANCH  19  20
ATOM     20  O   UNL A   1      41.297  24.458  37.177  1.00  0.00    -0.393 OA
ATOM     21  H   UNL A   1      41.220  23.553  36.833  1.00  0.00     0.210 HD
ENDBRANCH  19  20
ENDBRANCH  15  16
ENDBRANCH  13  14
ENDBRANCH  11  12
ENDBRANCH   4   6
ENDBRANCH   3   4
ENDBRANCH   2   3
ENDBRANCH   1   2
BRANCH   1  22
ATOM     22  O   UNL A   1      43.112  18.705  26.340  1.00  0.00    -0.374 OA
BRANCH  22  23
ATOM     23  C   UNL A   1      42.249  19.475  27.185  1.00  0.00     0.202 C 
BRANCH  23  24
ATOM     24  C   UNL A   1      41.308  20.313  26.320  1.00  0.00     0.261 C 
BRANCH  24  25
ATOM     25  O   UNL A   1      40.911  21.458  27.078  1.00  0.00    -0.460 OA
BRANCH  25  26
ATOM     26  C   UNL A   1      39.836  22.113  26.571  1.00  0.00     0.338 C 
ATOM     27  O   UNL A   1      38.919  21.642  25.922  1.00  0.00    -0.246 OA
BRANCH  26  28
ATOM     28  C   UNL A   1      39.847  23.478  27.137  1.00  0.00     0.060 A 
ATOM     29  C   UNL A   1      39.193  24.498  26.433  1.00  0.00     0.016 A 
ATOM     30  C   UNL A   1      40.472  23.740  28.360  1.00  0.00     0.016 A 
ATOM     31  C   UNL A   1      39.249  25.804  26.905  1.00  0.00     0.010 A 
ATOM     32  C   UNL A   1      40.523  25.042  28.835  1.00  0.00     0.010 A 
ATOM     33  C   UNL A   1      39.978  26.081  28.067  1.00  0.00    -0.014 A 
BRANCH  33  34
ATOM     34  C   UNL A   1      40.424  27.460  28.333  1.00  0.00     0.031 A 
ATOM     35  C   UNL A   1      41.859  27.795  28.037  1.00  0.00     0.074 A 
ATOM     36  C   UNL A   1      39.572  28.378  28.815  1.00  0.00     0.049 A 
ATOM     37  N   UNL A   1      42.513  28.907  28.235  1.00  0.00    -0.248 NA
ATOM     38  C   UNL A   1      42.674  26.712  27.456  1.00  0.00     0.031 C 
ATOM     39  C   UNL A   1      38.155  28.151  29.089  1.00  0.00     0.029 A 
ATOM     40  N   UNL A   1      39.782  29.686  29.156  1.00  0.00    -0.354 N 
ATOM     41  C   UNL A   1      43.817  28.653  27.822  1.00  0.00     0.074 A 
ATOM     42  C   UNL A   1      43.872  27.266  27.417  1.00  0.00     0.031 C 
ATOM     43  C   UNL A   1      37.617  29.292  29.550  1.00  0.00     0.029 A 
ATOM     44  C   UNL A   1      38.662  30.309  29.646  1.00  0.00     0.049 A 
ATOM     45  H   UNL A   1      40.652  30.135  29.059  1.00  0.00     0.167 HD
ATOM     46  C   UNL A   1      44.867  29.507  27.777  1.00  0.00     0.034 A 
ATOM     47  C   UNL A   1      38.515  31.556  30.130  1.00  0.00     0.034 A 
ATOM     48  C   UNL A   1      44.777  30.880  28.204  1.00  0.00     0.049 A 
ATOM     49  C   UNL A   1      39.718  32.468  30.148  1.00  0.00     0.074 A 
ATOM     50  C   UNL A   1      45.758  31.854  28.191  1.00  0.00     0.029 A 
ATOM     51  N   UNL A   1      43.637  31.470  28.742  1.00  0.00    -0.354 N 
ATOM     52  N   UNL A   1      40.946  32.229  29.748  1.00  0.00    -0.248 NA
ATOM     53  C   UNL A   1      39.507  33.821  30.671  1.00  0.00     0.031 C 
ATOM     54  C   UNL A   1      45.245  32.996  28.813  1.00  0.00     0.029 A 
ATOM     55  C   UNL A   1      43.905  32.779  29.104  1.00  0.00     0.049 A 
ATOM     56  H   UNL A   1      42.767  31.021  28.850  1.00  0.00     0.167 HD
ATOM     57  C   UNL A   1      41.643  33.422  29.923  1.00  0.00     0.074 A 
ATOM     58  C   UNL A   1      40.692  34.374  30.463  1.00  0.00     0.031 C 
ATOM     59  C   UNL A   1      42.943  33.711  29.651  1.00  0.00     0.034 A 
BRANCH  46  60
ATOM     60  C   UNL A   1      46.198  28.951  27.323  1.00  0.00     0.023 A 
ATOM     61  C   UNL A   1      46.504  28.758  25.963  1.00  0.00     0.031 A 
ATOM     62  C   UNL A   1      47.152  28.543  28.272  1.00  0.00     0.131 A 
ATOM     63  C   UNL A   1      47.682  28.088  25.599  1.00  0.00     0.055 A 
ATOM     64  C   UNL A   1      48.369  27.971  27.897  1.00  0.00     0.041 A 
ATOM     65  F   UNL A   1      46.907  28.666  29.586  1.00  0.00    -0.206 F 
ATOM     66  C   UNL A   1      48.632  27.722  26.554  1.00  0.00     0.022 A 
BRANCH  63  67
ATOM     67  S   UNL A   1      47.862  27.529  23.881  1.00  0.00     0.124 S 
ATOM     68  O   UNL A   1      47.289  26.186  23.948  1.00  0.00    -0.237 OA
ATOM     69  O   UNL A   1      47.088  28.519  23.144  1.00  0.00    -0.237 OA
ATOM     70  O   UNL A   1      49.307  27.571  23.658  1.00  0.00    -0.744 OA
ENDBRANCH  63  67
ENDBRANCH  46  60
BRANCH  47  71
ATOM     71  C   UNL A   1      37.190  32.015  30.632  1.00  0.00     0.023 A 
ATOM     72  C   UNL A   1      36.276  32.646  29.775  1.00  0.00     0.031 A 
ATOM     73  C   UNL A   1      36.828  31.855  31.982  1.00  0.00     0.131 A 
ATOM     74  C   UNL A   1      35.064  33.137  30.285  1.00  0.00     0.055 A 
ATOM     75  C   UNL A   1      35.595  32.289  32.471  1.00  0.00     0.041 A 
ATOM     76  F   UNL A   1      37.666  31.258  32.845  1.00  0.00    -0.206 F 
ATOM     77  C   UNL A   1      34.710  32.946  31.622  1.00  0.00     0.022 A 
BRANCH  74  78
ATOM     78  S   UNL A   1      33.999  34.112  29.190  1.00  0.00     0.124 S 
ATOM     79  O   UNL A   1      32.987  34.599  30.121  1.00  0.00    -0.237 OA
ATOM     80  O   UNL A   1      34.929  35.109  28.672  1.00  0.00    -0.237 OA
ATOM     81  O   UNL A   1      33.530  33.133  28.212  1.00  0.00    -0.744 OA
ENDBRANCH  74  78
ENDBRANCH  47  71
BRANCH  59  82
ATOM     82  C   UNL A   1      43.389  35.140  29.862  1.00  0.00     0.023 A 
ATOM     83  C   UNL A   1      43.197  36.138  28.892  1.00  0.00     0.031 A 
ATOM     84  C   UNL A   1      44.044  35.499  31.056  1.00  0.00     0.131 A 
ATOM     85  C   UNL A   1      43.726  37.420  29.097  1.00  0.00     0.055 A 
ATOM     86  C   UNL A   1      44.487  36.800  31.290  1.00  0.00     0.041 A 
ATOM     87  F   UNL A   1      44.264  34.588  32.016  1.00  0.00    -0.206 F 
ATOM     88  C   UNL A   1      44.347  37.766  30.299  1.00  0.00     0.022 A 
BRANCH  85  89
ATOM     89  S   UNL A   1      43.726  38.589  27.709  1.00  0.00     0.124 S 
ATOM     90  O   UNL A   1      44.840  38.099  26.903  1.00  0.00    -0.237 OA
ATOM     91  O   UNL A   1      42.396  38.400  27.141  1.00  0.00    -0.237 OA
ATOM     92  O   UNL A   1      43.948  39.882  28.352  1.00  0.00    -0.744 OA
ENDBRANCH  85  89
ENDBRANCH  59  82
ENDBRANCH  33  34
ENDBRANCH  26  28
ENDBRANCH  25  26
ENDBRANCH  24  25
ENDBRANCH  23  24
ENDBRANCH  22  23
ENDBRANCH   1  22
TORSDOF 21
ENDMDL
MODEL 3
REMARK VINA RESULT:     -11.1      1.647      7.726
REMARK SMILES O=C(OCCOCCOC(=O)c1ccc(-c2c3nc(c(-c4cc(S(=O)(=O)[O-])ccc4F)c4ccc([nH]4)c(-c4cc(S(=O)(=O)[O-])ccc4F)c4nc(c(-c5cc(S(=O)(=O)[O-])ccc5F)c5ccc2[nH]5)C=C4)C=C3)cc1)c1ccc(C#CC#C[C@H]2C[C@@H](O)C2)cc1
REMARK SMILES IDX 5 1 4 2 3 3 2 4 1 5 75 6 76 7 89 8 77 9 88 10 78 11 79 12
REMARK SMILES IDX 80 13 81 14 82 15 83 16 87 17 84 18 85 19 86 20 6 22 7 23
REMARK SMILES IDX 8 24 9 25 10 26 11 27 12 28 13 29 74 30 14 31 73 32 15 33
REMARK SMILES IDX 16 34 17 35 67 36 18 37 72 38 66 39 68 40 19 41 71 42 65 43
REMARK SMILES IDX 64 44 20 46 52 47 32 48 51 49 33 50 36 51 50 52 69 53 34 54
REMARK SMILES IDX 35 55 49 57 70 58 37 59 21 60 22 61 30 62 23 63 29 64 31 65
REMARK SMILES IDX 28 66 24 67 25 68 26 69 27 70 53 71 54 72 62 73 55 74 61 75
REMARK SMILES IDX 63 76 60 77 56 78 57 79 58 80 59 81 38 82 39 83 47 84 40 85
REMARK SMILES IDX 46 86 48 87 45 88 41 89 42 90 43 91 44 92
REMARK H PARENT 86 21 68 45 36 56
REMARK Flexibility Score: inf
ROOT
ATOM      1  C   UNL A   1      32.818  28.674  24.506  1.00  0.00     0.202 C 
ENDROOT
BRANCH   1   2
ATOM      2  C   UNL A   1      32.702  29.353  23.143  1.00  0.00     0.261 C 
BRANCH   2   3
ATOM      3  O   UNL A   1      31.831  28.606  22.280  1.00  0.00    -0.460 OA
BRANCH   3   4
ATOM      4  C   UNL A   1      30.863  27.756  22.695  1.00  0.00     0.338 C 
ATOM      5  O   UNL A   1      29.709  28.152  22.832  1.00  0.00    -0.246 OA
BRANCH   4   6
ATOM      6  C   UNL A   1      31.135  26.312  22.917  1.00  0.00     0.060 A 
ATOM      7  C   UNL A   1      32.175  25.607  22.304  1.00  0.00     0.017 A 
ATOM      8  C   UNL A   1      30.386  25.674  23.910  1.00  0.00     0.017 A 
ATOM      9  C   UNL A   1      32.441  24.284  22.631  1.00  0.00     0.018 A 
ATOM     10  C   UNL A   1      30.662  24.348  24.260  1.00  0.00     0.018 A 
ATOM     11  C   UNL A   1      31.688  23.659  23.616  1.00  0.00     0.026 A 
BRANCH  11  12
ATOM     12  C   UNL A   1      32.036  22.326  23.962  1.00  0.00    -0.053 C 
ATOM     13  C   UNL A   1      32.242  21.160  24.138  1.00  0.00    -0.010 C 
BRANCH  13  14
ATOM     14  C   UNL A   1      32.423  19.659  24.298  1.00  0.00    -0.015 C 
ATOM     15  C   UNL A   1      32.604  18.481  24.397  1.00  0.00    -0.085 C 
BRANCH  15  16
ATOM     16  C   UNL A   1      32.838  17.063  24.445  1.00  0.00     0.070 C 
ATOM     17  C   UNL A   1      34.100  16.540  23.717  1.00  0.00     0.048 C 
ATOM     18  C   UNL A   1      33.476  16.524  25.747  1.00  0.00     0.048 C 
ATOM     19  C   UNL A   1      34.213  15.495  24.856  1.00  0.00     0.116 C 
BRANCH  19  20
ATOM     20  O   UNL A   1      35.536  15.116  25.265  1.00  0.00    -0.393 OA
ATOM     21  H   UNL A   1      35.493  14.292  25.776  1.00  0.00     0.210 HD
ENDBRANCH  19  20
ENDBRANCH  15  16
ENDBRANCH  13  14
ENDBRANCH  11  12
ENDBRANCH   4   6
ENDBRANCH   3   4
ENDBRANCH   2   3
ENDBRANCH   1   2
BRANCH   1  22
ATOM     22  O   UNL A   1      32.376  29.477  25.597  1.00  0.00    -0.374 OA
BRANCH  22  23
ATOM     23  C   UNL A   1      31.343  30.430  25.327  1.00  0.00     0.202 C 
BRANCH  23  24
ATOM     24  C   UNL A   1      31.389  31.539  26.378  1.00  0.00     0.261 C 
BRANCH  24  25
ATOM     25  O   UNL A   1      32.481  31.269  27.260  1.00  0.00    -0.460 OA
BRANCH  25  26
ATOM     26  C   UNL A   1      33.277  32.341  27.502  1.00  0.00     0.338 C 
ATOM     27  O   UNL A   1      32.945  33.510  27.571  1.00  0.00    -0.246 OA
BRANCH  26  28
ATOM     28  C   UNL A   1      34.603  31.822  27.897  1.00  0.00     0.060 A 
ATOM     29  C   UNL A   1      34.748  30.442  28.094  1.00  0.00     0.016 A 
ATOM     30  C   UNL A   1      35.694  32.684  28.045  1.00  0.00     0.016 A 
ATOM     31  C   UNL A   1      35.964  29.934  28.536  1.00  0.00     0.010 A 
ATOM     32  C   UNL A   1      36.910  32.178  28.480  1.00  0.00     0.010 A 
ATOM     33  C   UNL A   1      37.019  30.816  28.797  1.00  0.00    -0.014 A 
BRANCH  33  34
ATOM     34  C   UNL A   1      38.129  30.384  29.666  1.00  0.00     0.031 A 
ATOM     35  C   UNL A   1      39.116  29.404  29.095  1.00  0.00     0.074 A 
ATOM     36  C   UNL A   1      38.250  30.860  30.914  1.00  0.00     0.049 A 
ATOM     37  N   UNL A   1      40.139  28.826  29.663  1.00  0.00    -0.248 NA
ATOM     38  C   UNL A   1      38.901  29.006  27.693  1.00  0.00     0.031 C 
ATOM     39  C   UNL A   1      37.364  31.844  31.532  1.00  0.00     0.029 A 
ATOM     40  N   UNL A   1      39.173  30.573  31.883  1.00  0.00    -0.354 N 
ATOM     41  C   UNL A   1      40.677  27.983  28.697  1.00  0.00     0.074 A 
ATOM     42  C   UNL A   1      39.833  28.084  27.527  1.00  0.00     0.031 C 
ATOM     43  C   UNL A   1      37.795  32.089  32.780  1.00  0.00     0.029 A 
ATOM     44  C   UNL A   1      38.955  31.245  33.060  1.00  0.00     0.049 A 
ATOM     45  H   UNL A   1      39.919  29.947  31.749  1.00  0.00     0.167 HD
ATOM     46  C   UNL A   1      41.783  27.205  28.779  1.00  0.00     0.034 A 
ATOM     47  C   UNL A   1      39.614  31.164  34.230  1.00  0.00     0.034 A 
ATOM     48  C   UNL A   1      42.591  27.119  29.969  1.00  0.00     0.049 A 
ATOM     49  C   UNL A   1      40.795  30.229  34.328  1.00  0.00     0.074 A 
ATOM     50  C   UNL A   1      43.744  26.387  30.177  1.00  0.00     0.029 A 
ATOM     51  N   UNL A   1      42.315  27.777  31.164  1.00  0.00    -0.354 N 
ATOM     52  N   UNL A   1      41.308  29.442  33.410  1.00  0.00    -0.248 NA
ATOM     53  C   UNL A   1      41.491  30.185  35.618  1.00  0.00     0.031 C 
ATOM     54  C   UNL A   1      44.106  26.519  31.521  1.00  0.00     0.029 A 
ATOM     55  C   UNL A   1      43.252  27.431  32.124  1.00  0.00     0.049 A 
ATOM     56  H   UNL A   1      41.563  28.396  31.306  1.00  0.00     0.167 HD
ATOM     57  C   UNL A   1      42.422  28.846  33.997  1.00  0.00     0.074 A 
ATOM     58  C   UNL A   1      42.501  29.371  35.346  1.00  0.00     0.031 C 
ATOM     59  C   UNL A   1      43.307  27.960  33.469  1.00  0.00     0.034 A 
BRANCH  46  60
ATOM     60  C   UNL A   1      42.120  26.346  27.582  1.00  0.00     0.023 A 
ATOM     61  C   UNL A   1      41.638  25.030  27.445  1.00  0.00     0.031 A 
ATOM     62  C   UNL A   1      42.993  26.827  26.591  1.00  0.00     0.131 A 
ATOM     63  C   UNL A   1      42.108  24.217  26.404  1.00  0.00     0.055 A 
ATOM     64  C   UNL A   1      43.375  26.046  25.500  1.00  0.00     0.041 A 
ATOM     65  F   UNL A   1      43.516  28.061  26.680  1.00  0.00    -0.206 F 
ATOM     66  C   UNL A   1      42.948  24.725  25.411  1.00  0.00     0.022 A 
BRANCH  63  67
ATOM     67  S   UNL A   1      41.763  22.436  26.474  1.00  0.00     0.124 S 
ATOM     68  O   UNL A   1      42.290  22.087  27.791  1.00  0.00    -0.237 OA
ATOM     69  O   UNL A   1      40.313  22.389  26.332  1.00  0.00    -0.237 OA
ATOM     70  O   UNL A   1      42.520  21.896  25.346  1.00  0.00    -0.744 OA
ENDBRANCH  63  67
ENDBRANCH  46  60
BRANCH  47  71
ATOM     71  C   UNL A   1      39.180  31.985  35.394  1.00  0.00     0.023 A 
ATOM     72  C   UNL A   1      38.514  31.398  36.480  1.00  0.00     0.031 A 
ATOM     73  C   UNL A   1      39.400  33.374  35.427  1.00  0.00     0.131 A 
ATOM     74  C   UNL A   1      38.049  32.202  37.532  1.00  0.00     0.055 A 
ATOM     75  C   UNL A   1      38.990  34.161  36.504  1.00  0.00     0.041 A 
ATOM     76  F   UNL A   1      40.032  33.987  34.413  1.00  0.00    -0.206 F 
ATOM     77  C   UNL A   1      38.299  33.575  37.561  1.00  0.00     0.022 A 
BRANCH  74  78
ATOM     78  S   UNL A   1      37.029  31.435  38.819  1.00  0.00     0.124 S 
ATOM     79  O   UNL A   1      37.929  31.466  39.966  1.00  0.00    -0.237 OA
ATOM     80  O   UNL A   1      35.884  32.335  38.875  1.00  0.00    -0.237 OA
ATOM     81  O   UNL A   1      36.748  30.105  38.281  1.00  0.00    -0.744 OA
ENDBRANCH  74  78
ENDBRANCH  47  71
BRANCH  59  82
ATOM     82  C   UNL A   1      44.483  27.563  34.333  1.00  0.00     0.023 A 
ATOM     83  C   UNL A   1      44.411  26.510  35.259  1.00  0.00     0.031 A 
ATOM     84  C   UNL A   1      45.693  28.277  34.238  1.00  0.00     0.131 A 
ATOM     85  C   UNL A   1      45.497  26.254  36.109  1.00  0.00     0.055 A 
ATOM     86  C   UNL A   1      46.800  27.957  35.023  1.00  0.00     0.041 A 
ATOM     87  F   UNL A   1      45.819  29.298  33.377  1.00  0.00    -0.206 F 
ATOM     88  C   UNL A   1      46.699  26.954  35.981  1.00  0.00     0.022 A 
BRANCH  85  89
ATOM     89  S   UNL A   1      45.265  25.098  37.488  1.00  0.00     0.124 S 
ATOM     90  O   UNL A   1      43.838  25.238  37.761  1.00  0.00    -0.237 OA
ATOM     91  O   UNL A   1      45.681  23.828  36.904  1.00  0.00    -0.237 OA
ATOM     92  O   UNL A   1      46.149  25.623  38.527  1.00  0.00    -0.744 OA
ENDBRANCH  85  89
ENDBRANCH  59  82
ENDBRANCH  33  34
ENDBRANCH  26  28
ENDBRANCH  25  26
ENDBRANCH  24  25
ENDBRANCH  23  24
ENDBRANCH  22  23
ENDBRANCH   1  22
TORSDOF 21
ENDMDL
