MODEL 1
REMARK VINA RESULT:     -11.0      0.000      0.000
REMARK SMILES O=C(OCCOCCOC(=O)[C@@H]1CCc2[nH]ncc2C1)c1ccc(-c2c3nc(c(-c4cc(S(=O)(=O)[O-])ccc4F)c4ccc([nH]4)c(-c4cc(S(=O)(=O)[O-])ccc4F)c4nc(c(-c5cc(S(=O)(=O)[O-])ccc5F)c5ccc2[nH]5)C=C4)C=C3)cc1
REMARK SMILES IDX 4 1 3 2 2 3 1 4 21 5 22 6 83 7 23 8 82 9 24 10 25 11 26 12
REMARK SMILES IDX 76 13 27 14 81 15 75 16 77 17 28 18 80 19 74 20 73 21 29 23
REMARK SMILES IDX 61 24 41 25 60 26 42 27 45 28 59 29 78 30 43 31 44 32 58 34
REMARK SMILES IDX 79 35 46 36 30 37 31 38 39 39 32 40 38 41 40 42 37 43 33 44
REMARK SMILES IDX 34 45 35 46 36 47 62 48 63 49 71 50 64 51 70 52 72 53 69 54
REMARK SMILES IDX 65 55 66 56 67 57 68 58 47 59 48 60 56 61 49 62 55 63 57 64
REMARK SMILES IDX 54 65 50 66 51 67 52 68 53 69 5 70 6 71 7 72 8 73 9 74 10 75
REMARK SMILES IDX 11 76 12 77 13 78 20 79 14 80 19 81 15 82 18 83 16 84 17 85
REMARK H PARENT 77 22 45 33 16 86
REMARK Flexibility Score: inf
ROOT
ATOM      1  C   UNL A   1      36.378  20.709  25.010  1.00  0.00     0.261 C 
ENDROOT
BRANCH   1   2
ATOM      2  O   UNL A   1      37.191  21.623  25.775  1.00  0.00    -0.460 OA
BRANCH   2   3
ATOM      3  C   UNL A   1      38.524  21.522  26.005  1.00  0.00     0.338 C 
ATOM      4  O   UNL A   1      39.103  20.455  25.826  1.00  0.00    -0.246 OA
BRANCH   3   5
ATOM      5  C   UNL A   1      39.299  22.701  26.462  1.00  0.00     0.060 A 
ATOM      6  C   UNL A   1      38.958  23.989  26.072  1.00  0.00     0.016 A 
ATOM      7  C   UNL A   1      40.367  22.535  27.347  1.00  0.00     0.016 A 
ATOM      8  C   UNL A   1      39.714  25.079  26.394  1.00  0.00     0.010 A 
ATOM      9  C   UNL A   1      41.070  23.658  27.797  1.00  0.00     0.010 A 
ATOM     10  C   UNL A   1      40.734  24.931  27.313  1.00  0.00    -0.014 A 
BRANCH  10  11
ATOM     11  C   UNL A   1      41.414  26.173  27.683  1.00  0.00     0.031 A 
ATOM     12  C   UNL A   1      40.695  27.125  28.572  1.00  0.00     0.074 A 
ATOM     13  C   UNL A   1      42.723  26.291  27.386  1.00  0.00     0.049 A 
ATOM     14  N   UNL A   1      41.059  28.309  28.963  1.00  0.00    -0.248 NA
ATOM     15  C   UNL A   1      39.396  26.677  29.108  1.00  0.00     0.031 C 
ATOM     16  C   UNL A   1      43.531  25.271  26.694  1.00  0.00     0.029 A 
ATOM     17  N   UNL A   1      43.625  27.277  27.666  1.00  0.00    -0.354 N 
ATOM     18  C   UNL A   1      40.010  28.780  29.739  1.00  0.00     0.074 A 
ATOM     19  C   UNL A   1      39.007  27.742  29.792  1.00  0.00     0.031 C 
ATOM     20  C   UNL A   1      44.806  25.677  26.638  1.00  0.00     0.029 A 
ATOM     21  C   UNL A   1      44.881  27.032  27.159  1.00  0.00     0.049 A 
ATOM     22  H   UNL A   1      43.398  28.085  28.181  1.00  0.00     0.167 HD
ATOM     23  C   UNL A   1      39.910  29.997  30.319  1.00  0.00     0.034 A 
ATOM     24  C   UNL A   1      45.939  27.855  27.058  1.00  0.00     0.034 A 
ATOM     25  C   UNL A   1      40.959  30.978  30.221  1.00  0.00     0.049 A 
ATOM     26  C   UNL A   1      45.747  29.251  27.595  1.00  0.00     0.074 A 
ATOM     27  C   UNL A   1      40.976  32.278  30.683  1.00  0.00     0.029 A 
ATOM     28  N   UNL A   1      42.188  30.752  29.605  1.00  0.00    -0.354 N 
ATOM     29  N   UNL A   1      44.709  29.750  28.234  1.00  0.00    -0.248 NA
ATOM     30  C   UNL A   1      46.840  30.200  27.381  1.00  0.00     0.031 C 
ATOM     31  C   UNL A   1      42.183  32.860  30.281  1.00  0.00     0.029 A 
ATOM     32  C   UNL A   1      42.957  31.900  29.641  1.00  0.00     0.049 A 
ATOM     33  H   UNL A   1      42.469  29.898  29.203  1.00  0.00     0.167 HD
ATOM     34  C   UNL A   1      45.031  31.071  28.509  1.00  0.00     0.074 A 
ATOM     35  C   UNL A   1      46.376  31.275  27.999  1.00  0.00     0.031 C 
ATOM     36  C   UNL A   1      44.294  32.039  29.112  1.00  0.00     0.034 A 
BRANCH  23  37
ATOM     37  C   UNL A   1      38.595  30.349  30.955  1.00  0.00     0.023 A 
ATOM     38  C   UNL A   1      37.576  31.022  30.261  1.00  0.00     0.031 A 
ATOM     39  C   UNL A   1      38.393  30.066  32.318  1.00  0.00     0.131 A 
ATOM     40  C   UNL A   1      36.423  31.436  30.949  1.00  0.00     0.055 A 
ATOM     41  C   UNL A   1      37.215  30.416  32.977  1.00  0.00     0.041 A 
ATOM     42  F   UNL A   1      39.354  29.466  33.039  1.00  0.00    -0.206 F 
ATOM     43  C   UNL A   1      36.225  31.115  32.295  1.00  0.00     0.022 A 
BRANCH  40  44
ATOM     44  S   UNL A   1      35.236  32.511  30.095  1.00  0.00     0.124 S 
ATOM     45  O   UNL A   1      36.083  33.637  29.709  1.00  0.00    -0.237 OA
ATOM     46  O   UNL A   1      34.765  31.664  29.005  1.00  0.00    -0.237 OA
ATOM     47  O   UNL A   1      34.242  32.811  31.124  1.00  0.00    -0.744 OA
ENDBRANCH  40  44
ENDBRANCH  23  37
BRANCH  24  48
ATOM     48  C   UNL A   1      47.177  27.455  26.323  1.00  0.00     0.023 A 
ATOM     49  C   UNL A   1      47.373  27.809  24.981  1.00  0.00     0.031 A 
ATOM     50  C   UNL A   1      48.146  26.624  26.924  1.00  0.00     0.131 A 
ATOM     51  C   UNL A   1      48.463  27.282  24.267  1.00  0.00     0.055 A 
ATOM     52  C   UNL A   1      49.269  26.166  26.232  1.00  0.00     0.041 A 
ATOM     53  F   UNL A   1      48.014  26.231  28.201  1.00  0.00    -0.206 F 
ATOM     54  C   UNL A   1      49.420  26.477  24.887  1.00  0.00     0.022 A 
BRANCH  51  55
ATOM     55  S   UNL A   1      48.529  27.541  22.472  1.00  0.00     0.124 S 
ATOM     56  O   UNL A   1      48.556  26.169  21.977  1.00  0.00    -0.237 OA
ATOM     57  O   UNL A   1      47.300  28.287  22.229  1.00  0.00    -0.237 OA
ATOM     58  O   UNL A   1      49.766  28.296  22.283  1.00  0.00    -0.744 OA
ENDBRANCH  51  55
ENDBRANCH  24  48
BRANCH  36  59
ATOM     59  C   UNL A   1      44.961  33.376  29.271  1.00  0.00     0.023 A 
ATOM     60  C   UNL A   1      44.868  34.361  28.275  1.00  0.00     0.031 A 
ATOM     61  C   UNL A   1      45.699  33.660  30.433  1.00  0.00     0.131 A 
ATOM     62  C   UNL A   1      45.556  35.570  28.434  1.00  0.00     0.055 A 
ATOM     63  C   UNL A   1      46.320  34.892  30.617  1.00  0.00     0.041 A 
ATOM     64  F   UNL A   1      45.816  32.746  31.410  1.00  0.00    -0.206 F 
ATOM     65  C   UNL A   1      46.262  35.851  29.607  1.00  0.00     0.022 A 
BRANCH  62  66
ATOM     66  S   UNL A   1      45.592  36.729  27.043  1.00  0.00     0.124 S 
ATOM     67  O   UNL A   1      46.086  35.886  25.959  1.00  0.00    -0.237 OA
ATOM     68  O   UNL A   1      44.197  37.144  26.944  1.00  0.00    -0.237 OA
ATOM     69  O   UNL A   1      46.518  37.769  27.491  1.00  0.00    -0.744 OA
ENDBRANCH  62  66
ENDBRANCH  36  59
ENDBRANCH  10  11
ENDBRANCH   3   5
ENDBRANCH   2   3
ENDBRANCH   1   2
BRANCH   1  70
ATOM     70  C   UNL A   1      34.893  21.006  25.232  1.00  0.00     0.202 C 
BRANCH  70  71
ATOM     71  O   UNL A   1      34.193  21.748  24.237  1.00  0.00    -0.374 OA
BRANCH  71  72
ATOM     72  C   UNL A   1      32.805  21.455  24.057  1.00  0.00     0.202 C 
BRANCH  72  73
ATOM     73  C   UNL A   1      32.200  22.497  23.119  1.00  0.00     0.261 C 
BRANCH  73  74
ATOM     74  O   UNL A   1      32.535  23.794  23.641  1.00  0.00    -0.463 OA
BRANCH  74  75
ATOM     75  C   UNL A   1      33.189  24.619  22.770  1.00  0.00     0.309 C 
ATOM     76  O   UNL A   1      33.770  24.281  21.757  1.00  0.00    -0.252 OA
BRANCH  75  77
ATOM     77  C   UNL A   1      33.062  26.041  23.261  1.00  0.00     0.104 C 
ATOM     78  C   UNL A   1      33.472  27.072  22.180  1.00  0.00     0.022 C 
ATOM     79  C   UNL A   1      33.915  26.237  24.525  1.00  0.00     0.054 C 
ATOM     80  C   UNL A   1      33.335  28.545  22.606  1.00  0.00     0.057 C 
ATOM     81  C   UNL A   1      33.723  27.640  24.964  1.00  0.00    -0.006 A 
ATOM     82  C   UNL A   1      33.475  28.660  24.073  1.00  0.00     0.038 A 
ATOM     83  C   UNL A   1      33.620  28.236  26.226  1.00  0.00     0.138 A 
ATOM     84  N   UNL A   1      33.257  29.775  24.819  1.00  0.00    -0.282 N 
ATOM     85  N   UNL A   1      33.332  29.541  26.143  1.00  0.00    -0.184 NA
ATOM     86  H   UNL A   1      33.064  30.660  24.432  1.00  0.00     0.190 HD
ENDBRANCH  75  77
ENDBRANCH  74  75
ENDBRANCH  73  74
ENDBRANCH  72  73
ENDBRANCH  71  72
ENDBRANCH  70  71
ENDBRANCH   1  70
TORSDOF 17
ENDMDL
MODEL 2
REMARK VINA RESULT:     -10.9      1.884      2.225
REMARK SMILES O=C(OCCOCCOC(=O)[C@@H]1CCc2[nH]ncc2C1)c1ccc(-c2c3nc(c(-c4cc(S(=O)(=O)[O-])ccc4F)c4ccc([nH]4)c(-c4cc(S(=O)(=O)[O-])ccc4F)c4nc(c(-c5cc(S(=O)(=O)[O-])ccc5F)c5ccc2[nH]5)C=C4)C=C3)cc1
REMARK SMILES IDX 4 1 3 2 2 3 1 4 21 5 22 6 83 7 23 8 82 9 24 10 25 11 26 12
REMARK SMILES IDX 76 13 27 14 81 15 75 16 77 17 28 18 80 19 74 20 73 21 29 23
REMARK SMILES IDX 61 24 41 25 60 26 42 27 45 28 59 29 78 30 43 31 44 32 58 34
REMARK SMILES IDX 79 35 46 36 30 37 31 38 39 39 32 40 38 41 40 42 37 43 33 44
REMARK SMILES IDX 34 45 35 46 36 47 62 48 63 49 71 50 64 51 70 52 72 53 69 54
REMARK SMILES IDX 65 55 66 56 67 57 68 58 47 59 48 60 56 61 49 62 55 63 57 64
REMARK SMILES IDX 54 65 50 66 51 67 52 68 53 69 5 70 6 71 7 72 8 73 9 74 10 75
REMARK SMILES IDX 11 76 12 77 13 78 20 79 14 80 19 81 15 82 18 83 16 84 17 85
REMARK H PARENT 77 22 45 33 16 86
REMARK Flexibility Score: inf
ROOT
ATOM      1  C   UNL A   1      35.994  21.630  24.641  1.00  0.00     0.261 C 
ENDROOT
BRANCH   1   2
ATOM      2  O   UNL A   1      36.804  21.398  25.812  1.00  0.00    -0.460 OA
BRANCH   2   3
ATOM      3  C   UNL A   1      38.156  21.293  25.852  1.00  0.00     0.338 C 
ATOM      4  O   UNL A   1      38.706  20.255  25.497  1.00  0.00    -0.246 OA
BRANCH   3   5
ATOM      5  C   UNL A   1      38.986  22.434  26.312  1.00  0.00     0.060 A 
ATOM      6  C   UNL A   1      38.674  23.742  25.968  1.00  0.00     0.016 A 
ATOM      7  C   UNL A   1      40.077  22.209  27.154  1.00  0.00     0.016 A 
ATOM      8  C   UNL A   1      39.477  24.798  26.293  1.00  0.00     0.010 A 
ATOM      9  C   UNL A   1      40.833  23.296  27.609  1.00  0.00     0.010 A 
ATOM     10  C   UNL A   1      40.522  24.592  27.171  1.00  0.00    -0.014 A 
BRANCH  10  11
ATOM     11  C   UNL A   1      41.255  25.801  27.548  1.00  0.00     0.031 A 
ATOM     12  C   UNL A   1      40.580  26.774  28.449  1.00  0.00     0.074 A 
ATOM     13  C   UNL A   1      42.567  25.867  27.247  1.00  0.00     0.049 A 
ATOM     14  N   UNL A   1      40.995  27.939  28.848  1.00  0.00    -0.248 NA
ATOM     15  C   UNL A   1      39.266  26.377  28.986  1.00  0.00     0.031 C 
ATOM     16  C   UNL A   1      43.329  24.819  26.544  1.00  0.00     0.029 A 
ATOM     17  N   UNL A   1      43.510  26.811  27.532  1.00  0.00    -0.354 N 
ATOM     18  C   UNL A   1      39.970  28.446  29.633  1.00  0.00     0.074 A 
ATOM     19  C   UNL A   1      38.924  27.451  29.681  1.00  0.00     0.031 C 
ATOM     20  C   UNL A   1      44.620  25.172  26.486  1.00  0.00     0.029 A 
ATOM     21  C   UNL A   1      44.753  26.518  27.018  1.00  0.00     0.049 A 
ATOM     22  H   UNL A   1      43.319  27.623  28.055  1.00  0.00     0.167 HD
ATOM     23  C   UNL A   1      39.923  29.661  30.223  1.00  0.00     0.034 A 
ATOM     24  C   UNL A   1      45.845  27.297  26.920  1.00  0.00     0.034 A 
ATOM     25  C   UNL A   1      41.013  30.598  30.130  1.00  0.00     0.049 A 
ATOM     26  C   UNL A   1      45.713  28.694  27.470  1.00  0.00     0.074 A 
ATOM     27  C   UNL A   1      41.086  31.892  30.603  1.00  0.00     0.029 A 
ATOM     28  N   UNL A   1      42.229  30.326  29.507  1.00  0.00    -0.354 N 
ATOM     29  N   UNL A   1      44.700  29.231  28.117  1.00  0.00    -0.248 NA
ATOM     30  C   UNL A   1      46.845  29.599  27.260  1.00  0.00     0.031 C 
ATOM     31  C   UNL A   1      42.315  32.426  30.201  1.00  0.00     0.029 A 
ATOM     32  C   UNL A   1      43.046  31.440  29.551  1.00  0.00     0.049 A 
ATOM     33  H   UNL A   1      42.472  29.465  29.096  1.00  0.00     0.167 HD
ATOM     34  C   UNL A   1      45.079  30.535  28.402  1.00  0.00     0.074 A 
ATOM     35  C   UNL A   1      46.428  30.687  27.889  1.00  0.00     0.031 C 
ATOM     36  C   UNL A   1      44.385  31.527  29.017  1.00  0.00     0.034 A 
BRANCH  23  37
ATOM     37  C   UNL A   1      38.626  30.063  30.868  1.00  0.00     0.023 A 
ATOM     38  C   UNL A   1      37.625  30.766  30.178  1.00  0.00     0.031 A 
ATOM     39  C   UNL A   1      38.426  29.795  32.235  1.00  0.00     0.131 A 
ATOM     40  C   UNL A   1      36.493  31.224  30.872  1.00  0.00     0.055 A 
ATOM     41  C   UNL A   1      37.266  30.190  32.901  1.00  0.00     0.041 A 
ATOM     42  F   UNL A   1      39.372  29.167  32.952  1.00  0.00    -0.206 F 
ATOM     43  C   UNL A   1      36.296  30.919  32.222  1.00  0.00     0.022 A 
BRANCH  40  44
ATOM     44  S   UNL A   1      35.337  32.334  30.021  1.00  0.00     0.124 S 
ATOM     45  O   UNL A   1      36.209  33.451  29.666  1.00  0.00    -0.237 OA
ATOM     46  O   UNL A   1      34.867  31.513  28.911  1.00  0.00    -0.237 OA
ATOM     47  O   UNL A   1      34.335  32.634  31.041  1.00  0.00    -0.744 OA
ENDBRANCH  40  44
ENDBRANCH  23  37
BRANCH  24  48
ATOM     48  C   UNL A   1      47.062  26.851  26.176  1.00  0.00     0.023 A 
ATOM     49  C   UNL A   1      48.112  26.188  26.828  1.00  0.00     0.031 A 
ATOM     50  C   UNL A   1      47.240  27.167  24.813  1.00  0.00     0.131 A 
ATOM     51  C   UNL A   1      49.311  25.928  26.143  1.00  0.00     0.055 A 
ATOM     52  C   UNL A   1      48.403  26.837  24.116  1.00  0.00     0.041 A 
ATOM     53  F   UNL A   1      46.283  27.816  24.130  1.00  0.00    -0.206 F 
ATOM     54  C   UNL A   1      49.458  26.232  24.788  1.00  0.00     0.022 A 
BRANCH  51  55
ATOM     55  S   UNL A   1      50.735  25.322  27.090  1.00  0.00     0.124 S 
ATOM     56  O   UNL A   1      51.157  26.530  27.793  1.00  0.00    -0.237 OA
ATOM     57  O   UNL A   1      50.130  24.280  27.912  1.00  0.00    -0.237 OA
ATOM     58  O   UNL A   1      51.654  24.849  26.057  1.00  0.00    -0.744 OA
ENDBRANCH  51  55
ENDBRANCH  24  48
BRANCH  36  59
ATOM     59  C   UNL A   1      45.109  32.833  29.185  1.00  0.00     0.023 A 
ATOM     60  C   UNL A   1      45.130  33.793  28.161  1.00  0.00     0.031 A 
ATOM     61  C   UNL A   1      45.784  33.114  30.385  1.00  0.00     0.131 A 
ATOM     62  C   UNL A   1      45.867  34.970  28.333  1.00  0.00     0.055 A 
ATOM     63  C   UNL A   1      46.455  34.319  30.577  1.00  0.00     0.041 A 
ATOM     64  F   UNL A   1      45.792  32.224  31.390  1.00  0.00    -0.206 F 
ATOM     65  C   UNL A   1      46.511  35.250  29.542  1.00  0.00     0.022 A 
BRANCH  62  66
ATOM     66  S   UNL A   1      46.051  36.086  26.919  1.00  0.00     0.124 S 
ATOM     67  O   UNL A   1      45.332  35.368  25.871  1.00  0.00    -0.237 OA
ATOM     68  O   UNL A   1      45.420  37.310  27.400  1.00  0.00    -0.237 OA
ATOM     69  O   UNL A   1      47.500  36.167  26.734  1.00  0.00    -0.744 OA
ENDBRANCH  62  66
ENDBRANCH  36  59
ENDBRANCH  10  11
ENDBRANCH   3   5
ENDBRANCH   2   3
ENDBRANCH   1   2
BRANCH   1  70
ATOM     70  C   UNL A   1      34.556  21.168  24.892  1.00  0.00     0.202 C 
BRANCH  70  71
ATOM     71  O   UNL A   1      33.532  22.156  24.981  1.00  0.00    -0.374 OA
BRANCH  71  72
ATOM     72  C   UNL A   1      33.927  23.523  24.834  1.00  0.00     0.202 C 
BRANCH  72  73
ATOM     73  C   UNL A   1      33.538  24.284  26.100  1.00  0.00     0.261 C 
BRANCH  73  74
ATOM     74  O   UNL A   1      33.066  25.580  25.696  1.00  0.00    -0.463 OA
BRANCH  74  75
ATOM     75  C   UNL A   1      31.779  25.612  25.236  1.00  0.00     0.309 C 
ATOM     76  O   UNL A   1      30.859  24.921  25.625  1.00  0.00    -0.252 OA
BRANCH  75  77
ATOM     77  C   UNL A   1      31.675  26.669  24.163  1.00  0.00     0.104 C 
ATOM     78  C   UNL A   1      32.905  27.611  24.149  1.00  0.00     0.022 C 
ATOM     79  C   UNL A   1      30.388  27.488  24.357  1.00  0.00     0.054 C 
ATOM     80  C   UNL A   1      32.877  28.695  23.057  1.00  0.00     0.057 C 
ATOM     81  C   UNL A   1      30.339  28.485  23.261  1.00  0.00    -0.006 A 
ATOM     82  C   UNL A   1      31.479  29.019  22.703  1.00  0.00     0.038 A 
ATOM     83  C   UNL A   1      29.290  29.002  22.493  1.00  0.00     0.138 A 
ATOM     84  N   UNL A   1      31.069  29.809  21.677  1.00  0.00    -0.282 N 
ATOM     85  N   UNL A   1      29.731  29.810  21.521  1.00  0.00    -0.184 NA
ATOM     86  H   UNL A   1      31.684  30.327  21.108  1.00  0.00     0.190 HD
ENDBRANCH  75  77
ENDBRANCH  74  75
ENDBRANCH  73  74
ENDBRANCH  72  73
ENDBRANCH  71  72
ENDBRANCH  70  71
ENDBRANCH   1  70
TORSDOF 17
ENDMDL
MODEL 3
REMARK VINA RESULT:     -10.9      5.302     10.264
REMARK SMILES O=C(OCCOCCOC(=O)[C@@H]1CCc2[nH]ncc2C1)c1ccc(-c2c3nc(c(-c4cc(S(=O)(=O)[O-])ccc4F)c4ccc([nH]4)c(-c4cc(S(=O)(=O)[O-])ccc4F)c4nc(c(-c5cc(S(=O)(=O)[O-])ccc5F)c5ccc2[nH]5)C=C4)C=C3)cc1
REMARK SMILES IDX 4 1 3 2 2 3 1 4 21 5 22 6 83 7 23 8 82 9 24 10 25 11 26 12
REMARK SMILES IDX 76 13 27 14 81 15 75 16 77 17 28 18 80 19 74 20 73 21 29 23
REMARK SMILES IDX 61 24 41 25 60 26 42 27 45 28 59 29 78 30 43 31 44 32 58 34
REMARK SMILES IDX 79 35 46 36 30 37 31 38 39 39 32 40 38 41 40 42 37 43 33 44
REMARK SMILES IDX 34 45 35 46 36 47 62 48 63 49 71 50 64 51 70 52 72 53 69 54
REMARK SMILES IDX 65 55 66 56 67 57 68 58 47 59 48 60 56 61 49 62 55 63 57 64
REMARK SMILES IDX 54 65 50 66 51 67 52 68 53 69 5 70 6 71 7 72 8 73 9 74 10 75
REMARK SMILES IDX 11 76 12 77 13 78 20 79 14 80 19 81 15 82 18 83 16 84 17 85
REMARK H PARENT 77 22 45 33 16 86
REMARK Flexibility Score: inf
ROOT
ATOM      1  C   UNL A   1      31.859  30.272  25.744  1.00  0.00     0.261 C 
ENDROOT
BRANCH   1   2
ATOM      2  O   UNL A   1      33.182  30.246  26.319  1.00  0.00    -0.460 OA
BRANCH   2   3
ATOM      3  C   UNL A   1      33.709  31.155  27.177  1.00  0.00     0.338 C 
ATOM      4  O   UNL A   1      33.126  32.213  27.390  1.00  0.00    -0.246 OA
BRANCH   3   5
ATOM      5  C   UNL A   1      34.986  30.875  27.878  1.00  0.00     0.060 A 
ATOM      6  C   UNL A   1      35.254  29.628  28.427  1.00  0.00     0.016 A 
ATOM      7  C   UNL A   1      35.974  31.859  27.950  1.00  0.00     0.016 A 
ATOM      8  C   UNL A   1      36.375  29.375  29.164  1.00  0.00     0.010 A 
ATOM      9  C   UNL A   1      37.188  31.573  28.585  1.00  0.00     0.010 A 
ATOM     10  C   UNL A   1      37.379  30.323  29.190  1.00  0.00    -0.014 A 
BRANCH  10  11
ATOM     11  C   UNL A   1      38.588  29.917  29.909  1.00  0.00     0.031 A 
ATOM     12  C   UNL A   1      39.554  29.030  29.208  1.00  0.00     0.074 A 
ATOM     13  C   UNL A   1      38.871  30.538  31.072  1.00  0.00     0.049 A 
ATOM     14  N   UNL A   1      40.639  28.481  29.666  1.00  0.00    -0.248 NA
ATOM     15  C   UNL A   1      39.268  28.728  27.793  1.00  0.00     0.031 C 
ATOM     16  C   UNL A   1      38.046  31.587  31.696  1.00  0.00     0.029 A 
ATOM     17  N   UNL A   1      39.943  30.431  31.911  1.00  0.00    -0.354 N 
ATOM     18  C   UNL A   1      41.138  27.719  28.620  1.00  0.00     0.074 A 
ATOM     19  C   UNL A   1      40.254  27.897  27.491  1.00  0.00     0.031 C 
ATOM     20  C   UNL A   1      38.662  32.042  32.795  1.00  0.00     0.029 A 
ATOM     21  C   UNL A   1      39.845  31.229  33.029  1.00  0.00     0.049 A 
ATOM     22  H   UNL A   1      40.711  29.841  31.734  1.00  0.00     0.167 HD
ATOM     23  C   UNL A   1      42.227  26.920  28.643  1.00  0.00     0.034 A 
ATOM     24  C   UNL A   1      40.590  31.230  34.148  1.00  0.00     0.034 A 
ATOM     25  C   UNL A   1      43.060  26.800  29.811  1.00  0.00     0.049 A 
ATOM     26  C   UNL A   1      41.717  30.230  34.195  1.00  0.00     0.074 A 
ATOM     27  C   UNL A   1      44.148  25.976  30.018  1.00  0.00     0.029 A 
ATOM     28  N   UNL A   1      42.882  27.535  30.980  1.00  0.00    -0.354 N 
ATOM     29  N   UNL A   1      42.131  29.414  33.248  1.00  0.00    -0.248 NA
ATOM     30  C   UNL A   1      42.460  30.126  35.452  1.00  0.00     0.031 C 
ATOM     31  C   UNL A   1      44.580  26.160  31.336  1.00  0.00     0.029 A 
ATOM     32  C   UNL A   1      43.817  27.159  31.927  1.00  0.00     0.049 A 
ATOM     33  H   UNL A   1      42.192  28.224  31.113  1.00  0.00     0.167 HD
ATOM     34  C   UNL A   1      43.193  28.707  33.794  1.00  0.00     0.074 A 
ATOM     35  C   UNL A   1      43.376  29.223  35.139  1.00  0.00     0.031 C 
ATOM     36  C   UNL A   1      43.946  27.713  33.254  1.00  0.00     0.034 A 
BRANCH  23  37
ATOM     37  C   UNL A   1      42.463  26.044  27.445  1.00  0.00     0.023 A 
ATOM     38  C   UNL A   1      41.983  24.726  27.366  1.00  0.00     0.031 A 
ATOM     39  C   UNL A   1      43.257  26.525  26.387  1.00  0.00     0.131 A 
ATOM     40  C   UNL A   1      42.347  23.918  26.276  1.00  0.00     0.055 A 
ATOM     41  C   UNL A   1      43.555  25.740  25.273  1.00  0.00     0.041 A 
ATOM     42  F   UNL A   1      43.779  27.761  26.434  1.00  0.00    -0.206 F 
ATOM     43  C   UNL A   1      43.108  24.424  25.218  1.00  0.00     0.022 A 
BRANCH  40  44
ATOM     44  S   UNL A   1      41.919  22.155  26.316  1.00  0.00     0.124 S 
ATOM     45  O   UNL A   1      40.482  22.194  26.061  1.00  0.00    -0.237 OA
ATOM     46  O   UNL A   1      42.743  21.603  25.246  1.00  0.00    -0.237 OA
ATOM     47  O   UNL A   1      42.295  21.741  27.666  1.00  0.00    -0.744 OA
ENDBRANCH  40  44
ENDBRANCH  23  37
BRANCH  24  48
ATOM     48  C   UNL A   1      40.226  32.067  35.332  1.00  0.00     0.023 A 
ATOM     49  C   UNL A   1      39.315  31.610  36.294  1.00  0.00     0.031 A 
ATOM     50  C   UNL A   1      40.711  33.384  35.471  1.00  0.00     0.131 A 
ATOM     51  C   UNL A   1      38.865  32.478  37.305  1.00  0.00     0.055 A 
ATOM     52  C   UNL A   1      40.321  34.216  36.521  1.00  0.00     0.041 A 
ATOM     53  F   UNL A   1      41.573  33.894  34.577  1.00  0.00    -0.206 F 
ATOM     54  C   UNL A   1      39.374  33.771  37.434  1.00  0.00     0.022 A 
BRANCH  51  55
ATOM     55  S   UNL A   1      37.489  31.940  38.358  1.00  0.00     0.124 S 
ATOM     56  O   UNL A   1      37.260  30.583  37.873  1.00  0.00    -0.237 OA
ATOM     57  O   UNL A   1      38.067  32.056  39.693  1.00  0.00    -0.237 OA
ATOM     58  O   UNL A   1      36.430  32.899  38.050  1.00  0.00    -0.744 OA
ENDBRANCH  51  55
ENDBRANCH  24  48
BRANCH  36  59
ATOM     59  C   UNL A   1      45.044  27.170  34.123  1.00  0.00     0.023 A 
ATOM     60  C   UNL A   1      44.841  26.048  34.941  1.00  0.00     0.031 A 
ATOM     61  C   UNL A   1      46.306  27.789  34.129  1.00  0.00     0.131 A 
ATOM     62  C   UNL A   1      45.871  25.611  35.782  1.00  0.00     0.055 A 
ATOM     63  C   UNL A   1      47.350  27.304  34.914  1.00  0.00     0.041 A 
ATOM     64  F   UNL A   1      46.545  28.866  33.364  1.00  0.00    -0.206 F 
ATOM     65  C   UNL A   1      47.130  26.217  35.757  1.00  0.00     0.022 A 
BRANCH  62  66
ATOM     66  S   UNL A   1      45.509  24.299  36.977  1.00  0.00     0.124 S 
ATOM     67  O   UNL A   1      45.024  23.228  36.113  1.00  0.00    -0.237 OA
ATOM     68  O   UNL A   1      46.808  24.076  37.601  1.00  0.00    -0.237 OA
ATOM     69  O   UNL A   1      44.498  24.901  37.847  1.00  0.00    -0.744 OA
ENDBRANCH  62  66
ENDBRANCH  36  59
ENDBRANCH  10  11
ENDBRANCH   3   5
ENDBRANCH   2   3
ENDBRANCH   1   2
BRANCH   1  70
ATOM     70  C   UNL A   1      31.409  28.853  25.387  1.00  0.00     0.202 C 
BRANCH  70  71
ATOM     71  O   UNL A   1      30.824  28.629  24.106  1.00  0.00    -0.374 OA
BRANCH  71  72
ATOM     72  C   UNL A   1      31.503  27.729  23.226  1.00  0.00     0.202 C 
BRANCH  72  73
ATOM     73  C   UNL A   1      31.812  26.440  23.985  1.00  0.00     0.261 C 
BRANCH  73  74
ATOM     74  O   UNL A   1      31.880  25.377  23.020  1.00  0.00    -0.463 OA
BRANCH  74  75
ATOM     75  C   UNL A   1      33.144  24.979  22.683  1.00  0.00     0.309 C 
ATOM     76  O   UNL A   1      33.865  25.500  21.855  1.00  0.00    -0.252 OA
BRANCH  75  77
ATOM     77  C   UNL A   1      33.515  23.783  23.526  1.00  0.00     0.104 C 
ATOM     78  C   UNL A   1      35.027  23.457  23.442  1.00  0.00     0.022 C 
ATOM     79  C   UNL A   1      32.689  22.560  23.093  1.00  0.00     0.054 C 
ATOM     80  C   UNL A   1      35.481  22.264  24.304  1.00  0.00     0.057 C 
ATOM     81  C   UNL A   1      33.087  21.436  23.974  1.00  0.00    -0.006 A 
ATOM     82  C   UNL A   1      34.356  21.324  24.495  1.00  0.00     0.038 A 
ATOM     83  C   UNL A   1      32.368  20.386  24.558  1.00  0.00     0.138 A 
ATOM     84  N   UNL A   1      34.337  20.247  25.323  1.00  0.00    -0.282 N 
ATOM     85  N   UNL A   1      33.127  19.657  25.386  1.00  0.00    -0.184 NA
ATOM     86  H   UNL A   1      35.124  19.930  25.823  1.00  0.00     0.190 HD
ENDBRANCH  75  77
ENDBRANCH  74  75
ENDBRANCH  73  74
ENDBRANCH  72  73
ENDBRANCH  71  72
ENDBRANCH  70  71
ENDBRANCH   1  70
TORSDOF 17
ENDMDL
