MODEL 1
REMARK VINA RESULT:     -10.0      0.000      0.000
REMARK SMILES CC[C@](C)(NC(=O)NC[C@H]1COCCO1)C(=O)OCCOCCOC(=O)c1ccc(-c2c3nc(c(-c4cc(S(=O)(=O)[O-])ccc4F)c4ccc([nH]4)c(-c4cc(S(=O)(=O)[O-])ccc4F)c4nc(c(-c5cc(S(=O)(=O)[O-])ccc5F)c5ccc2[nH]5)C=C4)C=C3)cc1
REMARK SMILES IDX 21 1 20 2 19 3 18 4 16 5 17 6 3 7 4 8 2 9 1 10 5 11 6 12
REMARK SMILES IDX 7 14 8 15 9 17 10 18 11 19 15 20 12 21 14 22 13 23 22 24
REMARK SMILES IDX 23 25 24 26 25 27 26 28 27 29 28 30 89 31 29 32 88 33 30 34
REMARK SMILES IDX 31 35 32 36 82 37 33 38 87 39 81 40 83 41 34 42 86 43 80 44
REMARK SMILES IDX 79 45 35 47 67 48 47 49 66 50 48 51 51 52 65 53 84 54 49 55
REMARK SMILES IDX 50 56 64 58 85 59 52 60 36 61 37 62 45 63 38 64 44 65 46 66
REMARK SMILES IDX 43 67 39 68 40 69 41 70 42 71 68 72 69 73 77 74 70 75 76 76
REMARK SMILES IDX 78 77 75 78 71 79 72 80 73 81 74 82 53 83 54 84 62 85 55 86
REMARK SMILES IDX 61 87 63 88 60 89 56 90 57 91 58 92 59 93
REMARK H PARENT 5 13 8 16 83 46 51 57
REMARK Flexibility Score: inf
ROOT
ATOM      1  O   UNL A   1      37.261  21.553  24.329  1.00  0.00    -0.374 OA
ENDROOT
BRANCH   1   2
ATOM      2  C   UNL A   1      36.846  22.611  25.198  1.00  0.00     0.202 C 
BRANCH   2   3
ATOM      3  C   UNL A   1      35.940  23.634  24.513  1.00  0.00     0.261 C 
BRANCH   3   4
ATOM      4  O   UNL A   1      34.590  23.162  24.612  1.00  0.00    -0.462 OA
BRANCH   4   5
ATOM      5  C   UNL A   1      33.928  23.409  25.768  1.00  0.00     0.331 C 
ATOM      6  O   UNL A   1      34.039  24.452  26.401  1.00  0.00    -0.249 OA
BRANCH   5   7
ATOM      7  C   UNL A   1      32.968  22.232  26.132  1.00  0.00     0.136 C 
ATOM      8  C   UNL A   1      33.858  21.281  26.993  1.00  0.00     0.047 C 
BRANCH   7   9
ATOM      9  C   UNL A   1      32.442  21.457  24.891  1.00  0.00     0.037 C 
ATOM     10  C   UNL A   1      32.478  19.938  24.965  1.00  0.00     0.007 C 
ENDBRANCH   7   9
BRANCH   7  11
ATOM     11  N   UNL A   1      31.790  22.620  26.978  1.00  0.00    -0.322 N 
ATOM     12  C   UNL A   1      30.573  23.142  26.748  1.00  0.00     0.315 C 
ATOM     13  H   UNL A   1      31.945  22.448  27.936  1.00  0.00     0.166 HD
ATOM     14  O   UNL A   1      29.710  22.963  27.610  1.00  0.00    -0.249 OA
ATOM     15  N   UNL A   1      30.239  23.821  25.639  1.00  0.00    -0.335 N 
ATOM     16  H   UNL A   1      29.320  23.692  25.312  1.00  0.00     0.165 HD
BRANCH  15  17
ATOM     17  C   UNL A   1      31.073  24.721  24.864  1.00  0.00     0.152 C 
BRANCH  17  18
ATOM     18  C   UNL A   1      30.965  26.218  25.202  1.00  0.00     0.163 C 
ATOM     19  C   UNL A   1      32.209  26.977  24.720  1.00  0.00     0.194 C 
ATOM     20  O   UNL A   1      29.787  26.805  24.593  1.00  0.00    -0.372 OA
ATOM     21  O   UNL A   1      32.314  26.901  23.289  1.00  0.00    -0.376 OA
ATOM     22  C   UNL A   1      29.879  26.915  23.162  1.00  0.00     0.189 C 
ATOM     23  C   UNL A   1      31.186  27.560  22.701  1.00  0.00     0.188 C 
ENDBRANCH  17  18
ENDBRANCH  15  17
ENDBRANCH   7  11
ENDBRANCH   5   7
ENDBRANCH   4   5
ENDBRANCH   3   4
ENDBRANCH   2   3
ENDBRANCH   1   2
BRANCH   1  24
ATOM     24  C   UNL A   1      37.190  20.224  24.847  1.00  0.00     0.202 C 
BRANCH  24  25
ATOM     25  C   UNL A   1      38.486  19.657  25.434  1.00  0.00     0.261 C 
BRANCH  25  26
ATOM     26  O   UNL A   1      39.604  20.567  25.443  1.00  0.00    -0.460 OA
BRANCH  26  27
ATOM     27  C   UNL A   1      40.372  20.512  26.557  1.00  0.00     0.338 C 
ATOM     28  O   UNL A   1      40.883  19.501  27.025  1.00  0.00    -0.246 OA
BRANCH  27  29
ATOM     29  C   UNL A   1      40.573  21.847  27.171  1.00  0.00     0.060 A 
ATOM     30  C   UNL A   1      39.939  22.941  26.567  1.00  0.00     0.016 A 
ATOM     31  C   UNL A   1      41.477  22.063  28.218  1.00  0.00     0.016 A 
ATOM     32  C   UNL A   1      40.244  24.246  26.966  1.00  0.00     0.010 A 
ATOM     33  C   UNL A   1      41.792  23.376  28.606  1.00  0.00     0.010 A 
ATOM     34  C   UNL A   1      41.205  24.478  27.958  1.00  0.00    -0.014 A 
BRANCH  34  35
ATOM     35  C   UNL A   1      41.702  25.866  28.178  1.00  0.00     0.031 A 
ATOM     36  C   UNL A   1      43.066  26.249  27.661  1.00  0.00     0.074 A 
ATOM     37  C   UNL A   1      40.937  26.799  28.773  1.00  0.00     0.049 A 
ATOM     38  N   UNL A   1      43.675  27.409  27.696  1.00  0.00    -0.248 NA
ATOM     39  C   UNL A   1      43.841  25.179  27.020  1.00  0.00     0.031 C 
ATOM     40  C   UNL A   1      39.586  26.582  29.283  1.00  0.00     0.029 A 
ATOM     41  N   UNL A   1      41.192  28.123  29.044  1.00  0.00    -0.354 N 
ATOM     42  C   UNL A   1      44.900  27.214  27.066  1.00  0.00     0.074 A 
ATOM     43  C   UNL A   1      44.962  25.811  26.705  1.00  0.00     0.031 C 
ATOM     44  C   UNL A   1      39.129  27.733  29.809  1.00  0.00     0.029 A 
ATOM     45  C   UNL A   1      40.164  28.762  29.697  1.00  0.00     0.049 A 
ATOM     46  H   UNL A   1      42.031  28.570  28.794  1.00  0.00     0.167 HD
ATOM     47  C   UNL A   1      45.878  28.117  26.797  1.00  0.00     0.034 A 
ATOM     48  C   UNL A   1      40.071  30.025  30.164  1.00  0.00     0.034 A 
ATOM     49  C   UNL A   1      45.830  29.507  27.186  1.00  0.00     0.049 A 
ATOM     50  C   UNL A   1      41.218  30.987  29.958  1.00  0.00     0.074 A 
ATOM     51  C   UNL A   1      46.766  30.501  26.951  1.00  0.00     0.029 A 
ATOM     52  N   UNL A   1      44.805  30.098  27.913  1.00  0.00    -0.354 N 
ATOM     53  N   UNL A   1      42.359  30.795  29.337  1.00  0.00    -0.248 NA
ATOM     54  C   UNL A   1      41.057  32.340  30.508  1.00  0.00     0.031 C 
ATOM     55  C   UNL A   1      46.344  31.668  27.600  1.00  0.00     0.029 A 
ATOM     56  C   UNL A   1      45.105  31.428  28.170  1.00  0.00     0.049 A 
ATOM     57  H   UNL A   1      43.984  29.639  28.203  1.00  0.00     0.167 HD
ATOM     58  C   UNL A   1      43.033  32.016  29.394  1.00  0.00     0.074 A 
ATOM     59  C   UNL A   1      42.169  32.935  30.102  1.00  0.00     0.031 C 
ATOM     60  C   UNL A   1      44.251  32.345  28.892  1.00  0.00     0.034 A 
BRANCH  47  61
ATOM     61  C   UNL A   1      47.109  27.601  26.090  1.00  0.00     0.023 A 
ATOM     62  C   UNL A   1      48.194  27.055  26.800  1.00  0.00     0.031 A 
ATOM     63  C   UNL A   1      47.221  27.700  24.692  1.00  0.00     0.131 A 
ATOM     64  C   UNL A   1      49.371  26.709  26.121  1.00  0.00     0.055 A 
ATOM     65  C   UNL A   1      48.364  27.275  24.013  1.00  0.00     0.041 A 
ATOM     66  F   UNL A   1      46.226  28.230  23.962  1.00  0.00    -0.206 F 
ATOM     67  C   UNL A   1      49.456  26.793  24.729  1.00  0.00     0.022 A 
BRANCH  64  68
ATOM     68  S   UNL A   1      50.847  26.306  27.098  1.00  0.00     0.124 S 
ATOM     69  O   UNL A   1      51.754  27.388  26.723  1.00  0.00    -0.237 OA
ATOM     70  O   UNL A   1      50.338  26.341  28.463  1.00  0.00    -0.237 OA
ATOM     71  O   UNL A   1      51.231  24.984  26.606  1.00  0.00    -0.744 OA
ENDBRANCH  64  68
ENDBRANCH  47  61
BRANCH  48  72
ATOM     72  C   UNL A   1      38.858  30.461  30.913  1.00  0.00     0.023 A 
ATOM     73  C   UNL A   1      37.781  31.081  30.260  1.00  0.00     0.031 A 
ATOM     74  C   UNL A   1      38.789  30.316  32.311  1.00  0.00     0.131 A 
ATOM     75  C   UNL A   1      36.698  31.569  31.009  1.00  0.00     0.055 A 
ATOM     76  C   UNL A   1      37.689  30.761  33.045  1.00  0.00     0.041 A 
ATOM     77  F   UNL A   1      39.794  29.732  32.983  1.00  0.00    -0.206 F 
ATOM     78  C   UNL A   1      36.639  31.403  32.394  1.00  0.00     0.022 A 
BRANCH  75  79
ATOM     79  S   UNL A   1      35.392  32.492  30.150  1.00  0.00     0.124 S 
ATOM     80  O   UNL A   1      35.129  31.634  29.001  1.00  0.00    -0.237 OA
ATOM     81  O   UNL A   1      34.345  32.548  31.164  1.00  0.00    -0.237 OA
ATOM     82  O   UNL A   1      36.028  33.772  29.843  1.00  0.00    -0.744 OA
ENDBRANCH  75  79
ENDBRANCH  48  72
BRANCH  60  83
ATOM     83  C   UNL A   1      44.704  33.779  29.048  1.00  0.00     0.023 A 
ATOM     84  C   UNL A   1      45.381  34.230  30.196  1.00  0.00     0.031 A 
ATOM     85  C   UNL A   1      44.449  34.714  28.028  1.00  0.00     0.131 A 
ATOM     86  C   UNL A   1      45.732  35.584  30.318  1.00  0.00     0.055 A 
ATOM     87  C   UNL A   1      44.851  36.047  28.129  1.00  0.00     0.041 A 
ATOM     88  F   UNL A   1      43.804  34.345  26.909  1.00  0.00    -0.206 F 
ATOM     89  C   UNL A   1      45.486  36.492  29.284  1.00  0.00     0.022 A 
BRANCH  86  90
ATOM     90  S   UNL A   1      46.442  36.169  31.883  1.00  0.00     0.124 S 
ATOM     91  O   UNL A   1      46.236  37.610  31.790  1.00  0.00    -0.237 OA
ATOM     92  O   UNL A   1      45.631  35.470  32.874  1.00  0.00    -0.237 OA
ATOM     93  O   UNL A   1      47.837  35.737  31.810  1.00  0.00    -0.744 OA
ENDBRANCH  86  90
ENDBRANCH  60  83
ENDBRANCH  34  35
ENDBRANCH  27  29
ENDBRANCH  26  27
ENDBRANCH  25  26
ENDBRANCH  24  25
ENDBRANCH   1  24
TORSDOF 21
ENDMDL
MODEL 2
REMARK VINA RESULT:      -9.8      2.089      2.550
REMARK SMILES CC[C@](C)(NC(=O)NC[C@H]1COCCO1)C(=O)OCCOCCOC(=O)c1ccc(-c2c3nc(c(-c4cc(S(=O)(=O)[O-])ccc4F)c4ccc([nH]4)c(-c4cc(S(=O)(=O)[O-])ccc4F)c4nc(c(-c5cc(S(=O)(=O)[O-])ccc5F)c5ccc2[nH]5)C=C4)C=C3)cc1
REMARK SMILES IDX 21 1 20 2 19 3 18 4 16 5 17 6 3 7 4 8 2 9 1 10 5 11 6 12
REMARK SMILES IDX 7 14 8 15 9 17 10 18 11 19 15 20 12 21 14 22 13 23 22 24
REMARK SMILES IDX 23 25 24 26 25 27 26 28 27 29 28 30 89 31 29 32 88 33 30 34
REMARK SMILES IDX 31 35 32 36 82 37 33 38 87 39 81 40 83 41 34 42 86 43 80 44
REMARK SMILES IDX 79 45 35 47 67 48 47 49 66 50 48 51 51 52 65 53 84 54 49 55
REMARK SMILES IDX 50 56 64 58 85 59 52 60 36 61 37 62 45 63 38 64 44 65 46 66
REMARK SMILES IDX 43 67 39 68 40 69 41 70 42 71 68 72 69 73 77 74 70 75 76 76
REMARK SMILES IDX 78 77 75 78 71 79 72 80 73 81 74 82 53 83 54 84 62 85 55 86
REMARK SMILES IDX 61 87 63 88 60 89 56 90 57 91 58 92 59 93
REMARK H PARENT 5 13 8 16 83 46 51 57
REMARK Flexibility Score: inf
ROOT
ATOM      1  O   UNL A   1      37.206  21.379  24.534  1.00  0.00    -0.374 OA
ENDROOT
BRANCH   1   2
ATOM      2  C   UNL A   1      36.701  22.344  25.462  1.00  0.00     0.202 C 
BRANCH   2   3
ATOM      3  C   UNL A   1      35.339  21.965  26.044  1.00  0.00     0.261 C 
BRANCH   3   4
ATOM      4  O   UNL A   1      34.330  22.409  25.127  1.00  0.00    -0.462 OA
BRANCH   4   5
ATOM      5  C   UNL A   1      33.615  23.507  25.473  1.00  0.00     0.331 C 
ATOM      6  O   UNL A   1      34.113  24.506  25.980  1.00  0.00    -0.249 OA
BRANCH   5   7
ATOM      7  C   UNL A   1      32.114  23.353  25.073  1.00  0.00     0.136 C 
ATOM      8  C   UNL A   1      31.803  21.854  25.377  1.00  0.00     0.047 C 
BRANCH   7   9
ATOM      9  C   UNL A   1      31.843  23.637  23.569  1.00  0.00     0.037 C 
ATOM     10  C   UNL A   1      32.741  22.932  22.564  1.00  0.00     0.007 C 
ENDBRANCH   7   9
BRANCH   7  11
ATOM     11  N   UNL A   1      31.158  24.176  25.887  1.00  0.00    -0.322 N 
ATOM     12  C   UNL A   1      30.542  25.361  25.736  1.00  0.00     0.315 C 
ATOM     13  H   UNL A   1      30.923  23.742  26.739  1.00  0.00     0.166 HD
ATOM     14  O   UNL A   1      29.522  25.556  26.402  1.00  0.00    -0.249 OA
ATOM     15  N   UNL A   1      30.953  26.326  24.897  1.00  0.00    -0.335 N 
ATOM     16  H   UNL A   1      30.245  26.853  24.462  1.00  0.00     0.165 HD
BRANCH  15  17
ATOM     17  C   UNL A   1      32.317  26.682  24.555  1.00  0.00     0.152 C 
BRANCH  17  18
ATOM     18  C   UNL A   1      32.507  27.988  23.764  1.00  0.00     0.163 C 
ATOM     19  C   UNL A   1      31.289  28.908  23.933  1.00  0.00     0.194 C 
ATOM     20  O   UNL A   1      33.696  28.693  24.202  1.00  0.00    -0.372 OA
ATOM     21  O   UNL A   1      31.144  29.296  25.308  1.00  0.00    -0.376 OA
ATOM     22  C   UNL A   1      33.573  29.257  25.520  1.00  0.00     0.189 C 
ATOM     23  C   UNL A   1      32.289  30.064  25.701  1.00  0.00     0.188 C 
ENDBRANCH  17  18
ENDBRANCH  15  17
ENDBRANCH   7  11
ENDBRANCH   5   7
ENDBRANCH   4   5
ENDBRANCH   3   4
ENDBRANCH   2   3
ENDBRANCH   1   2
BRANCH   1  24
ATOM     24  C   UNL A   1      37.361  20.042  25.010  1.00  0.00     0.202 C 
BRANCH  24  25
ATOM     25  C   UNL A   1      38.802  19.555  25.203  1.00  0.00     0.261 C 
BRANCH  25  26
ATOM     26  O   UNL A   1      39.384  19.863  26.485  1.00  0.00    -0.460 OA
BRANCH  26  27
ATOM     27  C   UNL A   1      40.646  20.351  26.433  1.00  0.00     0.338 C 
ATOM     28  O   UNL A   1      41.610  19.790  25.925  1.00  0.00    -0.246 OA
BRANCH  27  29
ATOM     29  C   UNL A   1      40.758  21.696  27.049  1.00  0.00     0.060 A 
ATOM     30  C   UNL A   1      40.109  22.759  26.406  1.00  0.00     0.016 A 
ATOM     31  C   UNL A   1      41.598  21.955  28.137  1.00  0.00     0.016 A 
ATOM     32  C   UNL A   1      40.336  24.077  26.811  1.00  0.00     0.010 A 
ATOM     33  C   UNL A   1      41.837  23.283  28.532  1.00  0.00     0.010 A 
ATOM     34  C   UNL A   1      41.236  24.355  27.847  1.00  0.00    -0.014 A 
BRANCH  34  35
ATOM     35  C   UNL A   1      41.662  25.765  28.083  1.00  0.00     0.031 A 
ATOM     36  C   UNL A   1      43.010  26.219  27.584  1.00  0.00     0.074 A 
ATOM     37  C   UNL A   1      40.844  26.654  28.676  1.00  0.00     0.049 A 
ATOM     38  N   UNL A   1      43.560  27.407  27.633  1.00  0.00    -0.248 NA
ATOM     39  C   UNL A   1      43.844  25.193  26.943  1.00  0.00     0.031 C 
ATOM     40  C   UNL A   1      39.500  26.367  29.170  1.00  0.00     0.029 A 
ATOM     41  N   UNL A   1      41.030  27.986  28.959  1.00  0.00    -0.354 N 
ATOM     42  C   UNL A   1      44.800  27.277  27.015  1.00  0.00     0.074 A 
ATOM     43  C   UNL A   1      44.936  25.882  26.646  1.00  0.00     0.031 C 
ATOM     44  C   UNL A   1      38.982  27.489  29.699  1.00  0.00     0.029 A 
ATOM     45  C   UNL A   1      39.965  28.569  29.606  1.00  0.00     0.049 A 
ATOM     46  H   UNL A   1      41.849  28.477  28.721  1.00  0.00     0.167 HD
ATOM     47  C   UNL A   1      45.735  28.230  26.764  1.00  0.00     0.034 A 
ATOM     48  C   UNL A   1      39.805  29.823  30.080  1.00  0.00     0.034 A 
ATOM     49  C   UNL A   1      45.614  29.612  27.162  1.00  0.00     0.049 A 
ATOM     50  C   UNL A   1      40.905  30.841  29.893  1.00  0.00     0.074 A 
ATOM     51  C   UNL A   1      46.502  30.653  26.944  1.00  0.00     0.029 A 
ATOM     52  N   UNL A   1      44.553  30.147  27.882  1.00  0.00    -0.354 N 
ATOM     53  N   UNL A   1      42.061  30.711  29.283  1.00  0.00    -0.248 NA
ATOM     54  C   UNL A   1      40.671  32.181  30.451  1.00  0.00     0.031 C 
ATOM     55  C   UNL A   1      46.015  31.793  27.596  1.00  0.00     0.029 A 
ATOM     56  C   UNL A   1      44.784  31.488  28.151  1.00  0.00     0.049 A 
ATOM     57  H   UNL A   1      43.753  29.645  28.160  1.00  0.00     0.167 HD
ATOM     58  C   UNL A   1      42.672  31.963  29.356  1.00  0.00     0.074 A 
ATOM     59  C   UNL A   1      41.756  32.833  30.062  1.00  0.00     0.031 C 
ATOM     60  C   UNL A   1      43.878  32.356  28.870  1.00  0.00     0.034 A 
BRANCH  47  61
ATOM     61  C   UNL A   1      46.998  27.781  26.067  1.00  0.00     0.023 A 
ATOM     62  C   UNL A   1      47.225  28.053  24.705  1.00  0.00     0.031 A 
ATOM     63  C   UNL A   1      47.965  27.032  26.759  1.00  0.00     0.131 A 
ATOM     64  C   UNL A   1      48.346  27.507  24.061  1.00  0.00     0.055 A 
ATOM     65  C   UNL A   1      49.121  26.563  26.131  1.00  0.00     0.041 A 
ATOM     66  F   UNL A   1      47.794  26.725  28.055  1.00  0.00    -0.206 F 
ATOM     67  C   UNL A   1      49.308  26.784  24.770  1.00  0.00     0.022 A 
BRANCH  64  68
ATOM     68  S   UNL A   1      48.441  27.616  22.252  1.00  0.00     0.124 S 
ATOM     69  O   UNL A   1      48.688  26.223  21.886  1.00  0.00    -0.237 OA
ATOM     70  O   UNL A   1      47.131  28.147  21.900  1.00  0.00    -0.237 OA
ATOM     71  O   UNL A   1      49.566  28.520  22.023  1.00  0.00    -0.744 OA
ENDBRANCH  64  68
ENDBRANCH  47  61
BRANCH  48  72
ATOM     72  C   UNL A   1      38.563  30.192  30.819  1.00  0.00     0.023 A 
ATOM     73  C   UNL A   1      37.565  30.977  30.220  1.00  0.00     0.031 A 
ATOM     74  C   UNL A   1      38.390  29.812  32.162  1.00  0.00     0.131 A 
ATOM     75  C   UNL A   1      36.456  31.391  30.977  1.00  0.00     0.055 A 
ATOM     76  C   UNL A   1      37.263  30.187  32.895  1.00  0.00     0.041 A 
ATOM     77  F   UNL A   1      39.317  29.063  32.781  1.00  0.00    -0.206 F 
ATOM     78  C   UNL A   1      36.293  30.991  32.304  1.00  0.00     0.022 A 
BRANCH  75  79
ATOM     79  S   UNL A   1      35.259  32.522  30.216  1.00  0.00     0.124 S 
ATOM     80  O   UNL A   1      36.126  33.585  29.723  1.00  0.00    -0.237 OA
ATOM     81  O   UNL A   1      34.642  31.673  29.202  1.00  0.00    -0.237 OA
ATOM     82  O   UNL A   1      34.386  32.891  31.330  1.00  0.00    -0.744 OA
ENDBRANCH  75  79
ENDBRANCH  48  72
BRANCH  60  83
ATOM     83  C   UNL A   1      44.257  33.810  29.041  1.00  0.00     0.023 A 
ATOM     84  C   UNL A   1      43.682  34.831  28.263  1.00  0.00     0.031 A 
ATOM     85  C   UNL A   1      45.218  34.179  30.001  1.00  0.00     0.131 A 
ATOM     86  C   UNL A   1      44.107  36.159  28.423  1.00  0.00     0.055 A 
ATOM     87  C   UNL A   1      45.597  35.509  30.195  1.00  0.00     0.041 A 
ATOM     88  F   UNL A   1      45.806  33.249  30.772  1.00  0.00    -0.206 F 
ATOM     89  C   UNL A   1      45.049  36.507  29.395  1.00  0.00     0.022 A 
BRANCH  86  90
ATOM     90  S   UNL A   1      43.477  37.425  27.284  1.00  0.00     0.124 S 
ATOM     91  O   UNL A   1      43.069  36.624  26.134  1.00  0.00    -0.237 OA
ATOM     92  O   UNL A   1      42.397  38.029  28.056  1.00  0.00    -0.237 OA
ATOM     93  O   UNL A   1      44.634  38.290  27.057  1.00  0.00    -0.744 OA
ENDBRANCH  86  90
ENDBRANCH  60  83
ENDBRANCH  34  35
ENDBRANCH  27  29
ENDBRANCH  26  27
ENDBRANCH  25  26
ENDBRANCH  24  25
ENDBRANCH   1  24
TORSDOF 21
ENDMDL
MODEL 3
REMARK VINA RESULT:      -9.8      5.107      7.576
REMARK SMILES CC[C@](C)(NC(=O)NC[C@H]1COCCO1)C(=O)OCCOCCOC(=O)c1ccc(-c2c3nc(c(-c4cc(S(=O)(=O)[O-])ccc4F)c4ccc([nH]4)c(-c4cc(S(=O)(=O)[O-])ccc4F)c4nc(c(-c5cc(S(=O)(=O)[O-])ccc5F)c5ccc2[nH]5)C=C4)C=C3)cc1
REMARK SMILES IDX 21 1 20 2 19 3 18 4 16 5 17 6 3 7 4 8 2 9 1 10 5 11 6 12
REMARK SMILES IDX 7 14 8 15 9 17 10 18 11 19 15 20 12 21 14 22 13 23 22 24
REMARK SMILES IDX 23 25 24 26 25 27 26 28 27 29 28 30 89 31 29 32 88 33 30 34
REMARK SMILES IDX 31 35 32 36 82 37 33 38 87 39 81 40 83 41 34 42 86 43 80 44
REMARK SMILES IDX 79 45 35 47 67 48 47 49 66 50 48 51 51 52 65 53 84 54 49 55
REMARK SMILES IDX 50 56 64 58 85 59 52 60 36 61 37 62 45 63 38 64 44 65 46 66
REMARK SMILES IDX 43 67 39 68 40 69 41 70 42 71 68 72 69 73 77 74 70 75 76 76
REMARK SMILES IDX 78 77 75 78 71 79 72 80 73 81 74 82 53 83 54 84 62 85 55 86
REMARK SMILES IDX 61 87 63 88 60 89 56 90 57 91 58 92 59 93
REMARK H PARENT 5 13 8 16 83 46 51 57
REMARK Flexibility Score: inf
ROOT
ATOM      1  O   UNL A   1      32.204  27.950  25.926  1.00  0.00    -0.374 OA
ENDROOT
BRANCH   1   2
ATOM      2  C   UNL A   1      33.407  28.130  25.173  1.00  0.00     0.202 C 
BRANCH   2   3
ATOM      3  C   UNL A   1      33.990  26.819  24.645  1.00  0.00     0.261 C 
BRANCH   3   4
ATOM      4  O   UNL A   1      32.897  25.944  24.335  1.00  0.00    -0.462 OA
BRANCH   4   5
ATOM      5  C   UNL A   1      33.188  24.639  24.118  1.00  0.00     0.331 C 
ATOM      6  O   UNL A   1      34.070  24.034  24.716  1.00  0.00    -0.249 OA
BRANCH   5   7
ATOM      7  C   UNL A   1      32.211  24.009  23.075  1.00  0.00     0.136 C 
ATOM      8  C   UNL A   1      30.809  24.532  23.520  1.00  0.00     0.047 C 
BRANCH   7   9
ATOM      9  C   UNL A   1      32.207  22.455  23.092  1.00  0.00     0.037 C 
ATOM     10  C   UNL A   1      31.702  21.783  24.361  1.00  0.00     0.007 C 
ENDBRANCH   7   9
BRANCH   7  11
ATOM     11  N   UNL A   1      32.422  24.463  21.659  1.00  0.00    -0.322 N 
ATOM     12  C   UNL A   1      32.464  25.648  21.028  1.00  0.00     0.315 C 
ATOM     13  H   UNL A   1      32.567  23.708  21.043  1.00  0.00     0.166 HD
ATOM     14  O   UNL A   1      33.051  25.688  19.944  1.00  0.00    -0.249 OA
ATOM     15  N   UNL A   1      31.932  26.782  21.511  1.00  0.00    -0.335 N 
ATOM     16  H   UNL A   1      32.426  27.610  21.315  1.00  0.00     0.165 HD
BRANCH  15  17
ATOM     17  C   UNL A   1      30.715  26.931  22.288  1.00  0.00     0.152 C 
BRANCH  17  18
ATOM     18  C   UNL A   1      30.605  28.198  23.152  1.00  0.00     0.163 C 
ATOM     19  C   UNL A   1      30.702  29.460  22.283  1.00  0.00     0.194 C 
ATOM     20  O   UNL A   1      29.351  28.222  23.882  1.00  0.00    -0.372 OA
ATOM     21  O   UNL A   1      29.604  29.514  21.358  1.00  0.00    -0.376 OA
ATOM     22  C   UNL A   1      28.204  28.436  23.039  1.00  0.00     0.189 C 
ATOM     23  C   UNL A   1      28.379  29.623  22.093  1.00  0.00     0.188 C 
ENDBRANCH  17  18
ENDBRANCH  15  17
ENDBRANCH   7  11
ENDBRANCH   5   7
ENDBRANCH   4   5
ENDBRANCH   3   4
ENDBRANCH   2   3
ENDBRANCH   1   2
BRANCH   1  24
ATOM     24  C   UNL A   1      32.052  28.744  27.103  1.00  0.00     0.202 C 
BRANCH  24  25
ATOM     25  C   UNL A   1      31.737  30.227  26.882  1.00  0.00     0.261 C 
BRANCH  25  26
ATOM     26  O   UNL A   1      32.837  31.020  26.392  1.00  0.00    -0.460 OA
BRANCH  26  27
ATOM     27  C   UNL A   1      33.370  31.873  27.298  1.00  0.00     0.338 C 
ATOM     28  O   UNL A   1      32.822  32.872  27.751  1.00  0.00    -0.246 OA
BRANCH  27  29
ATOM     29  C   UNL A   1      34.725  31.459  27.736  1.00  0.00     0.060 A 
ATOM     30  C   UNL A   1      34.928  30.102  28.020  1.00  0.00     0.016 A 
ATOM     31  C   UNL A   1      35.738  32.383  28.015  1.00  0.00     0.016 A 
ATOM     32  C   UNL A   1      36.112  29.674  28.628  1.00  0.00     0.010 A 
ATOM     33  C   UNL A   1      36.922  31.952  28.639  1.00  0.00     0.010 A 
ATOM     34  C   UNL A   1      37.101  30.600  28.984  1.00  0.00    -0.014 A 
BRANCH  34  35
ATOM     35  C   UNL A   1      38.225  30.163  29.860  1.00  0.00     0.031 A 
ATOM     36  C   UNL A   1      39.227  29.169  29.330  1.00  0.00     0.074 A 
ATOM     37  C   UNL A   1      38.398  30.681  31.091  1.00  0.00     0.049 A 
ATOM     38  N   UNL A   1      40.306  28.689  29.897  1.00  0.00    -0.248 NA
ATOM     39  C   UNL A   1      38.974  28.651  27.979  1.00  0.00     0.031 C 
ATOM     40  C   UNL A   1      37.534  31.679  31.715  1.00  0.00     0.029 A 
ATOM     41  N   UNL A   1      39.369  30.437  32.033  1.00  0.00    -0.354 N 
ATOM     42  C   UNL A   1      40.872  27.824  28.966  1.00  0.00     0.074 A 
ATOM     43  C   UNL A   1      39.986  27.811  27.819  1.00  0.00     0.031 C 
ATOM     44  C   UNL A   1      38.012  31.961  32.940  1.00  0.00     0.029 A 
ATOM     45  C   UNL A   1      39.200  31.146  33.199  1.00  0.00     0.049 A 
ATOM     46  H   UNL A   1      40.115  29.813  31.887  1.00  0.00     0.167 HD
ATOM     47  C   UNL A   1      42.029  27.116  29.048  1.00  0.00     0.034 A 
ATOM     48  C   UNL A   1      39.910  31.132  34.347  1.00  0.00     0.034 A 
ATOM     49  C   UNL A   1      42.893  27.103  30.204  1.00  0.00     0.049 A 
ATOM     50  C   UNL A   1      41.131  30.250  34.462  1.00  0.00     0.074 A 
ATOM     51  C   UNL A   1      44.090  26.426  30.378  1.00  0.00     0.029 A 
ATOM     52  N   UNL A   1      42.648  27.776  31.393  1.00  0.00    -0.354 N 
ATOM     53  N   UNL A   1      41.669  29.457  33.563  1.00  0.00    -0.248 NA
ATOM     54  C   UNL A   1      41.845  30.270  35.747  1.00  0.00     0.031 C 
ATOM     55  C   UNL A   1      44.525  26.629  31.693  1.00  0.00     0.029 A 
ATOM     56  C   UNL A   1      43.646  27.498  32.316  1.00  0.00     0.049 A 
ATOM     57  H   UNL A   1      41.877  28.366  31.556  1.00  0.00     0.167 HD
ATOM     58  C   UNL A   1      42.804  28.915  34.166  1.00  0.00     0.074 A 
ATOM     59  C   UNL A   1      42.875  29.474  35.499  1.00  0.00     0.031 C 
ATOM     60  C   UNL A   1      43.711  28.042  33.654  1.00  0.00     0.034 A 
BRANCH  47  61
ATOM     61  C   UNL A   1      42.387  26.253  27.860  1.00  0.00     0.023 A 
ATOM     62  C   UNL A   1      41.838  24.970  27.689  1.00  0.00     0.031 A 
ATOM     63  C   UNL A   1      43.326  26.701  26.913  1.00  0.00     0.131 A 
ATOM     64  C   UNL A   1      42.294  24.148  26.647  1.00  0.00     0.055 A 
ATOM     65  C   UNL A   1      43.713  25.908  25.830  1.00  0.00     0.041 A 
ATOM     66  F   UNL A   1      43.898  27.909  27.035  1.00  0.00    -0.206 F 
ATOM     67  C   UNL A   1      43.211  24.616  25.703  1.00  0.00     0.022 A 
BRANCH  64  68
ATOM     68  S   UNL A   1      41.798  22.403  26.642  1.00  0.00     0.124 S 
ATOM     69  O   UNL A   1      42.417  21.923  25.409  1.00  0.00    -0.237 OA
ATOM     70  O   UNL A   1      42.377  21.908  27.884  1.00  0.00    -0.237 OA
ATOM     71  O   UNL A   1      40.338  22.463  26.613  1.00  0.00    -0.744 OA
ENDBRANCH  64  68
ENDBRANCH  47  61
BRANCH  48  72
ATOM     72  C   UNL A   1      39.471  31.956  35.510  1.00  0.00     0.023 A 
ATOM     73  C   UNL A   1      38.698  31.403  36.544  1.00  0.00     0.031 A 
ATOM     74  C   UNL A   1      39.772  33.328  35.569  1.00  0.00     0.131 A 
ATOM     75  C   UNL A   1      38.217  32.230  37.572  1.00  0.00     0.055 A 
ATOM     76  C   UNL A   1      39.330  34.135  36.619  1.00  0.00     0.041 A 
ATOM     77  F   UNL A   1      40.506  33.905  34.604  1.00  0.00    -0.206 F 
ATOM     78  C   UNL A   1      38.538  33.588  37.623  1.00  0.00     0.022 A 
BRANCH  75  79
ATOM     79  S   UNL A   1      37.102  31.514  38.813  1.00  0.00     0.124 S 
ATOM     80  O   UNL A   1      35.970  32.433  38.760  1.00  0.00    -0.237 OA
ATOM     81  O   UNL A   1      36.871  30.177  38.276  1.00  0.00    -0.237 OA
ATOM     82  O   UNL A   1      37.889  31.561  40.044  1.00  0.00    -0.744 OA
ENDBRANCH  75  79
ENDBRANCH  48  72
BRANCH  60  83
ATOM     83  C   UNL A   1      44.891  27.675  34.525  1.00  0.00     0.023 A 
ATOM     84  C   UNL A   1      44.876  26.551  35.371  1.00  0.00     0.031 A 
ATOM     85  C   UNL A   1      46.053  28.469  34.509  1.00  0.00     0.131 A 
ATOM     86  C   UNL A   1      45.977  26.283  36.201  1.00  0.00     0.055 A 
ATOM     87  C   UNL A   1      47.167  28.166  35.294  1.00  0.00     0.041 A 
ATOM     88  F   UNL A   1      46.126  29.557  33.724  1.00  0.00    -0.206 F 
ATOM     89  C   UNL A   1      47.129  27.073  36.155  1.00  0.00     0.022 A 
BRANCH  86  90
ATOM     90  S   UNL A   1      45.857  24.933  37.408  1.00  0.00     0.124 S 
ATOM     91  O   UNL A   1      45.261  23.865  36.612  1.00  0.00    -0.237 OA
ATOM     92  O   UNL A   1      47.249  24.738  37.798  1.00  0.00    -0.237 OA
ATOM     93  O   UNL A   1      44.993  25.481  38.452  1.00  0.00    -0.744 OA
ENDBRANCH  86  90
ENDBRANCH  60  83
ENDBRANCH  34  35
ENDBRANCH  27  29
ENDBRANCH  26  27
ENDBRANCH  25  26
ENDBRANCH  24  25
ENDBRANCH   1  24
TORSDOF 21
ENDMDL
