MODEL 1
REMARK VINA RESULT:     -10.2      0.000      0.000
REMARK SMILES NC(=O)CC[C@H](C(=O)OCCOCCOC(=O)c1ccc(-c2c3nc(c(-c4cc(S(=O)(=O)[O-])ccc4F)c4ccc([nH]4)c(-c4cc(S(=O)(=O)[O-])ccc4F)c4nc(c(-c5cc(S(=O)(=O)[O-])ccc5F)c5ccc2[nH]5)C=C4)C=C3)cc1)N1CCOC1=O
REMARK SMILES IDX 12 1 11 2 10 3 9 4 7 5 8 6 6 7 5 8 4 9 2 10 1 11 3 14 81 15
REMARK SMILES IDX 82 16 85 17 83 18 84 19 86 20 13 21 14 22 15 23 16 24 17 25
REMARK SMILES IDX 18 26 19 27 80 28 20 29 79 30 21 31 22 32 23 33 73 34 24 35
REMARK SMILES IDX 78 36 72 37 74 38 25 39 77 40 71 41 70 42 26 44 58 45 38 46
REMARK SMILES IDX 57 47 39 48 42 49 56 50 75 51 40 52 41 53 55 55 76 56 43 57
REMARK SMILES IDX 27 58 28 59 36 60 29 61 35 62 37 63 34 64 30 65 31 66 32 67
REMARK SMILES IDX 33 68 59 69 60 70 68 71 61 72 67 73 69 74 66 75 62 76 63 77
REMARK SMILES IDX 64 78 65 79 44 80 45 81 53 82 46 83 52 84 54 85 51 86 47 87
REMARK SMILES IDX 48 88 49 89 50 90
REMARK H PARENT 1 12 1 13 74 43 42 54
REMARK Flexibility Score: inf
ROOT
ATOM      1  O   UNL A   1      37.698  21.147  24.641  1.00  0.00    -0.374 OA
ENDROOT
BRANCH   1   2
ATOM      2  C   UNL A   1      37.068  22.045  25.552  1.00  0.00     0.202 C 
BRANCH   2   3
ATOM      3  C   UNL A   1      35.662  22.551  25.210  1.00  0.00     0.261 C 
BRANCH   3   4
ATOM      4  O   UNL A   1      34.956  23.074  26.347  1.00  0.00    -0.462 OA
BRANCH   4   5
ATOM      5  C   UNL A   1      33.607  22.883  26.323  1.00  0.00     0.329 C 
ATOM      6  O   UNL A   1      32.843  23.127  27.251  1.00  0.00    -0.250 OA
BRANCH   5   7
ATOM      7  C   UNL A   1      33.111  22.344  24.968  1.00  0.00     0.199 C 
BRANCH   7   8
ATOM      8  C   UNL A   1      32.333  21.009  25.074  1.00  0.00     0.047 C 
BRANCH   8   9
ATOM      9  C   UNL A   1      33.012  19.741  24.547  1.00  0.00     0.102 C 
BRANCH   9  10
ATOM     10  C   UNL A   1      32.569  18.493  25.268  1.00  0.00     0.217 C 
ATOM     11  N   UNL A   1      32.899  18.436  26.586  1.00  0.00    -0.370 N 
ATOM     12  H   UNL A   1      32.643  17.652  27.125  1.00  0.00     0.159 HD
ATOM     13  H   UNL A   1      33.394  19.179  27.003  1.00  0.00     0.159 HD
ATOM     14  O   UNL A   1      31.908  17.611  24.731  1.00  0.00    -0.275 OA
ENDBRANCH   9  10
ENDBRANCH   8   9
ENDBRANCH   7   8
BRANCH   7  15
ATOM     15  N   UNL A   1      32.476  23.324  24.089  1.00  0.00    -0.291 N 
ATOM     16  C   UNL A   1      31.068  23.585  24.125  1.00  0.00     0.165 C 
ATOM     17  C   UNL A   1      32.992  23.799  22.903  1.00  0.00     0.410 C 
ATOM     18  C   UNL A   1      30.945  24.734  23.160  1.00  0.00     0.256 C 
ATOM     19  O   UNL A   1      32.045  24.553  22.262  1.00  0.00    -0.448 OA
ATOM     20  O   UNL A   1      34.103  23.600  22.454  1.00  0.00    -0.224 OA
ENDBRANCH   7  15
ENDBRANCH   5   7
ENDBRANCH   4   5
ENDBRANCH   3   4
ENDBRANCH   2   3
ENDBRANCH   1   2
BRANCH   1  21
ATOM     21  C   UNL A   1      37.833  19.785  25.029  1.00  0.00     0.202 C 
BRANCH  21  22
ATOM     22  C   UNL A   1      39.150  19.341  25.676  1.00  0.00     0.261 C 
BRANCH  22  23
ATOM     23  O   UNL A   1      40.106  20.410  25.787  1.00  0.00    -0.460 OA
BRANCH  23  24
ATOM     24  C   UNL A   1      40.769  20.443  26.971  1.00  0.00     0.338 C 
ATOM     25  O   UNL A   1      41.349  19.515  27.509  1.00  0.00    -0.246 OA
BRANCH  24  26
ATOM     26  C   UNL A   1      40.872  21.834  27.453  1.00  0.00     0.060 A 
ATOM     27  C   UNL A   1      40.065  22.798  26.832  1.00  0.00     0.016 A 
ATOM     28  C   UNL A   1      41.801  22.205  28.425  1.00  0.00     0.016 A 
ATOM     29  C   UNL A   1      40.231  24.148  27.135  1.00  0.00     0.010 A 
ATOM     30  C   UNL A   1      41.970  23.562  28.721  1.00  0.00     0.010 A 
ATOM     31  C   UNL A   1      41.218  24.543  28.045  1.00  0.00    -0.014 A 
BRANCH  31  32
ATOM     32  C   UNL A   1      41.593  25.974  28.163  1.00  0.00     0.031 A 
ATOM     33  C   UNL A   1      42.931  26.412  27.625  1.00  0.00     0.074 A 
ATOM     34  C   UNL A   1      40.761  26.869  28.726  1.00  0.00     0.049 A 
ATOM     35  N   UNL A   1      43.523  27.573  27.715  1.00  0.00    -0.248 NA
ATOM     36  C   UNL A   1      43.707  25.398  26.891  1.00  0.00     0.031 C 
ATOM     37  C   UNL A   1      39.415  26.578  29.216  1.00  0.00     0.029 A 
ATOM     38  N   UNL A   1      40.933  28.205  28.993  1.00  0.00    -0.354 N 
ATOM     39  C   UNL A   1      44.750  27.425  27.077  1.00  0.00     0.074 A 
ATOM     40  C   UNL A   1      44.825  26.054  26.620  1.00  0.00     0.031 C 
ATOM     41  C   UNL A   1      38.889  27.700  29.737  1.00  0.00     0.029 A 
ATOM     42  C   UNL A   1      39.878  28.774  29.668  1.00  0.00     0.049 A 
ATOM     43  H   UNL A   1      41.736  28.709  28.725  1.00  0.00     0.167 HD
ATOM     44  C   UNL A   1      45.723  28.350  26.892  1.00  0.00     0.034 A 
ATOM     45  C   UNL A   1      39.745  30.006  30.202  1.00  0.00     0.034 A 
ATOM     46  C   UNL A   1      45.625  29.714  27.345  1.00  0.00     0.049 A 
ATOM     47  C   UNL A   1      40.888  30.991  30.063  1.00  0.00     0.074 A 
ATOM     48  C   UNL A   1      46.539  30.741  27.180  1.00  0.00     0.029 A 
ATOM     49  N   UNL A   1      44.560  30.242  28.062  1.00  0.00    -0.354 N 
ATOM     50  N   UNL A   1      42.042  30.839  29.454  1.00  0.00    -0.248 NA
ATOM     51  C   UNL A   1      40.708  32.314  30.679  1.00  0.00     0.031 C 
ATOM     52  C   UNL A   1      46.070  31.859  27.876  1.00  0.00     0.029 A 
ATOM     53  C   UNL A   1      44.815  31.566  28.383  1.00  0.00     0.049 A 
ATOM     54  H   UNL A   1      43.744  29.749  28.306  1.00  0.00     0.167 HD
ATOM     55  C   UNL A   1      42.696  32.065  29.569  1.00  0.00     0.074 A 
ATOM     56  C   UNL A   1      41.811  32.943  30.302  1.00  0.00     0.031 C 
ATOM     57  C   UNL A   1      43.915  32.435  29.101  1.00  0.00     0.034 A 
BRANCH  44  58
ATOM     58  C   UNL A   1      47.004  27.909  26.226  1.00  0.00     0.023 A 
ATOM     59  C   UNL A   1      47.221  28.054  24.846  1.00  0.00     0.031 A 
ATOM     60  C   UNL A   1      48.038  27.353  27.001  1.00  0.00     0.131 A 
ATOM     61  C   UNL A   1      48.425  27.609  24.277  1.00  0.00     0.055 A 
ATOM     62  C   UNL A   1      49.262  26.983  26.442  1.00  0.00     0.041 A 
ATOM     63  F   UNL A   1      47.876  27.165  28.320  1.00  0.00    -0.206 F 
ATOM     64  C   UNL A   1      49.458  27.102  25.070  1.00  0.00     0.022 A 
BRANCH  61  65
ATOM     65  S   UNL A   1      48.582  27.595  22.471  1.00  0.00     0.124 S 
ATOM     66  O   UNL A   1      48.605  26.162  22.188  1.00  0.00    -0.237 OA
ATOM     67  O   UNL A   1      47.386  28.312  22.044  1.00  0.00    -0.237 OA
ATOM     68  O   UNL A   1      49.846  28.290  22.231  1.00  0.00    -0.744 OA
ENDBRANCH  61  65
ENDBRANCH  44  58
BRANCH  45  69
ATOM     69  C   UNL A   1      38.518  30.386  30.965  1.00  0.00     0.023 A 
ATOM     70  C   UNL A   1      37.460  31.062  30.336  1.00  0.00     0.031 A 
ATOM     71  C   UNL A   1      38.425  30.169  32.352  1.00  0.00     0.131 A 
ATOM     72  C   UNL A   1      36.398  31.567  31.103  1.00  0.00     0.055 A 
ATOM     73  C   UNL A   1      37.329  30.607  33.098  1.00  0.00     0.041 A 
ATOM     74  F   UNL A   1      39.408  29.534  33.009  1.00  0.00    -0.206 F 
ATOM     75  C   UNL A   1      36.316  31.330  32.476  1.00  0.00     0.022 A 
BRANCH  72  76
ATOM     76  S   UNL A   1      35.202  32.670  30.299  1.00  0.00     0.124 S 
ATOM     77  O   UNL A   1      34.327  33.016  31.412  1.00  0.00    -0.237 OA
ATOM     78  O   UNL A   1      36.064  33.738  29.802  1.00  0.00    -0.237 OA
ATOM     79  O   UNL A   1      34.601  31.825  29.269  1.00  0.00    -0.744 OA
ENDBRANCH  72  76
ENDBRANCH  45  69
BRANCH  57  80
ATOM     80  C   UNL A   1      44.329  33.876  29.288  1.00  0.00     0.023 A 
ATOM     81  C   UNL A   1      45.051  34.313  30.411  1.00  0.00     0.031 A 
ATOM     82  C   UNL A   1      44.009  34.826  28.299  1.00  0.00     0.131 A 
ATOM     83  C   UNL A   1      45.388  35.670  30.540  1.00  0.00     0.055 A 
ATOM     84  C   UNL A   1      44.405  36.159  28.400  1.00  0.00     0.041 A 
ATOM     85  F   UNL A   1      43.317  34.466  27.205  1.00  0.00    -0.206 F 
ATOM     86  C   UNL A   1      45.089  36.590  29.531  1.00  0.00     0.022 A 
BRANCH  83  87
ATOM     87  S   UNL A   1      46.153  36.238  32.083  1.00  0.00     0.124 S 
ATOM     88  O   UNL A   1      47.147  37.190  31.596  1.00  0.00    -0.237 OA
ATOM     89  O   UNL A   1      45.020  36.812  32.802  1.00  0.00    -0.237 OA
ATOM     90  O   UNL A   1      46.700  35.014  32.667  1.00  0.00    -0.744 OA
ENDBRANCH  83  87
ENDBRANCH  57  80
ENDBRANCH  31  32
ENDBRANCH  24  26
ENDBRANCH  23  24
ENDBRANCH  22  23
ENDBRANCH  21  22
ENDBRANCH   1  21
TORSDOF 21
ENDMDL
MODEL 2
REMARK VINA RESULT:     -10.1      2.357      8.369
REMARK SMILES NC(=O)CC[C@H](C(=O)OCCOCCOC(=O)c1ccc(-c2c3nc(c(-c4cc(S(=O)(=O)[O-])ccc4F)c4ccc([nH]4)c(-c4cc(S(=O)(=O)[O-])ccc4F)c4nc(c(-c5cc(S(=O)(=O)[O-])ccc5F)c5ccc2[nH]5)C=C4)C=C3)cc1)N1CCOC1=O
REMARK SMILES IDX 12 1 11 2 10 3 9 4 7 5 8 6 6 7 5 8 4 9 2 10 1 11 3 14 81 15
REMARK SMILES IDX 82 16 85 17 83 18 84 19 86 20 13 21 14 22 15 23 16 24 17 25
REMARK SMILES IDX 18 26 19 27 80 28 20 29 79 30 21 31 22 32 23 33 73 34 24 35
REMARK SMILES IDX 78 36 72 37 74 38 25 39 77 40 71 41 70 42 26 44 58 45 38 46
REMARK SMILES IDX 57 47 39 48 42 49 56 50 75 51 40 52 41 53 55 55 76 56 43 57
REMARK SMILES IDX 27 58 28 59 36 60 29 61 35 62 37 63 34 64 30 65 31 66 32 67
REMARK SMILES IDX 33 68 59 69 60 70 68 71 61 72 67 73 69 74 66 75 62 76 63 77
REMARK SMILES IDX 64 78 65 79 44 80 45 81 53 82 46 83 52 84 54 85 51 86 47 87
REMARK SMILES IDX 48 88 49 89 50 90
REMARK H PARENT 1 12 1 13 74 43 42 54
REMARK Flexibility Score: inf
ROOT
ATOM      1  O   UNL A   1      34.157  20.982  25.951  1.00  0.00    -0.374 OA
ENDROOT
BRANCH   1   2
ATOM      2  C   UNL A   1      33.408  20.733  24.765  1.00  0.00     0.202 C 
BRANCH   2   3
ATOM      3  C   UNL A   1      32.280  21.707  24.407  1.00  0.00     0.261 C 
BRANCH   3   4
ATOM      4  O   UNL A   1      32.706  23.080  24.373  1.00  0.00    -0.462 OA
BRANCH   4   5
ATOM      5  C   UNL A   1      32.199  23.863  25.367  1.00  0.00     0.329 C 
ATOM      6  O   UNL A   1      31.752  23.451  26.432  1.00  0.00    -0.250 OA
BRANCH   5   7
ATOM      7  C   UNL A   1      32.269  25.365  25.029  1.00  0.00     0.199 C 
BRANCH   7   8
ATOM      8  C   UNL A   1      33.417  26.114  25.751  1.00  0.00     0.047 C 
BRANCH   8   9
ATOM      9  C   UNL A   1      33.095  27.464  26.398  1.00  0.00     0.102 C 
BRANCH   9  10
ATOM     10  C   UNL A   1      33.991  28.577  25.915  1.00  0.00     0.217 C 
ATOM     11  N   UNL A   1      33.823  28.933  24.613  1.00  0.00    -0.370 N 
ATOM     12  H   UNL A   1      34.372  29.652  24.223  1.00  0.00     0.159 HD
ATOM     13  H   UNL A   1      33.153  28.470  24.058  1.00  0.00     0.159 HD
ATOM     14  O   UNL A   1      34.778  29.166  26.647  1.00  0.00    -0.275 OA
ENDBRANCH   9  10
ENDBRANCH   8   9
ENDBRANCH   7   8
BRANCH   7  15
ATOM     15  N   UNL A   1      32.147  25.704  23.613  1.00  0.00    -0.291 N 
ATOM     16  C   UNL A   1      33.284  25.799  22.748  1.00  0.00     0.165 C 
ATOM     17  C   UNL A   1      31.080  26.348  23.026  1.00  0.00     0.410 C 
ATOM     18  C   UNL A   1      32.634  26.026  21.410  1.00  0.00     0.256 C 
ATOM     19  O   UNL A   1      31.394  26.665  21.730  1.00  0.00    -0.448 OA
ATOM     20  O   UNL A   1      30.014  26.621  23.540  1.00  0.00    -0.224 OA
ENDBRANCH   7  15
ENDBRANCH   5   7
ENDBRANCH   4   5
ENDBRANCH   3   4
ENDBRANCH   2   3
ENDBRANCH   1   2
BRANCH   1  21
ATOM     21  C   UNL A   1      35.480  21.488  25.814  1.00  0.00     0.202 C 
BRANCH  21  22
ATOM     22  C   UNL A   1      36.515  20.625  25.081  1.00  0.00     0.261 C 
BRANCH  22  23
ATOM     23  O   UNL A   1      37.761  21.310  24.865  1.00  0.00    -0.460 OA
BRANCH  23  24
ATOM     24  C   UNL A   1      38.762  20.918  25.693  1.00  0.00     0.338 C 
ATOM     25  O   UNL A   1      39.272  19.811  25.748  1.00  0.00    -0.246 OA
BRANCH  24  26
ATOM     26  C   UNL A   1      39.312  22.085  26.410  1.00  0.00     0.060 A 
ATOM     27  C   UNL A   1      38.760  23.341  26.125  1.00  0.00     0.016 A 
ATOM     28  C   UNL A   1      40.402  21.967  27.272  1.00  0.00     0.016 A 
ATOM     29  C   UNL A   1      39.340  24.495  26.650  1.00  0.00     0.010 A 
ATOM     30  C   UNL A   1      40.985  23.127  27.792  1.00  0.00     0.010 A 
ATOM     31  C   UNL A   1      40.485  24.398  27.448  1.00  0.00    -0.014 A 
BRANCH  31  32
ATOM     32  C   UNL A   1      41.269  25.616  27.776  1.00  0.00     0.031 A 
ATOM     33  C   UNL A   1      40.599  26.709  28.567  1.00  0.00     0.074 A 
ATOM     34  C   UNL A   1      42.552  25.744  27.389  1.00  0.00     0.049 A 
ATOM     35  N   UNL A   1      41.037  27.902  28.871  1.00  0.00    -0.248 NA
ATOM     36  C   UNL A   1      39.249  26.417  29.077  1.00  0.00     0.031 C 
ATOM     37  C   UNL A   1      43.327  24.726  26.683  1.00  0.00     0.029 A 
ATOM     38  N   UNL A   1      43.424  26.796  27.524  1.00  0.00    -0.354 N 
ATOM     39  C   UNL A   1      40.010  28.514  29.583  1.00  0.00     0.074 A 
ATOM     40  C   UNL A   1      38.919  27.566  29.648  1.00  0.00     0.031 C 
ATOM     41  C   UNL A   1      44.557  25.208  26.435  1.00  0.00     0.029 A 
ATOM     42  C   UNL A   1      44.640  26.587  26.913  1.00  0.00     0.049 A 
ATOM     43  H   UNL A   1      43.202  27.621  28.012  1.00  0.00     0.167 HD
ATOM     44  C   UNL A   1      39.983  29.754  30.128  1.00  0.00     0.034 A 
ATOM     45  C   UNL A   1      45.681  27.426  26.729  1.00  0.00     0.034 A 
ATOM     46  C   UNL A   1      41.085  30.680  30.062  1.00  0.00     0.049 A 
ATOM     47  C   UNL A   1      45.586  28.839  27.268  1.00  0.00     0.074 A 
ATOM     48  C   UNL A   1      41.174  31.948  30.610  1.00  0.00     0.029 A 
ATOM     49  N   UNL A   1      42.283  30.450  29.399  1.00  0.00    -0.354 N 
ATOM     50  N   UNL A   1      44.610  29.404  27.942  1.00  0.00    -0.248 NA
ATOM     51  C   UNL A   1      46.734  29.723  27.026  1.00  0.00     0.031 C 
ATOM     52  C   UNL A   1      42.383  32.517  30.201  1.00  0.00     0.029 A 
ATOM     53  C   UNL A   1      43.097  31.567  29.489  1.00  0.00     0.049 A 
ATOM     54  H   UNL A   1      42.519  29.615  28.935  1.00  0.00     0.167 HD
ATOM     55  C   UNL A   1      45.055  30.689  28.248  1.00  0.00     0.074 A 
ATOM     56  C   UNL A   1      46.382  30.815  27.688  1.00  0.00     0.031 C 
ATOM     57  C   UNL A   1      44.427  31.673  28.939  1.00  0.00     0.034 A 
BRANCH  44  58
ATOM     58  C   UNL A   1      38.706  30.210  30.792  1.00  0.00     0.023 A 
ATOM     59  C   UNL A   1      37.709  30.914  30.097  1.00  0.00     0.031 A 
ATOM     60  C   UNL A   1      38.478  29.910  32.147  1.00  0.00     0.131 A 
ATOM     61  C   UNL A   1      36.550  31.331  30.770  1.00  0.00     0.055 A 
ATOM     62  C   UNL A   1      37.290  30.260  32.790  1.00  0.00     0.041 A 
ATOM     63  F   UNL A   1      39.408  29.264  32.869  1.00  0.00    -0.206 F 
ATOM     64  C   UNL A   1      36.321  30.983  32.104  1.00  0.00     0.022 A 
BRANCH  61  65
ATOM     65  S   UNL A   1      35.394  32.434  29.912  1.00  0.00     0.124 S 
ATOM     66  O   UNL A   1      36.269  33.540  29.529  1.00  0.00    -0.237 OA
ATOM     67  O   UNL A   1      34.909  31.596  28.821  1.00  0.00    -0.237 OA
ATOM     68  O   UNL A   1      34.404  32.757  30.937  1.00  0.00    -0.744 OA
ENDBRANCH  61  65
ENDBRANCH  44  58
BRANCH  45  69
ATOM     69  C   UNL A   1      46.889  26.995  25.963  1.00  0.00     0.023 A 
ATOM     70  C   UNL A   1      47.966  26.369  26.610  1.00  0.00     0.031 A 
ATOM     71  C   UNL A   1      47.029  27.294  24.595  1.00  0.00     0.131 A 
ATOM     72  C   UNL A   1      49.161  26.134  25.912  1.00  0.00     0.055 A 
ATOM     73  C   UNL A   1      48.193  26.988  23.887  1.00  0.00     0.041 A 
ATOM     74  F   UNL A   1      46.036  27.898  23.925  1.00  0.00    -0.206 F 
ATOM     75  C   UNL A   1      49.277  26.423  24.551  1.00  0.00     0.022 A 
BRANCH  72  76
ATOM     76  S   UNL A   1      50.614  25.584  26.850  1.00  0.00     0.124 S 
ATOM     77  O   UNL A   1      51.543  25.242  25.780  1.00  0.00    -0.237 OA
ATOM     78  O   UNL A   1      50.939  26.776  27.628  1.00  0.00    -0.237 OA
ATOM     79  O   UNL A   1      50.108  24.453  27.625  1.00  0.00    -0.744 OA
ENDBRANCH  72  76
ENDBRANCH  45  69
BRANCH  57  80
ATOM     80  C   UNL A   1      45.199  32.944  29.208  1.00  0.00     0.023 A 
ATOM     81  C   UNL A   1      45.171  34.042  28.333  1.00  0.00     0.031 A 
ATOM     82  C   UNL A   1      45.962  33.058  30.386  1.00  0.00     0.131 A 
ATOM     83  C   UNL A   1      45.928  35.188  28.625  1.00  0.00     0.055 A 
ATOM     84  C   UNL A   1      46.658  34.223  30.704  1.00  0.00     0.041 A 
ATOM     85  F   UNL A   1      46.029  32.038  31.258  1.00  0.00    -0.206 F 
ATOM     86  C   UNL A   1      46.653  35.293  29.816  1.00  0.00     0.022 A 
BRANCH  83  87
ATOM     87  S   UNL A   1      46.021  36.513  27.390  1.00  0.00     0.124 S 
ATOM     88  O   UNL A   1      44.839  37.306  27.707  1.00  0.00    -0.237 OA
ATOM     89  O   UNL A   1      47.307  37.135  27.695  1.00  0.00    -0.237 OA
ATOM     90  O   UNL A   1      45.967  35.800  26.115  1.00  0.00    -0.744 OA
ENDBRANCH  83  87
ENDBRANCH  57  80
ENDBRANCH  31  32
ENDBRANCH  24  26
ENDBRANCH  23  24
ENDBRANCH  22  23
ENDBRANCH  21  22
ENDBRANCH   1  21
TORSDOF 21
ENDMDL
MODEL 3
REMARK VINA RESULT:     -10.1      1.858      2.488
REMARK SMILES NC(=O)CC[C@H](C(=O)OCCOCCOC(=O)c1ccc(-c2c3nc(c(-c4cc(S(=O)(=O)[O-])ccc4F)c4ccc([nH]4)c(-c4cc(S(=O)(=O)[O-])ccc4F)c4nc(c(-c5cc(S(=O)(=O)[O-])ccc5F)c5ccc2[nH]5)C=C4)C=C3)cc1)N1CCOC1=O
REMARK SMILES IDX 12 1 11 2 10 3 9 4 7 5 8 6 6 7 5 8 4 9 2 10 1 11 3 14 81 15
REMARK SMILES IDX 82 16 85 17 83 18 84 19 86 20 13 21 14 22 15 23 16 24 17 25
REMARK SMILES IDX 18 26 19 27 80 28 20 29 79 30 21 31 22 32 23 33 73 34 24 35
REMARK SMILES IDX 78 36 72 37 74 38 25 39 77 40 71 41 70 42 26 44 58 45 38 46
REMARK SMILES IDX 57 47 39 48 42 49 56 50 75 51 40 52 41 53 55 55 76 56 43 57
REMARK SMILES IDX 27 58 28 59 36 60 29 61 35 62 37 63 34 64 30 65 31 66 32 67
REMARK SMILES IDX 33 68 59 69 60 70 68 71 61 72 67 73 69 74 66 75 62 76 63 77
REMARK SMILES IDX 64 78 65 79 44 80 45 81 53 82 46 83 52 84 54 85 51 86 47 87
REMARK SMILES IDX 48 88 49 89 50 90
REMARK H PARENT 1 12 1 13 74 43 42 54
REMARK Flexibility Score: inf
ROOT
ATOM      1  O   UNL A   1      35.432  21.728  25.900  1.00  0.00    -0.374 OA
ENDROOT
BRANCH   1   2
ATOM      2  C   UNL A   1      35.401  23.069  25.419  1.00  0.00     0.202 C 
BRANCH   2   3
ATOM      3  C   UNL A   1      34.178  23.516  24.609  1.00  0.00     0.261 C 
BRANCH   3   4
ATOM      4  O   UNL A   1      34.132  24.936  24.391  1.00  0.00    -0.462 OA
BRANCH   4   5
ATOM      5  C   UNL A   1      33.149  25.589  25.073  1.00  0.00     0.329 C 
ATOM      6  O   UNL A   1      33.305  26.201  26.125  1.00  0.00    -0.250 OA
BRANCH   5   7
ATOM      7  C   UNL A   1      31.785  25.513  24.360  1.00  0.00     0.199 C 
BRANCH   7   8
ATOM      8  C   UNL A   1      30.663  24.887  25.226  1.00  0.00     0.047 C 
BRANCH   8   9
ATOM      9  C   UNL A   1      30.664  23.367  25.411  1.00  0.00     0.102 C 
BRANCH   9  10
ATOM     10  C   UNL A   1      30.733  22.950  26.858  1.00  0.00     0.217 C 
ATOM     11  N   UNL A   1      31.956  22.535  27.284  1.00  0.00    -0.370 N 
ATOM     12  H   UNL A   1      32.082  22.246  28.218  1.00  0.00     0.159 HD
ATOM     13  H   UNL A   1      32.717  22.521  26.659  1.00  0.00     0.159 HD
ATOM     14  O   UNL A   1      29.777  23.029  27.622  1.00  0.00    -0.275 OA
ENDBRANCH   9  10
ENDBRANCH   8   9
ENDBRANCH   7   8
BRANCH   7  15
ATOM     15  N   UNL A   1      31.372  26.719  23.648  1.00  0.00    -0.291 N 
ATOM     16  C   UNL A   1      30.651  27.778  24.289  1.00  0.00     0.165 C 
ATOM     17  C   UNL A   1      31.235  26.845  22.282  1.00  0.00     0.410 C 
ATOM     18  C   UNL A   1      30.592  28.813  23.198  1.00  0.00     0.256 C 
ATOM     19  O   UNL A   1      30.652  28.049  21.989  1.00  0.00    -0.448 OA
ATOM     20  O   UNL A   1      31.559  26.036  21.435  1.00  0.00    -0.224 OA
ENDBRANCH   7  15
ENDBRANCH   5   7
ENDBRANCH   4   5
ENDBRANCH   3   4
ENDBRANCH   2   3
ENDBRANCH   1   2
BRANCH   1  21
ATOM     21  C   UNL A   1      35.840  20.703  25.001  1.00  0.00     0.202 C 
BRANCH  21  22
ATOM     22  C   UNL A   1      37.302  20.241  25.041  1.00  0.00     0.261 C 
BRANCH  22  23
ATOM     23  O   UNL A   1      38.232  21.337  25.102  1.00  0.00    -0.460 OA
BRANCH  23  24
ATOM     24  C   UNL A   1      39.253  21.152  25.978  1.00  0.00     0.338 C 
ATOM     25  O   UNL A   1      39.909  20.135  26.130  1.00  0.00    -0.246 OA
BRANCH  24  26
ATOM     26  C   UNL A   1      39.615  22.435  26.610  1.00  0.00     0.060 A 
ATOM     27  C   UNL A   1      38.911  23.579  26.207  1.00  0.00     0.016 A 
ATOM     28  C   UNL A   1      40.677  22.535  27.507  1.00  0.00     0.016 A 
ATOM     29  C   UNL A   1      39.311  24.838  26.650  1.00  0.00     0.010 A 
ATOM     30  C   UNL A   1      41.081  23.801  27.945  1.00  0.00     0.010 A 
ATOM     31  C   UNL A   1      40.429  24.961  27.484  1.00  0.00    -0.014 A 
BRANCH  31  32
ATOM     32  C   UNL A   1      41.030  26.295  27.730  1.00  0.00     0.031 A 
ATOM     33  C   UNL A   1      42.405  26.577  27.181  1.00  0.00     0.074 A 
ATOM     34  C   UNL A   1      40.367  27.243  28.420  1.00  0.00     0.049 A 
ATOM     35  N   UNL A   1      43.176  27.615  27.364  1.00  0.00    -0.248 NA
ATOM     36  C   UNL A   1      42.989  25.540  26.313  1.00  0.00     0.031 C 
ATOM     37  C   UNL A   1      39.006  27.112  28.938  1.00  0.00     0.029 A 
ATOM     38  N   UNL A   1      40.757  28.498  28.814  1.00  0.00    -0.354 N 
ATOM     39  C   UNL A   1      44.346  27.349  26.658  1.00  0.00     0.074 A 
ATOM     40  C   UNL A   1      44.188  26.041  26.060  1.00  0.00     0.031 C 
ATOM     41  C   UNL A   1      38.680  28.239  29.595  1.00  0.00     0.029 A 
ATOM     42  C   UNL A   1      39.825  29.147  29.592  1.00  0.00     0.049 A 
ATOM     43  H   UNL A   1      41.621  28.898  28.564  1.00  0.00     0.167 HD
ATOM     44  C   UNL A   1      45.447  28.126  26.526  1.00  0.00     0.034 A 
ATOM     45  C   UNL A   1      39.905  30.320  30.255  1.00  0.00     0.034 A 
ATOM     46  C   UNL A   1      45.580  29.432  27.121  1.00  0.00     0.049 A 
ATOM     47  C   UNL A   1      41.185  31.125  30.167  1.00  0.00     0.074 A 
ATOM     48  C   UNL A   1      46.641  30.316  27.021  1.00  0.00     0.029 A 
ATOM     49  N   UNL A   1      44.634  30.038  27.936  1.00  0.00    -0.354 N 
ATOM     50  N   UNL A   1      42.283  30.863  29.494  1.00  0.00    -0.248 NA
ATOM     51  C   UNL A   1      41.235  32.385  30.922  1.00  0.00     0.031 C 
ATOM     52  C   UNL A   1      46.376  31.411  27.848  1.00  0.00     0.029 A 
ATOM     53  C   UNL A   1      45.104  31.263  28.379  1.00  0.00     0.049 A 
ATOM     54  H   UNL A   1      43.757  29.653  28.164  1.00  0.00     0.167 HD
ATOM     55  C   UNL A   1      43.126  31.953  29.705  1.00  0.00     0.074 A 
ATOM     56  C   UNL A   1      42.413  32.872  30.563  1.00  0.00     0.031 C 
ATOM     57  C   UNL A   1      44.375  32.178  29.222  1.00  0.00     0.034 A 
BRANCH  44  58
ATOM     58  C   UNL A   1      46.623  27.568  25.761  1.00  0.00     0.023 A 
ATOM     59  C   UNL A   1      46.947  27.997  24.464  1.00  0.00     0.031 A 
ATOM     60  C   UNL A   1      47.448  26.599  26.361  1.00  0.00     0.131 A 
ATOM     61  C   UNL A   1      48.041  27.428  23.792  1.00  0.00     0.055 A 
ATOM     62  C   UNL A   1      48.579  26.093  25.717  1.00  0.00     0.041 A 
ATOM     63  F   UNL A   1      47.171  26.130  27.588  1.00  0.00    -0.206 F 
ATOM     64  C   UNL A   1      48.876  26.501  24.421  1.00  0.00     0.022 A 
BRANCH  61  65
ATOM     65  S   UNL A   1      48.294  27.831  22.042  1.00  0.00     0.124 S 
ATOM     66  O   UNL A   1      49.589  28.506  22.080  1.00  0.00    -0.237 OA
ATOM     67  O   UNL A   1      48.277  26.517  21.411  1.00  0.00    -0.237 OA
ATOM     68  O   UNL A   1      47.158  28.693  21.721  1.00  0.00    -0.744 OA
ENDBRANCH  61  65
ENDBRANCH  44  58
BRANCH  45  69
ATOM     69  C   UNL A   1      38.775  30.800  31.107  1.00  0.00     0.023 A 
ATOM     70  C   UNL A   1      37.765  31.615  30.571  1.00  0.00     0.031 A 
ATOM     71  C   UNL A   1      38.742  30.537  32.489  1.00  0.00     0.131 A 
ATOM     72  C   UNL A   1      36.814  32.201  31.421  1.00  0.00     0.055 A 
ATOM     73  C   UNL A   1      37.747  31.061  33.318  1.00  0.00     0.041 A 
ATOM     74  F   UNL A   1      39.684  29.770  33.059  1.00  0.00    -0.206 F 
ATOM     75  C   UNL A   1      36.787  31.917  32.788  1.00  0.00     0.022 A 
BRANCH  72  76
ATOM     76  S   UNL A   1      35.705  33.462  30.734  1.00  0.00     0.124 S 
ATOM     77  O   UNL A   1      36.273  33.660  29.406  1.00  0.00    -0.237 OA
ATOM     78  O   UNL A   1      34.412  32.788  30.787  1.00  0.00    -0.237 OA
ATOM     79  O   UNL A   1      35.860  34.587  31.655  1.00  0.00    -0.744 OA
ENDBRANCH  72  76
ENDBRANCH  45  69
BRANCH  57  80
ATOM     80  C   UNL A   1      45.018  33.509  29.537  1.00  0.00     0.023 A 
ATOM     81  C   UNL A   1      44.940  34.608  28.666  1.00  0.00     0.031 A 
ATOM     82  C   UNL A   1      45.706  33.679  30.754  1.00  0.00     0.131 A 
ATOM     83  C   UNL A   1      45.578  35.813  29.003  1.00  0.00     0.055 A 
ATOM     84  C   UNL A   1      46.279  34.897  31.113  1.00  0.00     0.041 A 
ATOM     85  F   UNL A   1      45.816  32.661  31.624  1.00  0.00    -0.206 F 
ATOM     86  C   UNL A   1      46.227  35.970  30.230  1.00  0.00     0.022 A 
BRANCH  83  87
ATOM     87  S   UNL A   1      45.619  37.152  27.780  1.00  0.00     0.124 S 
ATOM     88  O   UNL A   1      46.908  37.777  28.059  1.00  0.00    -0.237 OA
ATOM     89  O   UNL A   1      45.523  36.425  26.517  1.00  0.00    -0.237 OA
ATOM     90  O   UNL A   1      44.450  37.962  28.117  1.00  0.00    -0.744 OA
ENDBRANCH  83  87
ENDBRANCH  57  80
ENDBRANCH  31  32
ENDBRANCH  24  26
ENDBRANCH  23  24
ENDBRANCH  22  23
ENDBRANCH  21  22
ENDBRANCH   1  21
TORSDOF 21
ENDMDL
