MODEL 1
REMARK VINA RESULT:     -11.9      0.000      0.000
REMARK SMILES O=Cc1ccc2c(c1)C=C(C(=O)OCCOCCOC(=O)c1ccc(-c3c4nc(c(-c5cc(S(=O)(=O)[O-])ccc5F)c5ccc([nH]5)c(-c5cc(S(=O)(=O)[O-])ccc5F)c5nc(c(-c6cc(S(=O)(=O)[O-])ccc6F)c6ccc3[nH]6)C=C5)C=C4)cc1)[C@H](C(F)(F)F)O2
REMARK SMILES IDX 17 1 16 2 15 3 14 4 13 5 11 6 12 7 10 8 3 9 4 10 8 11 5 12
REMARK SMILES IDX 7 13 6 14 9 15 90 16 85 17 2 18 1 19 86 20 87 21 88 22 89 23
REMARK SMILES IDX 18 24 19 25 20 26 21 27 22 28 23 29 84 30 24 31 83 32 25 33
REMARK SMILES IDX 26 34 27 35 77 36 28 37 82 38 76 39 78 40 29 41 81 42 75 43
REMARK SMILES IDX 74 44 30 46 62 47 42 48 61 49 43 50 46 51 60 52 79 53 44 54
REMARK SMILES IDX 45 55 59 57 80 58 47 59 31 60 32 61 40 62 33 63 39 64 41 65
REMARK SMILES IDX 38 66 34 67 35 68 36 69 37 70 63 71 64 72 72 73 65 74 71 75
REMARK SMILES IDX 73 76 70 77 66 78 67 79 68 80 69 81 48 82 49 83 57 84 50 85
REMARK SMILES IDX 56 86 58 87 55 88 51 89 52 90 53 91 54 92
REMARK H PARENT 78 45 46 56
REMARK Flexibility Score: inf
ROOT
ATOM      1  C   UNL A   1      36.165  20.700  25.097  1.00  0.00     0.202 C 
ENDROOT
BRANCH   1   2
ATOM      2  O   UNL A   1      35.783  21.380  26.289  1.00  0.00    -0.374 OA
BRANCH   2   3
ATOM      3  C   UNL A   1      35.374  22.742  26.204  1.00  0.00     0.202 C 
BRANCH   3   4
ATOM      4  C   UNL A   1      34.089  23.159  26.927  1.00  0.00     0.261 C 
BRANCH   4   5
ATOM      5  O   UNL A   1      33.072  23.602  26.016  1.00  0.00    -0.460 OA
BRANCH   5   6
ATOM      6  C   UNL A   1      32.023  22.756  25.883  1.00  0.00     0.338 C 
ATOM      7  O   UNL A   1      30.866  22.975  26.202  1.00  0.00    -0.246 OA
BRANCH   6   8
ATOM      8  C   UNL A   1      32.427  21.533  25.168  1.00  0.00     0.087 C 
ATOM      9  C   UNL A   1      32.985  16.771  24.771  1.00  0.00     0.015 A 
ATOM     10  C   UNL A   1      32.844  16.875  23.383  1.00  0.00     0.015 A 
ATOM     11  C   UNL A   1      32.920  17.908  25.587  1.00  0.00     0.023 A 
ATOM     12  C   UNL A   1      32.644  18.125  22.800  1.00  0.00     0.048 A 
ATOM     13  C   UNL A   1      32.707  19.161  25.003  1.00  0.00     0.018 A 
ATOM     14  C   UNL A   1      32.589  19.258  23.608  1.00  0.00     0.128 A 
ATOM     15  C   UNL A   1      32.470  20.355  25.815  1.00  0.00     0.027 C 
ATOM     16  O   UNL A   1      32.339  20.446  22.971  1.00  0.00    -0.475 OA
ATOM     17  C   UNL A   1      32.790  21.619  23.701  1.00  0.00     0.316 C 
BRANCH   9  18
ATOM     18  C   UNL A   1      33.163  15.441  25.388  1.00  0.00     0.260 C 
ATOM     19  O   UNL A   1      34.214  14.818  25.288  1.00  0.00    -0.298 OA
ENDBRANCH   9  18
BRANCH  17  20
ATOM     20  C   UNL A   1      32.389  22.872  22.903  1.00  0.00     0.430 C 
ATOM     21  F   UNL A   1      33.031  23.974  23.357  1.00  0.00    -0.167 F 
ATOM     22  F   UNL A   1      32.772  22.733  21.604  1.00  0.00    -0.167 F 
ATOM     23  F   UNL A   1      31.062  23.102  22.895  1.00  0.00    -0.167 F 
ENDBRANCH  17  20
ENDBRANCH   6   8
ENDBRANCH   5   6
ENDBRANCH   4   5
ENDBRANCH   3   4
ENDBRANCH   2   3
ENDBRANCH   1   2
BRANCH   1  24
ATOM     24  C   UNL A   1      37.567  20.083  24.992  1.00  0.00     0.261 C 
BRANCH  24  25
ATOM     25  O   UNL A   1      38.631  21.040  25.081  1.00  0.00    -0.460 OA
BRANCH  25  26
ATOM     26  C   UNL A   1      39.508  20.782  26.087  1.00  0.00     0.338 C 
ATOM     27  O   UNL A   1      40.071  19.723  26.311  1.00  0.00    -0.246 OA
BRANCH  26  28
ATOM     28  C   UNL A   1      39.863  22.027  26.791  1.00  0.00     0.060 A 
ATOM     29  C   UNL A   1      39.191  23.192  26.403  1.00  0.00     0.016 A 
ATOM     30  C   UNL A   1      40.901  22.077  27.722  1.00  0.00     0.016 A 
ATOM     31  C   UNL A   1      39.602  24.427  26.891  1.00  0.00     0.010 A 
ATOM     32  C   UNL A   1      41.315  23.321  28.211  1.00  0.00     0.010 A 
ATOM     33  C   UNL A   1      40.700  24.504  27.757  1.00  0.00    -0.014 A 
BRANCH  33  34
ATOM     34  C   UNL A   1      41.298  25.835  28.031  1.00  0.00     0.031 A 
ATOM     35  C   UNL A   1      42.675  26.136  27.502  1.00  0.00     0.074 A 
ATOM     36  C   UNL A   1      40.596  26.781  28.677  1.00  0.00     0.049 A 
ATOM     37  N   UNL A   1      43.384  27.230  27.601  1.00  0.00    -0.248 NA
ATOM     38  C   UNL A   1      43.345  25.050  26.769  1.00  0.00     0.031 C 
ATOM     39  C   UNL A   1      39.240  26.612  29.200  1.00  0.00     0.029 A 
ATOM     40  N   UNL A   1      40.924  28.072  29.003  1.00  0.00    -0.354 N 
ATOM     41  C   UNL A   1      44.588  26.963  26.956  1.00  0.00     0.074 A 
ATOM     42  C   UNL A   1      44.526  25.588  26.510  1.00  0.00     0.031 C 
ATOM     43  C   UNL A   1      38.854  27.759  29.783  1.00  0.00     0.029 A 
ATOM     44  C   UNL A   1      39.946  28.728  29.711  1.00  0.00     0.049 A 
ATOM     45  H   UNL A   1      41.780  28.490  28.753  1.00  0.00     0.167 HD
ATOM     46  C   UNL A   1      45.640  27.793  26.748  1.00  0.00     0.034 A 
ATOM     47  C   UNL A   1      39.940  29.960  30.257  1.00  0.00     0.034 A 
ATOM     48  C   UNL A   1      45.678  29.162  27.205  1.00  0.00     0.049 A 
ATOM     49  C   UNL A   1      41.144  30.848  30.065  1.00  0.00     0.074 A 
ATOM     50  C   UNL A   1      46.676  30.104  27.020  1.00  0.00     0.029 A 
ATOM     51  N   UNL A   1      44.685  29.782  27.953  1.00  0.00    -0.354 N 
ATOM     52  N   UNL A   1      42.267  30.595  29.430  1.00  0.00    -0.248 NA
ATOM     53  C   UNL A   1      41.072  32.194  30.646  1.00  0.00     0.031 C 
ATOM     54  C   UNL A   1      46.328  31.256  27.732  1.00  0.00     0.029 A 
ATOM     55  C   UNL A   1      45.066  31.076  28.277  1.00  0.00     0.049 A 
ATOM     56  H   UNL A   1      43.834  29.363  28.217  1.00  0.00     0.167 HD
ATOM     57  C   UNL A   1      43.023  31.763  29.512  1.00  0.00     0.074 A 
ATOM     58  C   UNL A   1      42.217  32.723  30.241  1.00  0.00     0.031 C 
ATOM     59  C   UNL A   1      44.264  32.021  29.023  1.00  0.00     0.034 A 
BRANCH  46  60
ATOM     60  C   UNL A   1      46.855  27.216  26.056  1.00  0.00     0.023 A 
ATOM     61  C   UNL A   1      47.843  26.495  26.752  1.00  0.00     0.031 A 
ATOM     62  C   UNL A   1      47.049  27.428  24.679  1.00  0.00     0.131 A 
ATOM     63  C   UNL A   1      49.013  26.091  26.090  1.00  0.00     0.055 A 
ATOM     64  C   UNL A   1      48.172  26.941  24.007  1.00  0.00     0.041 A 
ATOM     65  F   UNL A   1      46.157  28.130  23.962  1.00  0.00    -0.206 F 
ATOM     66  C   UNL A   1      49.171  26.284  24.716  1.00  0.00     0.022 A 
BRANCH  63  67
ATOM     67  S   UNL A   1      50.398  25.466  27.082  1.00  0.00     0.124 S 
ATOM     68  O   UNL A   1      51.398  25.195  26.052  1.00  0.00    -0.237 OA
ATOM     69  O   UNL A   1      50.681  26.587  27.969  1.00  0.00    -0.237 OA
ATOM     70  O   UNL A   1      49.847  24.278  27.731  1.00  0.00    -0.744 OA
ENDBRANCH  63  67
ENDBRANCH  46  60
BRANCH  47  71
ATOM     71  C   UNL A   1      38.775  30.409  31.073  1.00  0.00     0.023 A 
ATOM     72  C   UNL A   1      37.683  31.075  30.495  1.00  0.00     0.031 A 
ATOM     73  C   UNL A   1      38.757  30.199  32.464  1.00  0.00     0.131 A 
ATOM     74  C   UNL A   1      36.638  31.541  31.309  1.00  0.00     0.055 A 
ATOM     75  C   UNL A   1      37.689  30.613  33.261  1.00  0.00     0.041 A 
ATOM     76  F   UNL A   1      39.775  29.567  33.070  1.00  0.00    -0.206 F 
ATOM     77  C   UNL A   1      36.626  31.299  32.685  1.00  0.00     0.022 A 
BRANCH  74  78
ATOM     78  S   UNL A   1      35.324  32.537  30.554  1.00  0.00     0.124 S 
ATOM     79  O   UNL A   1      36.012  33.798  30.304  1.00  0.00    -0.237 OA
ATOM     80  O   UNL A   1      34.983  31.745  29.376  1.00  0.00    -0.237 OA
ATOM     81  O   UNL A   1      34.294  32.582  31.590  1.00  0.00    -0.744 OA
ENDBRANCH  74  78
ENDBRANCH  47  71
BRANCH  59  82
ATOM     82  C   UNL A   1      44.808  33.418  29.225  1.00  0.00     0.023 A 
ATOM     83  C   UNL A   1      44.396  34.500  28.427  1.00  0.00     0.031 A 
ATOM     84  C   UNL A   1      45.774  33.664  30.218  1.00  0.00     0.131 A 
ATOM     85  C   UNL A   1      45.000  35.756  28.585  1.00  0.00     0.055 A 
ATOM     86  C   UNL A   1      46.314  34.935  30.423  1.00  0.00     0.041 A 
ATOM     87  F   UNL A   1      46.212  32.671  31.009  1.00  0.00    -0.206 F 
ATOM     88  C   UNL A   1      45.941  35.986  29.592  1.00  0.00     0.022 A 
BRANCH  85  89
ATOM     89  S   UNL A   1      44.637  37.056  27.372  1.00  0.00     0.124 S 
ATOM     90  O   UNL A   1      45.926  37.217  26.707  1.00  0.00    -0.237 OA
ATOM     91  O   UNL A   1      43.579  36.447  26.571  1.00  0.00    -0.237 OA
ATOM     92  O   UNL A   1      44.219  38.188  28.196  1.00  0.00    -0.744 OA
ENDBRANCH  85  89
ENDBRANCH  59  82
ENDBRANCH  33  34
ENDBRANCH  26  28
ENDBRANCH  25  26
ENDBRANCH  24  25
ENDBRANCH   1  24
TORSDOF 19
ENDMDL
MODEL 2
REMARK VINA RESULT:     -11.8      2.184      4.073
REMARK SMILES O=Cc1ccc2c(c1)C=C(C(=O)OCCOCCOC(=O)c1ccc(-c3c4nc(c(-c5cc(S(=O)(=O)[O-])ccc5F)c5ccc([nH]5)c(-c5cc(S(=O)(=O)[O-])ccc5F)c5nc(c(-c6cc(S(=O)(=O)[O-])ccc6F)c6ccc3[nH]6)C=C5)C=C4)cc1)[C@H](C(F)(F)F)O2
REMARK SMILES IDX 17 1 16 2 15 3 14 4 13 5 11 6 12 7 10 8 3 9 4 10 8 11 5 12
REMARK SMILES IDX 7 13 6 14 9 15 90 16 85 17 2 18 1 19 86 20 87 21 88 22 89 23
REMARK SMILES IDX 18 24 19 25 20 26 21 27 22 28 23 29 84 30 24 31 83 32 25 33
REMARK SMILES IDX 26 34 27 35 77 36 28 37 82 38 76 39 78 40 29 41 81 42 75 43
REMARK SMILES IDX 74 44 30 46 62 47 42 48 61 49 43 50 46 51 60 52 79 53 44 54
REMARK SMILES IDX 45 55 59 57 80 58 47 59 31 60 32 61 40 62 33 63 39 64 41 65
REMARK SMILES IDX 38 66 34 67 35 68 36 69 37 70 63 71 64 72 72 73 65 74 71 75
REMARK SMILES IDX 73 76 70 77 66 78 67 79 68 80 69 81 48 82 49 83 57 84 50 85
REMARK SMILES IDX 56 86 58 87 55 88 51 89 52 90 53 91 54 92
REMARK H PARENT 78 45 46 56
REMARK Flexibility Score: inf
ROOT
ATOM      1  C   UNL A   1      35.666  21.034  24.748  1.00  0.00     0.202 C 
ENDROOT
BRANCH   1   2
ATOM      2  O   UNL A   1      34.479  20.370  25.172  1.00  0.00    -0.374 OA
BRANCH   2   3
ATOM      3  C   UNL A   1      33.232  21.048  25.058  1.00  0.00     0.202 C 
BRANCH   3   4
ATOM      4  C   UNL A   1      32.697  21.351  23.654  1.00  0.00     0.261 C 
BRANCH   4   5
ATOM      5  O   UNL A   1      32.257  22.710  23.522  1.00  0.00    -0.460 OA
BRANCH   5   6
ATOM      6  C   UNL A   1      33.125  23.528  22.881  1.00  0.00     0.338 C 
ATOM      7  O   UNL A   1      33.992  23.193  22.091  1.00  0.00    -0.246 OA
BRANCH   6   8
ATOM      8  C   UNL A   1      32.816  24.941  23.162  1.00  0.00     0.087 C 
ATOM      9  C   UNL A   1      30.058  28.872  22.894  1.00  0.00     0.015 A 
ATOM     10  C   UNL A   1      30.581  29.317  24.113  1.00  0.00     0.015 A 
ATOM     11  C   UNL A   1      30.479  27.661  22.330  1.00  0.00     0.023 A 
ATOM     12  C   UNL A   1      31.538  28.551  24.775  1.00  0.00     0.048 A 
ATOM     13  C   UNL A   1      31.431  26.886  23.000  1.00  0.00     0.018 A 
ATOM     14  C   UNL A   1      31.965  27.350  24.213  1.00  0.00     0.128 A 
ATOM     15  C   UNL A   1      31.786  25.543  22.543  1.00  0.00     0.027 C 
ATOM     16  O   UNL A   1      32.871  26.626  24.943  1.00  0.00    -0.475 OA
ATOM     17  C   UNL A   1      33.668  25.701  24.155  1.00  0.00     0.316 C 
BRANCH   9  18
ATOM     18  C   UNL A   1      29.019  29.671  22.212  1.00  0.00     0.260 C 
ATOM     19  O   UNL A   1      29.239  30.248  21.154  1.00  0.00    -0.298 OA
ENDBRANCH   9  18
BRANCH  17  20
ATOM     20  C   UNL A   1      34.587  24.918  25.108  1.00  0.00     0.430 C 
ATOM     21  F   UNL A   1      35.126  25.726  26.051  1.00  0.00    -0.167 F 
ATOM     22  F   UNL A   1      33.859  23.991  25.792  1.00  0.00    -0.167 F 
ATOM     23  F   UNL A   1      35.572  24.250  24.478  1.00  0.00    -0.167 F 
ENDBRANCH  17  20
ENDBRANCH   6   8
ENDBRANCH   5   6
ENDBRANCH   4   5
ENDBRANCH   3   4
ENDBRANCH   2   3
ENDBRANCH   1   2
BRANCH   1  24
ATOM     24  C   UNL A   1      37.037  20.442  25.108  1.00  0.00     0.261 C 
BRANCH  24  25
ATOM     25  O   UNL A   1      38.110  21.392  25.063  1.00  0.00    -0.460 OA
BRANCH  25  26
ATOM     26  C   UNL A   1      39.126  21.102  25.916  1.00  0.00     0.338 C 
ATOM     27  O   UNL A   1      39.746  20.053  25.984  1.00  0.00    -0.246 OA
BRANCH  26  28
ATOM     28  C   UNL A   1      39.542  22.310  26.650  1.00  0.00     0.060 A 
ATOM     29  C   UNL A   1      38.898  23.509  26.320  1.00  0.00     0.016 A 
ATOM     30  C   UNL A   1      40.606  22.295  27.553  1.00  0.00     0.016 A 
ATOM     31  C   UNL A   1      39.363  24.712  26.837  1.00  0.00     0.010 A 
ATOM     32  C   UNL A   1      41.073  23.508  28.071  1.00  0.00     0.010 A 
ATOM     33  C   UNL A   1      40.486  24.725  27.674  1.00  0.00    -0.014 A 
BRANCH  33  34
ATOM     34  C   UNL A   1      41.136  26.025  27.975  1.00  0.00     0.031 A 
ATOM     35  C   UNL A   1      42.528  26.279  27.461  1.00  0.00     0.074 A 
ATOM     36  C   UNL A   1      40.467  26.988  28.632  1.00  0.00     0.049 A 
ATOM     37  N   UNL A   1      43.279  27.341  27.584  1.00  0.00    -0.248 NA
ATOM     38  C   UNL A   1      43.159  25.179  26.714  1.00  0.00     0.031 C 
ATOM     39  C   UNL A   1      39.101  26.866  29.143  1.00  0.00     0.029 A 
ATOM     40  N   UNL A   1      40.845  28.259  28.982  1.00  0.00    -0.354 N 
ATOM     41  C   UNL A   1      44.477  27.037  26.943  1.00  0.00     0.074 A 
ATOM     42  C   UNL A   1      44.363  25.673  26.473  1.00  0.00     0.031 C 
ATOM     43  C   UNL A   1      38.758  28.017  29.742  1.00  0.00     0.029 A 
ATOM     44  C   UNL A   1      39.888  28.942  29.694  1.00  0.00     0.049 A 
ATOM     45  H   UNL A   1      41.719  28.647  28.745  1.00  0.00     0.167 HD
ATOM     46  C   UNL A   1      45.563  27.827  26.757  1.00  0.00     0.034 A 
ATOM     47  C   UNL A   1      39.928  30.164  30.261  1.00  0.00     0.034 A 
ATOM     48  C   UNL A   1      45.653  29.185  27.237  1.00  0.00     0.049 A 
ATOM     49  C   UNL A   1      41.168  31.006  30.093  1.00  0.00     0.074 A 
ATOM     50  C   UNL A   1      46.689  30.089  27.076  1.00  0.00     0.029 A 
ATOM     51  N   UNL A   1      44.680  29.833  27.989  1.00  0.00    -0.354 N 
ATOM     52  N   UNL A   1      42.285  30.718  29.462  1.00  0.00    -0.248 NA
ATOM     53  C   UNL A   1      41.146  32.343  30.697  1.00  0.00     0.031 C 
ATOM     54  C   UNL A   1      46.383  31.242  27.805  1.00  0.00     0.029 A 
ATOM     55  C   UNL A   1      45.110  31.105  28.337  1.00  0.00     0.049 A 
ATOM     56  H   UNL A   1      43.810  29.444  28.239  1.00  0.00     0.167 HD
ATOM     57  C   UNL A   1      43.087  31.853  29.570  1.00  0.00     0.074 A 
ATOM     58  C   UNL A   1      42.315  32.832  30.308  1.00  0.00     0.031 C 
ATOM     59  C   UNL A   1      44.341  32.068  29.094  1.00  0.00     0.034 A 
BRANCH  46  60
ATOM     60  C   UNL A   1      46.759  27.213  26.063  1.00  0.00     0.023 A 
ATOM     61  C   UNL A   1      47.761  26.522  26.769  1.00  0.00     0.031 A 
ATOM     62  C   UNL A   1      46.920  27.359  24.674  1.00  0.00     0.131 A 
ATOM     63  C   UNL A   1      48.914  26.082  26.099  1.00  0.00     0.055 A 
ATOM     64  C   UNL A   1      48.025  26.836  23.999  1.00  0.00     0.041 A 
ATOM     65  F   UNL A   1      46.013  28.031  23.947  1.00  0.00    -0.206 F 
ATOM     66  C   UNL A   1      49.039  26.209  24.714  1.00  0.00     0.022 A 
BRANCH  63  67
ATOM     67  S   UNL A   1      50.321  25.498  27.086  1.00  0.00     0.124 S 
ATOM     68  O   UNL A   1      50.549  26.636  27.974  1.00  0.00    -0.237 OA
ATOM     69  O   UNL A   1      49.789  24.294  27.711  1.00  0.00    -0.237 OA
ATOM     70  O   UNL A   1      51.369  25.277  26.091  1.00  0.00    -0.744 OA
ENDBRANCH  63  67
ENDBRANCH  46  60
BRANCH  47  71
ATOM     71  C   UNL A   1      38.776  30.646  31.077  1.00  0.00     0.023 A 
ATOM     72  C   UNL A   1      37.656  31.252  30.484  1.00  0.00     0.031 A 
ATOM     73  C   UNL A   1      38.797  30.530  32.479  1.00  0.00     0.131 A 
ATOM     74  C   UNL A   1      36.623  31.752  31.294  1.00  0.00     0.055 A 
ATOM     75  C   UNL A   1      37.742  30.979  33.275  1.00  0.00     0.041 A 
ATOM     76  F   UNL A   1      39.843  29.959  33.097  1.00  0.00    -0.206 F 
ATOM     77  C   UNL A   1      36.651  31.604  32.682  1.00  0.00     0.022 A 
BRANCH  74  78
ATOM     78  S   UNL A   1      35.270  32.671  30.510  1.00  0.00     0.124 S 
ATOM     79  O   UNL A   1      34.263  32.675  31.564  1.00  0.00    -0.237 OA
ATOM     80  O   UNL A   1      35.903  33.954  30.220  1.00  0.00    -0.237 OA
ATOM     81  O   UNL A   1      34.945  31.861  29.337  1.00  0.00    -0.744 OA
ENDBRANCH  74  78
ENDBRANCH  47  71
BRANCH  59  82
ATOM     82  C   UNL A   1      44.939  33.439  29.323  1.00  0.00     0.023 A 
ATOM     83  C   UNL A   1      44.755  34.494  28.412  1.00  0.00     0.031 A 
ATOM     84  C   UNL A   1      45.728  33.684  30.462  1.00  0.00     0.131 A 
ATOM     85  C   UNL A   1      45.410  35.718  28.617  1.00  0.00     0.055 A 
ATOM     86  C   UNL A   1      46.313  34.929  30.700  1.00  0.00     0.041 A 
ATOM     87  F   UNL A   1      45.946  32.715  31.366  1.00  0.00    -0.206 F 
ATOM     88  C   UNL A   1      46.170  35.949  29.765  1.00  0.00     0.022 A 
BRANCH  85  89
ATOM     89  S   UNL A   1      45.362  36.962  27.297  1.00  0.00     0.124 S 
ATOM     90  O   UNL A   1      46.331  36.428  26.345  1.00  0.00    -0.237 OA
ATOM     91  O   UNL A   1      43.965  36.917  26.877  1.00  0.00    -0.237 OA
ATOM     92  O   UNL A   1      45.770  38.193  27.970  1.00  0.00    -0.744 OA
ENDBRANCH  85  89
ENDBRANCH  59  82
ENDBRANCH  33  34
ENDBRANCH  26  28
ENDBRANCH  25  26
ENDBRANCH  24  25
ENDBRANCH   1  24
TORSDOF 19
ENDMDL
MODEL 3
REMARK VINA RESULT:     -11.5      4.760     10.007
REMARK SMILES O=Cc1ccc2c(c1)C=C(C(=O)OCCOCCOC(=O)c1ccc(-c3c4nc(c(-c5cc(S(=O)(=O)[O-])ccc5F)c5ccc([nH]5)c(-c5cc(S(=O)(=O)[O-])ccc5F)c5nc(c(-c6cc(S(=O)(=O)[O-])ccc6F)c6ccc3[nH]6)C=C5)C=C4)cc1)[C@H](C(F)(F)F)O2
REMARK SMILES IDX 17 1 16 2 15 3 14 4 13 5 11 6 12 7 10 8 3 9 4 10 8 11 5 12
REMARK SMILES IDX 7 13 6 14 9 15 90 16 85 17 2 18 1 19 86 20 87 21 88 22 89 23
REMARK SMILES IDX 18 24 19 25 20 26 21 27 22 28 23 29 84 30 24 31 83 32 25 33
REMARK SMILES IDX 26 34 27 35 77 36 28 37 82 38 76 39 78 40 29 41 81 42 75 43
REMARK SMILES IDX 74 44 30 46 62 47 42 48 61 49 43 50 46 51 60 52 79 53 44 54
REMARK SMILES IDX 45 55 59 57 80 58 47 59 31 60 32 61 40 62 33 63 39 64 41 65
REMARK SMILES IDX 38 66 34 67 35 68 36 69 37 70 63 71 64 72 72 73 65 74 71 75
REMARK SMILES IDX 73 76 70 77 66 78 67 79 68 80 69 81 48 82 49 83 57 84 50 85
REMARK SMILES IDX 56 86 58 87 55 88 51 89 52 90 53 91 54 92
REMARK H PARENT 78 45 46 56
REMARK Flexibility Score: inf
ROOT
ATOM      1  C   UNL A   1      30.865  31.186  25.473  1.00  0.00     0.202 C 
ENDROOT
BRANCH   1   2
ATOM      2  O   UNL A   1      31.506  29.936  25.239  1.00  0.00    -0.374 OA
BRANCH   2   3
ATOM      3  C   UNL A   1      30.752  28.870  24.670  1.00  0.00     0.202 C 
BRANCH   3   4
ATOM      4  C   UNL A   1      31.456  27.927  23.689  1.00  0.00     0.261 C 
BRANCH   4   5
ATOM      5  O   UNL A   1      31.780  26.663  24.287  1.00  0.00    -0.460 OA
BRANCH   5   6
ATOM      6  C   UNL A   1      33.051  26.246  24.077  1.00  0.00     0.338 C 
ATOM      7  O   UNL A   1      34.070  26.884  24.281  1.00  0.00    -0.246 OA
BRANCH   6   8
ATOM      8  C   UNL A   1      33.074  24.830  23.670  1.00  0.00     0.087 C 
ATOM      9  C   UNL A   1      32.761  20.106  24.525  1.00  0.00     0.015 A 
ATOM     10  C   UNL A   1      32.310  19.904  23.216  1.00  0.00     0.015 A 
ATOM     11  C   UNL A   1      33.074  21.391  24.986  1.00  0.00     0.023 A 
ATOM     12  C   UNL A   1      32.176  20.991  22.354  1.00  0.00     0.048 A 
ATOM     13  C   UNL A   1      32.928  22.484  24.126  1.00  0.00     0.018 A 
ATOM     14  C   UNL A   1      32.496  22.269  22.808  1.00  0.00     0.128 A 
ATOM     15  C   UNL A   1      33.083  23.860  24.600  1.00  0.00     0.027 C 
ATOM     16  O   UNL A   1      32.292  23.296  21.923  1.00  0.00    -0.475 OA
ATOM     17  C   UNL A   1      33.084  24.483  22.197  1.00  0.00     0.316 C 
BRANCH   9  18
ATOM     18  C   UNL A   1      32.869  18.955  25.444  1.00  0.00     0.260 C 
ATOM     19  O   UNL A   1      32.061  18.034  25.424  1.00  0.00    -0.298 OA
ENDBRANCH   9  18
BRANCH  17  20
ATOM     20  C   UNL A   1      32.706  25.566  21.170  1.00  0.00     0.430 C 
ATOM     21  F   UNL A   1      32.818  25.105  19.902  1.00  0.00    -0.167 F 
ATOM     22  F   UNL A   1      31.397  25.908  21.322  1.00  0.00    -0.167 F 
ATOM     23  F   UNL A   1      33.422  26.700  21.296  1.00  0.00    -0.167 F 
ENDBRANCH  17  20
ENDBRANCH   6   8
ENDBRANCH   5   6
ENDBRANCH   4   5
ENDBRANCH   3   4
ENDBRANCH   2   3
ENDBRANCH   1   2
BRANCH   1  24
ATOM     24  C   UNL A   1      31.399  32.121  26.567  1.00  0.00     0.261 C 
BRANCH  24  25
ATOM     25  O   UNL A   1      32.597  31.649  27.201  1.00  0.00    -0.460 OA
BRANCH  25  26
ATOM     26  C   UNL A   1      33.417  32.648  27.620  1.00  0.00     0.338 C 
ATOM     27  O   UNL A   1      33.095  33.795  27.883  1.00  0.00    -0.246 OA
BRANCH  26  28
ATOM     28  C   UNL A   1      34.760  32.119  27.917  1.00  0.00     0.060 A 
ATOM     29  C   UNL A   1      34.868  30.740  28.135  1.00  0.00     0.016 A 
ATOM     30  C   UNL A   1      35.861  32.959  28.090  1.00  0.00     0.016 A 
ATOM     31  C   UNL A   1      36.062  30.201  28.598  1.00  0.00     0.010 A 
ATOM     32  C   UNL A   1      37.062  32.414  28.558  1.00  0.00     0.010 A 
ATOM     33  C   UNL A   1      37.151  31.042  28.863  1.00  0.00    -0.014 A 
BRANCH  33  34
ATOM     34  C   UNL A   1      38.303  30.497  29.624  1.00  0.00     0.031 A 
ATOM     35  C   UNL A   1      38.481  30.902  31.063  1.00  0.00     0.074 A 
ATOM     36  C   UNL A   1      39.132  29.602  29.061  1.00  0.00     0.049 A 
ATOM     37  N   UNL A   1      39.397  30.538  31.922  1.00  0.00    -0.248 NA
ATOM     38  C   UNL A   1      37.496  31.853  31.601  1.00  0.00     0.031 C 
ATOM     39  C   UNL A   1      39.032  29.109  27.687  1.00  0.00     0.029 A 
ATOM     40  N   UNL A   1      40.221  28.945  29.575  1.00  0.00    -0.354 N 
ATOM     41  C   UNL A   1      39.109  31.224  33.098  1.00  0.00     0.074 A 
ATOM     42  C   UNL A   1      37.958  32.058  32.823  1.00  0.00     0.031 C 
ATOM     43  C   UNL A   1      40.022  28.229  27.468  1.00  0.00     0.029 A 
ATOM     44  C   UNL A   1      40.848  28.124  28.669  1.00  0.00     0.049 A 
ATOM     45  H   UNL A   1      40.525  29.052  30.506  1.00  0.00     0.167 HD
ATOM     46  C   UNL A   1      39.740  31.154  34.297  1.00  0.00     0.034 A 
ATOM     47  C   UNL A   1      41.972  27.391  28.787  1.00  0.00     0.034 A 
ATOM     48  C   UNL A   1      40.888  30.314  34.545  1.00  0.00     0.049 A 
ATOM     49  C   UNL A   1      42.694  27.371  30.112  1.00  0.00     0.074 A 
ATOM     50  C   UNL A   1      41.585  30.137  35.728  1.00  0.00     0.029 A 
ATOM     51  N   UNL A   1      41.521  29.524  33.593  1.00  0.00    -0.354 N 
ATOM     52  N   UNL A   1      42.398  28.002  31.226  1.00  0.00    -0.248 NA
ATOM     53  C   UNL A   1      43.891  26.526  30.200  1.00  0.00     0.031 C 
ATOM     54  C   UNL A   1      42.689  29.318  35.468  1.00  0.00     0.029 A 
ATOM     55  C   UNL A   1      42.626  28.896  34.149  1.00  0.00     0.049 A 
ATOM     56  H   UNL A   1      41.228  29.425  32.658  1.00  0.00     0.167 HD
ATOM     57  C   UNL A   1      43.357  27.606  32.156  1.00  0.00     0.074 A 
ATOM     58  C   UNL A   1      44.226  26.668  31.474  1.00  0.00     0.031 C 
ATOM     59  C   UNL A   1      43.501  27.977  33.455  1.00  0.00     0.034 A 
BRANCH  46  60
ATOM     60  C   UNL A   1      39.240  32.060  35.400  1.00  0.00     0.023 A 
ATOM     61  C   UNL A   1      39.648  33.402  35.511  1.00  0.00     0.031 A 
ATOM     62  C   UNL A   1      38.370  31.557  36.385  1.00  0.00     0.131 A 
ATOM     63  C   UNL A   1      39.258  34.164  36.623  1.00  0.00     0.055 A 
ATOM     64  C   UNL A   1      37.911  32.350  37.438  1.00  0.00     0.041 A 
ATOM     65  F   UNL A   1      37.964  30.278  36.351  1.00  0.00    -0.206 F 
ATOM     66  C   UNL A   1      38.369  33.656  37.573  1.00  0.00     0.022 A 
BRANCH  63  67
ATOM     67  S   UNL A   1      40.065  35.765  36.904  1.00  0.00     0.124 S 
ATOM     68  O   UNL A   1      39.676  36.504  35.704  1.00  0.00    -0.237 OA
ATOM     69  O   UNL A   1      39.459  36.208  38.153  1.00  0.00    -0.237 OA
ATOM     70  O   UNL A   1      41.484  35.425  36.982  1.00  0.00    -0.744 OA
ENDBRANCH  63  67
ENDBRANCH  46  60
BRANCH  47  71
ATOM     71  C   UNL A   1      42.508  26.649  27.608  1.00  0.00     0.023 A 
ATOM     72  C   UNL A   1      42.184  25.304  27.375  1.00  0.00     0.031 A 
ATOM     73  C   UNL A   1      43.384  27.282  26.707  1.00  0.00     0.131 A 
ATOM     74  C   UNL A   1      42.763  24.624  26.290  1.00  0.00     0.055 A 
ATOM     75  C   UNL A   1      43.912  26.618  25.599  1.00  0.00     0.041 A 
ATOM     76  F   UNL A   1      43.727  28.568  26.883  1.00  0.00    -0.206 F 
ATOM     77  C   UNL A   1      43.610  25.277  25.393  1.00  0.00     0.022 A 
BRANCH  74  78
ATOM     78  S   UNL A   1      42.451  22.847  26.110  1.00  0.00     0.124 S 
ATOM     79  O   UNL A   1      40.998  22.787  26.222  1.00  0.00    -0.237 OA
ATOM     80  O   UNL A   1      43.005  22.574  24.788  1.00  0.00    -0.237 OA
ATOM     81  O   UNL A   1      43.190  22.257  27.225  1.00  0.00    -0.744 OA
ENDBRANCH  74  78
ENDBRANCH  47  71
BRANCH  59  82
ATOM     82  C   UNL A   1      44.620  27.327  34.237  1.00  0.00     0.023 A 
ATOM     83  C   UNL A   1      44.455  26.090  34.887  1.00  0.00     0.031 A 
ATOM     84  C   UNL A   1      45.867  27.969  34.355  1.00  0.00     0.131 A 
ATOM     85  C   UNL A   1      45.489  25.574  35.682  1.00  0.00     0.055 A 
ATOM     86  C   UNL A   1      46.919  27.411  35.084  1.00  0.00     0.041 A 
ATOM     87  F   UNL A   1      46.085  29.154  33.762  1.00  0.00    -0.206 F 
ATOM     88  C   UNL A   1      46.726  26.215  35.767  1.00  0.00     0.022 A 
BRANCH  85  89
ATOM     89  S   UNL A   1      45.151  24.117  36.710  1.00  0.00     0.124 S 
ATOM     90  O   UNL A   1      44.273  23.335  35.846  1.00  0.00    -0.237 OA
ATOM     91  O   UNL A   1      46.486  23.570  36.925  1.00  0.00    -0.237 OA
ATOM     92  O   UNL A   1      44.511  24.678  37.899  1.00  0.00    -0.744 OA
ENDBRANCH  85  89
ENDBRANCH  59  82
ENDBRANCH  33  34
ENDBRANCH  26  28
ENDBRANCH  25  26
ENDBRANCH  24  25
ENDBRANCH   1  24
TORSDOF 19
ENDMDL
