MODEL 1
REMARK VINA RESULT:     -12.1      0.000      0.000
REMARK SMILES COc1ccc(NC(=O)N[C@@H]2C=C[C@H](C(=O)OCCOCCOC(=O)c3ccc(-c4c5nc(c(-c6cc(S(=O)(=O)[O-])ccc6F)c6ccc([nH]6)c(-c6cc(S(=O)(=O)[O-])ccc6F)c6nc(c(-c7cc(S(=O)(=O)[O-])ccc7F)c7ccc4[nH]7)C=C6)C=C5)cc3)C2)c(C)c1
REMARK SMILES IDX 20 1 19 2 18 3 17 4 15 5 16 6 14 7 11 8 12 9 89 10 13 11
REMARK SMILES IDX 10 12 7 13 8 14 9 16 6 18 3 19 4 20 92 21 5 22 90 23 91 24
REMARK SMILES IDX 2 25 1 26 21 27 22 28 23 29 24 30 25 31 26 32 27 33 88 34
REMARK SMILES IDX 28 35 87 36 29 37 30 38 31 39 81 40 32 41 86 42 80 43 82 44
REMARK SMILES IDX 33 45 85 46 79 47 78 48 34 50 66 51 46 52 65 53 47 54 50 55
REMARK SMILES IDX 64 56 83 57 48 58 49 59 63 61 84 62 51 63 35 64 36 65 44 66
REMARK SMILES IDX 37 67 43 68 45 69 42 70 38 71 39 72 40 73 41 74 67 75 68 76
REMARK SMILES IDX 76 77 69 78 75 79 77 80 74 81 70 82 71 83 72 84 73 85 52 86
REMARK SMILES IDX 53 87 61 88 54 89 60 90 62 91 59 92 55 93 56 94 57 95 58 96
REMARK H PARENT 7 15 10 17 82 49 50 60
REMARK Flexibility Score: inf
ROOT
ATOM      1  O   UNL A   1      36.971  20.989  24.602  1.00  0.00    -0.374 OA
ENDROOT
BRANCH   1   2
ATOM      2  C   UNL A   1      36.130  19.917  24.964  1.00  0.00     0.202 C 
BRANCH   2   3
ATOM      3  C   UNL A   1      34.798  20.465  24.703  1.00  0.00     0.261 C 
BRANCH   3   4
ATOM      4  O   UNL A   1      34.053  20.600  25.891  1.00  0.00    -0.463 OA
BRANCH   4   5
ATOM      5  C   UNL A   1      32.814  21.189  25.781  1.00  0.00     0.312 C 
ATOM      6  O   UNL A   1      31.751  20.683  25.452  1.00  0.00    -0.252 OA
BRANCH   5   7
ATOM      7  C   UNL A   1      33.033  22.705  26.172  1.00  0.00     0.124 C 
ATOM      8  C   UNL A   1      32.243  25.325  24.477  1.00  0.00     0.107 C 
ATOM      9  C   UNL A   1      34.067  25.519  25.033  1.00  0.00    -0.006 C 
ATOM     10  C   UNL A   1      31.385  23.756  25.458  1.00  0.00     0.048 C 
ATOM     11  C   UNL A   1      34.600  24.225  25.771  1.00  0.00    -0.014 C 
BRANCH   8  12
ATOM     12  N   UNL A   1      32.583  24.912  22.815  1.00  0.00    -0.332 N 
ATOM     13  N   UNL A   1      32.612  26.999  21.431  1.00  0.00    -0.308 N 
ATOM     14  C   UNL A   1      32.768  25.609  21.566  1.00  0.00     0.319 C 
ATOM     15  H   UNL A   1      32.668  27.393  20.530  1.00  0.00     0.171 HD
ATOM     16  O   UNL A   1      33.137  24.961  20.583  1.00  0.00    -0.248 OA
ATOM     17  H   UNL A   1      32.672  23.939  22.698  1.00  0.00     0.165 HD
BRANCH  13  18
ATOM     18  C   UNL A   1      32.383  27.843  22.511  1.00  0.00     0.046 A 
ATOM     19  C   UNL A   1      32.837  29.611  25.705  1.00  0.00     0.119 A 
ATOM     20  C   UNL A   1      34.258  29.243  24.680  1.00  0.00     0.048 A 
ATOM     21  C   UNL A   1      31.303  29.171  24.953  1.00  0.00     0.052 A 
ATOM     22  C   UNL A   1      33.656  28.426  22.917  1.00  0.00     0.030 A 
ATOM     23  C   UNL A   1      31.185  28.285  23.405  1.00  0.00    -0.024 A 
ATOM     24  C   UNL A   1      30.066  28.176  22.459  1.00  0.00     0.047 C 
BRANCH  19  25
ATOM     25  O   UNL A   1      32.816  30.399  26.812  1.00  0.00    -0.497 OA
ATOM     26  C   UNL A   1      33.891  30.166  27.723  1.00  0.00     0.278 C 
ENDBRANCH  19  25
ENDBRANCH  13  18
ENDBRANCH   8  12
ENDBRANCH   5   7
ENDBRANCH   4   5
ENDBRANCH   3   4
ENDBRANCH   2   3
ENDBRANCH   1   2
BRANCH   1  27
ATOM     27  C   UNL A   1      38.157  21.047  25.332  1.00  0.00     0.202 C 
BRANCH  27  28
ATOM     28  C   UNL A   1      38.232  22.467  25.865  1.00  0.00     0.261 C 
BRANCH  28  29
ATOM     29  O   UNL A   1      39.301  22.489  26.879  1.00  0.00    -0.460 OA
BRANCH  29  30
ATOM     30  C   UNL A   1      40.355  23.356  26.706  1.00  0.00     0.338 C 
ATOM     31  O   UNL A   1      41.495  22.987  26.458  1.00  0.00    -0.246 OA
BRANCH  30  32
ATOM     32  C   UNL A   1      40.012  24.816  26.979  1.00  0.00     0.060 A 
ATOM     33  C   UNL A   1      40.594  25.849  26.210  1.00  0.00     0.016 A 
ATOM     34  C   UNL A   1      39.415  25.177  28.174  1.00  0.00     0.016 A 
ATOM     35  C   UNL A   1      40.833  27.144  26.753  1.00  0.00     0.010 A 
ATOM     36  C   UNL A   1      39.757  26.409  28.744  1.00  0.00     0.010 A 
ATOM     37  C   UNL A   1      40.559  27.387  28.091  1.00  0.00    -0.014 A 
BRANCH  37  38
ATOM     38  C   UNL A   1      40.999  28.576  28.934  1.00  0.00     0.031 A 
ATOM     39  C   UNL A   1      39.909  29.640  28.916  1.00  0.00     0.074 A 
ATOM     40  C   UNL A   1      42.011  28.517  29.892  1.00  0.00     0.049 A 
ATOM     41  N   UNL A   1      39.686  30.482  29.853  1.00  0.00    -0.248 NA
ATOM     42  C   UNL A   1      38.799  29.665  27.938  1.00  0.00     0.031 C 
ATOM     43  C   UNL A   1      42.388  29.370  31.068  1.00  0.00     0.029 A 
ATOM     44  N   UNL A   1      42.940  27.507  30.164  1.00  0.00    -0.354 N 
ATOM     45  C   UNL A   1      38.415  31.035  29.723  1.00  0.00     0.074 A 
ATOM     46  C   UNL A   1      37.872  30.421  28.546  1.00  0.00     0.031 C 
ATOM     47  C   UNL A   1      43.510  28.992  31.712  1.00  0.00     0.029 A 
ATOM     48  C   UNL A   1      44.083  28.044  30.820  1.00  0.00     0.049 A 
ATOM     49  H   UNL A   1      42.820  26.557  29.934  1.00  0.00     0.167 HD
ATOM     50  C   UNL A   1      38.012  31.929  30.680  1.00  0.00     0.034 A 
ATOM     51  C   UNL A   1      45.171  28.300  30.052  1.00  0.00     0.034 A 
ATOM     52  C   UNL A   1      39.217  32.325  31.435  1.00  0.00     0.049 A 
ATOM     53  C   UNL A   1      44.977  29.895  29.772  1.00  0.00     0.074 A 
ATOM     54  C   UNL A   1      39.695  32.125  32.713  1.00  0.00     0.029 A 
ATOM     55  N   UNL A   1      40.326  32.734  30.681  1.00  0.00    -0.354 N 
ATOM     56  N   UNL A   1      43.847  30.563  29.490  1.00  0.00    -0.248 NA
ATOM     57  C   UNL A   1      45.949  30.798  30.415  1.00  0.00     0.031 C 
ATOM     58  C   UNL A   1      41.142  32.194  32.629  1.00  0.00     0.029 A 
ATOM     59  C   UNL A   1      41.536  32.434  31.301  1.00  0.00     0.049 A 
ATOM     60  H   UNL A   1      40.258  33.184  29.808  1.00  0.00     0.167 HD
ATOM     61  C   UNL A   1      43.829  31.801  30.190  1.00  0.00     0.074 A 
ATOM     62  C   UNL A   1      45.214  31.892  30.681  1.00  0.00     0.031 C 
ATOM     63  C   UNL A   1      42.814  32.697  30.579  1.00  0.00     0.034 A 
BRANCH  50  64
ATOM     64  C   UNL A   1      36.607  32.460  31.000  1.00  0.00     0.023 A 
ATOM     65  C   UNL A   1      35.890  33.139  29.982  1.00  0.00     0.031 A 
ATOM     66  C   UNL A   1      35.933  32.411  32.243  1.00  0.00     0.131 A 
ATOM     67  C   UNL A   1      34.615  33.718  30.199  1.00  0.00     0.055 A 
ATOM     68  C   UNL A   1      34.654  32.976  32.458  1.00  0.00     0.041 A 
ATOM     69  F   UNL A   1      36.466  31.821  33.318  1.00  0.00    -0.206 F 
ATOM     70  C   UNL A   1      33.988  33.636  31.437  1.00  0.00     0.022 A 
BRANCH  67  71
ATOM     71  S   UNL A   1      33.786  34.583  28.830  1.00  0.00     0.124 S 
ATOM     72  O   UNL A   1      34.870  35.377  28.260  1.00  0.00    -0.237 OA
ATOM     73  O   UNL A   1      33.301  33.476  28.014  1.00  0.00    -0.237 OA
ATOM     74  O   UNL A   1      32.738  35.360  29.493  1.00  0.00    -0.744 OA
ENDBRANCH  67  71
ENDBRANCH  50  64
BRANCH  51  75
ATOM     75  C   UNL A   1      45.304  26.950  29.300  1.00  0.00     0.023 A 
ATOM     76  C   UNL A   1      44.922  26.921  27.882  1.00  0.00     0.031 A 
ATOM     77  C   UNL A   1      46.241  25.989  29.683  1.00  0.00     0.131 A 
ATOM     78  C   UNL A   1      45.603  26.108  26.932  1.00  0.00     0.055 A 
ATOM     79  C   UNL A   1      46.869  25.154  28.731  1.00  0.00     0.041 A 
ATOM     80  F   UNL A   1      46.712  25.969  30.936  1.00  0.00    -0.206 F 
ATOM     81  C   UNL A   1      46.601  25.243  27.362  1.00  0.00     0.022 A 
BRANCH  78  82
ATOM     82  S   UNL A   1      45.435  26.383  25.109  1.00  0.00     0.124 S 
ATOM     83  O   UNL A   1      44.715  25.192  24.674  1.00  0.00    -0.237 OA
ATOM     84  O   UNL A   1      44.699  27.641  25.026  1.00  0.00    -0.237 OA
ATOM     85  O   UNL A   1      46.818  26.477  24.639  1.00  0.00    -0.744 OA
ENDBRANCH  78  82
ENDBRANCH  51  75
BRANCH  63  86
ATOM     86  C   UNL A   1      43.046  34.160  30.248  1.00  0.00     0.023 A 
ATOM     87  C   UNL A   1      42.881  34.586  28.937  1.00  0.00     0.031 A 
ATOM     88  C   UNL A   1      43.341  35.178  31.192  1.00  0.00     0.131 A 
ATOM     89  C   UNL A   1      43.179  35.885  28.558  1.00  0.00     0.055 A 
ATOM     90  C   UNL A   1      43.471  36.519  30.833  1.00  0.00     0.041 A 
ATOM     91  F   UNL A   1      43.506  34.944  32.501  1.00  0.00    -0.206 F 
ATOM     92  C   UNL A   1      43.434  36.875  29.495  1.00  0.00     0.022 A 
BRANCH  89  93
ATOM     93  S   UNL A   1      43.382  36.134  26.790  1.00  0.00     0.124 S 
ATOM     94  O   UNL A   1      44.837  36.081  26.657  1.00  0.00    -0.237 OA
ATOM     95  O   UNL A   1      42.658  34.998  26.227  1.00  0.00    -0.237 OA
ATOM     96  O   UNL A   1      42.776  37.441  26.563  1.00  0.00    -0.744 OA
ENDBRANCH  89  93
ENDBRANCH  63  86
ENDBRANCH  37  38
ENDBRANCH  30  32
ENDBRANCH  29  30
ENDBRANCH  28  29
ENDBRANCH  27  28
ENDBRANCH   1  27
TORSDOF 20
ENDMDL
MODEL 2
REMARK VINA RESULT:     -11.8      3.540      9.897
REMARK SMILES COc1ccc(NC(=O)N[C@@H]2C=C[C@H](C(=O)OCCOCCOC(=O)c3ccc(-c4c5nc(c(-c6cc(S(=O)(=O)[O-])ccc6F)c6ccc([nH]6)c(-c6cc(S(=O)(=O)[O-])ccc6F)c6nc(c(-c7cc(S(=O)(=O)[O-])ccc7F)c7ccc4[nH]7)C=C6)C=C5)cc3)C2)c(C)c1
REMARK SMILES IDX 20 1 19 2 18 3 17 4 15 5 16 6 14 7 11 8 12 9 89 10 13 11
REMARK SMILES IDX 10 12 7 13 8 14 9 16 6 18 3 19 4 20 92 21 5 22 90 23 91 24
REMARK SMILES IDX 2 25 1 26 21 27 22 28 23 29 24 30 25 31 26 32 27 33 88 34
REMARK SMILES IDX 28 35 87 36 29 37 30 38 31 39 81 40 32 41 86 42 80 43 82 44
REMARK SMILES IDX 33 45 85 46 79 47 78 48 34 50 66 51 46 52 65 53 47 54 50 55
REMARK SMILES IDX 64 56 83 57 48 58 49 59 63 61 84 62 51 63 35 64 36 65 44 66
REMARK SMILES IDX 37 67 43 68 45 69 42 70 38 71 39 72 40 73 41 74 67 75 68 76
REMARK SMILES IDX 76 77 69 78 75 79 77 80 74 81 70 82 71 83 72 84 73 85 52 86
REMARK SMILES IDX 53 87 61 88 54 89 60 90 62 91 59 92 55 93 56 94 57 95 58 96
REMARK H PARENT 7 15 10 17 82 49 50 60
REMARK Flexibility Score: inf
ROOT
ATOM      1  O   UNL A   1      33.243  34.536  29.560  1.00  0.00    -0.374 OA
ENDROOT
BRANCH   1   2
ATOM      2  C   UNL A   1      33.615  34.483  28.202  1.00  0.00     0.202 C 
BRANCH   2   3
ATOM      3  C   UNL A   1      32.481  33.783  27.596  1.00  0.00     0.261 C 
BRANCH   3   4
ATOM      4  O   UNL A   1      32.583  32.388  27.768  1.00  0.00    -0.463 OA
BRANCH   4   5
ATOM      5  C   UNL A   1      31.907  31.601  26.863  1.00  0.00     0.312 C 
ATOM      6  O   UNL A   1      31.048  31.927  26.056  1.00  0.00    -0.252 OA
BRANCH   5   7
ATOM      7  C   UNL A   1      32.469  30.139  27.075  1.00  0.00     0.124 C 
ATOM      8  C   UNL A   1      32.291  27.635  25.061  1.00  0.00     0.107 C 
ATOM      9  C   UNL A   1      31.709  27.037  26.786  1.00  0.00    -0.006 C 
ATOM     10  C   UNL A   1      33.145  29.479  25.221  1.00  0.00     0.048 C 
ATOM     11  C   UNL A   1      31.637  28.225  27.829  1.00  0.00    -0.014 C 
BRANCH   8  12
ATOM     12  N   UNL A   1      30.704  27.741  24.339  1.00  0.00    -0.332 N 
ATOM     13  N   UNL A   1      30.031  25.489  23.476  1.00  0.00    -0.308 N 
ATOM     14  C   UNL A   1      29.761  26.846  23.717  1.00  0.00     0.319 C 
ATOM     15  H   UNL A   1      29.373  24.961  22.969  1.00  0.00     0.171 HD
ATOM     16  O   UNL A   1      28.640  27.281  23.434  1.00  0.00    -0.248 OA
ATOM     17  H   UNL A   1      30.360  28.663  24.365  1.00  0.00     0.165 HD
BRANCH  13  18
ATOM     18  C   UNL A   1      31.185  24.857  23.924  1.00  0.00     0.046 A 
ATOM     19  C   UNL A   1      33.736  23.451  26.172  1.00  0.00     0.119 A 
ATOM     20  C   UNL A   1      32.006  23.372  26.627  1.00  0.00     0.048 A 
ATOM     21  C   UNL A   1      34.003  24.112  24.558  1.00  0.00     0.052 A 
ATOM     22  C   UNL A   1      30.850  24.070  25.105  1.00  0.00     0.030 A 
ATOM     23  C   UNL A   1      32.697  24.800  23.549  1.00  0.00    -0.024 A 
ATOM     24  C   UNL A   1      32.641  25.027  22.098  1.00  0.00     0.047 C 
BRANCH  19  25
ATOM     25  O   UNL A   1      34.770  22.833  26.800  1.00  0.00    -0.497 OA
ATOM     26  C   UNL A   1      35.218  21.636  26.161  1.00  0.00     0.278 C 
ENDBRANCH  19  25
ENDBRANCH  13  18
ENDBRANCH   8  12
ENDBRANCH   5   7
ENDBRANCH   4   5
ENDBRANCH   3   4
ENDBRANCH   2   3
ENDBRANCH   1   2
BRANCH   1  27
ATOM     27  C   UNL A   1      34.203  34.021  30.429  1.00  0.00     0.202 C 
BRANCH  27  28
ATOM     28  C   UNL A   1      35.389  33.659  29.551  1.00  0.00     0.261 C 
BRANCH  28  29
ATOM     29  O   UNL A   1      35.521  32.192  29.590  1.00  0.00    -0.460 OA
BRANCH  29  30
ATOM     30  C   UNL A   1      35.903  31.535  28.444  1.00  0.00     0.338 C 
ATOM     31  O   UNL A   1      35.480  31.820  27.333  1.00  0.00    -0.246 OA
BRANCH  30  32
ATOM     32  C   UNL A   1      36.804  30.329  28.689  1.00  0.00     0.060 A 
ATOM     33  C   UNL A   1      36.981  29.815  29.993  1.00  0.00     0.016 A 
ATOM     34  C   UNL A   1      37.717  29.939  27.725  1.00  0.00     0.016 A 
ATOM     35  C   UNL A   1      38.192  29.175  30.387  1.00  0.00     0.010 A 
ATOM     36  C   UNL A   1      38.947  29.419  28.144  1.00  0.00     0.010 A 
ATOM     37  C   UNL A   1      39.256  29.116  29.501  1.00  0.00    -0.014 A 
BRANCH  37  38
ATOM     38  C   UNL A   1      40.704  28.752  29.802  1.00  0.00     0.031 A 
ATOM     39  C   UNL A   1      40.976  27.329  29.332  1.00  0.00     0.074 A 
ATOM     40  C   UNL A   1      41.704  29.691  30.055  1.00  0.00     0.049 A 
ATOM     41  N   UNL A   1      42.113  26.884  28.951  1.00  0.00    -0.248 NA
ATOM     42  C   UNL A   1      39.914  26.354  29.002  1.00  0.00     0.031 C 
ATOM     43  C   UNL A   1      43.204  29.657  30.014  1.00  0.00     0.029 A 
ATOM     44  N   UNL A   1      41.613  31.069  30.282  1.00  0.00    -0.354 N 
ATOM     45  C   UNL A   1      41.960  25.705  28.226  1.00  0.00     0.074 A 
ATOM     46  C   UNL A   1      40.546  25.465  28.221  1.00  0.00     0.031 C 
ATOM     47  C   UNL A   1      43.813  30.793  30.411  1.00  0.00     0.029 A 
ATOM     48  C   UNL A   1      42.751  31.531  31.003  1.00  0.00     0.049 A 
ATOM     49  H   UNL A   1      40.868  31.639  29.986  1.00  0.00     0.167 HD
ATOM     50  C   UNL A   1      43.090  25.125  27.712  1.00  0.00     0.034 A 
ATOM     51  C   UNL A   1      42.608  31.695  32.341  1.00  0.00     0.034 A 
ATOM     52  C   UNL A   1      44.243  25.762  28.379  1.00  0.00     0.049 A 
ATOM     53  C   UNL A   1      43.229  30.290  32.888  1.00  0.00     0.074 A 
ATOM     54  C   UNL A   1      45.260  26.613  28.001  1.00  0.00     0.029 A 
ATOM     55  N   UNL A   1      44.203  25.828  29.779  1.00  0.00    -0.354 N 
ATOM     56  N   UNL A   1      43.063  29.053  32.392  1.00  0.00    -0.248 NA
ATOM     57  C   UNL A   1      44.513  30.375  33.608  1.00  0.00     0.031 C 
ATOM     58  C   UNL A   1      45.646  27.351  29.189  1.00  0.00     0.029 A 
ATOM     59  C   UNL A   1      44.861  26.947  30.283  1.00  0.00     0.049 A 
ATOM     60  H   UNL A   1      43.757  25.157  30.345  1.00  0.00     0.167 HD
ATOM     61  C   UNL A   1      44.296  28.346  32.432  1.00  0.00     0.074 A 
ATOM     62  C   UNL A   1      45.124  29.225  33.273  1.00  0.00     0.031 C 
ATOM     63  C   UNL A   1      44.812  27.228  31.747  1.00  0.00     0.034 A 
BRANCH  50  64
ATOM     64  C   UNL A   1      43.237  24.039  26.636  1.00  0.00     0.023 A 
ATOM     65  C   UNL A   1      42.580  22.797  26.833  1.00  0.00     0.031 A 
ATOM     66  C   UNL A   1      44.019  24.096  25.459  1.00  0.00     0.131 A 
ATOM     67  C   UNL A   1      42.706  21.714  25.929  1.00  0.00     0.055 A 
ATOM     68  C   UNL A   1      44.134  23.020  24.548  1.00  0.00     0.041 A 
ATOM     69  F   UNL A   1      44.716  25.185  25.121  1.00  0.00    -0.206 F 
ATOM     70  C   UNL A   1      43.479  21.820  24.780  1.00  0.00     0.022 A 
BRANCH  67  71
ATOM     71  S   UNL A   1      41.836  20.155  26.283  1.00  0.00     0.124 S 
ATOM     72  O   UNL A   1      42.287  19.845  27.635  1.00  0.00    -0.237 OA
ATOM     73  O   UNL A   1      40.437  20.544  26.144  1.00  0.00    -0.237 OA
ATOM     74  O   UNL A   1      42.322  19.242  25.247  1.00  0.00    -0.744 OA
ENDBRANCH  67  71
ENDBRANCH  50  64
BRANCH  51  75
ATOM     75  C   UNL A   1      41.304  32.534  32.380  1.00  0.00     0.023 A 
ATOM     76  C   UNL A   1      40.057  31.838  32.724  1.00  0.00     0.031 A 
ATOM     77  C   UNL A   1      41.321  33.899  32.670  1.00  0.00     0.131 A 
ATOM     78  C   UNL A   1      39.023  32.464  33.478  1.00  0.00     0.055 A 
ATOM     79  C   UNL A   1      40.262  34.515  33.374  1.00  0.00     0.041 A 
ATOM     80  F   UNL A   1      42.432  34.618  32.462  1.00  0.00    -0.206 F 
ATOM     81  C   UNL A   1      39.146  33.803  33.825  1.00  0.00     0.022 A 
BRANCH  78  82
ATOM     82  S   UNL A   1      37.671  31.490  34.283  1.00  0.00     0.124 S 
ATOM     83  O   UNL A   1      38.355  30.265  34.679  1.00  0.00    -0.237 OA
ATOM     84  O   UNL A   1      37.235  32.360  35.371  1.00  0.00    -0.237 OA
ATOM     85  O   UNL A   1      36.675  31.328  33.222  1.00  0.00    -0.744 OA
ENDBRANCH  78  82
ENDBRANCH  51  75
BRANCH  63  86
ATOM     86  C   UNL A   1      45.442  26.146  32.605  1.00  0.00     0.023 A 
ATOM     87  C   UNL A   1      44.615  25.247  33.264  1.00  0.00     0.031 A 
ATOM     88  C   UNL A   1      46.834  25.907  32.732  1.00  0.00     0.131 A 
ATOM     89  C   UNL A   1      45.128  24.306  34.142  1.00  0.00     0.055 A 
ATOM     90  C   UNL A   1      47.349  24.848  33.480  1.00  0.00     0.041 A 
ATOM     91  F   UNL A   1      47.769  26.662  32.140  1.00  0.00    -0.206 F 
ATOM     92  C   UNL A   1      46.491  24.062  34.231  1.00  0.00     0.022 A 
BRANCH  89  93
ATOM     93  S   UNL A   1      43.928  23.570  35.258  1.00  0.00     0.124 S 
ATOM     94  O   UNL A   1      42.671  24.060  34.692  1.00  0.00    -0.237 OA
ATOM     95  O   UNL A   1      44.176  22.142  35.091  1.00  0.00    -0.237 OA
ATOM     96  O   UNL A   1      44.291  24.124  36.557  1.00  0.00    -0.744 OA
ENDBRANCH  89  93
ENDBRANCH  63  86
ENDBRANCH  37  38
ENDBRANCH  30  32
ENDBRANCH  29  30
ENDBRANCH  28  29
ENDBRANCH  27  28
ENDBRANCH   1  27
TORSDOF 20
ENDMDL
MODEL 3
REMARK VINA RESULT:     -11.4      4.346     10.188
REMARK SMILES COc1ccc(NC(=O)N[C@@H]2C=C[C@H](C(=O)OCCOCCOC(=O)c3ccc(-c4c5nc(c(-c6cc(S(=O)(=O)[O-])ccc6F)c6ccc([nH]6)c(-c6cc(S(=O)(=O)[O-])ccc6F)c6nc(c(-c7cc(S(=O)(=O)[O-])ccc7F)c7ccc4[nH]7)C=C6)C=C5)cc3)C2)c(C)c1
REMARK SMILES IDX 20 1 19 2 18 3 17 4 15 5 16 6 14 7 11 8 12 9 89 10 13 11
REMARK SMILES IDX 10 12 7 13 8 14 9 16 6 18 3 19 4 20 92 21 5 22 90 23 91 24
REMARK SMILES IDX 2 25 1 26 21 27 22 28 23 29 24 30 25 31 26 32 27 33 88 34
REMARK SMILES IDX 28 35 87 36 29 37 30 38 31 39 81 40 32 41 86 42 80 43 82 44
REMARK SMILES IDX 33 45 85 46 79 47 78 48 34 50 66 51 46 52 65 53 47 54 50 55
REMARK SMILES IDX 64 56 83 57 48 58 49 59 63 61 84 62 51 63 35 64 36 65 44 66
REMARK SMILES IDX 37 67 43 68 45 69 42 70 38 71 39 72 40 73 41 74 67 75 68 76
REMARK SMILES IDX 76 77 69 78 75 79 77 80 74 81 70 82 71 83 72 84 73 85 52 86
REMARK SMILES IDX 53 87 61 88 54 89 60 90 62 91 59 92 55 93 56 94 57 95 58 96
REMARK H PARENT 7 15 10 17 82 49 50 60
REMARK Flexibility Score: inf
ROOT
ATOM      1  O   UNL A   1      33.635  34.061  28.502  1.00  0.00    -0.374 OA
ENDROOT
BRANCH   1   2
ATOM      2  C   UNL A   1      34.538  33.097  28.011  1.00  0.00     0.202 C 
BRANCH   2   3
ATOM      3  C   UNL A   1      33.656  31.965  27.720  1.00  0.00     0.261 C 
BRANCH   3   4
ATOM      4  O   UNL A   1      32.403  32.397  27.242  1.00  0.00    -0.463 OA
BRANCH   4   5
ATOM      5  C   UNL A   1      31.691  31.502  26.475  1.00  0.00     0.312 C 
ATOM      6  O   UNL A   1      30.727  31.709  25.752  1.00  0.00    -0.252 OA
BRANCH   5   7
ATOM      7  C   UNL A   1      32.380  30.100  26.717  1.00  0.00     0.124 C 
ATOM      8  C   UNL A   1      32.167  27.446  24.908  1.00  0.00     0.107 C 
ATOM      9  C   UNL A   1      31.824  26.941  26.725  1.00  0.00    -0.006 C 
ATOM     10  C   UNL A   1      32.895  29.350  24.845  1.00  0.00     0.048 C 
ATOM     11  C   UNL A   1      31.781  28.196  27.687  1.00  0.00    -0.014 C 
BRANCH   8  12
ATOM     12  N   UNL A   1      30.507  27.393  24.369  1.00  0.00    -0.332 N 
ATOM     13  N   UNL A   1      29.940  25.063  23.650  1.00  0.00    -0.308 N 
ATOM     14  C   UNL A   1      29.581  26.401  23.882  1.00  0.00     0.319 C 
ATOM     15  H   UNL A   1      29.278  24.463  23.235  1.00  0.00     0.171 HD
ATOM     16  O   UNL A   1      28.403  26.730  23.717  1.00  0.00    -0.248 OA
ATOM     17  H   UNL A   1      30.089  28.284  24.407  1.00  0.00     0.165 HD
BRANCH  13  18
ATOM     18  C   UNL A   1      31.187  24.546  23.981  1.00  0.00     0.046 A 
ATOM     19  C   UNL A   1      34.073  23.416  25.964  1.00  0.00     0.119 A 
ATOM     20  C   UNL A   1      32.413  23.189  26.596  1.00  0.00     0.048 A 
ATOM     21  C   UNL A   1      34.111  24.070  24.326  1.00  0.00     0.052 A 
ATOM     22  C   UNL A   1      31.049  23.752  25.196  1.00  0.00     0.030 A 
ATOM     23  C   UNL A   1      32.652  24.620  23.452  1.00  0.00    -0.024 A 
ATOM     24  C   UNL A   1      32.427  24.815  22.013  1.00  0.00     0.047 C 
BRANCH  19  25
ATOM     25  O   UNL A   1      35.218  22.905  26.486  1.00  0.00    -0.497 OA
ATOM     26  C   UNL A   1      35.730  21.768  25.789  1.00  0.00     0.278 C 
ENDBRANCH  19  25
ENDBRANCH  13  18
ENDBRANCH   8  12
ENDBRANCH   5   7
ENDBRANCH   4   5
ENDBRANCH   3   4
ENDBRANCH   2   3
ENDBRANCH   1   2
BRANCH   1  27
ATOM     27  C   UNL A   1      34.249  35.129  29.153  1.00  0.00     0.202 C 
BRANCH  27  28
ATOM     28  C   UNL A   1      33.385  35.410  30.370  1.00  0.00     0.261 C 
BRANCH  28  29
ATOM     29  O   UNL A   1      33.668  34.349  31.353  1.00  0.00    -0.460 OA
BRANCH  29  30
ATOM     30  C   UNL A   1      34.850  34.399  32.053  1.00  0.00     0.338 C 
ATOM     31  O   UNL A   1      35.387  35.445  32.390  1.00  0.00    -0.246 OA
BRANCH  30  32
ATOM     32  C   UNL A   1      35.507  33.040  32.264  1.00  0.00     0.060 A 
ATOM     33  C   UNL A   1      35.769  32.560  33.567  1.00  0.00     0.016 A 
ATOM     34  C   UNL A   1      36.164  32.417  31.217  1.00  0.00     0.016 A 
ATOM     35  C   UNL A   1      36.865  31.693  33.840  1.00  0.00     0.010 A 
ATOM     36  C   UNL A   1      37.308  31.664  31.502  1.00  0.00     0.010 A 
ATOM     37  C   UNL A   1      37.749  31.364  32.823  1.00  0.00    -0.014 A 
BRANCH  37  38
ATOM     38  C   UNL A   1      39.118  30.710  32.949  1.00  0.00     0.031 A 
ATOM     39  C   UNL A   1      39.189  29.503  32.024  1.00  0.00     0.074 A 
ATOM     40  C   UNL A   1      40.239  31.351  33.478  1.00  0.00     0.049 A 
ATOM     41  N   UNL A   1      40.258  29.048  31.487  1.00  0.00    -0.248 NA
ATOM     42  C   UNL A   1      38.004  28.864  31.412  1.00  0.00     0.031 C 
ATOM     43  C   UNL A   1      41.718  31.111  33.391  1.00  0.00     0.029 A 
ATOM     44  N   UNL A   1      40.347  32.570  34.155  1.00  0.00    -0.354 N 
ATOM     45  C   UNL A   1      39.952  28.216  30.414  1.00  0.00     0.074 A 
ATOM     46  C   UNL A   1      38.519  28.203  30.363  1.00  0.00     0.031 C 
ATOM     47  C   UNL A   1      42.477  31.944  34.130  1.00  0.00     0.029 A 
ATOM     48  C   UNL A   1      41.521  32.591  34.961  1.00  0.00     0.049 A 
ATOM     49  H   UNL A   1      39.702  33.311  34.085  1.00  0.00     0.167 HD
ATOM     50  C   UNL A   1      40.997  27.681  29.707  1.00  0.00     0.034 A 
ATOM     51  C   UNL A   1      41.367  32.316  36.280  1.00  0.00     0.034 A 
ATOM     52  C   UNL A   1      42.213  27.879  30.521  1.00  0.00     0.049 A 
ATOM     53  C   UNL A   1      41.759  30.733  36.309  1.00  0.00     0.074 A 
ATOM     54  C   UNL A   1      43.355  28.647  30.425  1.00  0.00     0.029 A 
ATOM     55  N   UNL A   1      42.146  27.477  31.863  1.00  0.00    -0.354 N 
ATOM     56  N   UNL A   1      41.425  29.773  35.432  1.00  0.00    -0.248 NA
ATOM     57  C   UNL A   1      43.021  30.382  36.985  1.00  0.00     0.031 C 
ATOM     58  C   UNL A   1      43.813  28.878  31.782  1.00  0.00     0.029 A 
ATOM     59  C   UNL A   1      42.948  28.252  32.696  1.00  0.00     0.049 A 
ATOM     60  H   UNL A   1      41.590  26.730  32.182  1.00  0.00     0.167 HD
ATOM     61  C   UNL A   1      42.538  28.919  35.202  1.00  0.00     0.074 A 
ATOM     62  C   UNL A   1      43.464  29.333  36.269  1.00  0.00     0.031 C 
ATOM     63  C   UNL A   1      42.902  28.032  34.170  1.00  0.00     0.034 A 
BRANCH  50  64
ATOM     64  C   UNL A   1      41.010  27.008  28.327  1.00  0.00     0.023 A 
ATOM     65  C   UNL A   1      41.013  25.591  28.263  1.00  0.00     0.031 A 
ATOM     66  C   UNL A   1      41.084  27.641  27.064  1.00  0.00     0.131 A 
ATOM     67  C   UNL A   1      41.087  24.881  27.040  1.00  0.00     0.055 A 
ATOM     68  C   UNL A   1      41.144  26.933  25.841  1.00  0.00     0.041 A 
ATOM     69  F   UNL A   1      41.105  28.972  26.936  1.00  0.00    -0.206 F 
ATOM     70  C   UNL A   1      41.148  25.547  25.822  1.00  0.00     0.022 A 
BRANCH  67  71
ATOM     71  S   UNL A   1      41.101  23.061  27.068  1.00  0.00     0.124 S 
ATOM     72  O   UNL A   1      41.725  22.773  28.355  1.00  0.00    -0.237 OA
ATOM     73  O   UNL A   1      39.683  22.740  26.953  1.00  0.00    -0.237 OA
ATOM     74  O   UNL A   1      41.906  22.702  25.899  1.00  0.00    -0.744 OA
ENDBRANCH  67  71
ENDBRANCH  50  64
BRANCH  51  75
ATOM     75  C   UNL A   1      40.201  33.277  36.630  1.00  0.00     0.023 A 
ATOM     76  C   UNL A   1      38.980  32.688  37.195  1.00  0.00     0.031 A 
ATOM     77  C   UNL A   1      40.430  34.611  36.971  1.00  0.00     0.131 A 
ATOM     78  C   UNL A   1      38.198  33.362  38.176  1.00  0.00     0.055 A 
ATOM     79  C   UNL A   1      39.612  35.281  37.909  1.00  0.00     0.041 A 
ATOM     80  F   UNL A   1      41.548  35.228  36.569  1.00  0.00    -0.206 F 
ATOM     81  C   UNL A   1      38.538  34.656  38.551  1.00  0.00     0.022 A 
BRANCH  78  82
ATOM     82  S   UNL A   1      36.937  32.477  39.201  1.00  0.00     0.124 S 
ATOM     83  O   UNL A   1      37.388  31.092  39.133  1.00  0.00    -0.237 OA
ATOM     84  O   UNL A   1      37.052  33.123  40.505  1.00  0.00    -0.237 OA
ATOM     85  O   UNL A   1      35.673  32.751  38.517  1.00  0.00    -0.744 OA
ENDBRANCH  78  82
ENDBRANCH  51  75
BRANCH  63  86
ATOM     86  C   UNL A   1      43.341  26.644  34.600  1.00  0.00     0.023 A 
ATOM     87  C   UNL A   1      44.697  26.349  34.630  1.00  0.00     0.031 A 
ATOM     88  C   UNL A   1      42.479  25.619  35.068  1.00  0.00     0.131 A 
ATOM     89  C   UNL A   1      45.151  25.070  34.913  1.00  0.00     0.055 A 
ATOM     90  C   UNL A   1      42.953  24.387  35.518  1.00  0.00     0.041 A 
ATOM     91  F   UNL A   1      41.147  25.747  35.129  1.00  0.00    -0.206 F 
ATOM     92  C   UNL A   1      44.300  24.089  35.400  1.00  0.00     0.022 A 
BRANCH  89  93
ATOM     93  S   UNL A   1      46.853  24.744  34.440  1.00  0.00     0.124 S 
ATOM     94  O   UNL A   1      46.766  23.351  34.001  1.00  0.00    -0.237 OA
ATOM     95  O   UNL A   1      47.077  25.722  33.380  1.00  0.00    -0.237 OA
ATOM     96  O   UNL A   1      47.595  24.971  35.673  1.00  0.00    -0.744 OA
ENDBRANCH  89  93
ENDBRANCH  63  86
ENDBRANCH  37  38
ENDBRANCH  30  32
ENDBRANCH  29  30
ENDBRANCH  28  29
ENDBRANCH  27  28
ENDBRANCH   1  27
TORSDOF 20
ENDMDL
