MODEL 1
REMARK VINA RESULT:      -9.9      0.000      0.000
REMARK SMILES Cc1c(N)cccc1SCc1cc(C(=O)OCCOCCOC(=O)c2ccc(-c3c4nc(c(-c5cc(S(=O)(=O)[O-])ccc5F)c5ccc([nH]5)c(-c5cc(S(=O)(=O)[O-])ccc5F)c5nc(c(-c6cc(S(=O)(=O)[O-])ccc6F)c6ccc3[nH]6)C=C5)C=C4)cc2)no1
REMARK SMILES IDX 18 1 17 2 16 3 14 4 15 5 13 6 11 7 12 8 89 9 88 10 10 11
REMARK SMILES IDX 9 12 8 13 1 14 2 15 3 16 5 17 7 18 6 19 4 20 19 23 20 24
REMARK SMILES IDX 21 25 22 26 23 27 24 28 25 29 26 30 87 31 27 32 86 33 28 34
REMARK SMILES IDX 29 35 30 36 80 37 31 38 85 39 79 40 81 41 32 42 84 43 78 44
REMARK SMILES IDX 77 45 33 47 65 48 45 49 64 50 46 51 49 52 63 53 82 54 47 55
REMARK SMILES IDX 48 56 62 58 83 59 50 60 34 61 35 62 43 63 36 64 42 65 44 66
REMARK SMILES IDX 41 67 37 68 38 69 39 70 40 71 66 72 67 73 75 74 68 75 74 76
REMARK SMILES IDX 76 77 73 78 69 79 70 80 71 81 72 82 51 83 52 84 60 85 53 86
REMARK SMILES IDX 59 87 61 88 58 89 54 90 55 91 56 92 57 93
REMARK H PARENT 4 21 4 22 81 46 49 57
REMARK Flexibility Score: inf
ROOT
ATOM      1  C   UNL A   1      33.299  35.724  28.766  1.00  0.00     0.202 C 
ENDROOT
BRANCH   1   2
ATOM      2  C   UNL A   1      33.219  36.610  30.011  1.00  0.00     0.261 C 
BRANCH   2   3
ATOM      3  O   UNL A   1      32.208  36.102  30.900  1.00  0.00    -0.458 OA
BRANCH   3   4
ATOM      4  C   UNL A   1      32.401  36.327  32.233  1.00  0.00     0.360 C 
ATOM      5  O   UNL A   1      31.589  36.879  32.970  1.00  0.00    -0.244 OA
BRANCH   4   6
ATOM      6  C   UNL A   1      33.656  35.735  32.691  1.00  0.00     0.191 A 
ATOM      7  C   UNL A   1      35.172  34.361  33.552  1.00  0.00     0.147 A 
ATOM      8  C   UNL A   1      33.939  34.366  32.946  1.00  0.00     0.085 A 
ATOM      9  O   UNL A   1      35.639  35.642  33.577  1.00  0.00    -0.360 OA
ATOM     10  N   UNL A   1      34.708  36.497  33.032  1.00  0.00    -0.072 NA
BRANCH   7  11
ATOM     11  C   UNL A   1      36.049  33.390  34.250  1.00  0.00     0.153 C 
BRANCH  11  12
ATOM     12  S   UNL A   1      36.945  32.146  33.281  1.00  0.00    -0.118 SA
BRANCH  12  13
ATOM     13  C   UNL A   1      37.615  32.989  31.844  1.00  0.00     0.013 A 
ATOM     14  C   UNL A   1      39.522  34.247  33.001  1.00  0.00     0.048 C 
ATOM     15  C   UNL A   1      38.745  33.838  31.777  1.00  0.00    -0.015 A 
ATOM     16  C   UNL A   1      39.167  34.318  30.511  1.00  0.00     0.035 A 
ATOM     17  C   UNL A   1      38.428  34.009  29.363  1.00  0.00     0.026 A 
ATOM     18  C   UNL A   1      36.871  32.746  30.674  1.00  0.00     0.015 A 
ATOM     19  C   UNL A   1      37.266  33.256  29.444  1.00  0.00     0.003 A 
BRANCH  16  20
ATOM     20  N   UNL A   1      40.385  34.967  30.333  1.00  0.00    -0.398 N 
ATOM     21  H   UNL A   1      41.226  34.458  30.385  1.00  0.00     0.156 HD
ATOM     22  H   UNL A   1      40.405  35.935  30.157  1.00  0.00     0.156 HD
ENDBRANCH  16  20
ENDBRANCH  12  13
ENDBRANCH  11  12
ENDBRANCH   7  11
ENDBRANCH   4   6
ENDBRANCH   3   4
ENDBRANCH   2   3
ENDBRANCH   1   2
BRANCH   1  23
ATOM     23  O   UNL A   1      33.121  34.343  29.093  1.00  0.00    -0.374 OA
BRANCH  23  24
ATOM     24  C   UNL A   1      33.066  33.456  27.974  1.00  0.00     0.202 C 
BRANCH  24  25
ATOM     25  C   UNL A   1      34.325  32.596  27.830  1.00  0.00     0.261 C 
BRANCH  25  26
ATOM     26  O   UNL A   1      34.101  31.280  28.366  1.00  0.00    -0.460 OA
BRANCH  26  27
ATOM     27  C   UNL A   1      34.645  30.263  27.654  1.00  0.00     0.338 C 
ATOM     28  O   UNL A   1      34.209  29.766  26.631  1.00  0.00    -0.246 OA
BRANCH  27  29
ATOM     29  C   UNL A   1      35.974  29.936  28.215  1.00  0.00     0.060 A 
ATOM     30  C   UNL A   1      37.098  30.147  27.407  1.00  0.00     0.016 A 
ATOM     31  C   UNL A   1      36.121  29.411  29.503  1.00  0.00     0.016 A 
ATOM     32  C   UNL A   1      38.370  29.813  27.872  1.00  0.00     0.010 A 
ATOM     33  C   UNL A   1      37.396  29.082  29.970  1.00  0.00     0.010 A 
ATOM     34  C   UNL A   1      38.524  29.257  29.148  1.00  0.00    -0.014 A 
BRANCH  34  35
ATOM     35  C   UNL A   1      39.824  28.677  29.565  1.00  0.00     0.031 A 
ATOM     36  C   UNL A   1      40.589  29.372  30.658  1.00  0.00     0.074 A 
ATOM     37  C   UNL A   1      40.323  27.574  28.979  1.00  0.00     0.049 A 
ATOM     38  N   UNL A   1      41.804  29.159  31.090  1.00  0.00    -0.248 NA
ATOM     39  C   UNL A   1      39.886  30.468  31.343  1.00  0.00     0.031 C 
ATOM     40  C   UNL A   1      39.651  26.780  27.953  1.00  0.00     0.029 A 
ATOM     41  N   UNL A   1      41.527  26.939  29.160  1.00  0.00    -0.354 N 
ATOM     42  C   UNL A   1      42.019  30.107  32.085  1.00  0.00     0.074 A 
ATOM     43  C   UNL A   1      40.821  30.914  32.166  1.00  0.00     0.031 C 
ATOM     44  C   UNL A   1      40.461  25.773  27.581  1.00  0.00     0.029 A 
ATOM     45  C   UNL A   1      41.724  25.876  28.310  1.00  0.00     0.049 A 
ATOM     46  H   UNL A   1      42.187  27.219  29.835  1.00  0.00     0.167 HD
ATOM     47  C   UNL A   1      43.115  30.284  32.862  1.00  0.00     0.034 A 
ATOM     48  C   UNL A   1      42.812  25.101  28.121  1.00  0.00     0.034 A 
ATOM     49  C   UNL A   1      44.300  29.470  32.773  1.00  0.00     0.049 A 
ATOM     50  C   UNL A   1      44.053  25.360  28.946  1.00  0.00     0.074 A 
ATOM     51  C   UNL A   1      45.470  29.562  33.506  1.00  0.00     0.029 A 
ATOM     52  N   UNL A   1      44.466  28.412  31.889  1.00  0.00    -0.354 N 
ATOM     53  N   UNL A   1      44.255  26.277  29.865  1.00  0.00    -0.248 NA
ATOM     54  C   UNL A   1      45.208  24.484  28.709  1.00  0.00     0.031 C 
ATOM     55  C   UNL A   1      46.361  28.595  33.029  1.00  0.00     0.029 A 
ATOM     56  C   UNL A   1      45.724  27.856  32.045  1.00  0.00     0.049 A 
ATOM     57  H   UNL A   1      43.787  28.102  31.247  1.00  0.00     0.167 HD
ATOM     58  C   UNL A   1      45.545  26.058  30.342  1.00  0.00     0.074 A 
ATOM     59  C   UNL A   1      46.077  24.930  29.605  1.00  0.00     0.031 C 
ATOM     60  C   UNL A   1      46.228  26.723  31.309  1.00  0.00     0.034 A 
BRANCH  47  61
ATOM     61  C   UNL A   1      43.090  31.440  33.830  1.00  0.00     0.023 A 
ATOM     62  C   UNL A   1      42.496  31.327  35.099  1.00  0.00     0.031 A 
ATOM     63  C   UNL A   1      43.619  32.688  33.457  1.00  0.00     0.131 A 
ATOM     64  C   UNL A   1      42.375  32.461  35.916  1.00  0.00     0.055 A 
ATOM     65  C   UNL A   1      43.566  33.793  34.308  1.00  0.00     0.041 A 
ATOM     66  F   UNL A   1      44.174  32.859  32.247  1.00  0.00    -0.206 F 
ATOM     67  C   UNL A   1      42.927  33.688  35.539  1.00  0.00     0.022 A 
BRANCH  64  68
ATOM     68  S   UNL A   1      41.351  32.345  37.409  1.00  0.00     0.124 S 
ATOM     69  O   UNL A   1      42.228  31.604  38.310  1.00  0.00    -0.237 OA
ATOM     70  O   UNL A   1      41.125  33.746  37.744  1.00  0.00    -0.237 OA
ATOM     71  O   UNL A   1      40.169  31.613  36.958  1.00  0.00    -0.744 OA
ENDBRANCH  64  68
ENDBRANCH  47  61
BRANCH  48  72
ATOM     72  C   UNL A   1      42.810  24.036  27.078  1.00  0.00     0.023 A 
ATOM     73  C   UNL A   1      42.166  22.808  27.293  1.00  0.00     0.031 A 
ATOM     74  C   UNL A   1      43.504  24.215  25.867  1.00  0.00     0.131 A 
ATOM     75  C   UNL A   1      42.265  21.790  26.330  1.00  0.00     0.055 A 
ATOM     76  C   UNL A   1      43.560  23.216  24.893  1.00  0.00     0.041 A 
ATOM     77  F   UNL A   1      44.134  25.373  25.610  1.00  0.00    -0.206 F 
ATOM     78  C   UNL A   1      42.948  21.989  25.128  1.00  0.00     0.022 A 
BRANCH  75  79
ATOM     79  S   UNL A   1      41.548  20.166  26.707  1.00  0.00     0.124 S 
ATOM     80  O   UNL A   1      40.217  20.531  27.177  1.00  0.00    -0.237 OA
ATOM     81  O   UNL A   1      41.613  19.500  25.410  1.00  0.00    -0.237 OA
ATOM     82  O   UNL A   1      42.446  19.627  27.727  1.00  0.00    -0.744 OA
ENDBRANCH  75  79
ENDBRANCH  48  72
BRANCH  60  83
ATOM     83  C   UNL A   1      47.590  26.199  31.682  1.00  0.00     0.023 A 
ATOM     84  C   UNL A   1      47.774  25.283  32.731  1.00  0.00     0.031 A 
ATOM     85  C   UNL A   1      48.716  26.601  30.942  1.00  0.00     0.131 A 
ATOM     86  C   UNL A   1      49.064  24.820  33.030  1.00  0.00     0.055 A 
ATOM     87  C   UNL A   1      49.990  26.105  31.217  1.00  0.00     0.041 A 
ATOM     88  F   UNL A   1      48.590  27.471  29.927  1.00  0.00    -0.206 F 
ATOM     89  C   UNL A   1      50.170  25.213  32.270  1.00  0.00     0.022 A 
BRANCH  86  90
ATOM     90  S   UNL A   1      49.292  23.717  34.452  1.00  0.00     0.124 S 
ATOM     91  O   UNL A   1      47.932  23.241  34.687  1.00  0.00    -0.237 OA
ATOM     92  O   UNL A   1      50.233  22.728  33.935  1.00  0.00    -0.237 OA
ATOM     93  O   UNL A   1      49.829  24.598  35.489  1.00  0.00    -0.744 OA
ENDBRANCH  86  90
ENDBRANCH  60  83
ENDBRANCH  34  35
ENDBRANCH  27  29
ENDBRANCH  26  27
ENDBRANCH  25  26
ENDBRANCH  24  25
ENDBRANCH  23  24
ENDBRANCH   1  23
TORSDOF 21
ENDMDL
MODEL 2
REMARK VINA RESULT:      -9.2      4.160      7.173
REMARK SMILES Cc1c(N)cccc1SCc1cc(C(=O)OCCOCCOC(=O)c2ccc(-c3c4nc(c(-c5cc(S(=O)(=O)[O-])ccc5F)c5ccc([nH]5)c(-c5cc(S(=O)(=O)[O-])ccc5F)c5nc(c(-c6cc(S(=O)(=O)[O-])ccc6F)c6ccc3[nH]6)C=C5)C=C4)cc2)no1
REMARK SMILES IDX 18 1 17 2 16 3 14 4 15 5 13 6 11 7 12 8 89 9 88 10 10 11
REMARK SMILES IDX 9 12 8 13 1 14 2 15 3 16 5 17 7 18 6 19 4 20 19 23 20 24
REMARK SMILES IDX 21 25 22 26 23 27 24 28 25 29 26 30 87 31 27 32 86 33 28 34
REMARK SMILES IDX 29 35 30 36 80 37 31 38 85 39 79 40 81 41 32 42 84 43 78 44
REMARK SMILES IDX 77 45 33 47 65 48 45 49 64 50 46 51 49 52 63 53 82 54 47 55
REMARK SMILES IDX 48 56 62 58 83 59 50 60 34 61 35 62 43 63 36 64 42 65 44 66
REMARK SMILES IDX 41 67 37 68 38 69 39 70 40 71 66 72 67 73 75 74 68 75 74 76
REMARK SMILES IDX 76 77 73 78 69 79 70 80 71 81 72 82 51 83 52 84 60 85 53 86
REMARK SMILES IDX 59 87 61 88 58 89 54 90 55 91 56 92 57 93
REMARK H PARENT 4 21 4 22 81 46 49 57
REMARK Flexibility Score: inf
ROOT
ATOM      1  C   UNL A   1      33.133  29.486  26.850  1.00  0.00     0.202 C 
ENDROOT
BRANCH   1   2
ATOM      2  C   UNL A   1      31.745  28.881  27.076  1.00  0.00     0.261 C 
BRANCH   2   3
ATOM      3  O   UNL A   1      31.599  27.698  26.271  1.00  0.00    -0.458 OA
BRANCH   3   4
ATOM      4  C   UNL A   1      31.415  27.891  24.932  1.00  0.00     0.360 C 
ATOM      5  O   UNL A   1      30.716  28.775  24.446  1.00  0.00    -0.244 OA
BRANCH   4   6
ATOM      6  C   UNL A   1      32.239  26.973  24.149  1.00  0.00     0.191 A 
ATOM      7  C   UNL A   1      32.929  25.293  22.871  1.00  0.00     0.147 A 
ATOM      8  C   UNL A   1      31.823  26.063  23.139  1.00  0.00     0.085 A 
ATOM      9  O   UNL A   1      33.970  25.772  23.611  1.00  0.00    -0.360 OA
ATOM     10  N   UNL A   1      33.551  26.823  24.395  1.00  0.00    -0.072 NA
BRANCH   7  11
ATOM     11  C   UNL A   1      33.254  24.068  22.102  1.00  0.00     0.153 C 
BRANCH  11  12
ATOM     12  S   UNL A   1      32.646  22.463  22.691  1.00  0.00    -0.118 SA
BRANCH  12  13
ATOM     13  C   UNL A   1      33.257  22.258  24.367  1.00  0.00     0.013 A 
ATOM     14  C   UNL A   1      31.201  23.121  25.625  1.00  0.00     0.048 C 
ATOM     15  C   UNL A   1      32.577  22.513  25.582  1.00  0.00    -0.015 A 
ATOM     16  C   UNL A   1      33.213  22.178  26.804  1.00  0.00     0.035 A 
ATOM     17  C   UNL A   1      34.518  21.672  26.800  1.00  0.00     0.026 A 
ATOM     18  C   UNL A   1      34.586  21.797  24.409  1.00  0.00     0.015 A 
ATOM     19  C   UNL A   1      35.218  21.513  25.614  1.00  0.00     0.003 A 
BRANCH  16  20
ATOM     20  N   UNL A   1      32.534  22.189  28.019  1.00  0.00    -0.398 N 
ATOM     21  H   UNL A   1      31.980  22.965  28.266  1.00  0.00     0.156 HD
ATOM     22  H   UNL A   1      32.609  21.423  28.631  1.00  0.00     0.156 HD
ENDBRANCH  16  20
ENDBRANCH  12  13
ENDBRANCH  11  12
ENDBRANCH   7  11
ENDBRANCH   4   6
ENDBRANCH   3   4
ENDBRANCH   2   3
ENDBRANCH   1   2
BRANCH   1  23
ATOM     23  O   UNL A   1      33.047  30.837  26.389  1.00  0.00    -0.374 OA
BRANCH  23  24
ATOM     24  C   UNL A   1      31.782  31.469  26.594  1.00  0.00     0.202 C 
BRANCH  24  25
ATOM     25  C   UNL A   1      31.892  32.989  26.751  1.00  0.00     0.261 C 
BRANCH  25  26
ATOM     26  O   UNL A   1      32.449  33.324  28.035  1.00  0.00    -0.460 OA
BRANCH  26  27
ATOM     27  C   UNL A   1      33.595  34.048  28.000  1.00  0.00     0.338 C 
ATOM     28  O   UNL A   1      33.705  35.238  27.762  1.00  0.00    -0.246 OA
BRANCH  27  29
ATOM     29  C   UNL A   1      34.716  33.204  28.467  1.00  0.00     0.060 A 
ATOM     30  C   UNL A   1      34.406  32.014  29.137  1.00  0.00     0.016 A 
ATOM     31  C   UNL A   1      36.049  33.577  28.273  1.00  0.00     0.016 A 
ATOM     32  C   UNL A   1      35.426  31.204  29.637  1.00  0.00     0.010 A 
ATOM     33  C   UNL A   1      37.071  32.762  28.770  1.00  0.00     0.010 A 
ATOM     34  C   UNL A   1      36.764  31.586  29.476  1.00  0.00    -0.014 A 
BRANCH  34  35
ATOM     35  C   UNL A   1      37.843  30.871  30.202  1.00  0.00     0.031 A 
ATOM     36  C   UNL A   1      38.132  31.281  31.620  1.00  0.00     0.074 A 
ATOM     37  C   UNL A   1      38.560  29.896  29.615  1.00  0.00     0.049 A 
ATOM     38  N   UNL A   1      39.112  30.926  32.407  1.00  0.00    -0.248 NA
ATOM     39  C   UNL A   1      37.189  32.237  32.221  1.00  0.00     0.031 C 
ATOM     40  C   UNL A   1      38.337  29.370  28.269  1.00  0.00     0.029 A 
ATOM     41  N   UNL A   1      39.637  29.183  30.080  1.00  0.00    -0.354 N 
ATOM     42  C   UNL A   1      38.917  31.629  33.591  1.00  0.00     0.074 A 
ATOM     43  C   UNL A   1      37.744  32.455  33.403  1.00  0.00     0.031 C 
ATOM     44  C   UNL A   1      39.262  28.429  28.010  1.00  0.00     0.029 A 
ATOM     45  C   UNL A   1      40.168  28.317  29.152  1.00  0.00     0.049 A 
ATOM     46  H   UNL A   1      39.995  29.282  30.992  1.00  0.00     0.167 HD
ATOM     47  C   UNL A   1      39.647  31.587  34.732  1.00  0.00     0.034 A 
ATOM     48  C   UNL A   1      41.277  27.551  29.210  1.00  0.00     0.034 A 
ATOM     49  C   UNL A   1      40.811  30.756  34.906  1.00  0.00     0.049 A 
ATOM     50  C   UNL A   1      42.121  27.571  30.464  1.00  0.00     0.074 A 
ATOM     51  C   UNL A   1      41.629  30.636  36.015  1.00  0.00     0.029 A 
ATOM     52  N   UNL A   1      41.325  29.905  33.938  1.00  0.00    -0.354 N 
ATOM     53  N   UNL A   1      41.942  28.261  31.568  1.00  0.00    -0.248 NA
ATOM     54  C   UNL A   1      43.314  26.713  30.480  1.00  0.00     0.031 C 
ATOM     55  C   UNL A   1      42.667  29.753  35.699  1.00  0.00     0.029 A 
ATOM     56  C   UNL A   1      42.459  29.271  34.417  1.00  0.00     0.049 A 
ATOM     57  H   UNL A   1      40.939  29.769  33.042  1.00  0.00     0.167 HD
ATOM     58  C   UNL A   1      42.977  27.887  32.421  1.00  0.00     0.074 A 
ATOM     59  C   UNL A   1      43.780  26.918  31.705  1.00  0.00     0.031 C 
ATOM     60  C   UNL A   1      43.236  28.298  33.689  1.00  0.00     0.034 A 
BRANCH  47  61
ATOM     61  C   UNL A   1      39.230  32.510  35.848  1.00  0.00     0.023 A 
ATOM     62  C   UNL A   1      39.696  33.834  35.923  1.00  0.00     0.031 A 
ATOM     63  C   UNL A   1      38.397  32.043  36.880  1.00  0.00     0.131 A 
ATOM     64  C   UNL A   1      39.392  34.617  37.046  1.00  0.00     0.055 A 
ATOM     65  C   UNL A   1      38.033  32.854  37.955  1.00  0.00     0.041 A 
ATOM     66  F   UNL A   1      37.944  30.779  36.872  1.00  0.00    -0.206 F 
ATOM     67  C   UNL A   1      38.544  34.145  38.052  1.00  0.00     0.022 A 
BRANCH  64  68
ATOM     68  S   UNL A   1      40.244  36.206  37.249  1.00  0.00     0.124 S 
ATOM     69  O   UNL A   1      40.030  36.823  35.943  1.00  0.00    -0.237 OA
ATOM     70  O   UNL A   1      39.526  36.808  38.366  1.00  0.00    -0.237 OA
ATOM     71  O   UNL A   1      41.625  35.820  37.530  1.00  0.00    -0.744 OA
ENDBRANCH  64  68
ENDBRANCH  47  61
BRANCH  48  72
ATOM     72  C   UNL A   1      41.693  26.734  28.034  1.00  0.00     0.023 A 
ATOM     73  C   UNL A   1      41.389  25.366  27.955  1.00  0.00     0.031 A 
ATOM     74  C   UNL A   1      42.452  27.303  26.996  1.00  0.00     0.131 A 
ATOM     75  C   UNL A   1      41.879  24.603  26.882  1.00  0.00     0.055 A 
ATOM     76  C   UNL A   1      42.898  26.550  25.908  1.00  0.00     0.041 A 
ATOM     77  F   UNL A   1      42.768  28.608  27.022  1.00  0.00    -0.206 F 
ATOM     78  C   UNL A   1      42.622  25.187  25.853  1.00  0.00     0.022 A 
BRANCH  75  79
ATOM     79  S   UNL A   1      41.595  22.811  26.889  1.00  0.00     0.124 S 
ATOM     80  O   UNL A   1      41.974  22.445  25.529  1.00  0.00    -0.237 OA
ATOM     81  O   UNL A   1      42.494  22.367  27.949  1.00  0.00    -0.237 OA
ATOM     82  O   UNL A   1      40.170  22.694  27.193  1.00  0.00    -0.744 OA
ENDBRANCH  75  79
ENDBRANCH  48  72
BRANCH  60  83
ATOM     83  C   UNL A   1      44.387  27.644  34.410  1.00  0.00     0.023 A 
ATOM     84  C   UNL A   1      44.229  26.455  35.139  1.00  0.00     0.031 A 
ATOM     85  C   UNL A   1      45.671  28.212  34.326  1.00  0.00     0.131 A 
ATOM     86  C   UNL A   1      45.337  25.883  35.783  1.00  0.00     0.055 A 
ATOM     87  C   UNL A   1      46.776  27.617  34.934  1.00  0.00     0.041 A 
ATOM     88  F   UNL A   1      45.872  29.346  33.637  1.00  0.00    -0.206 F 
ATOM     89  C   UNL A   1      46.611  26.448  35.673  1.00  0.00     0.022 A 
BRANCH  86  90
ATOM     90  S   UNL A   1      45.090  24.403  36.803  1.00  0.00     0.124 S 
ATOM     91  O   UNL A   1      44.575  23.446  35.829  1.00  0.00    -0.237 OA
ATOM     92  O   UNL A   1      46.436  24.140  37.304  1.00  0.00    -0.237 OA
ATOM     93  O   UNL A   1      44.129  24.838  37.815  1.00  0.00    -0.744 OA
ENDBRANCH  86  90
ENDBRANCH  60  83
ENDBRANCH  34  35
ENDBRANCH  27  29
ENDBRANCH  26  27
ENDBRANCH  25  26
ENDBRANCH  24  25
ENDBRANCH  23  24
ENDBRANCH   1  23
TORSDOF 21
ENDMDL
MODEL 3
REMARK VINA RESULT:      -9.1      5.803     11.775
REMARK SMILES Cc1c(N)cccc1SCc1cc(C(=O)OCCOCCOC(=O)c2ccc(-c3c4nc(c(-c5cc(S(=O)(=O)[O-])ccc5F)c5ccc([nH]5)c(-c5cc(S(=O)(=O)[O-])ccc5F)c5nc(c(-c6cc(S(=O)(=O)[O-])ccc6F)c6ccc3[nH]6)C=C5)C=C4)cc2)no1
REMARK SMILES IDX 18 1 17 2 16 3 14 4 15 5 13 6 11 7 12 8 89 9 88 10 10 11
REMARK SMILES IDX 9 12 8 13 1 14 2 15 3 16 5 17 7 18 6 19 4 20 19 23 20 24
REMARK SMILES IDX 21 25 22 26 23 27 24 28 25 29 26 30 87 31 27 32 86 33 28 34
REMARK SMILES IDX 29 35 30 36 80 37 31 38 85 39 79 40 81 41 32 42 84 43 78 44
REMARK SMILES IDX 77 45 33 47 65 48 45 49 64 50 46 51 49 52 63 53 82 54 47 55
REMARK SMILES IDX 48 56 62 58 83 59 50 60 34 61 35 62 43 63 36 64 42 65 44 66
REMARK SMILES IDX 41 67 37 68 38 69 39 70 40 71 66 72 67 73 75 74 68 75 74 76
REMARK SMILES IDX 76 77 73 78 69 79 70 80 71 81 72 82 51 83 52 84 60 85 53 86
REMARK SMILES IDX 59 87 61 88 58 89 54 90 55 91 56 92 57 93
REMARK H PARENT 4 21 4 22 81 46 49 57
REMARK Flexibility Score: inf
ROOT
ATOM      1  C   UNL A   1      40.843  20.968  27.346  1.00  0.00     0.202 C 
ENDROOT
BRANCH   1   2
ATOM      2  C   UNL A   1      40.488  22.124  26.408  1.00  0.00     0.261 C 
BRANCH   2   3
ATOM      3  O   UNL A   1      39.076  22.105  26.135  1.00  0.00    -0.458 OA
BRANCH   3   4
ATOM      4  C   UNL A   1      38.439  23.313  26.137  1.00  0.00     0.360 C 
ATOM      5  O   UNL A   1      38.938  24.362  26.532  1.00  0.00    -0.244 OA
BRANCH   4   6
ATOM      6  C   UNL A   1      37.121  23.215  25.513  1.00  0.00     0.191 A 
ATOM      7  C   UNL A   1      35.444  23.268  24.058  1.00  0.00     0.147 A 
ATOM      8  C   UNL A   1      36.809  23.121  24.130  1.00  0.00     0.085 A 
ATOM      9  O   UNL A   1      34.959  23.354  25.330  1.00  0.00    -0.360 OA
ATOM     10  N   UNL A   1      35.993  23.307  26.237  1.00  0.00    -0.072 NA
BRANCH   7  11
ATOM     11  C   UNL A   1      34.414  23.454  23.009  1.00  0.00     0.153 C 
BRANCH  11  12
ATOM     12  S   UNL A   1      32.877  24.325  23.418  1.00  0.00    -0.118 SA
BRANCH  12  13
ATOM     13  C   UNL A   1      33.274  26.075  23.488  1.00  0.00     0.013 A 
ATOM     14  C   UNL A   1      33.142  26.389  26.025  1.00  0.00     0.048 C 
ATOM     15  C   UNL A   1      33.418  26.893  24.633  1.00  0.00    -0.015 A 
ATOM     16  C   UNL A   1      33.844  28.235  24.466  1.00  0.00     0.035 A 
ATOM     17  C   UNL A   1      34.046  28.752  23.181  1.00  0.00     0.026 A 
ATOM     18  C   UNL A   1      33.436  26.648  22.212  1.00  0.00     0.015 A 
ATOM     19  C   UNL A   1      33.810  27.977  22.056  1.00  0.00     0.003 A 
BRANCH  16  20
ATOM     20  N   UNL A   1      34.222  29.032  25.543  1.00  0.00    -0.398 N 
ATOM     21  H   UNL A   1      34.840  28.679  26.223  1.00  0.00     0.156 HD
ATOM     22  H   UNL A   1      33.871  29.947  25.624  1.00  0.00     0.156 HD
ENDBRANCH  16  20
ENDBRANCH  12  13
ENDBRANCH  11  12
ENDBRANCH   7  11
ENDBRANCH   4   6
ENDBRANCH   3   4
ENDBRANCH   2   3
ENDBRANCH   1   2
BRANCH   1  23
ATOM     23  O   UNL A   1      42.073  20.344  26.968  1.00  0.00    -0.374 OA
BRANCH  23  24
ATOM     24  C   UNL A   1      41.976  19.422  25.880  1.00  0.00     0.202 C 
BRANCH  24  25
ATOM     25  C   UNL A   1      43.301  18.716  25.576  1.00  0.00     0.261 C 
BRANCH  25  26
ATOM     26  O   UNL A   1      43.829  19.157  24.312  1.00  0.00    -0.460 OA
BRANCH  26  27
ATOM     27  C   UNL A   1      45.067  19.708  24.360  1.00  0.00     0.338 C 
ATOM     28  O   UNL A   1      46.103  19.223  23.940  1.00  0.00    -0.246 OA
BRANCH  27  29
ATOM     29  C   UNL A   1      44.960  21.096  24.859  1.00  0.00     0.060 A 
ATOM     30  C   UNL A   1      44.513  22.080  23.969  1.00  0.00     0.016 A 
ATOM     31  C   UNL A   1      45.312  21.437  26.168  1.00  0.00     0.016 A 
ATOM     32  C   UNL A   1      44.437  23.412  24.377  1.00  0.00     0.010 A 
ATOM     33  C   UNL A   1      45.231  22.771  26.577  1.00  0.00     0.010 A 
ATOM     34  C   UNL A   1      44.818  23.768  25.676  1.00  0.00    -0.014 A 
BRANCH  34  35
ATOM     35  C   UNL A   1      44.974  25.195  26.051  1.00  0.00     0.031 A 
ATOM     36  C   UNL A   1      46.350  25.798  25.981  1.00  0.00     0.074 A 
ATOM     37  C   UNL A   1      43.926  25.935  26.459  1.00  0.00     0.049 A 
ATOM     38  N   UNL A   1      46.773  26.962  26.398  1.00  0.00    -0.248 NA
ATOM     39  C   UNL A   1      47.393  24.959  25.370  1.00  0.00     0.031 C 
ATOM     40  C   UNL A   1      42.537  25.482  26.512  1.00  0.00     0.029 A 
ATOM     41  N   UNL A   1      43.877  27.226  26.920  1.00  0.00    -0.354 N 
ATOM     42  C   UNL A   1      48.135  26.989  26.119  1.00  0.00     0.074 A 
ATOM     43  C   UNL A   1      48.470  25.712  25.527  1.00  0.00     0.031 C 
ATOM     44  C   UNL A   1      41.773  26.476  26.998  1.00  0.00     0.029 A 
ATOM     45  C   UNL A   1      42.623  27.618  27.332  1.00  0.00     0.049 A 
ATOM     46  H   UNL A   1      44.664  27.817  26.954  1.00  0.00     0.167 HD
ATOM     47  C   UNL A   1      49.023  27.990  26.331  1.00  0.00     0.034 A 
ATOM     48  C   UNL A   1      42.221  28.754  27.937  1.00  0.00     0.034 A 
ATOM     49  C   UNL A   1      48.674  29.258  26.918  1.00  0.00     0.049 A 
ATOM     50  C   UNL A   1      43.240  29.832  28.234  1.00  0.00     0.074 A 
ATOM     51  C   UNL A   1      49.492  30.342  27.185  1.00  0.00     0.029 A 
ATOM     52  N   UNL A   1      47.397  29.611  27.334  1.00  0.00    -0.354 N 
ATOM     53  N   UNL A   1      44.530  29.836  27.990  1.00  0.00    -0.248 NA
ATOM     54  C   UNL A   1      42.749  31.053  28.887  1.00  0.00     0.031 C 
ATOM     55  C   UNL A   1      48.721  31.328  27.809  1.00  0.00     0.029 A 
ATOM     56  C   UNL A   1      47.409  30.887  27.872  1.00  0.00     0.049 A 
ATOM     57  H   UNL A   1      46.600  29.038  27.256  1.00  0.00     0.167 HD
ATOM     58  C   UNL A   1      44.995  31.075  28.423  1.00  0.00     0.074 A 
ATOM     59  C   UNL A   1      43.850  31.789  28.950  1.00  0.00     0.031 C 
ATOM     60  C   UNL A   1      46.252  31.584  28.379  1.00  0.00     0.034 A 
BRANCH  47  61
ATOM     61  C   UNL A   1      50.462  27.716  25.977  1.00  0.00     0.023 A 
ATOM     62  C   UNL A   1      50.951  27.915  24.673  1.00  0.00     0.031 A 
ATOM     63  C   UNL A   1      51.344  27.198  26.941  1.00  0.00     0.131 A 
ATOM     64  C   UNL A   1      52.260  27.523  24.353  1.00  0.00     0.055 A 
ATOM     65  C   UNL A   1      52.669  26.885  26.634  1.00  0.00     0.041 A 
ATOM     66  F   UNL A   1      50.923  26.964  28.194  1.00  0.00    -0.206 F 
ATOM     67  C   UNL A   1      53.129  27.032  25.329  1.00  0.00     0.022 A 
BRANCH  64  68
ATOM     68  S   UNL A   1      52.758  27.521  22.608  1.00  0.00     0.124 S 
ATOM     69  O   UNL A   1      51.532  27.969  21.952  1.00  0.00    -0.237 OA
ATOM     70  O   UNL A   1      53.870  28.464  22.598  1.00  0.00    -0.237 OA
ATOM     71  O   UNL A   1      53.119  26.127  22.357  1.00  0.00    -0.744 OA
ENDBRANCH  64  68
ENDBRANCH  47  61
BRANCH  48  72
ATOM     72  C   UNL A   1      40.800  28.926  28.355  1.00  0.00     0.023 A 
ATOM     73  C   UNL A   1      40.412  28.770  29.695  1.00  0.00     0.031 A 
ATOM     74  C   UNL A   1      39.798  29.195  27.405  1.00  0.00     0.131 A 
ATOM     75  C   UNL A   1      39.053  28.842  30.041  1.00  0.00     0.055 A 
ATOM     76  C   UNL A   1      38.453  29.310  27.761  1.00  0.00     0.041 A 
ATOM     77  F   UNL A   1      40.116  29.355  26.110  1.00  0.00    -0.206 F 
ATOM     78  C   UNL A   1      38.072  29.122  29.086  1.00  0.00     0.022 A 
BRANCH  75  79
ATOM     79  S   UNL A   1      38.573  28.487  31.755  1.00  0.00     0.124 S 
ATOM     80  O   UNL A   1      38.662  27.032  31.793  1.00  0.00    -0.237 OA
ATOM     81  O   UNL A   1      39.589  29.214  32.509  1.00  0.00    -0.237 OA
ATOM     82  O   UNL A   1      37.220  29.033  31.849  1.00  0.00    -0.744 OA
ENDBRANCH  75  79
ENDBRANCH  48  72
BRANCH  60  83
ATOM     83  C   UNL A   1      46.443  33.006  28.841  1.00  0.00     0.023 A 
ATOM     84  C   UNL A   1      46.316  34.096  27.966  1.00  0.00     0.031 A 
ATOM     85  C   UNL A   1      46.719  33.265  30.196  1.00  0.00     0.131 A 
ATOM     86  C   UNL A   1      46.494  35.401  28.450  1.00  0.00     0.055 A 
ATOM     87  C   UNL A   1      46.853  34.566  30.681  1.00  0.00     0.041 A 
ATOM     88  F   UNL A   1      46.845  32.256  31.071  1.00  0.00    -0.206 F 
ATOM     89  C   UNL A   1      46.747  35.642  29.805  1.00  0.00     0.022 A 
BRANCH  86  90
ATOM     90  S   UNL A   1      46.426  36.787  27.283  1.00  0.00     0.124 S 
ATOM     91  O   UNL A   1      45.120  37.368  27.577  1.00  0.00    -0.237 OA
ATOM     92  O   UNL A   1      47.583  37.586  27.677  1.00  0.00    -0.237 OA
ATOM     93  O   UNL A   1      46.540  36.142  25.976  1.00  0.00    -0.744 OA
ENDBRANCH  86  90
ENDBRANCH  60  83
ENDBRANCH  34  35
ENDBRANCH  27  29
ENDBRANCH  26  27
ENDBRANCH  25  26
ENDBRANCH  24  25
ENDBRANCH  23  24
ENDBRANCH   1  23
TORSDOF 21
ENDMDL
