MODEL 1
REMARK VINA RESULT:     -11.6      0.000      0.000
REMARK SMILES CC(C)c1cc2c(cc1Cl)C=C(C(=O)OCCOCCOC(=O)c1ccc(-c3c4nc(c(-c5cc(S(=O)(=O)[O-])ccc5F)c5ccc([nH]5)c(-c5cc(S(=O)(=O)[O-])ccc5F)c5nc(c(-c6cc(S(=O)(=O)[O-])ccc6F)c6ccc3[nH]6)C=C5)C=C4)cc1)[C@@H](C(F)(F)F)O2
REMARK SMILES IDX 19 1 18 2 17 3 16 4 15 5 13 6 14 7 12 8 4 9 5 10 9 11 6 12
REMARK SMILES IDX 8 13 10 14 7 15 92 16 11 17 87 18 2 19 1 20 3 21 88 22 89 23
REMARK SMILES IDX 90 24 91 25 20 26 21 27 22 28 23 29 24 30 25 31 86 32 26 33
REMARK SMILES IDX 85 34 27 35 28 36 29 37 79 38 30 39 84 40 78 41 80 42 31 43
REMARK SMILES IDX 83 44 77 45 76 46 32 48 64 49 44 50 63 51 45 52 48 53 62 54
REMARK SMILES IDX 81 55 46 56 47 57 61 59 82 60 49 61 33 62 34 63 42 64 35 65
REMARK SMILES IDX 41 66 43 67 40 68 36 69 37 70 38 71 39 72 65 73 66 74 74 75
REMARK SMILES IDX 67 76 73 77 75 78 72 79 68 80 69 81 70 82 71 83 50 84 51 85
REMARK SMILES IDX 59 86 52 87 58 88 60 89 57 90 53 91 54 92 55 93 56 94
REMARK H PARENT 80 47 48 58
REMARK Flexibility Score: inf
ROOT
ATOM      1  C   UNL A   1      37.127  20.046  24.982  1.00  0.00     0.202 C 
ENDROOT
BRANCH   1   2
ATOM      2  O   UNL A   1      36.558  21.353  25.023  1.00  0.00    -0.374 OA
BRANCH   2   3
ATOM      3  C   UNL A   1      36.756  22.218  23.907  1.00  0.00     0.202 C 
BRANCH   3   4
ATOM      4  C   UNL A   1      35.854  23.449  23.782  1.00  0.00     0.261 C 
BRANCH   4   5
ATOM      5  O   UNL A   1      34.473  23.140  24.023  1.00  0.00    -0.460 OA
BRANCH   5   6
ATOM      6  C   UNL A   1      33.874  23.952  24.923  1.00  0.00     0.338 C 
ATOM      7  O   UNL A   1      34.060  23.977  26.129  1.00  0.00    -0.246 OA
BRANCH   6   8
ATOM      8  C   UNL A   1      33.040  24.947  24.225  1.00  0.00     0.087 C 
ATOM      9  C   UNL A   1      30.180  28.998  23.415  1.00  0.00    -0.023 A 
ATOM     10  C   UNL A   1      30.339  27.746  22.773  1.00  0.00     0.052 A 
ATOM     11  C   UNL A   1      31.089  29.324  24.437  1.00  0.00     0.045 A 
ATOM     12  C   UNL A   1      31.321  26.837  23.170  1.00  0.00     0.128 A 
ATOM     13  C   UNL A   1      32.095  28.426  24.807  1.00  0.00     0.032 A 
ATOM     14  Cl  UNL A   1      31.013  30.776  25.368  1.00  0.00    -0.084 Cl
ATOM     15  C   UNL A   1      32.188  27.173  24.202  1.00  0.00     0.019 A 
ATOM     16  O   UNL A   1      31.356  25.638  22.516  1.00  0.00    -0.475 OA
ATOM     17  C   UNL A   1      33.114  26.189  24.719  1.00  0.00     0.027 C 
ATOM     18  C   UNL A   1      32.146  24.548  23.084  1.00  0.00     0.316 C 
BRANCH   9  19
ATOM     19  C   UNL A   1      28.968  29.830  23.010  1.00  0.00     0.014 C 
ATOM     20  C   UNL A   1      29.212  30.485  21.646  1.00  0.00     0.012 C 
ATOM     21  C   UNL A   1      27.613  29.120  23.048  1.00  0.00     0.012 C 
ENDBRANCH   9  19
BRANCH  18  22
ATOM     22  C   UNL A   1      31.199  23.397  23.458  1.00  0.00     0.430 C 
ATOM     23  F   UNL A   1      30.981  23.356  24.794  1.00  0.00    -0.167 F 
ATOM     24  F   UNL A   1      29.990  23.530  22.867  1.00  0.00    -0.167 F 
ATOM     25  F   UNL A   1      31.702  22.196  23.091  1.00  0.00    -0.167 F 
ENDBRANCH  18  22
ENDBRANCH   6   8
ENDBRANCH   5   6
ENDBRANCH   4   5
ENDBRANCH   3   4
ENDBRANCH   2   3
ENDBRANCH   1   2
BRANCH   1  26
ATOM     26  C   UNL A   1      38.605  19.863  25.355  1.00  0.00     0.261 C 
BRANCH  26  27
ATOM     27  O   UNL A   1      39.254  21.089  25.729  1.00  0.00    -0.460 OA
BRANCH  27  28
ATOM     28  C   UNL A   1      40.074  20.992  26.806  1.00  0.00     0.338 C 
ATOM     29  O   UNL A   1      40.572  19.974  27.261  1.00  0.00    -0.246 OA
BRANCH  28  30
ATOM     30  C   UNL A   1      40.460  22.346  27.244  1.00  0.00     0.060 A 
ATOM     31  C   UNL A   1      41.422  22.540  28.236  1.00  0.00     0.016 A 
ATOM     32  C   UNL A   1      39.854  23.443  26.616  1.00  0.00     0.016 A 
ATOM     33  C   UNL A   1      41.788  23.841  28.590  1.00  0.00     0.010 A 
ATOM     34  C   UNL A   1      40.220  24.741  26.972  1.00  0.00     0.010 A 
ATOM     35  C   UNL A   1      41.199  24.951  27.954  1.00  0.00    -0.014 A 
BRANCH  35  36
ATOM     36  C   UNL A   1      41.686  26.325  28.235  1.00  0.00     0.031 A 
ATOM     37  C   UNL A   1      43.076  26.750  27.864  1.00  0.00     0.074 A 
ATOM     38  C   UNL A   1      40.860  27.185  28.863  1.00  0.00     0.049 A 
ATOM     39  N   UNL A   1      43.636  27.923  28.001  1.00  0.00    -0.248 NA
ATOM     40  C   UNL A   1      43.953  25.730  27.269  1.00  0.00     0.031 C 
ATOM     41  C   UNL A   1      39.505  26.860  29.307  1.00  0.00     0.029 A 
ATOM     42  N   UNL A   1      41.031  28.494  29.238  1.00  0.00    -0.354 N 
ATOM     43  C   UNL A   1      44.925  27.793  27.499  1.00  0.00     0.074 A 
ATOM     44  C   UNL A   1      45.081  26.410  27.101  1.00  0.00     0.031 C 
ATOM     45  C   UNL A   1      38.958  27.946  29.871  1.00  0.00     0.029 A 
ATOM     46  C   UNL A   1      39.934  29.034  29.870  1.00  0.00     0.049 A 
ATOM     47  H   UNL A   1      41.860  28.999  29.072  1.00  0.00     0.167 HD
ATOM     48  C   UNL A   1      45.876  28.748  27.366  1.00  0.00     0.034 A 
ATOM     49  C   UNL A   1      39.733  30.262  30.392  1.00  0.00     0.034 A 
ATOM     50  C   UNL A   1      45.699  30.120  27.774  1.00  0.00     0.049 A 
ATOM     51  C   UNL A   1      40.821  31.300  30.257  1.00  0.00     0.074 A 
ATOM     52  C   UNL A   1      46.588  31.171  27.628  1.00  0.00     0.029 A 
ATOM     53  N   UNL A   1      44.578  30.633  28.411  1.00  0.00    -0.354 N 
ATOM     54  N   UNL A   1      41.992  31.192  29.674  1.00  0.00    -0.248 NA
ATOM     55  C   UNL A   1      40.563  32.627  30.833  1.00  0.00     0.031 C 
ATOM     56  C   UNL A   1      46.043  32.293  28.251  1.00  0.00     0.029 A 
ATOM     57  C   UNL A   1      44.771  31.975  28.698  1.00  0.00     0.049 A 
ATOM     58  H   UNL A   1      43.766  30.120  28.627  1.00  0.00     0.167 HD
ATOM     59  C   UNL A   1      42.594  32.443  29.783  1.00  0.00     0.074 A 
ATOM     60  C   UNL A   1      41.649  33.299  30.469  1.00  0.00     0.031 C 
ATOM     61  C   UNL A   1      43.818  32.840  29.356  1.00  0.00     0.034 A 
BRANCH  48  62
ATOM     62  C   UNL A   1      47.195  28.386  26.727  1.00  0.00     0.023 A 
ATOM     63  C   UNL A   1      47.294  28.276  25.326  1.00  0.00     0.031 A 
ATOM     64  C   UNL A   1      48.293  27.973  27.503  1.00  0.00     0.131 A 
ATOM     65  C   UNL A   1      48.440  27.716  24.749  1.00  0.00     0.055 A 
ATOM     66  C   UNL A   1      49.453  27.462  26.921  1.00  0.00     0.041 A 
ATOM     67  F   UNL A   1      48.247  28.049  28.844  1.00  0.00    -0.206 F 
ATOM     68  C   UNL A   1      49.523  27.315  25.538  1.00  0.00     0.022 A 
BRANCH  65  69
ATOM     69  S   UNL A   1      48.534  27.399  22.965  1.00  0.00     0.124 S 
ATOM     70  O   UNL A   1      47.398  28.170  22.464  1.00  0.00    -0.237 OA
ATOM     71  O   UNL A   1      49.849  27.935  22.630  1.00  0.00    -0.237 OA
ATOM     72  O   UNL A   1      48.394  25.951  22.859  1.00  0.00    -0.744 OA
ENDBRANCH  65  69
ENDBRANCH  48  62
BRANCH  49  73
ATOM     73  C   UNL A   1      38.420  30.575  31.031  1.00  0.00     0.023 A 
ATOM     74  C   UNL A   1      37.407  31.236  30.313  1.00  0.00     0.031 A 
ATOM     75  C   UNL A   1      38.199  30.314  32.394  1.00  0.00     0.131 A 
ATOM     76  C   UNL A   1      36.254  31.675  30.976  1.00  0.00     0.055 A 
ATOM     77  C   UNL A   1      37.012  30.683  33.032  1.00  0.00     0.041 A 
ATOM     78  F   UNL A   1      39.140  29.701  33.128  1.00  0.00    -0.206 F 
ATOM     79  C   UNL A   1      36.041  31.385  32.326  1.00  0.00     0.022 A 
BRANCH  76  80
ATOM     80  S   UNL A   1      35.062  32.762  30.143  1.00  0.00     0.124 S 
ATOM     81  O   UNL A   1      34.530  31.889  29.102  1.00  0.00    -0.237 OA
ATOM     82  O   UNL A   1      34.141  33.081  31.233  1.00  0.00    -0.237 OA
ATOM     83  O   UNL A   1      35.880  33.876  29.677  1.00  0.00    -0.744 OA
ENDBRANCH  76  80
ENDBRANCH  49  73
BRANCH  61  84
ATOM     84  C   UNL A   1      44.249  34.273  29.579  1.00  0.00     0.023 A 
ATOM     85  C   UNL A   1      43.887  35.263  28.644  1.00  0.00     0.031 A 
ATOM     86  C   UNL A   1      45.162  34.618  30.590  1.00  0.00     0.131 A 
ATOM     87  C   UNL A   1      44.487  36.528  28.698  1.00  0.00     0.055 A 
ATOM     88  C   UNL A   1      45.710  35.899  30.677  1.00  0.00     0.041 A 
ATOM     89  F   UNL A   1      45.549  33.709  31.499  1.00  0.00    -0.206 F 
ATOM     90  C   UNL A   1      45.388  36.854  29.715  1.00  0.00     0.022 A 
BRANCH  87  91
ATOM     91  S   UNL A   1      44.207  37.753  27.390  1.00  0.00     0.124 S 
ATOM     92  O   UNL A   1      43.903  38.956  28.160  1.00  0.00    -0.237 OA
ATOM     93  O   UNL A   1      45.494  37.763  26.699  1.00  0.00    -0.237 OA
ATOM     94  O   UNL A   1      43.089  37.206  26.627  1.00  0.00    -0.744 OA
ENDBRANCH  87  91
ENDBRANCH  61  84
ENDBRANCH  35  36
ENDBRANCH  28  30
ENDBRANCH  27  28
ENDBRANCH  26  27
ENDBRANCH   1  26
TORSDOF 19
ENDMDL
MODEL 2
REMARK VINA RESULT:     -11.5      2.108      2.756
REMARK SMILES CC(C)c1cc2c(cc1Cl)C=C(C(=O)OCCOCCOC(=O)c1ccc(-c3c4nc(c(-c5cc(S(=O)(=O)[O-])ccc5F)c5ccc([nH]5)c(-c5cc(S(=O)(=O)[O-])ccc5F)c5nc(c(-c6cc(S(=O)(=O)[O-])ccc6F)c6ccc3[nH]6)C=C5)C=C4)cc1)[C@@H](C(F)(F)F)O2
REMARK SMILES IDX 19 1 18 2 17 3 16 4 15 5 13 6 14 7 12 8 4 9 5 10 9 11 6 12
REMARK SMILES IDX 8 13 10 14 7 15 92 16 11 17 87 18 2 19 1 20 3 21 88 22 89 23
REMARK SMILES IDX 90 24 91 25 20 26 21 27 22 28 23 29 24 30 25 31 86 32 26 33
REMARK SMILES IDX 85 34 27 35 28 36 29 37 79 38 30 39 84 40 78 41 80 42 31 43
REMARK SMILES IDX 83 44 77 45 76 46 32 48 64 49 44 50 63 51 45 52 48 53 62 54
REMARK SMILES IDX 81 55 46 56 47 57 61 59 82 60 49 61 33 62 34 63 42 64 35 65
REMARK SMILES IDX 41 66 43 67 40 68 36 69 37 70 38 71 39 72 65 73 66 74 74 75
REMARK SMILES IDX 67 76 73 77 75 78 72 79 68 80 69 81 70 82 71 83 50 84 51 85
REMARK SMILES IDX 59 86 52 87 58 88 60 89 57 90 53 91 54 92 55 93 56 94
REMARK H PARENT 80 47 48 58
REMARK Flexibility Score: inf
ROOT
ATOM      1  C   UNL A   1      36.477  19.199  24.990  1.00  0.00     0.202 C 
ENDROOT
BRANCH   1   2
ATOM      2  O   UNL A   1      35.137  19.517  24.619  1.00  0.00    -0.374 OA
BRANCH   2   3
ATOM      3  C   UNL A   1      34.157  18.483  24.654  1.00  0.00     0.202 C 
BRANCH   3   4
ATOM      4  C   UNL A   1      32.680  18.890  24.617  1.00  0.00     0.261 C 
BRANCH   4   5
ATOM      5  O   UNL A   1      32.462  20.201  25.158  1.00  0.00    -0.460 OA
BRANCH   5   6
ATOM      6  C   UNL A   1      32.345  21.172  24.223  1.00  0.00     0.338 C 
ATOM      7  O   UNL A   1      32.267  21.024  23.015  1.00  0.00    -0.246 OA
BRANCH   6   8
ATOM      8  C   UNL A   1      32.169  22.481  24.879  1.00  0.00     0.087 C 
ATOM      9  C   UNL A   1      31.277  27.387  25.493  1.00  0.00    -0.023 A 
ATOM     10  C   UNL A   1      31.974  26.401  26.233  1.00  0.00     0.052 A 
ATOM     11  C   UNL A   1      30.510  26.956  24.397  1.00  0.00     0.045 A 
ATOM     12  C   UNL A   1      31.956  25.055  25.861  1.00  0.00     0.128 A 
ATOM     13  C   UNL A   1      30.464  25.602  24.050  1.00  0.00     0.032 A 
ATOM     14  Cl  UNL A   1      29.644  28.019  23.348  1.00  0.00    -0.084 Cl
ATOM     15  C   UNL A   1      31.213  24.660  24.756  1.00  0.00     0.019 A 
ATOM     16  O   UNL A   1      32.703  24.195  26.614  1.00  0.00    -0.475 OA
ATOM     17  C   UNL A   1      31.298  23.299  24.274  1.00  0.00     0.027 C 
ATOM     18  C   UNL A   1      32.964  22.852  26.099  1.00  0.00     0.316 C 
BRANCH   9  19
ATOM     19  C   UNL A   1      31.511  28.840  25.893  1.00  0.00     0.014 C 
ATOM     20  C   UNL A   1      31.798  28.933  27.395  1.00  0.00     0.012 C 
ATOM     21  C   UNL A   1      32.559  29.607  25.082  1.00  0.00     0.012 C 
ENDBRANCH   9  19
BRANCH  18  22
ATOM     22  C   UNL A   1      34.477  22.694  25.882  1.00  0.00     0.430 C 
ATOM     23  F   UNL A   1      34.766  22.489  24.575  1.00  0.00    -0.167 F 
ATOM     24  F   UNL A   1      35.156  23.798  26.266  1.00  0.00    -0.167 F 
ATOM     25  F   UNL A   1      34.975  21.647  26.578  1.00  0.00    -0.167 F 
ENDBRANCH  18  22
ENDBRANCH   6   8
ENDBRANCH   5   6
ENDBRANCH   4   5
ENDBRANCH   3   4
ENDBRANCH   2   3
ENDBRANCH   1   2
BRANCH   1  26
ATOM     26  C   UNL A   1      37.604  20.178  24.632  1.00  0.00     0.261 C 
BRANCH  26  27
ATOM     27  O   UNL A   1      37.981  21.035  25.723  1.00  0.00    -0.460 OA
BRANCH  27  28
ATOM     28  C   UNL A   1      39.252  20.859  26.169  1.00  0.00     0.338 C 
ATOM     29  O   UNL A   1      39.943  19.859  26.044  1.00  0.00    -0.246 OA
BRANCH  28  30
ATOM     30  C   UNL A   1      39.775  22.148  26.659  1.00  0.00     0.060 A 
ATOM     31  C   UNL A   1      40.813  22.201  27.589  1.00  0.00     0.016 A 
ATOM     32  C   UNL A   1      39.220  23.327  26.142  1.00  0.00     0.016 A 
ATOM     33  C   UNL A   1      41.306  23.444  27.994  1.00  0.00     0.010 A 
ATOM     34  C   UNL A   1      39.713  24.567  26.548  1.00  0.00     0.010 A 
ATOM     35  C   UNL A   1      40.769  24.636  27.469  1.00  0.00    -0.014 A 
BRANCH  35  36
ATOM     36  C   UNL A   1      41.383  25.947  27.797  1.00  0.00     0.031 A 
ATOM     37  C   UNL A   1      42.790  26.271  27.389  1.00  0.00     0.074 A 
ATOM     38  C   UNL A   1      40.660  26.839  28.501  1.00  0.00     0.049 A 
ATOM     39  N   UNL A   1      43.455  27.383  27.560  1.00  0.00    -0.248 NA
ATOM     40  C   UNL A   1      43.553  25.213  26.708  1.00  0.00     0.031 C 
ATOM     41  C   UNL A   1      39.300  26.607  28.985  1.00  0.00     0.029 A 
ATOM     42  N   UNL A   1      40.959  28.107  28.933  1.00  0.00    -0.354 N 
ATOM     43  C   UNL A   1      44.708  27.171  26.998  1.00  0.00     0.074 A 
ATOM     44  C   UNL A   1      44.728  25.803  26.526  1.00  0.00     0.031 C 
ATOM     45  C   UNL A   1      38.871  27.705  29.625  1.00  0.00     0.029 A 
ATOM     46  C   UNL A   1      39.937  28.704  29.636  1.00  0.00     0.049 A 
ATOM     47  H   UNL A   1      41.821  28.548  28.757  1.00  0.00     0.167 HD
ATOM     48  C   UNL A   1      45.732  28.048  26.873  1.00  0.00     0.034 A 
ATOM     49  C   UNL A   1      39.864  29.916  30.226  1.00  0.00     0.034 A 
ATOM     50  C   UNL A   1      45.691  29.406  27.355  1.00  0.00     0.049 A 
ATOM     51  C   UNL A   1      41.032  30.863  30.097  1.00  0.00     0.074 A 
ATOM     52  C   UNL A   1      46.662  30.384  27.224  1.00  0.00     0.029 A 
ATOM     53  N   UNL A   1      44.644  29.978  28.063  1.00  0.00    -0.354 N 
ATOM     54  N   UNL A   1      42.165  30.687  29.460  1.00  0.00    -0.248 NA
ATOM     55  C   UNL A   1      40.912  32.175  30.748  1.00  0.00     0.031 C 
ATOM     56  C   UNL A   1      46.241  31.514  27.924  1.00  0.00     0.029 A 
ATOM     57  C   UNL A   1      44.964  31.282  28.408  1.00  0.00     0.049 A 
ATOM     58  H   UNL A   1      43.799  29.525  28.288  1.00  0.00     0.167 HD
ATOM     59  C   UNL A   1      42.878  31.875  29.606  1.00  0.00     0.074 A 
ATOM     60  C   UNL A   1      42.037  32.770  30.372  1.00  0.00     0.031 C 
ATOM     61  C   UNL A   1      44.115  32.189  29.147  1.00  0.00     0.034 A 
BRANCH  48  62
ATOM     62  C   UNL A   1      46.990  27.609  26.162  1.00  0.00     0.023 A 
ATOM     63  C   UNL A   1      47.179  27.926  24.802  1.00  0.00     0.031 A 
ATOM     64  C   UNL A   1      47.904  26.730  26.770  1.00  0.00     0.131 A 
ATOM     65  C   UNL A   1      48.220  27.326  24.084  1.00  0.00     0.055 A 
ATOM     66  C   UNL A   1      48.970  26.173  26.063  1.00  0.00     0.041 A 
ATOM     67  F   UNL A   1      47.764  26.388  28.063  1.00  0.00    -0.206 F 
ATOM     68  C   UNL A   1      49.121  26.457  24.709  1.00  0.00     0.022 A 
BRANCH  65  69
ATOM     69  S   UNL A   1      48.391  27.574  22.295  1.00  0.00     0.124 S 
ATOM     70  O   UNL A   1      48.572  26.204  21.819  1.00  0.00    -0.237 OA
ATOM     71  O   UNL A   1      47.116  28.192  21.949  1.00  0.00    -0.237 OA
ATOM     72  O   UNL A   1      49.565  28.431  22.171  1.00  0.00    -0.744 OA
ENDBRANCH  65  69
ENDBRANCH  48  62
BRANCH  49  73
ATOM     73  C   UNL A   1      38.608  30.305  30.935  1.00  0.00     0.023 A 
ATOM     74  C   UNL A   1      37.565  30.956  30.251  1.00  0.00     0.031 A 
ATOM     75  C   UNL A   1      38.475  30.127  32.322  1.00  0.00     0.131 A 
ATOM     76  C   UNL A   1      36.474  31.468  30.965  1.00  0.00     0.055 A 
ATOM     77  C   UNL A   1      37.347  30.567  33.018  1.00  0.00     0.041 A 
ATOM     78  F   UNL A   1      39.448  29.526  33.024  1.00  0.00    -0.206 F 
ATOM     79  C   UNL A   1      36.348  31.259  32.341  1.00  0.00     0.022 A 
BRANCH  76  80
ATOM     80  S   UNL A   1      35.257  32.543  30.155  1.00  0.00     0.124 S 
ATOM     81  O   UNL A   1      34.783  31.699  29.063  1.00  0.00    -0.237 OA
ATOM     82  O   UNL A   1      34.301  32.775  31.236  1.00  0.00    -0.237 OA
ATOM     83  O   UNL A   1      36.038  33.710  29.759  1.00  0.00    -0.744 OA
ENDBRANCH  76  80
ENDBRANCH  49  73
BRANCH  61  84
ATOM     84  C   UNL A   1      44.677  33.566  29.423  1.00  0.00     0.023 A 
ATOM     85  C   UNL A   1      45.331  33.820  30.645  1.00  0.00     0.031 A 
ATOM     86  C   UNL A   1      44.401  34.655  28.580  1.00  0.00     0.131 A 
ATOM     87  C   UNL A   1      45.626  35.137  31.019  1.00  0.00     0.055 A 
ATOM     88  C   UNL A   1      44.751  35.960  28.930  1.00  0.00     0.041 A 
ATOM     89  F   UNL A   1      43.768  34.470  27.410  1.00  0.00    -0.206 F 
ATOM     90  C   UNL A   1      45.348  36.208  30.165  1.00  0.00     0.022 A 
BRANCH  87  91
ATOM     91  S   UNL A   1      46.271  35.518  32.672  1.00  0.00     0.124 S 
ATOM     92  O   UNL A   1      47.362  34.555  32.801  1.00  0.00    -0.237 OA
ATOM     93  O   UNL A   1      46.683  36.912  32.526  1.00  0.00    -0.237 OA
ATOM     94  O   UNL A   1      45.133  35.288  33.557  1.00  0.00    -0.744 OA
ENDBRANCH  87  91
ENDBRANCH  61  84
ENDBRANCH  35  36
ENDBRANCH  28  30
ENDBRANCH  27  28
ENDBRANCH  26  27
ENDBRANCH   1  26
TORSDOF 19
ENDMDL
MODEL 3
REMARK VINA RESULT:     -11.4      1.938      2.304
REMARK SMILES CC(C)c1cc2c(cc1Cl)C=C(C(=O)OCCOCCOC(=O)c1ccc(-c3c4nc(c(-c5cc(S(=O)(=O)[O-])ccc5F)c5ccc([nH]5)c(-c5cc(S(=O)(=O)[O-])ccc5F)c5nc(c(-c6cc(S(=O)(=O)[O-])ccc6F)c6ccc3[nH]6)C=C5)C=C4)cc1)[C@@H](C(F)(F)F)O2
REMARK SMILES IDX 19 1 18 2 17 3 16 4 15 5 13 6 14 7 12 8 4 9 5 10 9 11 6 12
REMARK SMILES IDX 8 13 10 14 7 15 92 16 11 17 87 18 2 19 1 20 3 21 88 22 89 23
REMARK SMILES IDX 90 24 91 25 20 26 21 27 22 28 23 29 24 30 25 31 86 32 26 33
REMARK SMILES IDX 85 34 27 35 28 36 29 37 79 38 30 39 84 40 78 41 80 42 31 43
REMARK SMILES IDX 83 44 77 45 76 46 32 48 64 49 44 50 63 51 45 52 48 53 62 54
REMARK SMILES IDX 81 55 46 56 47 57 61 59 82 60 49 61 33 62 34 63 42 64 35 65
REMARK SMILES IDX 41 66 43 67 40 68 36 69 37 70 38 71 39 72 65 73 66 74 74 75
REMARK SMILES IDX 67 76 73 77 75 78 72 79 68 80 69 81 70 82 71 83 50 84 51 85
REMARK SMILES IDX 59 86 52 87 58 88 60 89 57 90 53 91 54 92 55 93 56 94
REMARK H PARENT 80 47 48 58
REMARK Flexibility Score: inf
ROOT
ATOM      1  C   UNL A   1      36.201  20.416  24.986  1.00  0.00     0.202 C 
ENDROOT
BRANCH   1   2
ATOM      2  O   UNL A   1      35.133  21.361  24.961  1.00  0.00    -0.374 OA
BRANCH   2   3
ATOM      3  C   UNL A   1      34.084  21.229  25.917  1.00  0.00     0.202 C 
BRANCH   3   4
ATOM      4  C   UNL A   1      33.206  22.453  26.197  1.00  0.00     0.261 C 
BRANCH   4   5
ATOM      5  O   UNL A   1      33.241  23.405  25.123  1.00  0.00    -0.460 OA
BRANCH   5   6
ATOM      6  C   UNL A   1      32.111  23.440  24.380  1.00  0.00     0.338 C 
ATOM      7  O   UNL A   1      31.448  22.487  24.004  1.00  0.00    -0.246 OA
BRANCH   6   8
ATOM      8  C   UNL A   1      31.676  24.837  24.193  1.00  0.00     0.087 C 
ATOM      9  C   UNL A   1      28.760  28.785  23.122  1.00  0.00    -0.023 A 
ATOM     10  C   UNL A   1      30.158  28.560  23.159  1.00  0.00     0.052 A 
ATOM     11  C   UNL A   1      27.925  27.770  23.620  1.00  0.00     0.045 A 
ATOM     12  C   UNL A   1      30.695  27.354  23.616  1.00  0.00     0.128 A 
ATOM     13  C   UNL A   1      28.468  26.579  24.110  1.00  0.00     0.032 A 
ATOM     14  Cl  UNL A   1      26.200  27.845  23.600  1.00  0.00    -0.084 Cl
ATOM     15  C   UNL A   1      29.845  26.356  24.075  1.00  0.00     0.019 A 
ATOM     16  O   UNL A   1      32.053  27.222  23.563  1.00  0.00    -0.475 OA
ATOM     17  C   UNL A   1      30.374  25.054  24.415  1.00  0.00     0.027 C 
ATOM     18  C   UNL A   1      32.640  25.895  23.734  1.00  0.00     0.316 C 
BRANCH   9  19
ATOM     19  C   UNL A   1      28.289  30.067  22.445  1.00  0.00     0.014 C 
ATOM     20  C   UNL A   1      27.842  31.086  23.499  1.00  0.00     0.012 C 
ATOM     21  C   UNL A   1      29.254  30.700  21.440  1.00  0.00     0.012 C 
ENDBRANCH   9  19
BRANCH  18  22
ATOM     22  C   UNL A   1      33.363  25.505  22.436  1.00  0.00     0.430 C 
ATOM     23  F   UNL A   1      32.547  24.806  21.611  1.00  0.00    -0.167 F 
ATOM     24  F   UNL A   1      33.779  26.592  21.748  1.00  0.00    -0.167 F 
ATOM     25  F   UNL A   1      34.449  24.737  22.680  1.00  0.00    -0.167 F 
ENDBRANCH  18  22
ENDBRANCH   6   8
ENDBRANCH   5   6
ENDBRANCH   4   5
ENDBRANCH   3   4
ENDBRANCH   2   3
ENDBRANCH   1   2
BRANCH   1  26
ATOM     26  C   UNL A   1      37.649  20.923  24.928  1.00  0.00     0.261 C 
BRANCH  26  27
ATOM     27  O   UNL A   1      38.028  21.694  26.079  1.00  0.00    -0.460 OA
BRANCH  27  28
ATOM     28  C   UNL A   1      39.335  21.584  26.431  1.00  0.00     0.338 C 
ATOM     29  O   UNL A   1      40.077  20.639  26.213  1.00  0.00    -0.246 OA
BRANCH  28  30
ATOM     30  C   UNL A   1      39.808  22.882  26.946  1.00  0.00     0.060 A 
ATOM     31  C   UNL A   1      40.834  22.956  27.889  1.00  0.00     0.016 A 
ATOM     32  C   UNL A   1      39.218  24.050  26.442  1.00  0.00     0.016 A 
ATOM     33  C   UNL A   1      41.279  24.209  28.317  1.00  0.00     0.010 A 
ATOM     34  C   UNL A   1      39.663  25.299  26.873  1.00  0.00     0.010 A 
ATOM     35  C   UNL A   1      40.707  25.390  27.806  1.00  0.00    -0.014 A 
BRANCH  35  36
ATOM     36  C   UNL A   1      41.272  26.716  28.160  1.00  0.00     0.031 A 
ATOM     37  C   UNL A   1      42.702  27.059  27.859  1.00  0.00     0.074 A 
ATOM     38  C   UNL A   1      40.482  27.606  28.791  1.00  0.00     0.049 A 
ATOM     39  N   UNL A   1      43.333  28.185  28.064  1.00  0.00    -0.248 NA
ATOM     40  C   UNL A   1      43.532  26.005  27.256  1.00  0.00     0.031 C 
ATOM     41  C   UNL A   1      39.091  27.357  29.172  1.00  0.00     0.029 A 
ATOM     42  N   UNL A   1      40.725  28.885  29.226  1.00  0.00    -0.354 N 
ATOM     43  C   UNL A   1      44.629  27.986  27.605  1.00  0.00     0.074 A 
ATOM     44  C   UNL A   1      44.708  26.613  27.158  1.00  0.00     0.031 C 
ATOM     45  C   UNL A   1      38.596  28.456  29.759  1.00  0.00     0.029 A 
ATOM     46  C   UNL A   1      39.641  29.474  29.838  1.00  0.00     0.049 A 
ATOM     47  H   UNL A   1      41.591  29.338  29.111  1.00  0.00     0.167 HD
ATOM     48  C   UNL A   1      45.646  28.879  27.547  1.00  0.00     0.034 A 
ATOM     49  C   UNL A   1      39.503  30.692  30.402  1.00  0.00     0.034 A 
ATOM     50  C   UNL A   1      45.545  30.244  28.003  1.00  0.00     0.049 A 
ATOM     51  C   UNL A   1      40.662  31.658  30.349  1.00  0.00     0.074 A 
ATOM     52  C   UNL A   1      46.507  31.236  27.934  1.00  0.00     0.029 A 
ATOM     53  N   UNL A   1      44.436  30.807  28.619  1.00  0.00    -0.354 N 
ATOM     54  N   UNL A   1      41.844  31.493  29.806  1.00  0.00    -0.248 NA
ATOM     55  C   UNL A   1      40.469  32.976  30.969  1.00  0.00     0.031 C 
ATOM     56  C   UNL A   1      46.014  32.368  28.580  1.00  0.00     0.029 A 
ATOM     57  C   UNL A   1      44.707  32.121  28.967  1.00  0.00     0.049 A 
ATOM     58  H   UNL A   1      43.583  30.343  28.783  1.00  0.00     0.167 HD
ATOM     59  C   UNL A   1      42.524  32.694  29.989  1.00  0.00     0.074 A 
ATOM     60  C   UNL A   1      41.611  33.586  30.673  1.00  0.00     0.031 C 
ATOM     61  C   UNL A   1      43.788  33.023  29.623  1.00  0.00     0.034 A 
BRANCH  48  62
ATOM     62  C   UNL A   1      46.963  28.452  26.943  1.00  0.00     0.023 A 
ATOM     63  C   UNL A   1      47.097  28.349  25.545  1.00  0.00     0.031 A 
ATOM     64  C   UNL A   1      48.013  27.976  27.747  1.00  0.00     0.131 A 
ATOM     65  C   UNL A   1      48.228  27.733  24.996  1.00  0.00     0.055 A 
ATOM     66  C   UNL A   1      49.162  27.409  27.194  1.00  0.00     0.041 A 
ATOM     67  F   UNL A   1      47.932  28.044  29.087  1.00  0.00    -0.206 F 
ATOM     68  C   UNL A   1      49.265  27.269  25.813  1.00  0.00     0.022 A 
BRANCH  65  69
ATOM     69  S   UNL A   1      48.358  27.425  23.213  1.00  0.00     0.124 S 
ATOM     70  O   UNL A   1      48.217  25.972  23.149  1.00  0.00    -0.237 OA
ATOM     71  O   UNL A   1      47.228  28.185  22.689  1.00  0.00    -0.237 OA
ATOM     72  O   UNL A   1      49.680  27.934  22.865  1.00  0.00    -0.744 OA
ENDBRANCH  65  69
ENDBRANCH  48  62
BRANCH  49  73
ATOM     73  C   UNL A   1      38.189  31.069  31.004  1.00  0.00     0.023 A 
ATOM     74  C   UNL A   1      37.198  31.705  30.234  1.00  0.00     0.031 A 
ATOM     75  C   UNL A   1      37.945  30.895  32.377  1.00  0.00     0.131 A 
ATOM     76  C   UNL A   1      36.046  32.207  30.854  1.00  0.00     0.055 A 
ATOM     77  C   UNL A   1      36.759  31.325  32.976  1.00  0.00     0.041 A 
ATOM     78  F   UNL A   1      38.865  30.308  33.158  1.00  0.00    -0.206 F 
ATOM     79  C   UNL A   1      35.811  32.003  32.217  1.00  0.00     0.022 A 
BRANCH  76  80
ATOM     80  S   UNL A   1      34.887  33.265  29.943  1.00  0.00     0.124 S 
ATOM     81  O   UNL A   1      34.189  32.298  29.102  1.00  0.00    -0.237 OA
ATOM     82  O   UNL A   1      34.099  33.845  31.028  1.00  0.00    -0.237 OA
ATOM     83  O   UNL A   1      35.757  34.202  29.240  1.00  0.00    -0.744 OA
ENDBRANCH  76  80
ENDBRANCH  49  73
BRANCH  61  84
ATOM     84  C   UNL A   1      44.304  34.414  29.921  1.00  0.00     0.023 A 
ATOM     85  C   UNL A   1      44.812  34.709  31.202  1.00  0.00     0.031 A 
ATOM     86  C   UNL A   1      44.118  35.476  29.020  1.00  0.00     0.131 A 
ATOM     87  C   UNL A   1      45.051  36.040  31.568  1.00  0.00     0.055 A 
ATOM     88  C   UNL A   1      44.416  36.794  29.370  1.00  0.00     0.041 A 
ATOM     89  F   UNL A   1      43.625  35.250  27.792  1.00  0.00    -0.206 F 
ATOM     90  C   UNL A   1      44.866  37.083  30.656  1.00  0.00     0.022 A 
BRANCH  87  91
ATOM     91  S   UNL A   1      45.500  36.475  33.272  1.00  0.00     0.124 S 
ATOM     92  O   UNL A   1      44.461  35.794  34.042  1.00  0.00    -0.237 OA
ATOM     93  O   UNL A   1      46.839  35.904  33.391  1.00  0.00    -0.237 OA
ATOM     94  O   UNL A   1      45.433  37.932  33.294  1.00  0.00    -0.744 OA
ENDBRANCH  87  91
ENDBRANCH  61  84
ENDBRANCH  35  36
ENDBRANCH  28  30
ENDBRANCH  27  28
ENDBRANCH  26  27
ENDBRANCH   1  26
TORSDOF 19
ENDMDL
