MODEL 1
REMARK VINA RESULT:     -11.1      0.000      0.000
REMARK SMILES CC[C@H](C)c1ccccc1Oc1cccc(F)c1C(=O)OCCOCCOC(=O)c1ccc(-c2c3nc(c(-c4cc(S(=O)(=O)[O-])ccc4F)c4ccc([nH]4)c(-c4cc(S(=O)(=O)[O-])ccc4F)c4nc(c(-c5cc(S(=O)(=O)[O-])ccc5F)c5ccc2[nH]5)C=C4)C=C3)cc1
REMARK SMILES IDX 23 1 22 2 21 3 19 4 20 5 18 6 12 7 13 8 14 9 16 10 15 11
REMARK SMILES IDX 17 12 11 13 10 14 5 15 6 16 7 17 9 18 8 19 3 20 4 21 2 22
REMARK SMILES IDX 1 23 24 24 25 25 26 26 27 27 28 28 29 29 30 30 31 31 92 32
REMARK SMILES IDX 32 33 91 34 33 35 34 36 35 37 85 38 36 39 90 40 84 41 86 42
REMARK SMILES IDX 37 43 89 44 83 45 82 46 38 48 70 49 50 50 69 51 51 52 54 53
REMARK SMILES IDX 68 54 87 55 52 56 53 57 67 59 88 60 55 61 39 62 40 63 48 64
REMARK SMILES IDX 41 65 47 66 49 67 46 68 42 69 43 70 44 71 45 72 71 73 72 74
REMARK SMILES IDX 80 75 73 76 79 77 81 78 78 79 74 80 75 81 76 82 77 83 56 84
REMARK SMILES IDX 57 85 65 86 58 87 64 88 66 89 63 90 59 91 60 92 61 93 62 94
REMARK H PARENT 86 47 54 58
REMARK Flexibility Score: inf
ROOT
ATOM      1  C   UNL A   1      33.419  27.163  24.738  1.00  0.00     0.202 C 
ENDROOT
BRANCH   1   2
ATOM      2  C   UNL A   1      33.420  26.001  25.735  1.00  0.00     0.261 C 
BRANCH   2   3
ATOM      3  O   UNL A   1      33.950  24.776  25.208  1.00  0.00    -0.459 OA
BRANCH   3   4
ATOM      4  C   UNL A   1      34.019  23.771  26.110  1.00  0.00     0.345 C 
ATOM      5  O   UNL A   1      33.237  23.575  27.032  1.00  0.00    -0.246 OA
BRANCH   4   6
ATOM      6  C   UNL A   1      35.108  22.833  25.799  1.00  0.00     0.138 A 
ATOM      7  C   UNL A   1      34.974  21.459  25.592  1.00  0.00     0.144 A 
ATOM      8  C   UNL A   1      36.118  20.701  25.259  1.00  0.00     0.048 A 
ATOM      9  C   UNL A   1      37.352  21.302  25.025  1.00  0.00     0.007 A 
ATOM     10  C   UNL A   1      36.365  23.422  25.579  1.00  0.00     0.141 A 
ATOM     11  C   UNL A   1      37.470  22.675  25.176  1.00  0.00     0.040 A 
ATOM     12  F   UNL A   1      36.547  24.740  25.743  1.00  0.00    -0.206 F 
BRANCH   7  13
ATOM     13  O   UNL A   1      33.863  20.661  25.612  1.00  0.00    -0.456 OA
BRANCH  13  14
ATOM     14  C   UNL A   1      33.255  20.118  24.509  1.00  0.00     0.130 A 
ATOM     15  C   UNL A   1      32.624  20.771  23.429  1.00  0.00    -0.002 A 
ATOM     16  C   UNL A   1      32.044  19.914  22.459  1.00  0.00     0.008 A 
ATOM     17  C   UNL A   1      32.203  18.522  22.472  1.00  0.00     0.001 A 
ATOM     18  C   UNL A   1      33.437  18.715  24.499  1.00  0.00     0.047 A 
ATOM     19  C   UNL A   1      32.929  17.921  23.481  1.00  0.00     0.004 A 
BRANCH  15  20
ATOM     20  C   UNL A   1      32.461  22.292  23.251  1.00  0.00     0.019 C 
ATOM     21  C   UNL A   1      33.307  22.954  22.147  1.00  0.00     0.013 C 
BRANCH  20  22
ATOM     22  C   UNL A   1      31.013  22.840  23.126  1.00  0.00     0.005 C 
ATOM     23  C   UNL A   1      30.784  24.172  23.827  1.00  0.00     0.004 C 
ENDBRANCH  20  22
ENDBRANCH  15  20
ENDBRANCH  13  14
ENDBRANCH   7  13
ENDBRANCH   4   6
ENDBRANCH   3   4
ENDBRANCH   2   3
ENDBRANCH   1   2
BRANCH   1  24
ATOM     24  O   UNL A   1      32.234  27.914  24.512  1.00  0.00    -0.374 OA
BRANCH  24  25
ATOM     25  C   UNL A   1      31.647  28.649  25.575  1.00  0.00     0.202 C 
BRANCH  25  26
ATOM     26  C   UNL A   1      32.046  30.111  25.857  1.00  0.00     0.261 C 
BRANCH  26  27
ATOM     27  O   UNL A   1      32.396  30.431  27.210  1.00  0.00    -0.460 OA
BRANCH  27  28
ATOM     28  C   UNL A   1      33.161  31.547  27.317  1.00  0.00     0.338 C 
ATOM     29  O   UNL A   1      32.771  32.700  27.291  1.00  0.00    -0.246 OA
BRANCH  28  30
ATOM     30  C   UNL A   1      34.563  31.211  27.625  1.00  0.00     0.060 A 
ATOM     31  C   UNL A   1      34.883  29.854  27.750  1.00  0.00     0.016 A 
ATOM     32  C   UNL A   1      35.480  32.196  27.995  1.00  0.00     0.016 A 
ATOM     33  C   UNL A   1      36.088  29.475  28.330  1.00  0.00     0.010 A 
ATOM     34  C   UNL A   1      36.692  31.812  28.584  1.00  0.00     0.010 A 
ATOM     35  C   UNL A   1      36.970  30.451  28.810  1.00  0.00    -0.014 A 
BRANCH  35  36
ATOM     36  C   UNL A   1      38.053  30.021  29.731  1.00  0.00     0.031 A 
ATOM     37  C   UNL A   1      39.097  29.055  29.226  1.00  0.00     0.074 A 
ATOM     38  C   UNL A   1      38.173  30.572  30.952  1.00  0.00     0.049 A 
ATOM     39  N   UNL A   1      40.156  28.584  29.830  1.00  0.00    -0.248 NA
ATOM     40  C   UNL A   1      38.920  28.559  27.851  1.00  0.00     0.031 C 
ATOM     41  C   UNL A   1      37.262  31.566  31.518  1.00  0.00     0.029 A 
ATOM     42  N   UNL A   1      39.120  30.390  31.926  1.00  0.00    -0.354 N 
ATOM     43  C   UNL A   1      40.775  27.739  28.911  1.00  0.00     0.074 A 
ATOM     44  C   UNL A   1      39.941  27.725  27.730  1.00  0.00     0.031 C 
ATOM     45  C   UNL A   1      37.703  31.916  32.738  1.00  0.00     0.029 A 
ATOM     46  C   UNL A   1      38.903  31.145  33.055  1.00  0.00     0.049 A 
ATOM     47  H   UNL A   1      39.884  29.777  31.827  1.00  0.00     0.167 HD
ATOM     48  C   UNL A   1      41.940  27.055  29.035  1.00  0.00     0.034 A 
ATOM     49  C   UNL A   1      39.589  31.196  34.215  1.00  0.00     0.034 A 
ATOM     50  C   UNL A   1      42.760  27.078  30.223  1.00  0.00     0.049 A 
ATOM     51  C   UNL A   1      40.830  30.346  34.364  1.00  0.00     0.074 A 
ATOM     52  C   UNL A   1      43.954  26.421  30.460  1.00  0.00     0.029 A 
ATOM     53  N   UNL A   1      42.466  27.793  31.378  1.00  0.00    -0.354 N 
ATOM     54  N   UNL A   1      41.399  29.549  33.489  1.00  0.00    -0.248 NA
ATOM     55  C   UNL A   1      41.525  30.417  35.655  1.00  0.00     0.031 C 
ATOM     56  C   UNL A   1      44.342  26.677  31.781  1.00  0.00     0.029 A 
ATOM     57  C   UNL A   1      43.437  27.565  32.341  1.00  0.00     0.049 A 
ATOM     58  H   UNL A   1      41.682  28.378  31.494  1.00  0.00     0.167 HD
ATOM     59  C   UNL A   1      42.538  29.048  34.117  1.00  0.00     0.074 A 
ATOM     60  C   UNL A   1      42.586  29.657  35.429  1.00  0.00     0.031 C 
ATOM     61  C   UNL A   1      43.463  28.167  33.654  1.00  0.00     0.034 A 
BRANCH  48  62
ATOM     62  C   UNL A   1      42.365  26.187  27.872  1.00  0.00     0.023 A 
ATOM     63  C   UNL A   1      41.889  24.873  27.714  1.00  0.00     0.031 A 
ATOM     64  C   UNL A   1      43.277  26.674  26.919  1.00  0.00     0.131 A 
ATOM     65  C   UNL A   1      42.379  24.071  26.672  1.00  0.00     0.055 A 
ATOM     66  C   UNL A   1      43.699  25.898  25.837  1.00  0.00     0.041 A 
ATOM     67  F   UNL A   1      43.785  27.911  27.030  1.00  0.00    -0.206 F 
ATOM     68  C   UNL A   1      43.260  24.583  25.717  1.00  0.00     0.022 A 
BRANCH  65  69
ATOM     69  S   UNL A   1      41.961  22.305  26.661  1.00  0.00     0.124 S 
ATOM     70  O   UNL A   1      42.511  21.881  25.376  1.00  0.00    -0.237 OA
ATOM     71  O   UNL A   1      42.650  21.811  27.847  1.00  0.00    -0.237 OA
ATOM     72  O   UNL A   1      40.502  22.298  26.738  1.00  0.00    -0.744 OA
ENDBRANCH  65  69
ENDBRANCH  48  62
BRANCH  49  73
ATOM     73  C   UNL A   1      39.113  32.047  35.344  1.00  0.00     0.023 A 
ATOM     74  C   UNL A   1      39.558  33.369  35.497  1.00  0.00     0.031 A 
ATOM     75  C   UNL A   1      38.263  31.520  36.335  1.00  0.00     0.131 A 
ATOM     76  C   UNL A   1      39.203  34.099  36.642  1.00  0.00     0.055 A 
ATOM     77  C   UNL A   1      37.861  32.273  37.439  1.00  0.00     0.041 A 
ATOM     78  F   UNL A   1      37.809  30.260  36.242  1.00  0.00    -0.206 F 
ATOM     79  C   UNL A   1      38.346  33.565  37.607  1.00  0.00     0.022 A 
BRANCH  76  80
ATOM     80  S   UNL A   1      39.971  35.721  36.910  1.00  0.00     0.124 S 
ATOM     81  O   UNL A   1      39.282  36.181  38.110  1.00  0.00    -0.237 OA
ATOM     82  O   UNL A   1      41.377  35.365  37.072  1.00  0.00    -0.237 OA
ATOM     83  O   UNL A   1      39.654  36.454  35.686  1.00  0.00    -0.744 OA
ENDBRANCH  76  80
ENDBRANCH  49  73
BRANCH  61  84
ATOM     84  C   UNL A   1      44.621  27.846  34.570  1.00  0.00     0.023 A 
ATOM     85  C   UNL A   1      44.557  26.793  35.499  1.00  0.00     0.031 A 
ATOM     86  C   UNL A   1      45.790  28.628  34.541  1.00  0.00     0.131 A 
ATOM     87  C   UNL A   1      45.606  26.599  36.412  1.00  0.00     0.055 A 
ATOM     88  C   UNL A   1      46.862  28.383  35.401  1.00  0.00     0.041 A 
ATOM     89  F   UNL A   1      45.908  29.650  33.677  1.00  0.00    -0.206 F 
ATOM     90  C   UNL A   1      46.765  27.376  36.356  1.00  0.00     0.022 A 
BRANCH  87  91
ATOM     91  S   UNL A   1      45.377  25.402  37.756  1.00  0.00     0.124 S 
ATOM     92  O   UNL A   1      45.439  26.257  38.937  1.00  0.00    -0.237 OA
ATOM     93  O   UNL A   1      44.067  24.836  37.448  1.00  0.00    -0.237 OA
ATOM     94  O   UNL A   1      46.503  24.485  37.593  1.00  0.00    -0.744 OA
ENDBRANCH  87  91
ENDBRANCH  61  84
ENDBRANCH  35  36
ENDBRANCH  28  30
ENDBRANCH  27  28
ENDBRANCH  26  27
ENDBRANCH  25  26
ENDBRANCH  24  25
ENDBRANCH   1  24
TORSDOF 21
ENDMDL
MODEL 2
REMARK VINA RESULT:     -11.0      1.921      7.918
REMARK SMILES CC[C@H](C)c1ccccc1Oc1cccc(F)c1C(=O)OCCOCCOC(=O)c1ccc(-c2c3nc(c(-c4cc(S(=O)(=O)[O-])ccc4F)c4ccc([nH]4)c(-c4cc(S(=O)(=O)[O-])ccc4F)c4nc(c(-c5cc(S(=O)(=O)[O-])ccc5F)c5ccc2[nH]5)C=C4)C=C3)cc1
REMARK SMILES IDX 23 1 22 2 21 3 19 4 20 5 18 6 12 7 13 8 14 9 16 10 15 11
REMARK SMILES IDX 17 12 11 13 10 14 5 15 6 16 7 17 9 18 8 19 3 20 4 21 2 22
REMARK SMILES IDX 1 23 24 24 25 25 26 26 27 27 28 28 29 29 30 30 31 31 92 32
REMARK SMILES IDX 32 33 91 34 33 35 34 36 35 37 85 38 36 39 90 40 84 41 86 42
REMARK SMILES IDX 37 43 89 44 83 45 82 46 38 48 70 49 50 50 69 51 51 52 54 53
REMARK SMILES IDX 68 54 87 55 52 56 53 57 67 59 88 60 55 61 39 62 40 63 48 64
REMARK SMILES IDX 41 65 47 66 49 67 46 68 42 69 43 70 44 71 45 72 71 73 72 74
REMARK SMILES IDX 80 75 73 76 79 77 81 78 78 79 74 80 75 81 76 82 77 83 56 84
REMARK SMILES IDX 57 85 65 86 58 87 64 88 66 89 63 90 59 91 60 92 61 93 62 94
REMARK H PARENT 86 47 54 58
REMARK Flexibility Score: inf
ROOT
ATOM      1  C   UNL A   1      31.453  29.452  26.757  1.00  0.00     0.202 C 
ENDROOT
BRANCH   1   2
ATOM      2  C   UNL A   1      31.902  28.248  27.589  1.00  0.00     0.261 C 
BRANCH   2   3
ATOM      3  O   UNL A   1      32.440  27.167  26.813  1.00  0.00    -0.459 OA
BRANCH   3   4
ATOM      4  C   UNL A   1      33.599  27.463  26.181  1.00  0.00     0.345 C 
ATOM      5  O   UNL A   1      34.577  28.001  26.685  1.00  0.00    -0.246 OA
BRANCH   4   6
ATOM      6  C   UNL A   1      33.612  26.959  24.800  1.00  0.00     0.138 A 
ATOM      7  C   UNL A   1      33.529  25.620  24.414  1.00  0.00     0.144 A 
ATOM      8  C   UNL A   1      33.512  25.303  23.038  1.00  0.00     0.048 A 
ATOM      9  C   UNL A   1      33.466  26.293  22.059  1.00  0.00     0.007 A 
ATOM     10  C   UNL A   1      33.585  27.945  23.800  1.00  0.00     0.141 A 
ATOM     11  C   UNL A   1      33.491  27.623  22.447  1.00  0.00     0.040 A 
ATOM     12  F   UNL A   1      33.642  29.248  24.113  1.00  0.00    -0.206 F 
BRANCH   7  13
ATOM     13  O   UNL A   1      33.412  24.483  25.166  1.00  0.00    -0.456 OA
BRANCH  13  14
ATOM     14  C   UNL A   1      34.285  23.426  25.148  1.00  0.00     0.130 A 
ATOM     15  C   UNL A   1      34.012  22.049  24.995  1.00  0.00    -0.002 A 
ATOM     16  C   UNL A   1      35.143  21.197  25.069  1.00  0.00     0.008 A 
ATOM     17  C   UNL A   1      36.459  21.672  25.138  1.00  0.00     0.001 A 
ATOM     18  C   UNL A   1      35.618  23.899  25.188  1.00  0.00     0.047 A 
ATOM     19  C   UNL A   1      36.701  23.031  25.168  1.00  0.00     0.004 A 
BRANCH  15  20
ATOM     20  C   UNL A   1      32.623  21.407  24.822  1.00  0.00     0.019 C 
ATOM     21  C   UNL A   1      31.426  22.180  25.409  1.00  0.00     0.013 C 
BRANCH  20  22
ATOM     22  C   UNL A   1      32.229  20.946  23.393  1.00  0.00     0.005 C 
ATOM     23  C   UNL A   1      32.412  22.008  22.317  1.00  0.00     0.004 C 
ENDBRANCH  20  22
ENDBRANCH  15  20
ENDBRANCH  13  14
ENDBRANCH   7  13
ENDBRANCH   4   6
ENDBRANCH   3   4
ENDBRANCH   2   3
ENDBRANCH   1   2
BRANCH   1  24
ATOM     24  O   UNL A   1      32.093  30.710  26.911  1.00  0.00    -0.374 OA
BRANCH  24  25
ATOM     25  C   UNL A   1      31.449  31.893  26.461  1.00  0.00     0.202 C 
BRANCH  25  26
ATOM     26  C   UNL A   1      31.827  33.277  27.023  1.00  0.00     0.261 C 
BRANCH  26  27
ATOM     27  O   UNL A   1      32.456  33.296  28.312  1.00  0.00    -0.460 OA
BRANCH  27  28
ATOM     28  C   UNL A   1      33.592  34.038  28.345  1.00  0.00     0.338 C 
ATOM     29  O   UNL A   1      33.668  35.247  28.469  1.00  0.00    -0.246 OA
BRANCH  28  30
ATOM     30  C   UNL A   1      34.792  33.182  28.358  1.00  0.00     0.060 A 
ATOM     31  C   UNL A   1      34.663  31.907  28.919  1.00  0.00     0.016 A 
ATOM     32  C   UNL A   1      36.050  33.693  28.033  1.00  0.00     0.016 A 
ATOM     33  C   UNL A   1      35.797  31.171  29.241  1.00  0.00     0.010 A 
ATOM     34  C   UNL A   1      37.192  32.952  28.363  1.00  0.00     0.010 A 
ATOM     35  C   UNL A   1      37.068  31.717  29.026  1.00  0.00    -0.014 A 
BRANCH  35  36
ATOM     36  C   UNL A   1      38.227  31.076  29.700  1.00  0.00     0.031 A 
ATOM     37  C   UNL A   1      38.480  31.379  31.156  1.00  0.00     0.074 A 
ATOM     38  C   UNL A   1      38.965  30.152  29.061  1.00  0.00     0.049 A 
ATOM     39  N   UNL A   1      39.393  30.899  31.960  1.00  0.00    -0.248 NA
ATOM     40  C   UNL A   1      37.576  32.352  31.790  1.00  0.00     0.031 C 
ATOM     41  C   UNL A   1      38.768  29.730  27.674  1.00  0.00     0.029 A 
ATOM     42  N   UNL A   1      40.015  29.386  29.499  1.00  0.00    -0.354 N 
ATOM     43  C   UNL A   1      39.174  31.508  33.193  1.00  0.00     0.074 A 
ATOM     44  C   UNL A   1      38.074  32.430  33.014  1.00  0.00     0.031 C 
ATOM     45  C   UNL A   1      39.661  28.771  27.380  1.00  0.00     0.029 A 
ATOM     46  C   UNL A   1      40.517  28.537  28.541  1.00  0.00     0.049 A 
ATOM     47  H   UNL A   1      40.375  29.439  30.414  1.00  0.00     0.167 HD
ATOM     48  C   UNL A   1      39.818  31.302  34.370  1.00  0.00     0.034 A 
ATOM     49  C   UNL A   1      41.557  27.681  28.593  1.00  0.00     0.034 A 
ATOM     50  C   UNL A   1      40.916  30.380  34.531  1.00  0.00     0.049 A 
ATOM     51  C   UNL A   1      42.322  27.545  29.890  1.00  0.00     0.074 A 
ATOM     52  C   UNL A   1      41.644  30.096  35.673  1.00  0.00     0.029 A 
ATOM     53  N   UNL A   1      41.450  29.595  33.516  1.00  0.00    -0.354 N 
ATOM     54  N   UNL A   1      42.107  28.130  31.046  1.00  0.00    -0.248 NA
ATOM     55  C   UNL A   1      43.463  26.620  29.887  1.00  0.00     0.031 C 
ATOM     56  C   UNL A   1      42.664  29.199  35.332  1.00  0.00     0.029 A 
ATOM     57  C   UNL A   1      42.519  28.854  33.997  1.00  0.00     0.049 A 
ATOM     58  H   UNL A   1      41.117  29.567  32.590  1.00  0.00     0.167 HD
ATOM     59  C   UNL A   1      43.067  27.618  31.915  1.00  0.00     0.074 A 
ATOM     60  C   UNL A   1      43.840  26.658  31.156  1.00  0.00     0.031 C 
ATOM     61  C   UNL A   1      43.292  27.911  33.223  1.00  0.00     0.034 A 
BRANCH  48  62
ATOM     62  C   UNL A   1      39.379  32.128  35.557  1.00  0.00     0.023 A 
ATOM     63  C   UNL A   1      38.697  31.558  36.648  1.00  0.00     0.031 A 
ATOM     64  C   UNL A   1      39.626  33.512  35.589  1.00  0.00     0.131 A 
ATOM     65  C   UNL A   1      38.227  32.377  37.686  1.00  0.00     0.055 A 
ATOM     66  C   UNL A   1      39.227  34.309  36.664  1.00  0.00     0.041 A 
ATOM     67  F   UNL A   1      40.250  34.118  34.567  1.00  0.00    -0.206 F 
ATOM     68  C   UNL A   1      38.511  33.744  37.715  1.00  0.00     0.022 A 
BRANCH  65  69
ATOM     69  S   UNL A   1      37.117  31.657  38.929  1.00  0.00     0.124 S 
ATOM     70  O   UNL A   1      36.728  30.405  38.284  1.00  0.00    -0.237 OA
ATOM     71  O   UNL A   1      37.986  31.535  40.093  1.00  0.00    -0.237 OA
ATOM     72  O   UNL A   1      36.048  32.646  39.048  1.00  0.00    -0.744 OA
ENDBRANCH  65  69
ENDBRANCH  48  62
BRANCH  49  73
ATOM     73  C   UNL A   1      41.970  26.909  27.385  1.00  0.00     0.023 A 
ATOM     74  C   UNL A   1      41.748  25.526  27.294  1.00  0.00     0.031 A 
ATOM     75  C   UNL A   1      42.668  27.534  26.334  1.00  0.00     0.131 A 
ATOM     76  C   UNL A   1      42.269  24.803  26.210  1.00  0.00     0.055 A 
ATOM     77  C   UNL A   1      43.128  26.820  25.227  1.00  0.00     0.041 A 
ATOM     78  F   UNL A   1      42.912  28.853  26.370  1.00  0.00    -0.206 F 
ATOM     79  C   UNL A   1      42.945  25.443  25.168  1.00  0.00     0.022 A 
BRANCH  76  80
ATOM     80  S   UNL A   1      42.150  22.993  26.236  1.00  0.00     0.124 S 
ATOM     81  O   UNL A   1      43.075  22.651  27.310  1.00  0.00    -0.237 OA
ATOM     82  O   UNL A   1      40.733  22.788  26.518  1.00  0.00    -0.237 OA
ATOM     83  O   UNL A   1      42.577  22.605  24.893  1.00  0.00    -0.744 OA
ENDBRANCH  76  80
ENDBRANCH  49  73
BRANCH  61  84
ATOM     84  C   UNL A   1      44.400  27.149  33.914  1.00  0.00     0.023 A 
ATOM     85  C   UNL A   1      44.249  25.802  34.287  1.00  0.00     0.031 A 
ATOM     86  C   UNL A   1      45.609  27.791  34.238  1.00  0.00     0.131 A 
ATOM     87  C   UNL A   1      45.255  25.164  35.030  1.00  0.00     0.055 A 
ATOM     88  C   UNL A   1      46.638  27.128  34.910  1.00  0.00     0.041 A 
ATOM     89  F   UNL A   1      45.811  29.078  33.909  1.00  0.00    -0.206 F 
ATOM     90  C   UNL A   1      46.455  25.813  35.327  1.00  0.00     0.022 A 
BRANCH  87  91
ATOM     91  S   UNL A   1      44.917  23.518  35.712  1.00  0.00     0.124 S 
ATOM     92  O   UNL A   1      45.404  23.652  37.082  1.00  0.00    -0.237 OA
ATOM     93  O   UNL A   1      43.470  23.408  35.560  1.00  0.00    -0.237 OA
ATOM     94  O   UNL A   1      45.701  22.626  34.860  1.00  0.00    -0.744 OA
ENDBRANCH  87  91
ENDBRANCH  61  84
ENDBRANCH  35  36
ENDBRANCH  28  30
ENDBRANCH  27  28
ENDBRANCH  26  27
ENDBRANCH  25  26
ENDBRANCH  24  25
ENDBRANCH   1  24
TORSDOF 21
ENDMDL
MODEL 3
REMARK VINA RESULT:     -10.8      1.808      8.168
REMARK SMILES CC[C@H](C)c1ccccc1Oc1cccc(F)c1C(=O)OCCOCCOC(=O)c1ccc(-c2c3nc(c(-c4cc(S(=O)(=O)[O-])ccc4F)c4ccc([nH]4)c(-c4cc(S(=O)(=O)[O-])ccc4F)c4nc(c(-c5cc(S(=O)(=O)[O-])ccc5F)c5ccc2[nH]5)C=C4)C=C3)cc1
REMARK SMILES IDX 23 1 22 2 21 3 19 4 20 5 18 6 12 7 13 8 14 9 16 10 15 11
REMARK SMILES IDX 17 12 11 13 10 14 5 15 6 16 7 17 9 18 8 19 3 20 4 21 2 22
REMARK SMILES IDX 1 23 24 24 25 25 26 26 27 27 28 28 29 29 30 30 31 31 92 32
REMARK SMILES IDX 32 33 91 34 33 35 34 36 35 37 85 38 36 39 90 40 84 41 86 42
REMARK SMILES IDX 37 43 89 44 83 45 82 46 38 48 70 49 50 50 69 51 51 52 54 53
REMARK SMILES IDX 68 54 87 55 52 56 53 57 67 59 88 60 55 61 39 62 40 63 48 64
REMARK SMILES IDX 41 65 47 66 49 67 46 68 42 69 43 70 44 71 45 72 71 73 72 74
REMARK SMILES IDX 80 75 73 76 79 77 81 78 78 79 74 80 75 81 76 82 77 83 56 84
REMARK SMILES IDX 57 85 65 86 58 87 64 88 66 89 63 90 59 91 60 92 61 93 62 94
REMARK H PARENT 86 47 54 58
REMARK Flexibility Score: inf
ROOT
ATOM      1  C   UNL A   1      31.505  29.497  26.738  1.00  0.00     0.202 C 
ENDROOT
BRANCH   1   2
ATOM      2  C   UNL A   1      31.977  28.305  27.574  1.00  0.00     0.261 C 
BRANCH   2   3
ATOM      3  O   UNL A   1      32.565  27.245  26.806  1.00  0.00    -0.459 OA
BRANCH   3   4
ATOM      4  C   UNL A   1      33.699  27.595  26.159  1.00  0.00     0.345 C 
ATOM      5  O   UNL A   1      34.683  28.124  26.663  1.00  0.00    -0.246 OA
BRANCH   4   6
ATOM      6  C   UNL A   1      33.681  27.165  24.753  1.00  0.00     0.138 A 
ATOM      7  C   UNL A   1      33.635  25.846  24.298  1.00  0.00     0.144 A 
ATOM      8  C   UNL A   1      33.580  25.601  22.909  1.00  0.00     0.048 A 
ATOM      9  C   UNL A   1      33.461  26.638  21.986  1.00  0.00     0.007 A 
ATOM     10  C   UNL A   1      33.580  28.200  23.808  1.00  0.00     0.141 A 
ATOM     11  C   UNL A   1      33.449  27.946  22.444  1.00  0.00     0.040 A 
ATOM     12  F   UNL A   1      33.598  29.486  24.189  1.00  0.00    -0.206 F 
BRANCH   7  13
ATOM     13  O   UNL A   1      33.590  24.667  24.992  1.00  0.00    -0.456 OA
BRANCH  13  14
ATOM     14  C   UNL A   1      34.480  23.633  24.860  1.00  0.00     0.130 A 
ATOM     15  C   UNL A   1      34.251  22.311  24.419  1.00  0.00    -0.002 A 
ATOM     16  C   UNL A   1      35.384  21.461  24.442  1.00  0.00     0.008 A 
ATOM     17  C   UNL A   1      36.678  21.913  24.732  1.00  0.00     0.001 A 
ATOM     18  C   UNL A   1      35.794  24.089  25.122  1.00  0.00     0.047 A 
ATOM     19  C   UNL A   1      36.890  23.241  25.046  1.00  0.00     0.004 A 
BRANCH  15  20
ATOM     20  C   UNL A   1      32.898  21.716  23.987  1.00  0.00     0.019 C 
ATOM     21  C   UNL A   1      32.630  20.250  24.380  1.00  0.00     0.013 C 
BRANCH  20  22
ATOM     22  C   UNL A   1      31.622  22.534  24.328  1.00  0.00     0.005 C 
ATOM     23  C   UNL A   1      31.090  22.309  25.736  1.00  0.00     0.004 C 
ENDBRANCH  20  22
ENDBRANCH  15  20
ENDBRANCH  13  14
ENDBRANCH   7  13
ENDBRANCH   4   6
ENDBRANCH   3   4
ENDBRANCH   2   3
ENDBRANCH   1   2
BRANCH   1  24
ATOM     24  O   UNL A   1      32.154  30.756  26.851  1.00  0.00    -0.374 OA
BRANCH  24  25
ATOM     25  C   UNL A   1      31.502  31.932  26.396  1.00  0.00     0.202 C 
BRANCH  25  26
ATOM     26  C   UNL A   1      31.844  33.317  26.980  1.00  0.00     0.261 C 
BRANCH  26  27
ATOM     27  O   UNL A   1      32.478  33.332  28.266  1.00  0.00    -0.460 OA
BRANCH  27  28
ATOM     28  C   UNL A   1      33.625  34.057  28.291  1.00  0.00     0.338 C 
ATOM     29  O   UNL A   1      33.718  35.268  28.383  1.00  0.00    -0.246 OA
BRANCH  28  30
ATOM     30  C   UNL A   1      34.812  33.184  28.340  1.00  0.00     0.060 A 
ATOM     31  C   UNL A   1      34.660  31.930  28.943  1.00  0.00     0.016 A 
ATOM     32  C   UNL A   1      36.079  33.664  28.004  1.00  0.00     0.016 A 
ATOM     33  C   UNL A   1      35.781  31.188  29.296  1.00  0.00     0.010 A 
ATOM     34  C   UNL A   1      37.208  32.917  28.366  1.00  0.00     0.010 A 
ATOM     35  C   UNL A   1      37.062  31.707  29.070  1.00  0.00    -0.014 A 
BRANCH  35  36
ATOM     36  C   UNL A   1      38.206  31.072  29.772  1.00  0.00     0.031 A 
ATOM     37  C   UNL A   1      38.440  31.398  31.226  1.00  0.00     0.074 A 
ATOM     38  C   UNL A   1      38.949  30.133  29.159  1.00  0.00     0.049 A 
ATOM     39  N   UNL A   1      39.339  30.927  32.051  1.00  0.00    -0.248 NA
ATOM     40  C   UNL A   1      37.531  32.386  31.830  1.00  0.00     0.031 C 
ATOM     41  C   UNL A   1      38.770  29.689  27.777  1.00  0.00     0.029 A 
ATOM     42  N   UNL A   1      39.988  29.369  29.625  1.00  0.00    -0.354 N 
ATOM     43  C   UNL A   1      39.104  31.557  33.270  1.00  0.00     0.074 A 
ATOM     44  C   UNL A   1      38.012  32.482  33.060  1.00  0.00     0.031 C 
ATOM     45  C   UNL A   1      39.662  28.720  27.511  1.00  0.00     0.029 A 
ATOM     46  C   UNL A   1      40.500  28.502  28.689  1.00  0.00     0.049 A 
ATOM     47  H   UNL A   1      40.335  29.436  30.544  1.00  0.00     0.167 HD
ATOM     48  C   UNL A   1      39.729  31.368  34.460  1.00  0.00     0.034 A 
ATOM     49  C   UNL A   1      41.534  27.641  28.771  1.00  0.00     0.034 A 
ATOM     50  C   UNL A   1      40.820  30.443  34.652  1.00  0.00     0.049 A 
ATOM     51  C   UNL A   1      42.279  27.523  30.081  1.00  0.00     0.074 A 
ATOM     52  C   UNL A   1      41.530  30.174  35.809  1.00  0.00     0.029 A 
ATOM     53  N   UNL A   1      41.365  29.638  33.659  1.00  0.00    -0.354 N 
ATOM     54  N   UNL A   1      42.050  28.129  31.224  1.00  0.00    -0.248 NA
ATOM     55  C   UNL A   1      43.414  26.592  30.111  1.00  0.00     0.031 C 
ATOM     56  C   UNL A   1      42.549  29.266  35.499  1.00  0.00     0.029 A 
ATOM     57  C   UNL A   1      42.422  28.900  34.169  1.00  0.00     0.049 A 
ATOM     58  H   UNL A   1      41.045  29.597  32.729  1.00  0.00     0.167 HD
ATOM     59  C   UNL A   1      42.995  27.626  32.116  1.00  0.00     0.074 A 
ATOM     60  C   UNL A   1      43.774  26.650  31.384  1.00  0.00     0.031 C 
ATOM     61  C   UNL A   1      43.202  27.940  33.422  1.00  0.00     0.034 A 
BRANCH  48  62
ATOM     62  C   UNL A   1      39.277  32.216  35.626  1.00  0.00     0.023 A 
ATOM     63  C   UNL A   1      39.753  33.526  35.821  1.00  0.00     0.031 A 
ATOM     64  C   UNL A   1      38.374  31.699  36.572  1.00  0.00     0.131 A 
ATOM     65  C   UNL A   1      39.378  34.245  36.966  1.00  0.00     0.055 A 
ATOM     66  C   UNL A   1      37.941  32.450  37.667  1.00  0.00     0.041 A 
ATOM     67  F   UNL A   1      37.905  30.447  36.454  1.00  0.00    -0.206 F 
ATOM     68  C   UNL A   1      38.455  33.726  37.877  1.00  0.00     0.022 A 
BRANCH  65  69
ATOM     69  S   UNL A   1      40.222  35.811  37.327  1.00  0.00     0.124 S 
ATOM     70  O   UNL A   1      39.782  36.073  38.695  1.00  0.00    -0.237 OA
ATOM     71  O   UNL A   1      41.626  35.457  37.162  1.00  0.00    -0.237 OA
ATOM     72  O   UNL A   1      39.687  36.727  36.322  1.00  0.00    -0.744 OA
ENDBRANCH  65  69
ENDBRANCH  48  62
BRANCH  49  73
ATOM     73  C   UNL A   1      41.960  26.847  27.582  1.00  0.00     0.023 A 
ATOM     74  C   UNL A   1      41.814  25.451  27.548  1.00  0.00     0.031 A 
ATOM     75  C   UNL A   1      42.597  27.468  26.491  1.00  0.00     0.131 A 
ATOM     76  C   UNL A   1      42.348  24.717  26.479  1.00  0.00     0.055 A 
ATOM     77  C   UNL A   1      43.070  26.738  25.399  1.00  0.00     0.041 A 
ATOM     78  F   UNL A   1      42.768  28.799  26.471  1.00  0.00    -0.206 F 
ATOM     79  C   UNL A   1      42.962  25.352  25.397  1.00  0.00     0.022 A 
BRANCH  76  80
ATOM     80  S   UNL A   1      42.331  22.905  26.576  1.00  0.00     0.124 S 
ATOM     81  O   UNL A   1      43.641  22.627  27.152  1.00  0.00    -0.237 OA
ATOM     82  O   UNL A   1      41.183  22.661  27.443  1.00  0.00    -0.237 OA
ATOM     83  O   UNL A   1      42.157  22.492  25.185  1.00  0.00    -0.744 OA
ENDBRANCH  76  80
ENDBRANCH  49  73
BRANCH  61  84
ATOM     84  C   UNL A   1      44.295  27.184  34.141  1.00  0.00     0.023 A 
ATOM     85  C   UNL A   1      45.631  27.624  34.125  1.00  0.00     0.031 A 
ATOM     86  C   UNL A   1      44.005  25.988  34.821  1.00  0.00     0.131 A 
ATOM     87  C   UNL A   1      46.635  26.834  34.706  1.00  0.00     0.055 A 
ATOM     88  C   UNL A   1      44.997  25.245  35.463  1.00  0.00     0.041 A 
ATOM     89  F   UNL A   1      42.748  25.516  34.870  1.00  0.00    -0.206 F 
ATOM     90  C   UNL A   1      46.324  25.658  35.390  1.00  0.00     0.022 A 
BRANCH  87  91
ATOM     91  S   UNL A   1      48.368  27.301  34.440  1.00  0.00     0.124 S 
ATOM     92  O   UNL A   1      48.587  26.883  33.059  1.00  0.00    -0.237 OA
ATOM     93  O   UNL A   1      48.341  28.742  34.672  1.00  0.00    -0.237 OA
ATOM     94  O   UNL A   1      49.090  26.524  35.446  1.00  0.00    -0.744 OA
ENDBRANCH  87  91
ENDBRANCH  61  84
ENDBRANCH  35  36
ENDBRANCH  28  30
ENDBRANCH  27  28
ENDBRANCH  26  27
ENDBRANCH  25  26
ENDBRANCH  24  25
ENDBRANCH   1  24
TORSDOF 21
ENDMDL
