MODEL 1
REMARK VINA RESULT:     -11.0      0.000      0.000
REMARK SMILES COc1ccc(C(=O)Nc2cc(C(=O)OCCOCCOC(=O)c3ccc(-c4c5nc(c(-c6cc(S(=O)(=O)[O-])ccc6F)c6ccc([nH]6)c(-c6cc(S(=O)(=O)[O-])ccc6F)c6nc(c(-c7cc(S(=O)(=O)[O-])ccc7F)c7ccc4[nH]7)C=C6)C=C5)cc3)c(Cl)cc2Cl)cc1Cl
REMARK SMILES IDX 18 1 17 2 16 3 15 4 13 5 14 6 12 7 10 8 11 9 90 10 89 11
REMARK SMILES IDX 91 12 87 13 88 14 9 15 7 16 8 17 6 19 3 20 4 21 93 22 5 23
REMARK SMILES IDX 92 24 94 25 2 26 1 27 19 28 20 29 21 30 22 31 23 32 24 33
REMARK SMILES IDX 25 34 86 35 26 36 85 37 27 38 28 39 29 40 79 41 30 42 84 43
REMARK SMILES IDX 78 44 80 45 31 46 83 47 77 48 76 49 32 51 64 52 44 53 63 54
REMARK SMILES IDX 45 55 48 56 62 57 81 58 46 59 47 60 61 62 82 63 49 64 33 65
REMARK SMILES IDX 34 66 42 67 35 68 41 69 43 70 40 71 36 72 37 73 38 74 39 75
REMARK SMILES IDX 65 76 66 77 74 78 67 79 73 80 75 81 72 82 68 83 69 84 70 85
REMARK SMILES IDX 71 86 50 87 51 88 59 89 52 90 58 91 60 92 57 93 53 94 54 95
REMARK SMILES IDX 55 96 56 97
REMARK H PARENT 9 18 80 50 48 61
REMARK Flexibility Score: inf
ROOT
ATOM      1  O   UNL A   1      37.600  21.364  25.020  1.00  0.00    -0.374 OA
ENDROOT
BRANCH   1   2
ATOM      2  C   UNL A   1      36.564  21.915  24.215  1.00  0.00     0.202 C 
BRANCH   2   3
ATOM      3  C   UNL A   1      35.100  21.657  24.583  1.00  0.00     0.261 C 
BRANCH   3   4
ATOM      4  O   UNL A   1      34.170  22.366  23.750  1.00  0.00    -0.460 OA
BRANCH   4   5
ATOM      5  C   UNL A   1      32.907  22.438  24.228  1.00  0.00     0.339 C 
ATOM      6  O   UNL A   1      32.097  21.529  24.314  1.00  0.00    -0.246 OA
BRANCH   5   7
ATOM      7  C   UNL A   1      32.650  23.751  24.848  1.00  0.00     0.080 A 
ATOM      8  C   UNL A   1      33.112  26.139  24.751  1.00  0.00     0.061 A 
ATOM      9  C   UNL A   1      33.156  24.875  24.161  1.00  0.00     0.045 A 
ATOM     10  C   UNL A   1      32.594  26.266  26.049  1.00  0.00     0.066 A 
ATOM     11  C   UNL A   1      32.019  25.171  26.696  1.00  0.00     0.044 A 
ATOM     12  Cl  UNL A   1      32.583  27.795  26.856  1.00  0.00    -0.082 Cl
ATOM     13  C   UNL A   1      32.041  23.908  26.096  1.00  0.00     0.057 A 
ATOM     14  Cl  UNL A   1      31.354  22.600  26.985  1.00  0.00    -0.083 Cl
BRANCH   8  15
ATOM     15  N   UNL A   1      33.636  27.270  24.100  1.00  0.00    -0.321 N 
ATOM     16  C   UNL A   1      33.038  28.167  23.242  1.00  0.00     0.255 C 
ATOM     17  O   UNL A   1      33.738  28.844  22.490  1.00  0.00    -0.269 OA
ATOM     18  H   UNL A   1      34.585  27.451  24.287  1.00  0.00     0.170 HD
BRANCH  16  19
ATOM     19  C   UNL A   1      31.580  28.477  23.336  1.00  0.00     0.041 A 
ATOM     20  C   UNL A   1      28.830  29.122  23.182  1.00  0.00     0.137 A 
ATOM     21  C   UNL A   1      29.304  27.888  22.720  1.00  0.00     0.049 A 
ATOM     22  C   UNL A   1      29.751  30.059  23.662  1.00  0.00     0.083 A 
ATOM     23  C   UNL A   1      30.667  27.569  22.790  1.00  0.00     0.018 A 
ATOM     24  C   UNL A   1      31.113  29.731  23.753  1.00  0.00     0.038 A 
ATOM     25  Cl  UNL A   1      29.330  31.692  24.036  1.00  0.00    -0.080 Cl
BRANCH  20  26
ATOM     26  O   UNL A   1      27.491  29.328  22.983  1.00  0.00    -0.495 OA
ATOM     27  C   UNL A   1      26.632  28.297  23.467  1.00  0.00     0.278 C 
ENDBRANCH  20  26
ENDBRANCH  16  19
ENDBRANCH   8  15
ENDBRANCH   5   7
ENDBRANCH   4   5
ENDBRANCH   3   4
ENDBRANCH   2   3
ENDBRANCH   1   2
BRANCH   1  28
ATOM     28  C   UNL A   1      37.838  19.967  24.987  1.00  0.00     0.202 C 
BRANCH  28  29
ATOM     29  C   UNL A   1      39.118  19.359  25.585  1.00  0.00     0.261 C 
BRANCH  29  30
ATOM     30  O   UNL A   1      40.231  20.227  25.758  1.00  0.00    -0.460 OA
BRANCH  30  31
ATOM     31  C   UNL A   1      40.666  20.316  27.041  1.00  0.00     0.338 C 
ATOM     32  O   UNL A   1      40.878  19.402  27.821  1.00  0.00    -0.246 OA
BRANCH  31  33
ATOM     33  C   UNL A   1      40.923  21.730  27.324  1.00  0.00     0.060 A 
ATOM     34  C   UNL A   1      40.385  22.704  26.477  1.00  0.00     0.016 A 
ATOM     35  C   UNL A   1      41.709  22.077  28.424  1.00  0.00     0.016 A 
ATOM     36  C   UNL A   1      40.643  24.047  26.730  1.00  0.00     0.010 A 
ATOM     37  C   UNL A   1      41.966  23.422  28.674  1.00  0.00     0.010 A 
ATOM     38  C   UNL A   1      41.449  24.410  27.819  1.00  0.00    -0.014 A 
BRANCH  38  39
ATOM     39  C   UNL A   1      41.842  25.823  28.008  1.00  0.00     0.031 A 
ATOM     40  C   UNL A   1      43.192  26.269  27.526  1.00  0.00     0.074 A 
ATOM     41  C   UNL A   1      40.997  26.681  28.605  1.00  0.00     0.049 A 
ATOM     42  N   UNL A   1      43.775  27.430  27.653  1.00  0.00    -0.248 NA
ATOM     43  C   UNL A   1      43.997  25.262  26.814  1.00  0.00     0.031 C 
ATOM     44  C   UNL A   1      39.652  26.346  29.077  1.00  0.00     0.029 A 
ATOM     45  N   UNL A   1      41.143  28.006  28.923  1.00  0.00    -0.354 N 
ATOM     46  C   UNL A   1      45.016  27.298  27.040  1.00  0.00     0.074 A 
ATOM     47  C   UNL A   1      45.118  25.927  26.585  1.00  0.00     0.031 C 
ATOM     48  C   UNL A   1      39.097  27.440  29.624  1.00  0.00     0.029 A 
ATOM     49  C   UNL A   1      40.062  28.535  29.588  1.00  0.00     0.049 A 
ATOM     50  H   UNL A   1      41.946  28.530  28.696  1.00  0.00     0.167 HD
ATOM     51  C   UNL A   1      45.973  28.241  26.866  1.00  0.00     0.034 A 
ATOM     52  C   UNL A   1      39.890  29.757  30.131  1.00  0.00     0.034 A 
ATOM     53  C   UNL A   1      45.846  29.595  27.345  1.00  0.00     0.049 A 
ATOM     54  C   UNL A   1      41.010  30.763  30.002  1.00  0.00     0.074 A 
ATOM     55  C   UNL A   1      46.745  30.640  27.225  1.00  0.00     0.029 A 
ATOM     56  N   UNL A   1      44.754  30.089  28.048  1.00  0.00    -0.354 N 
ATOM     57  N   UNL A   1      42.177  30.630  29.411  1.00  0.00    -0.248 NA
ATOM     58  C   UNL A   1      40.787  32.084  30.601  1.00  0.00     0.031 C 
ATOM     59  C   UNL A   1      46.231  31.739  27.920  1.00  0.00     0.029 A 
ATOM     60  C   UNL A   1      44.970  31.413  28.395  1.00  0.00     0.049 A 
ATOM     61  H   UNL A   1      43.943  29.575  28.266  1.00  0.00     0.167 HD
ATOM     62  C   UNL A   1      42.808  31.866  29.536  1.00  0.00     0.074 A 
ATOM     63  C   UNL A   1      41.886  32.730  30.244  1.00  0.00     0.031 C 
ATOM     64  C   UNL A   1      44.035  32.255  29.104  1.00  0.00     0.034 A 
BRANCH  51  65
ATOM     65  C   UNL A   1      47.247  27.824  26.173  1.00  0.00     0.023 A 
ATOM     66  C   UNL A   1      47.440  28.025  24.794  1.00  0.00     0.031 A 
ATOM     67  C   UNL A   1      48.280  27.201  26.896  1.00  0.00     0.131 A 
ATOM     68  C   UNL A   1      48.606  27.550  24.173  1.00  0.00     0.055 A 
ATOM     69  C   UNL A   1      49.473  26.805  26.287  1.00  0.00     0.041 A 
ATOM     70  F   UNL A   1      48.143  26.956  28.209  1.00  0.00    -0.206 F 
ATOM     71  C   UNL A   1      49.635  26.968  24.915  1.00  0.00     0.022 A 
BRANCH  68  72
ATOM     72  S   UNL A   1      48.698  27.584  22.362  1.00  0.00     0.124 S 
ATOM     73  O   UNL A   1      49.931  28.335  22.144  1.00  0.00    -0.237 OA
ATOM     74  O   UNL A   1      48.744  26.167  22.021  1.00  0.00    -0.237 OA
ATOM     75  O   UNL A   1      47.474  28.279  21.970  1.00  0.00    -0.744 OA
ENDBRANCH  68  72
ENDBRANCH  51  65
BRANCH  52  76
ATOM     76  C   UNL A   1      38.639  30.095  30.870  1.00  0.00     0.023 A 
ATOM     77  C   UNL A   1      37.617  30.837  30.258  1.00  0.00     0.031 A 
ATOM     78  C   UNL A   1      38.473  29.740  32.220  1.00  0.00     0.131 A 
ATOM     79  C   UNL A   1      36.506  31.253  31.010  1.00  0.00     0.055 A 
ATOM     80  C   UNL A   1      37.335  30.098  32.946  1.00  0.00     0.041 A 
ATOM     81  F   UNL A   1      39.419  29.033  32.859  1.00  0.00    -0.206 F 
ATOM     82  C   UNL A   1      36.350  30.876  32.345  1.00  0.00     0.022 A 
BRANCH  79  83
ATOM     83  S   UNL A   1      35.327  32.401  30.248  1.00  0.00     0.124 S 
ATOM     84  O   UNL A   1      34.326  32.538  31.300  1.00  0.00    -0.237 OA
ATOM     85  O   UNL A   1      36.161  33.571  29.999  1.00  0.00    -0.237 OA
ATOM     86  O   UNL A   1      34.882  31.687  29.052  1.00  0.00    -0.744 OA
ENDBRANCH  79  83
ENDBRANCH  52  76
BRANCH  64  87
ATOM     87  C   UNL A   1      44.420  33.697  29.334  1.00  0.00     0.023 A 
ATOM     88  C   UNL A   1      44.221  34.684  28.352  1.00  0.00     0.031 A 
ATOM     89  C   UNL A   1      44.998  34.086  30.555  1.00  0.00     0.131 A 
ATOM     90  C   UNL A   1      44.653  35.997  28.588  1.00  0.00     0.055 A 
ATOM     91  C   UNL A   1      45.359  35.409  30.810  1.00  0.00     0.041 A 
ATOM     92  F   UNL A   1      45.215  33.183  31.526  1.00  0.00    -0.206 F 
ATOM     93  C   UNL A   1      45.199  36.371  29.819  1.00  0.00     0.022 A 
BRANCH  90  94
ATOM     94  S   UNL A   1      44.582  37.192  27.225  1.00  0.00     0.124 S 
ATOM     95  O   UNL A   1      43.224  37.001  26.726  1.00  0.00    -0.237 OA
ATOM     96  O   UNL A   1      44.840  38.457  27.904  1.00  0.00    -0.237 OA
ATOM     97  O   UNL A   1      45.643  36.745  26.323  1.00  0.00    -0.744 OA
ENDBRANCH  90  94
ENDBRANCH  64  87
ENDBRANCH  38  39
ENDBRANCH  31  33
ENDBRANCH  30  31
ENDBRANCH  29  30
ENDBRANCH  28  29
ENDBRANCH   1  28
TORSDOF 20
ENDMDL
MODEL 2
REMARK VINA RESULT:     -10.9      1.960      2.657
REMARK SMILES COc1ccc(C(=O)Nc2cc(C(=O)OCCOCCOC(=O)c3ccc(-c4c5nc(c(-c6cc(S(=O)(=O)[O-])ccc6F)c6ccc([nH]6)c(-c6cc(S(=O)(=O)[O-])ccc6F)c6nc(c(-c7cc(S(=O)(=O)[O-])ccc7F)c7ccc4[nH]7)C=C6)C=C5)cc3)c(Cl)cc2Cl)cc1Cl
REMARK SMILES IDX 18 1 17 2 16 3 15 4 13 5 14 6 12 7 10 8 11 9 90 10 89 11
REMARK SMILES IDX 91 12 87 13 88 14 9 15 7 16 8 17 6 19 3 20 4 21 93 22 5 23
REMARK SMILES IDX 92 24 94 25 2 26 1 27 19 28 20 29 21 30 22 31 23 32 24 33
REMARK SMILES IDX 25 34 86 35 26 36 85 37 27 38 28 39 29 40 79 41 30 42 84 43
REMARK SMILES IDX 78 44 80 45 31 46 83 47 77 48 76 49 32 51 64 52 44 53 63 54
REMARK SMILES IDX 45 55 48 56 62 57 81 58 46 59 47 60 61 62 82 63 49 64 33 65
REMARK SMILES IDX 34 66 42 67 35 68 41 69 43 70 40 71 36 72 37 73 38 74 39 75
REMARK SMILES IDX 65 76 66 77 74 78 67 79 73 80 75 81 72 82 68 83 69 84 70 85
REMARK SMILES IDX 71 86 50 87 51 88 59 89 52 90 58 91 60 92 57 93 53 94 54 95
REMARK SMILES IDX 55 96 56 97
REMARK H PARENT 9 18 80 50 48 61
REMARK Flexibility Score: inf
ROOT
ATOM      1  O   UNL A   1      37.058  21.610  25.673  1.00  0.00    -0.374 OA
ENDROOT
BRANCH   1   2
ATOM      2  C   UNL A   1      36.830  22.867  25.046  1.00  0.00     0.202 C 
BRANCH   2   3
ATOM      3  C   UNL A   1      35.438  23.502  25.106  1.00  0.00     0.261 C 
BRANCH   3   4
ATOM      4  O   UNL A   1      34.449  22.775  24.361  1.00  0.00    -0.460 OA
BRANCH   4   5
ATOM      5  C   UNL A   1      34.118  23.313  23.165  1.00  0.00     0.339 C 
ATOM      6  O   UNL A   1      34.722  23.199  22.111  1.00  0.00    -0.246 OA
BRANCH   5   7
ATOM      7  C   UNL A   1      32.778  23.928  23.215  1.00  0.00     0.080 A 
ATOM      8  C   UNL A   1      31.472  25.929  22.750  1.00  0.00     0.061 A 
ATOM      9  C   UNL A   1      32.651  25.196  22.608  1.00  0.00     0.045 A 
ATOM     10  C   UNL A   1      30.435  25.404  23.536  1.00  0.00     0.066 A 
ATOM     11  C   UNL A   1      30.528  24.116  24.068  1.00  0.00     0.044 A 
ATOM     12  Cl  UNL A   1      28.983  26.302  23.806  1.00  0.00    -0.082 Cl
ATOM     13  C   UNL A   1      31.700  23.370  23.906  1.00  0.00     0.057 A 
ATOM     14  Cl  UNL A   1      31.749  21.810  24.637  1.00  0.00    -0.083 Cl
BRANCH   8  15
ATOM     15  N   UNL A   1      31.331  27.207  22.180  1.00  0.00    -0.321 N 
ATOM     16  C   UNL A   1      31.267  28.449  22.770  1.00  0.00     0.255 C 
ATOM     17  O   UNL A   1      30.765  29.388  22.154  1.00  0.00    -0.269 OA
ATOM     18  H   UNL A   1      31.266  27.215  21.197  1.00  0.00     0.170 HD
BRANCH  16  19
ATOM     19  C   UNL A   1      31.965  28.731  24.061  1.00  0.00     0.041 A 
ATOM     20  C   UNL A   1      33.428  28.962  26.470  1.00  0.00     0.137 A 
ATOM     21  C   UNL A   1      34.061  29.113  25.230  1.00  0.00     0.049 A 
ATOM     22  C   UNL A   1      32.070  28.629  26.496  1.00  0.00     0.083 A 
ATOM     23  C   UNL A   1      33.339  28.993  24.036  1.00  0.00     0.018 A 
ATOM     24  C   UNL A   1      31.342  28.531  25.300  1.00  0.00     0.038 A 
ATOM     25  Cl  UNL A   1      31.234  28.184  27.941  1.00  0.00    -0.080 Cl
BRANCH  20  26
ATOM     26  O   UNL A   1      34.268  29.030  27.550  1.00  0.00    -0.495 OA
ATOM     27  C   UNL A   1      35.608  29.428  27.262  1.00  0.00     0.278 C 
ENDBRANCH  20  26
ENDBRANCH  16  19
ENDBRANCH   8  15
ENDBRANCH   5   7
ENDBRANCH   4   5
ENDBRANCH   3   4
ENDBRANCH   2   3
ENDBRANCH   1   2
BRANCH   1  28
ATOM     28  C   UNL A   1      37.370  20.481  24.875  1.00  0.00     0.202 C 
BRANCH  28  29
ATOM     29  C   UNL A   1      38.539  19.546  25.231  1.00  0.00     0.261 C 
BRANCH  29  30
ATOM     30  O   UNL A   1      39.216  19.791  26.458  1.00  0.00    -0.460 OA
BRANCH  30  31
ATOM     31  C   UNL A   1      40.555  19.960  26.323  1.00  0.00     0.338 C 
ATOM     32  O   UNL A   1      41.371  19.154  25.905  1.00  0.00    -0.246 OA
BRANCH  31  33
ATOM     33  C   UNL A   1      40.867  21.340  26.702  1.00  0.00     0.060 A 
ATOM     34  C   UNL A   1      40.458  22.385  25.869  1.00  0.00     0.016 A 
ATOM     35  C   UNL A   1      41.578  21.584  27.879  1.00  0.00     0.016 A 
ATOM     36  C   UNL A   1      40.770  23.696  26.214  1.00  0.00     0.010 A 
ATOM     37  C   UNL A   1      41.889  22.897  28.221  1.00  0.00     0.010 A 
ATOM     38  C   UNL A   1      41.502  23.955  27.381  1.00  0.00    -0.014 A 
BRANCH  38  39
ATOM     39  C   UNL A   1      41.957  25.331  27.678  1.00  0.00     0.031 A 
ATOM     40  C   UNL A   1      43.339  25.741  27.257  1.00  0.00     0.074 A 
ATOM     41  C   UNL A   1      41.139  26.187  28.315  1.00  0.00     0.049 A 
ATOM     42  N   UNL A   1      43.973  26.861  27.477  1.00  0.00    -0.248 NA
ATOM     43  C   UNL A   1      44.112  24.748  26.494  1.00  0.00     0.031 C 
ATOM     44  C   UNL A   1      39.769  25.887  28.733  1.00  0.00     0.029 A 
ATOM     45  N   UNL A   1      41.341  27.478  28.728  1.00  0.00    -0.354 N 
ATOM     46  C   UNL A   1      45.221  26.710  26.883  1.00  0.00     0.074 A 
ATOM     47  C   UNL A   1      45.269  25.371  26.336  1.00  0.00     0.031 C 
ATOM     48  C   UNL A   1      39.254  26.967  29.343  1.00  0.00     0.029 A 
ATOM     49  C   UNL A   1      40.270  28.012  29.405  1.00  0.00     0.049 A 
ATOM     50  H   UNL A   1      42.173  27.975  28.555  1.00  0.00     0.167 HD
ATOM     51  C   UNL A   1      46.227  27.614  26.796  1.00  0.00     0.034 A 
ATOM     52  C   UNL A   1      40.144  29.202  30.028  1.00  0.00     0.034 A 
ATOM     53  C   UNL A   1      46.153  28.937  27.366  1.00  0.00     0.049 A 
ATOM     54  C   UNL A   1      41.313  30.157  29.994  1.00  0.00     0.074 A 
ATOM     55  C   UNL A   1      47.103  29.942  27.339  1.00  0.00     0.029 A 
ATOM     56  N   UNL A   1      45.068  29.435  28.078  1.00  0.00    -0.354 N 
ATOM     57  N   UNL A   1      42.487  30.008  29.421  1.00  0.00    -0.248 NA
ATOM     58  C   UNL A   1      41.139  31.443  30.679  1.00  0.00     0.031 C 
ATOM     59  C   UNL A   1      46.626  31.014  28.098  1.00  0.00     0.029 A 
ATOM     60  C   UNL A   1      45.339  30.719  28.522  1.00  0.00     0.049 A 
ATOM     61  H   UNL A   1      44.229  28.948  28.242  1.00  0.00     0.167 HD
ATOM     62  C   UNL A   1      43.173  31.199  29.645  1.00  0.00     0.074 A 
ATOM     63  C   UNL A   1      42.276  32.057  30.391  1.00  0.00     0.031 C 
ATOM     64  C   UNL A   1      44.428  31.556  29.268  1.00  0.00     0.034 A 
BRANCH  51  65
ATOM     65  C   UNL A   1      47.496  27.183  26.104  1.00  0.00     0.023 A 
ATOM     66  C   UNL A   1      48.471  26.410  26.758  1.00  0.00     0.031 A 
ATOM     67  C   UNL A   1      47.745  27.564  24.773  1.00  0.00     0.131 A 
ATOM     68  C   UNL A   1      49.673  26.097  26.105  1.00  0.00     0.055 A 
ATOM     69  C   UNL A   1      48.908  27.180  24.101  1.00  0.00     0.041 A 
ATOM     70  F   UNL A   1      46.865  28.326  24.104  1.00  0.00    -0.206 F 
ATOM     71  C   UNL A   1      49.886  26.453  24.772  1.00  0.00     0.022 A 
BRANCH  68  72
ATOM     72  S   UNL A   1      51.010  25.338  27.066  1.00  0.00     0.124 S 
ATOM     73  O   UNL A   1      50.285  24.327  27.831  1.00  0.00    -0.237 OA
ATOM     74  O   UNL A   1      51.902  24.836  26.028  1.00  0.00    -0.237 OA
ATOM     75  O   UNL A   1      51.537  26.448  27.857  1.00  0.00    -0.744 OA
ENDBRANCH  68  72
ENDBRANCH  51  65
BRANCH  52  76
ATOM     76  C   UNL A   1      38.892  29.550  30.761  1.00  0.00     0.023 A 
ATOM     77  C   UNL A   1      38.017  30.532  30.272  1.00  0.00     0.031 A 
ATOM     78  C   UNL A   1      38.583  28.954  31.997  1.00  0.00     0.131 A 
ATOM     79  C   UNL A   1      36.914  30.933  31.041  1.00  0.00     0.055 A 
ATOM     80  C   UNL A   1      37.447  29.308  32.727  1.00  0.00     0.041 A 
ATOM     81  F   UNL A   1      39.386  28.010  32.517  1.00  0.00    -0.206 F 
ATOM     82  C   UNL A   1      36.613  30.318  32.258  1.00  0.00     0.022 A 
BRANCH  79  83
ATOM     83  S   UNL A   1      35.944  32.361  30.483  1.00  0.00     0.124 S 
ATOM     84  O   UNL A   1      35.312  32.793  31.725  1.00  0.00    -0.237 OA
ATOM     85  O   UNL A   1      36.980  33.239  29.950  1.00  0.00    -0.237 OA
ATOM     86  O   UNL A   1      35.039  31.789  29.488  1.00  0.00    -0.744 OA
ENDBRANCH  79  83
ENDBRANCH  52  76
BRANCH  64  87
ATOM     87  C   UNL A   1      44.875  32.958  29.606  1.00  0.00     0.023 A 
ATOM     88  C   UNL A   1      44.588  34.050  28.770  1.00  0.00     0.031 A 
ATOM     89  C   UNL A   1      45.604  33.200  30.784  1.00  0.00     0.131 A 
ATOM     90  C   UNL A   1      45.079  35.324  29.094  1.00  0.00     0.055 A 
ATOM     91  C   UNL A   1      46.028  34.481  31.137  1.00  0.00     0.041 A 
ATOM     92  F   UNL A   1      45.910  32.191  31.617  1.00  0.00    -0.206 F 
ATOM     93  C   UNL A   1      45.778  35.550  30.283  1.00  0.00     0.022 A 
BRANCH  90  94
ATOM     94  S   UNL A   1      44.880  36.664  27.889  1.00  0.00     0.124 S 
ATOM     95  O   UNL A   1      44.319  37.730  28.713  1.00  0.00    -0.237 OA
ATOM     96  O   UNL A   1      46.246  36.872  27.422  1.00  0.00    -0.237 OA
ATOM     97  O   UNL A   1      43.965  36.100  26.897  1.00  0.00    -0.744 OA
ENDBRANCH  90  94
ENDBRANCH  64  87
ENDBRANCH  38  39
ENDBRANCH  31  33
ENDBRANCH  30  31
ENDBRANCH  29  30
ENDBRANCH  28  29
ENDBRANCH   1  28
TORSDOF 20
ENDMDL
MODEL 3
REMARK VINA RESULT:     -10.8      2.223      3.148
REMARK SMILES COc1ccc(C(=O)Nc2cc(C(=O)OCCOCCOC(=O)c3ccc(-c4c5nc(c(-c6cc(S(=O)(=O)[O-])ccc6F)c6ccc([nH]6)c(-c6cc(S(=O)(=O)[O-])ccc6F)c6nc(c(-c7cc(S(=O)(=O)[O-])ccc7F)c7ccc4[nH]7)C=C6)C=C5)cc3)c(Cl)cc2Cl)cc1Cl
REMARK SMILES IDX 18 1 17 2 16 3 15 4 13 5 14 6 12 7 10 8 11 9 90 10 89 11
REMARK SMILES IDX 91 12 87 13 88 14 9 15 7 16 8 17 6 19 3 20 4 21 93 22 5 23
REMARK SMILES IDX 92 24 94 25 2 26 1 27 19 28 20 29 21 30 22 31 23 32 24 33
REMARK SMILES IDX 25 34 86 35 26 36 85 37 27 38 28 39 29 40 79 41 30 42 84 43
REMARK SMILES IDX 78 44 80 45 31 46 83 47 77 48 76 49 32 51 64 52 44 53 63 54
REMARK SMILES IDX 45 55 48 56 62 57 81 58 46 59 47 60 61 62 82 63 49 64 33 65
REMARK SMILES IDX 34 66 42 67 35 68 41 69 43 70 40 71 36 72 37 73 38 74 39 75
REMARK SMILES IDX 65 76 66 77 74 78 67 79 73 80 75 81 72 82 68 83 69 84 70 85
REMARK SMILES IDX 71 86 50 87 51 88 59 89 52 90 58 91 60 92 57 93 53 94 54 95
REMARK SMILES IDX 55 96 56 97
REMARK H PARENT 9 18 80 50 48 61
REMARK Flexibility Score: inf
ROOT
ATOM      1  O   UNL A   1      38.372  21.610  26.087  1.00  0.00    -0.374 OA
ENDROOT
BRANCH   1   2
ATOM      2  C   UNL A   1      37.643  21.068  24.992  1.00  0.00     0.202 C 
BRANCH   2   3
ATOM      3  C   UNL A   1      36.582  21.922  24.291  1.00  0.00     0.261 C 
BRANCH   3   4
ATOM      4  O   UNL A   1      35.429  22.178  25.106  1.00  0.00    -0.460 OA
BRANCH   4   5
ATOM      5  C   UNL A   1      35.330  23.439  25.583  1.00  0.00     0.339 C 
ATOM      6  O   UNL A   1      36.244  24.204  25.848  1.00  0.00    -0.246 OA
BRANCH   5   7
ATOM      7  C   UNL A   1      33.928  23.900  25.572  1.00  0.00     0.080 A 
ATOM      8  C   UNL A   1      32.321  25.407  24.537  1.00  0.00     0.061 A 
ATOM      9  C   UNL A   1      33.572  24.787  24.534  1.00  0.00     0.045 A 
ATOM     10  C   UNL A   1      31.445  25.165  25.605  1.00  0.00     0.066 A 
ATOM     11  C   UNL A   1      31.763  24.227  26.589  1.00  0.00     0.044 A 
ATOM     12  Cl  UNL A   1      29.914  25.964  25.698  1.00  0.00    -0.082 Cl
ATOM     13  C   UNL A   1      33.007  23.586  26.574  1.00  0.00     0.057 A 
ATOM     14  Cl  UNL A   1      33.338  22.478  27.852  1.00  0.00    -0.083 Cl
BRANCH   8  15
ATOM     15  N   UNL A   1      31.953  26.317  23.530  1.00  0.00    -0.321 N 
ATOM     16  C   UNL A   1      31.686  27.667  23.596  1.00  0.00     0.255 C 
ATOM     17  O   UNL A   1      31.019  28.196  22.708  1.00  0.00    -0.269 OA
ATOM     18  H   UNL A   1      31.871  25.926  22.630  1.00  0.00     0.170 HD
BRANCH  16  19
ATOM     19  C   UNL A   1      32.345  28.539  24.614  1.00  0.00     0.041 A 
ATOM     20  C   UNL A   1      33.481  29.971  26.773  1.00  0.00     0.137 A 
ATOM     21  C   UNL A   1      34.068  28.787  26.310  1.00  0.00     0.049 A 
ATOM     22  C   UNL A   1      32.283  30.399  26.191  1.00  0.00     0.083 A 
ATOM     23  C   UNL A   1      33.503  28.073  25.245  1.00  0.00     0.018 A 
ATOM     24  C   UNL A   1      31.730  29.696  25.110  1.00  0.00     0.038 A 
ATOM     25  Cl  UNL A   1      31.339  31.701  26.823  1.00  0.00    -0.080 Cl
BRANCH  20  26
ATOM     26  O   UNL A   1      34.096  30.522  27.865  1.00  0.00    -0.495 OA
ATOM     27  C   UNL A   1      34.795  31.743  27.626  1.00  0.00     0.278 C 
ENDBRANCH  20  26
ENDBRANCH  16  19
ENDBRANCH   8  15
ENDBRANCH   5   7
ENDBRANCH   4   5
ENDBRANCH   3   4
ENDBRANCH   2   3
ENDBRANCH   1   2
BRANCH   1  28
ATOM     28  C   UNL A   1      39.747  21.297  26.231  1.00  0.00     0.202 C 
BRANCH  28  29
ATOM     29  C   UNL A   1      40.265  19.859  26.055  1.00  0.00     0.261 C 
BRANCH  29  30
ATOM     30  O   UNL A   1      41.549  19.561  26.588  1.00  0.00    -0.460 OA
BRANCH  30  31
ATOM     31  C   UNL A   1      42.575  19.857  25.751  1.00  0.00     0.338 C 
ATOM     32  O   UNL A   1      43.038  19.160  24.863  1.00  0.00    -0.246 OA
BRANCH  31  33
ATOM     33  C   UNL A   1      43.004  21.227  26.043  1.00  0.00     0.060 A 
ATOM     34  C   UNL A   1      43.251  21.596  27.369  1.00  0.00     0.016 A 
ATOM     35  C   UNL A   1      43.143  22.140  24.996  1.00  0.00     0.016 A 
ATOM     36  C   UNL A   1      43.638  22.901  27.654  1.00  0.00     0.010 A 
ATOM     37  C   UNL A   1      43.530  23.446  25.285  1.00  0.00     0.010 A 
ATOM     38  C   UNL A   1      43.761  23.835  26.615  1.00  0.00    -0.014 A 
BRANCH  38  39
ATOM     39  C   UNL A   1      44.033  25.255  26.927  1.00  0.00     0.031 A 
ATOM     40  C   UNL A   1      45.431  25.776  26.766  1.00  0.00     0.074 A 
ATOM     41  C   UNL A   1      43.036  26.053  27.349  1.00  0.00     0.049 A 
ATOM     42  N   UNL A   1      45.914  26.955  27.051  1.00  0.00    -0.248 NA
ATOM     43  C   UNL A   1      46.422  24.834  26.219  1.00  0.00     0.031 C 
ATOM     44  C   UNL A   1      41.639  25.643  27.504  1.00  0.00     0.029 A 
ATOM     45  N   UNL A   1      43.043  27.369  27.729  1.00  0.00    -0.354 N 
ATOM     46  C   UNL A   1      47.264  26.900  26.722  1.00  0.00     0.074 A 
ATOM     47  C   UNL A   1      47.531  25.554  26.260  1.00  0.00     0.031 C 
ATOM     48  C   UNL A   1      40.925  26.690  27.948  1.00  0.00     0.029 A 
ATOM     49  C   UNL A   1      41.818  27.825  28.156  1.00  0.00     0.049 A 
ATOM     50  H   UNL A   1      43.849  27.935  27.699  1.00  0.00     0.167 HD
ATOM     51  C   UNL A   1      48.188  27.889  26.789  1.00  0.00     0.034 A 
ATOM     52  C   UNL A   1      41.471  29.017  28.683  1.00  0.00     0.034 A 
ATOM     53  C   UNL A   1      47.892  29.217  27.268  1.00  0.00     0.049 A 
ATOM     54  C   UNL A   1      42.541  30.074  28.832  1.00  0.00     0.074 A 
ATOM     55  C   UNL A   1      48.742  30.303  27.378  1.00  0.00     0.029 A 
ATOM     56  N   UNL A   1      46.649  29.636  27.728  1.00  0.00    -0.354 N 
ATOM     57  N   UNL A   1      43.813  30.014  28.508  1.00  0.00    -0.248 NA
ATOM     58  C   UNL A   1      42.127  31.360  29.406  1.00  0.00     0.031 C 
ATOM     59  C   UNL A   1      48.035  31.351  27.975  1.00  0.00     0.029 A 
ATOM     60  C   UNL A   1      46.718  30.954  28.152  1.00  0.00     0.049 A 
ATOM     61  H   UNL A   1      45.837  29.080  27.748  1.00  0.00     0.167 HD
ATOM     62  C   UNL A   1      44.340  31.269  28.804  1.00  0.00     0.074 A 
ATOM     63  C   UNL A   1      43.244  32.065  29.317  1.00  0.00     0.031 C 
ATOM     64  C   UNL A   1      45.610  31.727  28.663  1.00  0.00     0.034 A 
BRANCH  51  65
ATOM     65  C   UNL A   1      49.601  27.554  26.381  1.00  0.00     0.023 A 
ATOM     66  C   UNL A   1      50.060  27.757  25.067  1.00  0.00     0.031 A 
ATOM     67  C   UNL A   1      50.501  27.007  27.313  1.00  0.00     0.131 A 
ATOM     68  C   UNL A   1      51.357  27.358  24.708  1.00  0.00     0.055 A 
ATOM     69  C   UNL A   1      51.817  26.689  26.969  1.00  0.00     0.041 A 
ATOM     70  F   UNL A   1      50.113  26.764  28.576  1.00  0.00    -0.206 F 
ATOM     71  C   UNL A   1      52.247  26.852  25.657  1.00  0.00     0.022 A 
BRANCH  68  72
ATOM     72  S   UNL A   1      51.817  27.384  22.954  1.00  0.00     0.124 S 
ATOM     73  O   UNL A   1      50.551  27.039  22.312  1.00  0.00    -0.237 OA
ATOM     74  O   UNL A   1      52.275  28.756  22.767  1.00  0.00    -0.237 OA
ATOM     75  O   UNL A   1      52.856  26.361  22.857  1.00  0.00    -0.744 OA
ENDBRANCH  68  72
ENDBRANCH  51  65
BRANCH  52  76
ATOM     76  C   UNL A   1      40.074  29.273  29.139  1.00  0.00     0.023 A 
ATOM     77  C   UNL A   1      39.735  29.213  30.499  1.00  0.00     0.031 A 
ATOM     78  C   UNL A   1      39.041  29.515  28.216  1.00  0.00     0.131 A 
ATOM     79  C   UNL A   1      38.392  29.329  30.893  1.00  0.00     0.055 A 
ATOM     80  C   UNL A   1      37.717  29.698  28.618  1.00  0.00     0.041 A 
ATOM     81  F   UNL A   1      39.305  29.579  26.900  1.00  0.00    -0.206 F 
ATOM     82  C   UNL A   1      37.382  29.587  29.963  1.00  0.00     0.022 A 
BRANCH  79  83
ATOM     83  S   UNL A   1      37.970  29.016  32.628  1.00  0.00     0.124 S 
ATOM     84  O   UNL A   1      38.978  29.808  33.325  1.00  0.00    -0.237 OA
ATOM     85  O   UNL A   1      36.600  29.514  32.700  1.00  0.00    -0.237 OA
ATOM     86  O   UNL A   1      38.114  27.568  32.758  1.00  0.00    -0.744 OA
ENDBRANCH  79  83
ENDBRANCH  52  76
BRANCH  64  87
ATOM     87  C   UNL A   1      45.863  33.174  29.013  1.00  0.00     0.023 A 
ATOM     88  C   UNL A   1      45.754  34.199  28.057  1.00  0.00     0.031 A 
ATOM     89  C   UNL A   1      46.223  33.528  30.325  1.00  0.00     0.131 A 
ATOM     90  C   UNL A   1      46.060  35.520  28.415  1.00  0.00     0.055 A 
ATOM     91  C   UNL A   1      46.456  34.854  30.692  1.00  0.00     0.041 A 
ATOM     92  F   UNL A   1      46.347  32.589  31.277  1.00  0.00    -0.206 F 
ATOM     93  C   UNL A   1      46.388  35.857  29.731  1.00  0.00     0.022 A 
BRANCH  90  94
ATOM     94  S   UNL A   1      46.122  36.780  27.112  1.00  0.00     0.124 S 
ATOM     95  O   UNL A   1      44.747  37.269  27.100  1.00  0.00    -0.237 OA
ATOM     96  O   UNL A   1      47.124  37.709  27.621  1.00  0.00    -0.237 OA
ATOM     97  O   UNL A   1      46.521  36.026  25.925  1.00  0.00    -0.744 OA
ENDBRANCH  90  94
ENDBRANCH  64  87
ENDBRANCH  38  39
ENDBRANCH  31  33
ENDBRANCH  30  31
ENDBRANCH  29  30
ENDBRANCH  28  29
ENDBRANCH   1  28
TORSDOF 20
ENDMDL
