MODEL 1
REMARK VINA RESULT:     -12.1      0.000      0.000
REMARK SMILES O=C(OCCOCCOC(=O)[C@H]1CC2(CC[NH+](C(=O)c3cc4ccccc4[nH]3)CC2)CN1C(=O)C1CC1)c1ccc(-c2c3nc(c(-c4cc(S(=O)(=O)[O-])ccc4F)c4ccc([nH]4)c(-c4cc(S(=O)(=O)[O-])ccc4F)c4nc(c(-c5cc(S(=O)(=O)[O-])ccc5F)c5ccc2[nH]5)C=C4)C=C3)cc1
REMARK SMILES IDX 5 1 4 2 3 3 2 4 1 5 38 6 39 7 100 8 40 9 99 10 41 11 42 12
REMARK SMILES IDX 43 13 93 14 44 15 98 16 92 17 94 18 45 19 97 20 91 21 90 22
REMARK SMILES IDX 46 24 78 25 58 26 77 27 59 28 62 29 76 30 95 31 60 32 61 33
REMARK SMILES IDX 75 35 96 36 63 37 47 38 48 39 56 40 49 41 55 42 57 43 54 44
REMARK SMILES IDX 50 45 51 46 52 47 53 48 79 49 80 50 88 51 81 52 87 53 89 54
REMARK SMILES IDX 86 55 82 56 83 57 84 58 85 59 64 60 65 61 73 62 66 63 72 64
REMARK SMILES IDX 74 65 71 66 67 67 68 68 69 69 70 70 6 71 7 72 8 73 9 74
REMARK SMILES IDX 10 75 11 76 12 77 13 78 32 79 14 80 31 81 15 82 30 83 16 84
REMARK SMILES IDX 29 85 17 86 33 88 34 89 35 90 36 91 37 92 18 93 19 94 20 95
REMARK SMILES IDX 21 96 28 97 22 98 27 99 23 101 26 102 24 103 25 104
REMARK H PARENT 94 23 62 34 17 87 28 100
REMARK Flexibility Score: inf
ROOT
ATOM      1  C   UNL A   1      38.350  19.701  25.036  1.00  0.00     0.202 C 
ENDROOT
BRANCH   1   2
ATOM      2  C   UNL A   1      39.444  19.786  26.112  1.00  0.00     0.261 C 
BRANCH   2   3
ATOM      3  O   UNL A   1      40.787  19.567  25.685  1.00  0.00    -0.460 OA
BRANCH   3   4
ATOM      4  C   UNL A   1      41.781  19.542  26.601  1.00  0.00     0.338 C 
ATOM      5  O   UNL A   1      42.089  18.648  27.359  1.00  0.00    -0.246 OA
BRANCH   4   6
ATOM      6  C   UNL A   1      42.263  20.939  26.618  1.00  0.00     0.060 A 
ATOM      7  C   UNL A   1      42.634  21.445  27.865  1.00  0.00     0.016 A 
ATOM      8  C   UNL A   1      42.265  21.767  25.502  1.00  0.00     0.016 A 
ATOM      9  C   UNL A   1      42.950  22.771  28.040  1.00  0.00     0.010 A 
ATOM     10  C   UNL A   1      42.625  23.113  25.667  1.00  0.00     0.010 A 
ATOM     11  C   UNL A   1      42.962  23.618  26.940  1.00  0.00    -0.014 A 
BRANCH  11  12
ATOM     12  C   UNL A   1      43.223  25.049  27.202  1.00  0.00     0.031 A 
ATOM     13  C   UNL A   1      44.507  25.647  26.717  1.00  0.00     0.074 A 
ATOM     14  C   UNL A   1      42.253  25.823  27.728  1.00  0.00     0.049 A 
ATOM     15  N   UNL A   1      45.006  26.829  26.948  1.00  0.00    -0.248 NA
ATOM     16  C   UNL A   1      45.338  24.797  25.849  1.00  0.00     0.031 C 
ATOM     17  C   UNL A   1      40.900  25.368  28.069  1.00  0.00     0.029 A 
ATOM     18  N   UNL A   1      42.237  27.157  28.039  1.00  0.00    -0.354 N 
ATOM     19  C   UNL A   1      46.237  26.849  26.303  1.00  0.00     0.074 A 
ATOM     20  C   UNL A   1      46.405  25.559  25.667  1.00  0.00     0.031 C 
ATOM     21  C   UNL A   1      40.184  26.411  28.516  1.00  0.00     0.029 A 
ATOM     22  C   UNL A   1      41.053  27.577  28.601  1.00  0.00     0.049 A 
ATOM     23  H   UNL A   1      42.999  27.758  27.876  1.00  0.00     0.167 HD
ATOM     24  C   UNL A   1      47.141  27.857  26.268  1.00  0.00     0.034 A 
ATOM     25  C   UNL A   1      40.733  28.752  29.179  1.00  0.00     0.034 A 
ATOM     26  C   UNL A   1      46.918  29.133  26.902  1.00  0.00     0.049 A 
ATOM     27  C   UNL A   1      41.802  29.815  29.235  1.00  0.00     0.074 A 
ATOM     28  C   UNL A   1      47.774  30.214  26.992  1.00  0.00     0.029 A 
ATOM     29  N   UNL A   1      45.742  29.499  27.550  1.00  0.00    -0.354 N 
ATOM     30  N   UNL A   1      43.018  29.791  28.732  1.00  0.00    -0.248 NA
ATOM     31  C   UNL A   1      41.469  31.054  29.946  1.00  0.00     0.031 C 
ATOM     32  C   UNL A   1      47.145  31.202  27.757  1.00  0.00     0.029 A 
ATOM     33  C   UNL A   1      45.862  30.777  28.068  1.00  0.00     0.049 A 
ATOM     34  H   UNL A   1      44.942  28.930  27.629  1.00  0.00     0.167 HD
ATOM     35  C   UNL A   1      43.583  31.022  29.047  1.00  0.00     0.074 A 
ATOM     36  C   UNL A   1      42.568  31.770  29.761  1.00  0.00     0.031 C 
ATOM     37  C   UNL A   1      44.827  31.496  28.775  1.00  0.00     0.034 A 
BRANCH  24  38
ATOM     38  C   UNL A   1      48.473  27.567  25.622  1.00  0.00     0.023 A 
ATOM     39  C   UNL A   1      48.714  27.792  24.255  1.00  0.00     0.031 A 
ATOM     40  C   UNL A   1      49.504  26.990  26.386  1.00  0.00     0.131 A 
ATOM     41  C   UNL A   1      49.926  27.376  23.683  1.00  0.00     0.055 A 
ATOM     42  C   UNL A   1      50.739  26.656  25.828  1.00  0.00     0.041 A 
ATOM     43  F   UNL A   1      49.320  26.720  27.688  1.00  0.00    -0.206 F 
ATOM     44  C   UNL A   1      50.950  26.835  24.465  1.00  0.00     0.022 A 
BRANCH  41  45
ATOM     45  S   UNL A   1      50.091  27.407  21.876  1.00  0.00     0.124 S 
ATOM     46  O   UNL A   1      51.372  26.729  21.687  1.00  0.00    -0.237 OA
ATOM     47  O   UNL A   1      48.909  26.675  21.438  1.00  0.00    -0.237 OA
ATOM     48  O   UNL A   1      50.097  28.834  21.558  1.00  0.00    -0.744 OA
ENDBRANCH  41  45
ENDBRANCH  24  38
BRANCH  25  49
ATOM     49  C   UNL A   1      39.405  28.953  29.836  1.00  0.00     0.023 A 
ATOM     50  C   UNL A   1      38.385  29.690  29.214  1.00  0.00     0.031 A 
ATOM     51  C   UNL A   1      39.163  28.474  31.139  1.00  0.00     0.131 A 
ATOM     52  C   UNL A   1      37.197  29.972  29.912  1.00  0.00     0.055 A 
ATOM     53  C   UNL A   1      37.953  28.696  31.800  1.00  0.00     0.041 A 
ATOM     54  F   UNL A   1      40.104  27.777  31.796  1.00  0.00    -0.206 F 
ATOM     55  C   UNL A   1      36.968  29.463  31.192  1.00  0.00     0.022 A 
BRANCH  52  56
ATOM     56  S   UNL A   1      36.004  31.119  29.170  1.00  0.00     0.124 S 
ATOM     57  O   UNL A   1      36.884  32.048  28.469  1.00  0.00    -0.237 OA
ATOM     58  O   UNL A   1      35.210  30.230  28.330  1.00  0.00    -0.237 OA
ATOM     59  O   UNL A   1      35.303  31.675  30.325  1.00  0.00    -0.744 OA
ENDBRANCH  52  56
ENDBRANCH  25  49
BRANCH  37  60
ATOM     60  C   UNL A   1      45.123  32.910  29.204  1.00  0.00     0.023 A 
ATOM     61  C   UNL A   1      44.964  33.999  28.331  1.00  0.00     0.031 A 
ATOM     62  C   UNL A   1      45.575  33.166  30.510  1.00  0.00     0.131 A 
ATOM     63  C   UNL A   1      45.310  35.289  28.758  1.00  0.00     0.055 A 
ATOM     64  C   UNL A   1      45.851  34.459  30.952  1.00  0.00     0.041 A 
ATOM     65  F   UNL A   1      45.748  32.160  31.384  1.00  0.00    -0.206 F 
ATOM     66  C   UNL A   1      45.732  35.529  30.068  1.00  0.00     0.022 A 
BRANCH  63  67
ATOM     67  S   UNL A   1      45.297  36.638  27.547  1.00  0.00     0.124 S 
ATOM     68  O   UNL A   1      43.990  37.244  27.784  1.00  0.00    -0.237 OA
ATOM     69  O   UNL A   1      46.450  37.434  27.953  1.00  0.00    -0.237 OA
ATOM     70  O   UNL A   1      45.438  35.951  26.266  1.00  0.00    -0.744 OA
ENDBRANCH  63  67
ENDBRANCH  37  60
ENDBRANCH  11  12
ENDBRANCH   4   6
ENDBRANCH   3   4
ENDBRANCH   2   3
ENDBRANCH   1   2
BRANCH   1  71
ATOM     71  O   UNL A   1      37.728  20.941  24.715  1.00  0.00    -0.374 OA
BRANCH  71  72
ATOM     72  C   UNL A   1      37.918  21.991  25.677  1.00  0.00     0.202 C 
BRANCH  72  73
ATOM     73  C   UNL A   1      36.686  22.899  25.699  1.00  0.00     0.261 C 
BRANCH  73  74
ATOM     74  O   UNL A   1      35.544  22.069  25.464  1.00  0.00    -0.462 OA
BRANCH  74  75
ATOM     75  C   UNL A   1      34.582  22.108  26.443  1.00  0.00     0.328 C 
ATOM     76  O   UNL A   1      34.702  21.648  27.566  1.00  0.00    -0.250 OA
BRANCH  75  77
ATOM     77  C   UNL A   1      33.315  22.686  25.816  1.00  0.00     0.195 C 
ATOM     78  C   UNL A   1      33.453  24.189  25.999  1.00  0.00     0.046 C 
ATOM     79  N   UNL A   1      32.881  22.543  24.429  1.00  0.00    -0.328 N 
ATOM     80  C   UNL A   1      32.457  24.825  25.018  1.00  0.00     0.001 C 
ATOM     81  C   UNL A   1      32.010  23.664  24.124  1.00  0.00     0.128 C 
ATOM     82  C   UNL A   1      33.170  25.904  24.189  1.00  0.00     0.071 C 
ATOM     83  C   UNL A   1      31.256  25.449  25.764  1.00  0.00     0.071 C 
ATOM     84  C   UNL A   1      33.594  27.053  25.092  1.00  0.00     0.271 C 
ATOM     85  C   UNL A   1      31.637  26.702  26.557  1.00  0.00     0.271 C 
ATOM     86  N   UNL A   1      32.412  27.627  25.736  1.00  0.00    -0.266 N 
ATOM     87  H   UNL A   1      31.567  28.113  25.873  1.00  0.00     0.357 HD
BRANCH  79  88
ATOM     88  C   UNL A   1      32.455  21.328  23.896  1.00  0.00     0.226 C 
ATOM     89  O   UNL A   1      32.206  21.191  22.700  1.00  0.00    -0.275 OA
BRANCH  88  90
ATOM     90  C   UNL A   1      32.549  20.111  24.737  1.00  0.00     0.079 C 
ATOM     91  C   UNL A   1      32.383  18.690  24.297  1.00  0.00     0.014 C 
ATOM     92  C   UNL A   1      33.763  19.227  24.511  1.00  0.00     0.014 C 
ENDBRANCH  88  90
ENDBRANCH  79  88
BRANCH  86  93
ATOM     93  C   UNL A   1      32.121  28.989  25.792  1.00  0.00     0.360 C 
ATOM     94  O   UNL A   1      32.649  29.734  26.614  1.00  0.00    -0.224 OA
BRANCH  93  95
ATOM     95  C   UNL A   1      31.170  29.486  24.826  1.00  0.00     0.145 A 
ATOM     96  C   UNL A   1      30.618  28.821  23.748  1.00  0.00     0.046 A 
ATOM     97  N   UNL A   1      30.664  30.766  24.804  1.00  0.00    -0.347 N 
ATOM     98  C   UNL A   1      29.656  29.677  23.149  1.00  0.00     0.000 A 
ATOM     99  C   UNL A   1      29.687  30.883  23.845  1.00  0.00     0.046 A 
ATOM    100  H   UNL A   1      30.962  31.496  25.393  1.00  0.00     0.167 HD
ATOM    101  C   UNL A   1      28.746  29.531  22.087  1.00  0.00     0.010 A 
ATOM    102  C   UNL A   1      28.839  31.955  23.546  1.00  0.00     0.026 A 
ATOM    103  C   UNL A   1      27.892  30.592  21.769  1.00  0.00     0.001 A 
ATOM    104  C   UNL A   1      27.937  31.783  22.492  1.00  0.00     0.002 A 
ENDBRANCH  93  95
ENDBRANCH  86  93
ENDBRANCH  75  77
ENDBRANCH  74  75
ENDBRANCH  73  74
ENDBRANCH  72  73
ENDBRANCH  71  72
ENDBRANCH   1  71
TORSDOF 21
ENDMDL
MODEL 2
REMARK VINA RESULT:     -11.8      6.306     12.253
REMARK SMILES O=C(OCCOCCOC(=O)[C@H]1CC2(CC[NH+](C(=O)c3cc4ccccc4[nH]3)CC2)CN1C(=O)C1CC1)c1ccc(-c2c3nc(c(-c4cc(S(=O)(=O)[O-])ccc4F)c4ccc([nH]4)c(-c4cc(S(=O)(=O)[O-])ccc4F)c4nc(c(-c5cc(S(=O)(=O)[O-])ccc5F)c5ccc2[nH]5)C=C4)C=C3)cc1
REMARK SMILES IDX 5 1 4 2 3 3 2 4 1 5 38 6 39 7 100 8 40 9 99 10 41 11 42 12
REMARK SMILES IDX 43 13 93 14 44 15 98 16 92 17 94 18 45 19 97 20 91 21 90 22
REMARK SMILES IDX 46 24 78 25 58 26 77 27 59 28 62 29 76 30 95 31 60 32 61 33
REMARK SMILES IDX 75 35 96 36 63 37 47 38 48 39 56 40 49 41 55 42 57 43 54 44
REMARK SMILES IDX 50 45 51 46 52 47 53 48 79 49 80 50 88 51 81 52 87 53 89 54
REMARK SMILES IDX 86 55 82 56 83 57 84 58 85 59 64 60 65 61 73 62 66 63 72 64
REMARK SMILES IDX 74 65 71 66 67 67 68 68 69 69 70 70 6 71 7 72 8 73 9 74
REMARK SMILES IDX 10 75 11 76 12 77 13 78 32 79 14 80 31 81 15 82 30 83 16 84
REMARK SMILES IDX 29 85 17 86 33 88 34 89 35 90 36 91 37 92 18 93 19 94 20 95
REMARK SMILES IDX 21 96 28 97 22 98 27 99 23 101 26 102 24 103 25 104
REMARK H PARENT 94 23 62 34 17 87 28 100
REMARK Flexibility Score: inf
ROOT
ATOM      1  C   UNL A   1      34.422  34.370  28.225  1.00  0.00     0.202 C 
ENDROOT
BRANCH   1   2
ATOM      2  C   UNL A   1      33.582  35.396  29.000  1.00  0.00     0.261 C 
BRANCH   2   3
ATOM      3  O   UNL A   1      32.905  34.929  30.165  1.00  0.00    -0.460 OA
BRANCH   3   4
ATOM      4  C   UNL A   1      33.027  35.611  31.326  1.00  0.00     0.338 C 
ATOM      5  O   UNL A   1      32.556  36.688  31.624  1.00  0.00    -0.246 OA
BRANCH   4   6
ATOM      6  C   UNL A   1      34.050  34.844  32.065  1.00  0.00     0.060 A 
ATOM      7  C   UNL A   1      35.351  35.347  32.013  1.00  0.00     0.016 A 
ATOM      8  C   UNL A   1      33.796  33.634  32.700  1.00  0.00     0.016 A 
ATOM      9  C   UNL A   1      36.416  34.645  32.527  1.00  0.00     0.010 A 
ATOM     10  C   UNL A   1      34.874  32.932  33.262  1.00  0.00     0.010 A 
ATOM     11  C   UNL A   1      36.188  33.435  33.168  1.00  0.00    -0.014 A 
BRANCH  11  12
ATOM     12  C   UNL A   1      37.378  32.685  33.622  1.00  0.00     0.031 A 
ATOM     13  C   UNL A   1      37.919  32.953  34.992  1.00  0.00     0.074 A 
ATOM     14  C   UNL A   1      37.861  31.675  32.872  1.00  0.00     0.049 A 
ATOM     15  N   UNL A   1      39.018  32.521  35.544  1.00  0.00    -0.248 NA
ATOM     16  C   UNL A   1      37.105  33.822  35.858  1.00  0.00     0.031 C 
ATOM     17  C   UNL A   1      37.290  31.220  31.599  1.00  0.00     0.029 A 
ATOM     18  N   UNL A   1      38.918  30.829  33.077  1.00  0.00    -0.354 N 
ATOM     19  C   UNL A   1      39.061  33.111  36.803  1.00  0.00     0.074 A 
ATOM     20  C   UNL A   1      37.872  33.927  36.932  1.00  0.00     0.031 C 
ATOM     21  C   UNL A   1      37.988  30.163  31.156  1.00  0.00     0.029 A 
ATOM     22  C   UNL A   1      39.119  29.938  32.047  1.00  0.00     0.049 A 
ATOM     23  H   UNL A   1      39.480  30.854  33.885  1.00  0.00     0.167 HD
ATOM     24  C   UNL A   1      40.023  32.982  37.748  1.00  0.00     0.034 A 
ATOM     25  C   UNL A   1      40.137  29.085  31.820  1.00  0.00     0.034 A 
ATOM     26  C   UNL A   1      41.180  32.139  37.579  1.00  0.00     0.049 A 
ATOM     27  C   UNL A   1      41.257  29.053  32.831  1.00  0.00     0.074 A 
ATOM     28  C   UNL A   1      42.255  31.967  38.431  1.00  0.00     0.029 A 
ATOM     29  N   UNL A   1      41.407  31.318  36.479  1.00  0.00    -0.354 N 
ATOM     30  N   UNL A   1      41.362  29.706  33.968  1.00  0.00    -0.248 NA
ATOM     31  C   UNL A   1      42.402  28.189  32.525  1.00  0.00     0.031 C 
ATOM     32  C   UNL A   1      43.164  31.101  37.813  1.00  0.00     0.029 A 
ATOM     33  C   UNL A   1      42.618  30.661  36.617  1.00  0.00     0.049 A 
ATOM     34  H   UNL A   1      40.795  31.220  35.714  1.00  0.00     0.167 HD
ATOM     35  C   UNL A   1      42.574  29.309  34.524  1.00  0.00     0.074 A 
ATOM     36  C   UNL A   1      43.150  28.345  33.607  1.00  0.00     0.031 C 
ATOM     37  C   UNL A   1      43.162  29.702  35.683  1.00  0.00     0.034 A 
BRANCH  24  38
ATOM     38  C   UNL A   1      39.906  33.853  38.975  1.00  0.00     0.023 A 
ATOM     39  C   UNL A   1      39.165  33.467  40.105  1.00  0.00     0.031 A 
ATOM     40  C   UNL A   1      40.499  35.128  38.980  1.00  0.00     0.131 A 
ATOM     41  C   UNL A   1      38.978  34.374  41.160  1.00  0.00     0.055 A 
ATOM     42  C   UNL A   1      40.380  35.994  40.069  1.00  0.00     0.041 A 
ATOM     43  F   UNL A   1      41.190  35.565  37.915  1.00  0.00    -0.206 F 
ATOM     44  C   UNL A   1      39.603  35.624  41.161  1.00  0.00     0.022 A 
BRANCH  41  45
ATOM     45  S   UNL A   1      37.783  33.962  42.461  1.00  0.00     0.124 S 
ATOM     46  O   UNL A   1      38.595  33.140  43.356  1.00  0.00    -0.237 OA
ATOM     47  O   UNL A   1      37.402  35.274  42.968  1.00  0.00    -0.237 OA
ATOM     48  O   UNL A   1      36.733  33.240  41.745  1.00  0.00    -0.744 OA
ENDBRANCH  41  45
ENDBRANCH  24  38
BRANCH  25  49
ATOM     49  C   UNL A   1      40.207  28.284  30.560  1.00  0.00     0.023 A 
ATOM     50  C   UNL A   1      41.114  28.606  29.538  1.00  0.00     0.031 A 
ATOM     51  C   UNL A   1      39.308  27.224  30.325  1.00  0.00     0.131 A 
ATOM     52  C   UNL A   1      41.067  27.916  28.314  1.00  0.00     0.055 A 
ATOM     53  C   UNL A   1      39.314  26.495  29.134  1.00  0.00     0.041 A 
ATOM     54  F   UNL A   1      38.404  26.878  31.255  1.00  0.00    -0.206 F 
ATOM     55  C   UNL A   1      40.186  26.851  28.114  1.00  0.00     0.022 A 
BRANCH  52  56
ATOM     56  S   UNL A   1      42.089  28.512  26.940  1.00  0.00     0.124 S 
ATOM     57  O   UNL A   1      42.444  29.852  27.393  1.00  0.00    -0.237 OA
ATOM     58  O   UNL A   1      43.171  27.533  26.920  1.00  0.00    -0.237 OA
ATOM     59  O   UNL A   1      41.183  28.459  25.794  1.00  0.00    -0.744 OA
ENDBRANCH  52  56
ENDBRANCH  25  49
BRANCH  37  60
ATOM     60  C   UNL A   1      44.467  29.037  36.041  1.00  0.00     0.023 A 
ATOM     61  C   UNL A   1      44.513  27.841  36.777  1.00  0.00     0.031 A 
ATOM     62  C   UNL A   1      45.683  29.616  35.638  1.00  0.00     0.131 A 
ATOM     63  C   UNL A   1      45.752  27.294  37.137  1.00  0.00     0.055 A 
ATOM     64  C   UNL A   1      46.911  29.030  35.939  1.00  0.00     0.041 A 
ATOM     65  F   UNL A   1      45.696  30.762  34.936  1.00  0.00    -0.206 F 
ATOM     66  C   UNL A   1      46.950  27.868  36.705  1.00  0.00     0.022 A 
BRANCH  63  67
ATOM     67  S   UNL A   1      45.780  25.874  38.264  1.00  0.00     0.124 S 
ATOM     68  O   UNL A   1      45.790  24.749  37.332  1.00  0.00    -0.237 OA
ATOM     69  O   UNL A   1      47.014  26.092  39.011  1.00  0.00    -0.237 OA
ATOM     70  O   UNL A   1      44.551  26.025  39.038  1.00  0.00    -0.744 OA
ENDBRANCH  63  67
ENDBRANCH  37  60
ENDBRANCH  11  12
ENDBRANCH   4   6
ENDBRANCH   3   4
ENDBRANCH   2   3
ENDBRANCH   1   2
BRANCH   1  71
ATOM     71  O   UNL A   1      34.189  33.011  28.584  1.00  0.00    -0.374 OA
BRANCH  71  72
ATOM     72  C   UNL A   1      33.327  32.281  27.697  1.00  0.00     0.202 C 
BRANCH  72  73
ATOM     73  C   UNL A   1      33.784  30.822  27.620  1.00  0.00     0.261 C 
BRANCH  73  74
ATOM     74  O   UNL A   1      33.283  30.287  26.390  1.00  0.00    -0.462 OA
BRANCH  74  75
ATOM     75  C   UNL A   1      32.296  29.343  26.523  1.00  0.00     0.328 C 
ATOM     76  O   UNL A   1      31.497  29.286  27.443  1.00  0.00    -0.250 OA
BRANCH  75  77
ATOM     77  C   UNL A   1      32.490  28.319  25.408  1.00  0.00     0.195 C 
ATOM     78  C   UNL A   1      32.744  27.008  26.137  1.00  0.00     0.046 C 
ATOM     79  N   UNL A   1      31.526  27.959  24.371  1.00  0.00    -0.328 N 
ATOM     80  C   UNL A   1      32.504  25.898  25.102  1.00  0.00     0.001 C 
ATOM     81  C   UNL A   1      31.848  26.617  23.918  1.00  0.00     0.128 C 
ATOM     82  C   UNL A   1      31.554  24.844  25.690  1.00  0.00     0.071 C 
ATOM     83  C   UNL A   1      33.831  25.228  24.681  1.00  0.00     0.071 C 
ATOM     84  C   UNL A   1      32.227  24.134  26.855  1.00  0.00     0.271 C 
ATOM     85  C   UNL A   1      34.446  24.379  25.797  1.00  0.00     0.271 C 
ATOM     86  N   UNL A   1      33.453  23.486  26.386  1.00  0.00    -0.266 N 
ATOM     87  H   UNL A   1      34.064  22.863  25.930  1.00  0.00     0.357 HD
BRANCH  79  88
ATOM     88  C   UNL A   1      31.159  28.833  23.350  1.00  0.00     0.226 C 
ATOM     89  O   UNL A   1      31.932  29.141  22.446  1.00  0.00    -0.275 OA
BRANCH  88  90
ATOM     90  C   UNL A   1      29.730  29.200  23.207  1.00  0.00     0.079 C 
ATOM     91  C   UNL A   1      29.144  30.577  23.200  1.00  0.00     0.014 C 
ATOM     92  C   UNL A   1      29.331  29.861  21.899  1.00  0.00     0.014 C 
ENDBRANCH  88  90
ENDBRANCH  79  88
BRANCH  86  93
ATOM     93  C   UNL A   1      33.806  22.165  26.656  1.00  0.00     0.360 C 
ATOM     94  O   UNL A   1      34.416  21.850  27.675  1.00  0.00    -0.224 OA
BRANCH  93  95
ATOM     95  C   UNL A   1      33.411  21.178  25.679  1.00  0.00     0.145 A 
ATOM     96  C   UNL A   1      32.723  21.372  24.496  1.00  0.00     0.046 A 
ATOM     97  N   UNL A   1      33.637  19.825  25.788  1.00  0.00    -0.347 N 
ATOM     98  C   UNL A   1      32.658  20.127  23.816  1.00  0.00     0.000 A 
ATOM     99  C   UNL A   1      33.259  19.176  24.638  1.00  0.00     0.046 A 
ATOM    100  H   UNL A   1      34.016  19.383  26.582  1.00  0.00     0.167 HD
ATOM    101  C   UNL A   1      32.156  19.722  22.566  1.00  0.00     0.010 A 
ATOM    102  C   UNL A   1      33.404  17.834  24.267  1.00  0.00     0.026 A 
ATOM    103  C   UNL A   1      32.287  18.384  22.179  1.00  0.00     0.001 A 
ATOM    104  C   UNL A   1      32.906  17.458  23.017  1.00  0.00     0.002 A 
ENDBRANCH  93  95
ENDBRANCH  86  93
ENDBRANCH  75  77
ENDBRANCH  74  75
ENDBRANCH  73  74
ENDBRANCH  72  73
ENDBRANCH  71  72
ENDBRANCH   1  71
TORSDOF 21
ENDMDL
MODEL 3
REMARK VINA RESULT:     -11.1      6.036     10.626
REMARK SMILES O=C(OCCOCCOC(=O)[C@H]1CC2(CC[NH+](C(=O)c3cc4ccccc4[nH]3)CC2)CN1C(=O)C1CC1)c1ccc(-c2c3nc(c(-c4cc(S(=O)(=O)[O-])ccc4F)c4ccc([nH]4)c(-c4cc(S(=O)(=O)[O-])ccc4F)c4nc(c(-c5cc(S(=O)(=O)[O-])ccc5F)c5ccc2[nH]5)C=C4)C=C3)cc1
REMARK SMILES IDX 5 1 4 2 3 3 2 4 1 5 38 6 39 7 100 8 40 9 99 10 41 11 42 12
REMARK SMILES IDX 43 13 93 14 44 15 98 16 92 17 94 18 45 19 97 20 91 21 90 22
REMARK SMILES IDX 46 24 78 25 58 26 77 27 59 28 62 29 76 30 95 31 60 32 61 33
REMARK SMILES IDX 75 35 96 36 63 37 47 38 48 39 56 40 49 41 55 42 57 43 54 44
REMARK SMILES IDX 50 45 51 46 52 47 53 48 79 49 80 50 88 51 81 52 87 53 89 54
REMARK SMILES IDX 86 55 82 56 83 57 84 58 85 59 64 60 65 61 73 62 66 63 72 64
REMARK SMILES IDX 74 65 71 66 67 67 68 68 69 69 70 70 6 71 7 72 8 73 9 74
REMARK SMILES IDX 10 75 11 76 12 77 13 78 32 79 14 80 31 81 15 82 30 83 16 84
REMARK SMILES IDX 29 85 17 86 33 88 34 89 35 90 36 91 37 92 18 93 19 94 20 95
REMARK SMILES IDX 21 96 28 97 22 98 27 99 23 101 26 102 24 103 25 104
REMARK H PARENT 94 23 62 34 17 87 28 100
REMARK Flexibility Score: inf
ROOT
ATOM      1  C   UNL A   1      34.535  33.854  27.860  1.00  0.00     0.202 C 
ENDROOT
BRANCH   1   2
ATOM      2  C   UNL A   1      33.763  34.844  28.745  1.00  0.00     0.261 C 
BRANCH   2   3
ATOM      3  O   UNL A   1      33.246  34.342  29.977  1.00  0.00    -0.460 OA
BRANCH   3   4
ATOM      4  C   UNL A   1      33.387  35.072  31.105  1.00  0.00     0.338 C 
ATOM      5  O   UNL A   1      32.865  36.128  31.393  1.00  0.00    -0.246 OA
BRANCH   4   6
ATOM      6  C   UNL A   1      34.496  34.398  31.811  1.00  0.00     0.060 A 
ATOM      7  C   UNL A   1      35.569  35.209  32.185  1.00  0.00     0.016 A 
ATOM      8  C   UNL A   1      34.555  33.025  32.018  1.00  0.00     0.016 A 
ATOM      9  C   UNL A   1      36.725  34.679  32.707  1.00  0.00     0.010 A 
ATOM     10  C   UNL A   1      35.718  32.482  32.587  1.00  0.00     0.010 A 
ATOM     11  C   UNL A   1      36.808  33.310  32.926  1.00  0.00    -0.014 A 
BRANCH  11  12
ATOM     12  C   UNL A   1      38.105  32.788  33.405  1.00  0.00     0.031 A 
ATOM     13  C   UNL A   1      38.961  32.006  32.457  1.00  0.00     0.074 A 
ATOM     14  C   UNL A   1      38.564  33.145  34.621  1.00  0.00     0.049 A 
ATOM     15  N   UNL A   1      40.058  31.343  32.693  1.00  0.00    -0.248 NA
ATOM     16  C   UNL A   1      38.521  31.974  31.053  1.00  0.00     0.031 C 
ATOM     17  C   UNL A   1      37.879  34.051  35.550  1.00  0.00     0.029 A 
ATOM     18  N   UNL A   1      39.723  32.821  35.274  1.00  0.00    -0.354 N 
ATOM     19  C   UNL A   1      40.414  30.765  31.479  1.00  0.00     0.074 A 
ATOM     20  C   UNL A   1      39.414  31.162  30.510  1.00  0.00     0.031 C 
ATOM     21  C   UNL A   1      38.645  34.228  36.638  1.00  0.00     0.029 A 
ATOM     22  C   UNL A   1      39.814  33.364  36.536  1.00  0.00     0.049 A 
ATOM     23  H   UNL A   1      40.425  32.254  34.880  1.00  0.00     0.167 HD
ATOM     24  C   UNL A   1      41.475  29.965  31.219  1.00  0.00     0.034 A 
ATOM     25  C   UNL A   1      40.707  33.135  37.519  1.00  0.00     0.034 A 
ATOM     26  C   UNL A   1      42.455  29.614  32.216  1.00  0.00     0.049 A 
ATOM     27  C   UNL A   1      41.810  32.143  37.242  1.00  0.00     0.074 A 
ATOM     28  C   UNL A   1      43.541  28.767  32.100  1.00  0.00     0.029 A 
ATOM     29  N   UNL A   1      42.469  30.104  33.518  1.00  0.00    -0.354 N 
ATOM     30  N   UNL A   1      42.077  31.495  36.129  1.00  0.00    -0.248 NA
ATOM     31  C   UNL A   1      42.719  31.835  38.351  1.00  0.00     0.031 C 
ATOM     32  C   UNL A   1      44.165  28.687  33.349  1.00  0.00     0.029 A 
ATOM     33  C   UNL A   1      43.526  29.554  34.223  1.00  0.00     0.049 A 
ATOM     34  H   UNL A   1      41.820  30.748  33.885  1.00  0.00     0.167 HD
ATOM     35  C   UNL A   1      43.202  30.723  36.399  1.00  0.00     0.074 A 
ATOM     36  C   UNL A   1      43.573  31.005  37.772  1.00  0.00     0.031 C 
ATOM     37  C   UNL A   1      43.870  29.859  35.593  1.00  0.00     0.034 A 
BRANCH  24  38
ATOM     38  C   UNL A   1      41.549  29.341  29.847  1.00  0.00     0.023 A 
ATOM     39  C   UNL A   1      40.884  28.146  29.525  1.00  0.00     0.031 A 
ATOM     40  C   UNL A   1      42.362  29.929  28.861  1.00  0.00     0.131 A 
ATOM     41  C   UNL A   1      41.101  27.542  28.276  1.00  0.00     0.055 A 
ATOM     42  C   UNL A   1      42.507  29.367  27.591  1.00  0.00     0.041 A 
ATOM     43  F   UNL A   1      43.049  31.053  29.122  1.00  0.00    -0.206 F 
ATOM     44  C   UNL A   1      41.885  28.158  27.298  1.00  0.00     0.022 A 
BRANCH  41  45
ATOM     45  S   UNL A   1      40.469  25.863  28.000  1.00  0.00     0.124 S 
ATOM     46  O   UNL A   1      39.285  25.852  28.857  1.00  0.00    -0.237 OA
ATOM     47  O   UNL A   1      40.220  25.851  26.564  1.00  0.00    -0.237 OA
ATOM     48  O   UNL A   1      41.564  25.007  28.452  1.00  0.00    -0.744 OA
ENDBRANCH  41  45
ENDBRANCH  24  38
BRANCH  25  49
ATOM     49  C   UNL A   1      40.545  33.757  38.869  1.00  0.00     0.023 A 
ATOM     50  C   UNL A   1      39.533  33.342  39.749  1.00  0.00     0.031 A 
ATOM     51  C   UNL A   1      41.357  34.837  39.271  1.00  0.00     0.131 A 
ATOM     52  C   UNL A   1      39.325  34.033  40.956  1.00  0.00     0.055 A 
ATOM     53  C   UNL A   1      41.192  35.473  40.502  1.00  0.00     0.041 A 
ATOM     54  F   UNL A   1      42.331  35.293  38.468  1.00  0.00    -0.206 F 
ATOM     55  C   UNL A   1      40.159  35.083  41.345  1.00  0.00     0.022 A 
BRANCH  52  56
ATOM     56  S   UNL A   1      37.867  33.622  41.953  1.00  0.00     0.124 S 
ATOM     57  O   UNL A   1      38.472  32.959  43.103  1.00  0.00    -0.237 OA
ATOM     58  O   UNL A   1      37.288  34.937  42.201  1.00  0.00    -0.237 OA
ATOM     59  O   UNL A   1      37.086  32.755  41.073  1.00  0.00    -0.744 OA
ENDBRANCH  52  56
ENDBRANCH  25  49
BRANCH  37  60
ATOM     60  C   UNL A   1      45.103  29.209  36.168  1.00  0.00     0.023 A 
ATOM     61  C   UNL A   1      46.377  29.782  36.028  1.00  0.00     0.031 A 
ATOM     62  C   UNL A   1      44.993  27.993  36.866  1.00  0.00     0.131 A 
ATOM     63  C   UNL A   1      47.501  29.108  36.528  1.00  0.00     0.055 A 
ATOM     64  C   UNL A   1      46.105  27.363  37.422  1.00  0.00     0.041 A 
ATOM     65  F   UNL A   1      43.798  27.400  37.025  1.00  0.00    -0.206 F 
ATOM     66  C   UNL A   1      47.371  27.914  37.243  1.00  0.00     0.022 A 
BRANCH  63  67
ATOM     67  S   UNL A   1      49.148  29.763  36.147  1.00  0.00     0.124 S 
ATOM     68  O   UNL A   1      49.214  29.590  34.699  1.00  0.00    -0.237 OA
ATOM     69  O   UNL A   1      49.055  31.140  36.619  1.00  0.00    -0.237 OA
ATOM     70  O   UNL A   1      50.045  28.904  36.916  1.00  0.00    -0.744 OA
ENDBRANCH  63  67
ENDBRANCH  37  60
ENDBRANCH  11  12
ENDBRANCH   4   6
ENDBRANCH   3   4
ENDBRANCH   2   3
ENDBRANCH   1   2
BRANCH   1  71
ATOM     71  O   UNL A   1      34.353  32.482  28.195  1.00  0.00    -0.374 OA
BRANCH  71  72
ATOM     72  C   UNL A   1      33.355  31.790  27.428  1.00  0.00     0.202 C 
BRANCH  72  73
ATOM     73  C   UNL A   1      33.751  30.320  27.272  1.00  0.00     0.261 C 
BRANCH  73  74
ATOM     74  O   UNL A   1      33.039  29.807  26.141  1.00  0.00    -0.462 OA
BRANCH  74  75
ATOM     75  C   UNL A   1      32.146  28.803  26.419  1.00  0.00     0.328 C 
ATOM     76  O   UNL A   1      31.525  28.683  27.462  1.00  0.00    -0.250 OA
BRANCH  75  77
ATOM     77  C   UNL A   1      32.198  27.811  25.260  1.00  0.00     0.195 C 
ATOM     78  C   UNL A   1      33.007  26.641  25.799  1.00  0.00     0.046 C 
ATOM     79  N   UNL A   1      31.061  27.173  24.601  1.00  0.00    -0.328 N 
ATOM     80  C   UNL A   1      32.715  25.461  24.860  1.00  0.00     0.001 C 
ATOM     81  C   UNL A   1      31.536  25.937  24.005  1.00  0.00     0.128 C 
ATOM     82  C   UNL A   1      32.322  24.229  25.690  1.00  0.00     0.071 C 
ATOM     83  C   UNL A   1      33.942  25.128  23.982  1.00  0.00     0.071 C 
ATOM     84  C   UNL A   1      33.509  23.765  26.521  1.00  0.00     0.271 C 
ATOM     85  C   UNL A   1      35.094  24.512  24.781  1.00  0.00     0.271 C 
ATOM     86  N   UNL A   1      34.621  23.426  25.633  1.00  0.00    -0.266 N 
ATOM     87  H   UNL A   1      35.175  22.956  24.968  1.00  0.00     0.357 HD
BRANCH  79  88
ATOM     88  C   UNL A   1      30.160  27.879  23.807  1.00  0.00     0.226 C 
ATOM     89  O   UNL A   1      28.999  27.509  23.651  1.00  0.00    -0.275 OA
BRANCH  88  90
ATOM     90  C   UNL A   1      30.531  29.238  23.347  1.00  0.00     0.079 C 
ATOM     91  C   UNL A   1      30.058  29.938  22.112  1.00  0.00     0.014 C 
ATOM     92  C   UNL A   1      29.445  30.298  23.428  1.00  0.00     0.014 C 
ENDBRANCH  88  90
ENDBRANCH  79  88
BRANCH  86  93
ATOM     93  C   UNL A   1      35.366  22.250  25.707  1.00  0.00     0.360 C 
ATOM     94  O   UNL A   1      36.486  22.220  26.211  1.00  0.00    -0.224 OA
BRANCH  93  95
ATOM     95  C   UNL A   1      34.750  21.061  25.167  1.00  0.00     0.145 A 
ATOM     96  C   UNL A   1      33.542  20.946  24.506  1.00  0.00     0.046 A 
ATOM     97  N   UNL A   1      35.274  19.791  25.257  1.00  0.00    -0.347 N 
ATOM     98  C   UNL A   1      33.406  19.603  24.068  1.00  0.00     0.000 A 
ATOM     99  C   UNL A   1      34.517  18.903  24.532  1.00  0.00     0.046 A 
ATOM    100  H   UNL A   1      36.079  19.552  25.770  1.00  0.00     0.167 HD
ATOM    101  C   UNL A   1      32.444  18.918  23.303  1.00  0.00     0.010 A 
ATOM    102  C   UNL A   1      34.731  17.548  24.256  1.00  0.00     0.026 A 
ATOM    103  C   UNL A   1      32.638  17.562  23.019  1.00  0.00     0.001 A 
ATOM    104  C   UNL A   1      33.767  16.891  23.486  1.00  0.00     0.002 A 
ENDBRANCH  93  95
ENDBRANCH  86  93
ENDBRANCH  75  77
ENDBRANCH  74  75
ENDBRANCH  73  74
ENDBRANCH  72  73
ENDBRANCH  71  72
ENDBRANCH   1  71
TORSDOF 21
ENDMDL
