MODEL 1
REMARK VINA RESULT:     -11.9      0.000      0.000
REMARK SMILES O=C(OCCOCCOC(=O)[C@H]1[C@H]2CC[C@H](CC2)[C@@H]1C(=O)Nc1ccc(Cc2ccncc2)cc1)c1ccc(-c2c3nc(c(-c4cc(S(=O)(=O)[O-])ccc4F)c4ccc([nH]4)c(-c4cc(S(=O)(=O)[O-])ccc4F)c4nc(c(-c5cc(S(=O)(=O)[O-])ccc5F)c5ccc2[nH]5)C=C4)C=C3)cc1
REMARK SMILES IDX 7 1 6 2 5 3 4 4 3 5 2 6 1 7 36 8 37 9 98 10 38 11 97 12
REMARK SMILES IDX 39 13 40 14 41 15 91 16 42 17 96 18 90 19 92 20 43 21 95 22
REMARK SMILES IDX 89 23 88 24 44 26 76 27 56 28 75 29 57 30 60 31 74 32 93 33
REMARK SMILES IDX 58 34 59 35 73 37 94 38 61 39 45 40 46 41 54 42 47 43 53 44
REMARK SMILES IDX 55 45 52 46 48 47 49 48 50 49 51 50 77 51 78 52 86 53 79 54
REMARK SMILES IDX 85 55 87 56 84 57 80 58 81 59 82 60 83 61 62 62 63 63 71 64
REMARK SMILES IDX 64 65 70 66 72 67 69 68 65 69 66 70 67 71 68 72 8 73 9 74
REMARK SMILES IDX 10 75 11 76 12 77 13 78 19 79 18 80 14 81 16 82 17 83 15 84
REMARK SMILES IDX 20 85 21 86 22 87 23 89 24 90 35 91 25 92 34 93 26 94 27 95
REMARK SMILES IDX 28 96 29 97 33 98 30 99 32 100 31 101
REMARK H PARENT 92 25 60 36 22 88
REMARK Flexibility Score: inf
ROOT
ATOM      1  C   UNL A   1      36.118  20.273  25.084  1.00  0.00     0.202 C 
ENDROOT
BRANCH   1   2
ATOM      2  O   UNL A   1      37.263  19.482  24.786  1.00  0.00    -0.374 OA
BRANCH   2   3
ATOM      3  C   UNL A   1      38.541  20.103  24.910  1.00  0.00     0.202 C 
BRANCH   3   4
ATOM      4  C   UNL A   1      39.386  19.537  26.053  1.00  0.00     0.261 C 
BRANCH   4   5
ATOM      5  O   UNL A   1      40.682  19.148  25.576  1.00  0.00    -0.460 OA
BRANCH   5   6
ATOM      6  C   UNL A   1      41.874  19.616  26.024  1.00  0.00     0.338 C 
ATOM      7  O   UNL A   1      42.814  18.825  26.110  1.00  0.00    -0.246 OA
BRANCH   6   8
ATOM      8  C   UNL A   1      42.128  21.047  26.390  1.00  0.00     0.060 A 
ATOM      9  C   UNL A   1      42.120  22.126  25.504  1.00  0.00     0.016 A 
ATOM     10  C   UNL A   1      42.309  21.327  27.756  1.00  0.00     0.016 A 
ATOM     11  C   UNL A   1      42.293  23.426  25.928  1.00  0.00     0.010 A 
ATOM     12  C   UNL A   1      42.473  22.643  28.202  1.00  0.00     0.010 A 
ATOM     13  C   UNL A   1      42.466  23.692  27.278  1.00  0.00    -0.014 A 
BRANCH  13  14
ATOM     14  C   UNL A   1      42.798  25.082  27.619  1.00  0.00     0.031 A 
ATOM     15  C   UNL A   1      44.137  25.593  27.196  1.00  0.00     0.074 A 
ATOM     16  C   UNL A   1      41.826  25.890  28.078  1.00  0.00     0.049 A 
ATOM     17  N   UNL A   1      44.670  26.766  27.380  1.00  0.00    -0.248 NA
ATOM     18  C   UNL A   1      44.983  24.654  26.436  1.00  0.00     0.031 C 
ATOM     19  C   UNL A   1      40.439  25.478  28.330  1.00  0.00     0.029 A 
ATOM     20  N   UNL A   1      41.832  27.226  28.365  1.00  0.00    -0.354 N 
ATOM     21  C   UNL A   1      45.920  26.705  26.776  1.00  0.00     0.074 A 
ATOM     22  C   UNL A   1      46.075  25.373  26.240  1.00  0.00     0.031 C 
ATOM     23  C   UNL A   1      39.728  26.549  28.717  1.00  0.00     0.029 A 
ATOM     24  C   UNL A   1      40.623  27.694  28.825  1.00  0.00     0.049 A 
ATOM     25  H   UNL A   1      42.625  27.798  28.253  1.00  0.00     0.167 HD
ATOM     26  C   UNL A   1      46.843  27.690  26.685  1.00  0.00     0.034 A 
ATOM     27  C   UNL A   1      40.305  28.903  29.325  1.00  0.00     0.034 A 
ATOM     28  C   UNL A   1      46.636  28.993  27.258  1.00  0.00     0.049 A 
ATOM     29  C   UNL A   1      41.408  29.935  29.356  1.00  0.00     0.074 A 
ATOM     30  C   UNL A   1      47.519  30.048  27.366  1.00  0.00     0.029 A 
ATOM     31  N   UNL A   1      45.434  29.415  27.826  1.00  0.00    -0.354 N 
ATOM     32  N   UNL A   1      42.639  29.840  28.902  1.00  0.00    -0.248 NA
ATOM     33  C   UNL A   1      41.088  31.226  29.968  1.00  0.00     0.031 C 
ATOM     34  C   UNL A   1      46.874  31.083  28.053  1.00  0.00     0.029 A 
ATOM     35  C   UNL A   1      45.559  30.709  28.301  1.00  0.00     0.049 A 
ATOM     36  H   UNL A   1      44.616  28.872  27.881  1.00  0.00     0.167 HD
ATOM     37  C   UNL A   1      43.235  31.070  29.154  1.00  0.00     0.074 A 
ATOM     38  C   UNL A   1      42.213  31.897  29.770  1.00  0.00     0.031 C 
ATOM     39  C   UNL A   1      44.506  31.487  28.911  1.00  0.00     0.034 A 
BRANCH  26  40
ATOM     40  C   UNL A   1      48.159  27.328  26.044  1.00  0.00     0.023 A 
ATOM     41  C   UNL A   1      48.424  27.598  24.689  1.00  0.00     0.031 A 
ATOM     42  C   UNL A   1      49.120  26.604  26.770  1.00  0.00     0.131 A 
ATOM     43  C   UNL A   1      49.578  27.075  24.085  1.00  0.00     0.055 A 
ATOM     44  C   UNL A   1      50.306  26.159  26.184  1.00  0.00     0.041 A 
ATOM     45  F   UNL A   1      48.904  26.282  28.056  1.00  0.00    -0.206 F 
ATOM     46  C   UNL A   1      50.533  26.379  24.829  1.00  0.00     0.022 A 
BRANCH  43  47
ATOM     47  S   UNL A   1      49.737  27.173  22.279  1.00  0.00     0.124 S 
ATOM     48  O   UNL A   1      49.328  28.552  22.022  1.00  0.00    -0.237 OA
ATOM     49  O   UNL A   1      51.148  26.875  22.066  1.00  0.00    -0.237 OA
ATOM     50  O   UNL A   1      48.806  26.154  21.797  1.00  0.00    -0.744 OA
ENDBRANCH  43  47
ENDBRANCH  26  40
BRANCH  27  51
ATOM     51  C   UNL A   1      38.960  29.169  29.921  1.00  0.00     0.023 A 
ATOM     52  C   UNL A   1      37.981  29.906  29.235  1.00  0.00     0.031 A 
ATOM     53  C   UNL A   1      38.663  28.759  31.236  1.00  0.00     0.131 A 
ATOM     54  C   UNL A   1      36.786  30.261  29.885  1.00  0.00     0.055 A 
ATOM     55  C   UNL A   1      37.445  29.054  31.851  1.00  0.00     0.041 A 
ATOM     56  F   UNL A   1      39.560  28.064  31.953  1.00  0.00    -0.206 F 
ATOM     57  C   UNL A   1      36.505  29.828  31.183  1.00  0.00     0.022 A 
BRANCH  54  58
ATOM     58  S   UNL A   1      35.658  31.419  29.060  1.00  0.00     0.124 S 
ATOM     59  O   UNL A   1      35.199  32.236  30.179  1.00  0.00    -0.237 OA
ATOM     60  O   UNL A   1      36.543  32.076  28.106  1.00  0.00    -0.237 OA
ATOM     61  O   UNL A   1      34.645  30.545  28.471  1.00  0.00    -0.744 OA
ENDBRANCH  54  58
ENDBRANCH  27  51
BRANCH  39  62
ATOM     62  C   UNL A   1      44.821  32.913  29.278  1.00  0.00     0.023 A 
ATOM     63  C   UNL A   1      44.528  33.978  28.409  1.00  0.00     0.031 A 
ATOM     64  C   UNL A   1      45.438  33.203  30.506  1.00  0.00     0.131 A 
ATOM     65  C   UNL A   1      44.920  35.277  28.750  1.00  0.00     0.055 A 
ATOM     66  C   UNL A   1      45.755  34.510  30.874  1.00  0.00     0.041 A 
ATOM     67  F   UNL A   1      45.740  32.220  31.370  1.00  0.00    -0.206 F 
ATOM     68  C   UNL A   1      45.512  35.554  29.985  1.00  0.00     0.022 A 
BRANCH  65  69
ATOM     69  S   UNL A   1      44.752  36.584  27.506  1.00  0.00     0.124 S 
ATOM     70  O   UNL A   1      43.636  36.094  26.702  1.00  0.00    -0.237 OA
ATOM     71  O   UNL A   1      44.482  37.762  28.323  1.00  0.00    -0.237 OA
ATOM     72  O   UNL A   1      46.050  36.582  26.831  1.00  0.00    -0.744 OA
ENDBRANCH  65  69
ENDBRANCH  39  62
ENDBRANCH  13  14
ENDBRANCH   6   8
ENDBRANCH   5   6
ENDBRANCH   4   5
ENDBRANCH   3   4
ENDBRANCH   2   3
ENDBRANCH   1   2
BRANCH   1  73
ATOM     73  C   UNL A   1      36.557  21.714  25.324  1.00  0.00     0.261 C 
BRANCH  73  74
ATOM     74  O   UNL A   1      35.388  22.505  25.600  1.00  0.00    -0.463 OA
BRANCH  74  75
ATOM     75  C   UNL A   1      35.262  23.595  24.791  1.00  0.00     0.310 C 
ATOM     76  O   UNL A   1      36.189  24.151  24.206  1.00  0.00    -0.252 OA
BRANCH  75  77
ATOM     77  C   UNL A   1      33.818  24.061  24.749  1.00  0.00     0.115 C 
ATOM     78  C   UNL A   1      33.485  24.246  23.243  1.00  0.00     0.004 C 
ATOM     79  C   UNL A   1      32.854  23.031  25.394  1.00  0.00     0.096 C 
ATOM     80  C   UNL A   1      33.626  22.920  22.466  1.00  0.00     0.005 C 
ATOM     81  C   UNL A   1      32.019  24.650  23.137  1.00  0.00     0.005 C 
ATOM     82  C   UNL A   1      31.945  22.419  24.292  1.00  0.00     0.002 C 
ATOM     83  C   UNL A   1      32.870  21.800  23.208  1.00  0.00     0.005 C 
ATOM     84  C   UNL A   1      31.124  23.474  23.542  1.00  0.00     0.005 C 
BRANCH  79  85
ATOM     85  C   UNL A   1      32.197  23.357  26.771  1.00  0.00     0.228 C 
ATOM     86  O   UNL A   1      32.399  22.571  27.713  1.00  0.00    -0.274 OA
ATOM     87  N   UNL A   1      31.404  24.408  27.114  1.00  0.00    -0.326 N 
ATOM     88  H   UNL A   1      31.028  24.358  28.022  1.00  0.00     0.169 HD
BRANCH  87  89
ATOM     89  C   UNL A   1      31.035  25.539  26.403  1.00  0.00     0.041 A 
ATOM     90  C   UNL A   1      31.899  26.627  26.331  1.00  0.00     0.026 A 
ATOM     91  C   UNL A   1      29.790  25.587  25.785  1.00  0.00     0.026 A 
ATOM     92  C   UNL A   1      31.654  27.623  25.390  1.00  0.00     0.006 A 
ATOM     93  C   UNL A   1      29.557  26.559  24.813  1.00  0.00     0.006 A 
ATOM     94  C   UNL A   1      30.547  27.515  24.536  1.00  0.00    -0.043 A 
BRANCH  94  95
ATOM     95  C   UNL A   1      30.531  28.268  23.226  1.00  0.00     0.071 C 
BRANCH  95  96
ATOM     96  C   UNL A   1      29.541  29.391  23.183  1.00  0.00    -0.041 A 
ATOM     97  C   UNL A   1      29.852  30.612  23.778  1.00  0.00     0.024 A 
ATOM     98  C   UNL A   1      28.293  29.227  22.580  1.00  0.00     0.024 A 
ATOM     99  C   UNL A   1      28.895  31.610  23.769  1.00  0.00     0.111 A 
ATOM    100  C   UNL A   1      27.404  30.288  22.620  1.00  0.00     0.111 A 
ATOM    101  N   UNL A   1      27.677  31.476  23.202  1.00  0.00    -0.265 NA
ENDBRANCH  95  96
ENDBRANCH  94  95
ENDBRANCH  87  89
ENDBRANCH  79  85
ENDBRANCH  75  77
ENDBRANCH  74  75
ENDBRANCH  73  74
ENDBRANCH   1  73
TORSDOF 21
ENDMDL
MODEL 2
REMARK VINA RESULT:     -11.7      2.013      8.456
REMARK SMILES O=C(OCCOCCOC(=O)[C@H]1[C@H]2CC[C@H](CC2)[C@@H]1C(=O)Nc1ccc(Cc2ccncc2)cc1)c1ccc(-c2c3nc(c(-c4cc(S(=O)(=O)[O-])ccc4F)c4ccc([nH]4)c(-c4cc(S(=O)(=O)[O-])ccc4F)c4nc(c(-c5cc(S(=O)(=O)[O-])ccc5F)c5ccc2[nH]5)C=C4)C=C3)cc1
REMARK SMILES IDX 7 1 6 2 5 3 4 4 3 5 2 6 1 7 36 8 37 9 98 10 38 11 97 12
REMARK SMILES IDX 39 13 40 14 41 15 91 16 42 17 96 18 90 19 92 20 43 21 95 22
REMARK SMILES IDX 89 23 88 24 44 26 76 27 56 28 75 29 57 30 60 31 74 32 93 33
REMARK SMILES IDX 58 34 59 35 73 37 94 38 61 39 45 40 46 41 54 42 47 43 53 44
REMARK SMILES IDX 55 45 52 46 48 47 49 48 50 49 51 50 77 51 78 52 86 53 79 54
REMARK SMILES IDX 85 55 87 56 84 57 80 58 81 59 82 60 83 61 62 62 63 63 71 64
REMARK SMILES IDX 64 65 70 66 72 67 69 68 65 69 66 70 67 71 68 72 8 73 9 74
REMARK SMILES IDX 10 75 11 76 12 77 13 78 19 79 18 80 14 81 16 82 17 83 15 84
REMARK SMILES IDX 20 85 21 86 22 87 23 89 24 90 35 91 25 92 34 93 26 94 27 95
REMARK SMILES IDX 28 96 29 97 33 98 30 99 32 100 31 101
REMARK H PARENT 92 25 60 36 22 88
REMARK Flexibility Score: inf
ROOT
ATOM      1  C   UNL A   1      36.521  22.738  23.653  1.00  0.00     0.202 C 
ENDROOT
BRANCH   1   2
ATOM      2  O   UNL A   1      36.452  23.171  25.006  1.00  0.00    -0.374 OA
BRANCH   2   3
ATOM      3  C   UNL A   1      36.975  22.295  26.004  1.00  0.00     0.202 C 
BRANCH   3   4
ATOM      4  C   UNL A   1      37.587  21.015  25.431  1.00  0.00     0.261 C 
BRANCH   4   5
ATOM      5  O   UNL A   1      39.020  21.085  25.464  1.00  0.00    -0.460 OA
BRANCH   5   6
ATOM      6  C   UNL A   1      39.783  21.386  26.544  1.00  0.00     0.338 C 
ATOM      7  O   UNL A   1      40.093  20.473  27.310  1.00  0.00    -0.246 OA
BRANCH   6   8
ATOM      8  C   UNL A   1      40.302  22.759  26.847  1.00  0.00     0.060 A 
ATOM      9  C   UNL A   1      39.956  23.927  26.163  1.00  0.00     0.016 A 
ATOM     10  C   UNL A   1      41.143  22.885  27.967  1.00  0.00     0.016 A 
ATOM     11  C   UNL A   1      40.421  25.166  26.546  1.00  0.00     0.010 A 
ATOM     12  C   UNL A   1      41.612  24.138  28.374  1.00  0.00     0.010 A 
ATOM     13  C   UNL A   1      41.248  25.280  27.654  1.00  0.00    -0.014 A 
BRANCH  13  14
ATOM     14  C   UNL A   1      41.818  26.612  27.893  1.00  0.00     0.031 A 
ATOM     15  C   UNL A   1      41.006  27.573  28.700  1.00  0.00     0.074 A 
ATOM     16  C   UNL A   1      43.108  26.833  27.587  1.00  0.00     0.049 A 
ATOM     17  N   UNL A   1      41.276  28.800  29.042  1.00  0.00    -0.248 NA
ATOM     18  C   UNL A   1      39.719  27.069  29.214  1.00  0.00     0.031 C 
ATOM     19  C   UNL A   1      44.005  25.851  26.964  1.00  0.00     0.029 A 
ATOM     20  N   UNL A   1      43.907  27.922  27.798  1.00  0.00    -0.354 N 
ATOM     21  C   UNL A   1      40.188  29.222  29.796  1.00  0.00     0.074 A 
ATOM     22  C   UNL A   1      39.244  28.130  29.842  1.00  0.00     0.031 C 
ATOM     23  C   UNL A   1      45.234  26.382  26.863  1.00  0.00     0.029 A 
ATOM     24  C   UNL A   1      45.189  27.762  27.329  1.00  0.00     0.049 A 
ATOM     25  H   UNL A   1      43.593  28.741  28.245  1.00  0.00     0.167 HD
ATOM     26  C   UNL A   1      40.013  30.424  30.393  1.00  0.00     0.034 A 
ATOM     27  C   UNL A   1      46.190  28.660  27.243  1.00  0.00     0.034 A 
ATOM     28  C   UNL A   1      40.984  31.481  30.293  1.00  0.00     0.049 A 
ATOM     29  C   UNL A   1      45.906  30.044  27.776  1.00  0.00     0.074 A 
ATOM     30  C   UNL A   1      40.897  32.789  30.725  1.00  0.00     0.029 A 
ATOM     31  N   UNL A   1      42.242  31.334  29.709  1.00  0.00    -0.354 N 
ATOM     32  N   UNL A   1      44.824  30.490  28.377  1.00  0.00    -0.248 NA
ATOM     33  C   UNL A   1      46.963  31.044  27.617  1.00  0.00     0.031 C 
ATOM     34  C   UNL A   1      42.073  33.448  30.347  1.00  0.00     0.029 A 
ATOM     35  C   UNL A   1      42.932  32.532  29.754  1.00  0.00     0.049 A 
ATOM     36  H   UNL A   1      42.588  30.499  29.320  1.00  0.00     0.167 HD
ATOM     37  C   UNL A   1      45.081  31.820  28.688  1.00  0.00     0.074 A 
ATOM     38  C   UNL A   1      46.434  32.088  28.235  1.00  0.00     0.031 C 
ATOM     39  C   UNL A   1      44.282  32.744  29.284  1.00  0.00     0.034 A 
BRANCH  26  40
ATOM     40  C   UNL A   1      38.693  30.651  31.086  1.00  0.00     0.023 A 
ATOM     41  C   UNL A   1      37.605  31.257  30.431  1.00  0.00     0.031 A 
ATOM     42  C   UNL A   1      38.556  30.358  32.453  1.00  0.00     0.131 A 
ATOM     43  C   UNL A   1      36.465  31.624  31.162  1.00  0.00     0.055 A 
ATOM     44  C   UNL A   1      37.386  30.650  33.156  1.00  0.00     0.041 A 
ATOM     45  F   UNL A   1      39.575  29.817  33.140  1.00  0.00    -0.206 F 
ATOM     46  C   UNL A   1      36.338  31.302  32.516  1.00  0.00     0.022 A 
BRANCH  43  47
ATOM     47  S   UNL A   1      35.218  32.675  30.364  1.00  0.00     0.124 S 
ATOM     48  O   UNL A   1      34.891  31.891  29.175  1.00  0.00    -0.237 OA
ATOM     49  O   UNL A   1      34.177  32.762  31.380  1.00  0.00    -0.237 OA
ATOM     50  O   UNL A   1      35.937  33.920  30.101  1.00  0.00    -0.744 OA
ENDBRANCH  43  47
ENDBRANCH  26  40
BRANCH  27  51
ATOM     51  C   UNL A   1      47.474  28.329  26.552  1.00  0.00     0.023 A 
ATOM     52  C   UNL A   1      47.542  28.161  25.160  1.00  0.00     0.031 A 
ATOM     53  C   UNL A   1      48.648  28.088  27.294  1.00  0.00     0.131 A 
ATOM     54  C   UNL A   1      48.731  27.705  24.565  1.00  0.00     0.055 A 
ATOM     55  C   UNL A   1      49.846  27.706  26.690  1.00  0.00     0.041 A 
ATOM     56  F   UNL A   1      48.648  28.217  28.631  1.00  0.00    -0.206 F 
ATOM     57  C   UNL A   1      49.888  27.491  25.318  1.00  0.00     0.022 A 
BRANCH  54  58
ATOM     58  S   UNL A   1      48.710  27.261  22.805  1.00  0.00     0.124 S 
ATOM     59  O   UNL A   1      48.368  25.844  22.860  1.00  0.00    -0.237 OA
ATOM     60  O   UNL A   1      47.679  28.150  22.282  1.00  0.00    -0.237 OA
ATOM     61  O   UNL A   1      50.071  27.558  22.363  1.00  0.00    -0.744 OA
ENDBRANCH  54  58
ENDBRANCH  27  51
BRANCH  39  62
ATOM     62  C   UNL A   1      44.889  34.104  29.510  1.00  0.00     0.023 A 
ATOM     63  C   UNL A   1      44.837  35.105  28.525  1.00  0.00     0.031 A 
ATOM     64  C   UNL A   1      45.541  34.391  30.721  1.00  0.00     0.131 A 
ATOM     65  C   UNL A   1      45.493  36.323  28.741  1.00  0.00     0.055 A 
ATOM     66  C   UNL A   1      46.124  35.633  30.960  1.00  0.00     0.041 A 
ATOM     67  F   UNL A   1      45.618  33.467  31.692  1.00  0.00    -0.206 F 
ATOM     68  C   UNL A   1      46.117  36.602  29.959  1.00  0.00     0.022 A 
BRANCH  65  69
ATOM     69  S   UNL A   1      45.619  37.491  27.362  1.00  0.00     0.124 S 
ATOM     70  O   UNL A   1      46.357  36.712  26.372  1.00  0.00    -0.237 OA
ATOM     71  O   UNL A   1      44.219  37.759  27.049  1.00  0.00    -0.237 OA
ATOM     72  O   UNL A   1      46.353  38.619  27.935  1.00  0.00    -0.744 OA
ENDBRANCH  65  69
ENDBRANCH  39  62
ENDBRANCH  13  14
ENDBRANCH   6   8
ENDBRANCH   5   6
ENDBRANCH   4   5
ENDBRANCH   3   4
ENDBRANCH   2   3
ENDBRANCH   1   2
BRANCH   1  73
ATOM     73  C   UNL A   1      35.183  23.013  22.973  1.00  0.00     0.261 C 
BRANCH  73  74
ATOM     74  O   UNL A   1      34.777  24.355  23.292  1.00  0.00    -0.463 OA
BRANCH  74  75
ATOM     75  C   UNL A   1      33.436  24.487  23.493  1.00  0.00     0.310 C 
ATOM     76  O   UNL A   1      32.575  23.744  23.027  1.00  0.00    -0.252 OA
BRANCH  75  77
ATOM     77  C   UNL A   1      33.144  25.713  24.339  1.00  0.00     0.115 C 
ATOM     78  C   UNL A   1      33.531  26.930  23.454  1.00  0.00     0.004 C 
ATOM     79  C   UNL A   1      31.650  25.796  24.749  1.00  0.00     0.096 C 
ATOM     80  C   UNL A   1      32.690  26.979  22.161  1.00  0.00     0.005 C 
ATOM     81  C   UNL A   1      33.192  28.197  24.231  1.00  0.00     0.005 C 
ATOM     82  C   UNL A   1      30.988  27.007  24.034  1.00  0.00     0.002 C 
ATOM     83  C   UNL A   1      31.196  26.823  22.505  1.00  0.00     0.005 C 
ATOM     84  C   UNL A   1      31.672  28.339  24.359  1.00  0.00     0.005 C 
BRANCH  79  85
ATOM     85  C   UNL A   1      31.249  25.527  26.233  1.00  0.00     0.228 C 
ATOM     86  O   UNL A   1      30.700  26.449  26.863  1.00  0.00    -0.274 OA
ATOM     87  N   UNL A   1      31.415  24.399  26.973  1.00  0.00    -0.326 N 
ATOM     88  H   UNL A   1      31.166  24.491  27.921  1.00  0.00     0.169 HD
BRANCH  87  89
ATOM     89  C   UNL A   1      31.875  23.140  26.622  1.00  0.00     0.041 A 
ATOM     90  C   UNL A   1      31.177  22.381  25.688  1.00  0.00     0.026 A 
ATOM     91  C   UNL A   1      33.021  22.633  27.226  1.00  0.00     0.026 A 
ATOM     92  C   UNL A   1      31.793  21.263  25.131  1.00  0.00     0.006 A 
ATOM     93  C   UNL A   1      33.661  21.538  26.646  1.00  0.00     0.006 A 
ATOM     94  C   UNL A   1      33.096  20.921  25.518  1.00  0.00    -0.043 A 
BRANCH  94  95
ATOM     95  C   UNL A   1      33.950  20.066  24.612  1.00  0.00     0.071 C 
BRANCH  95  96
ATOM     96  C   UNL A   1      33.665  18.599  24.717  1.00  0.00    -0.041 A 
ATOM     97  C   UNL A   1      34.276  17.710  23.834  1.00  0.00     0.024 A 
ATOM     98  C   UNL A   1      32.771  18.106  25.668  1.00  0.00     0.024 A 
ATOM     99  C   UNL A   1      33.950  16.369  23.923  1.00  0.00     0.111 A 
ATOM    100  C   UNL A   1      32.513  16.745  25.679  1.00  0.00     0.111 A 
ATOM    101  N   UNL A   1      33.082  15.865  24.826  1.00  0.00    -0.265 NA
ENDBRANCH  95  96
ENDBRANCH  94  95
ENDBRANCH  87  89
ENDBRANCH  79  85
ENDBRANCH  75  77
ENDBRANCH  74  75
ENDBRANCH  73  74
ENDBRANCH   1  73
TORSDOF 21
ENDMDL
MODEL 3
REMARK VINA RESULT:     -11.6      1.821      7.526
REMARK SMILES O=C(OCCOCCOC(=O)[C@H]1[C@H]2CC[C@H](CC2)[C@@H]1C(=O)Nc1ccc(Cc2ccncc2)cc1)c1ccc(-c2c3nc(c(-c4cc(S(=O)(=O)[O-])ccc4F)c4ccc([nH]4)c(-c4cc(S(=O)(=O)[O-])ccc4F)c4nc(c(-c5cc(S(=O)(=O)[O-])ccc5F)c5ccc2[nH]5)C=C4)C=C3)cc1
REMARK SMILES IDX 7 1 6 2 5 3 4 4 3 5 2 6 1 7 36 8 37 9 98 10 38 11 97 12
REMARK SMILES IDX 39 13 40 14 41 15 91 16 42 17 96 18 90 19 92 20 43 21 95 22
REMARK SMILES IDX 89 23 88 24 44 26 76 27 56 28 75 29 57 30 60 31 74 32 93 33
REMARK SMILES IDX 58 34 59 35 73 37 94 38 61 39 45 40 46 41 54 42 47 43 53 44
REMARK SMILES IDX 55 45 52 46 48 47 49 48 50 49 51 50 77 51 78 52 86 53 79 54
REMARK SMILES IDX 85 55 87 56 84 57 80 58 81 59 82 60 83 61 62 62 63 63 71 64
REMARK SMILES IDX 64 65 70 66 72 67 69 68 65 69 66 70 67 71 68 72 8 73 9 74
REMARK SMILES IDX 10 75 11 76 12 77 13 78 19 79 18 80 14 81 16 82 17 83 15 84
REMARK SMILES IDX 20 85 21 86 22 87 23 89 24 90 35 91 25 92 34 93 26 94 27 95
REMARK SMILES IDX 28 96 29 97 33 98 30 99 32 100 31 101
REMARK H PARENT 92 25 60 36 22 88
REMARK Flexibility Score: inf
ROOT
ATOM      1  C   UNL A   1      35.957  20.640  25.003  1.00  0.00     0.202 C 
ENDROOT
BRANCH   1   2
ATOM      2  O   UNL A   1      37.267  20.750  24.460  1.00  0.00    -0.374 OA
BRANCH   2   3
ATOM      3  C   UNL A   1      38.351  20.875  25.380  1.00  0.00     0.202 C 
BRANCH   3   4
ATOM      4  C   UNL A   1      39.282  19.660  25.392  1.00  0.00     0.261 C 
BRANCH   4   5
ATOM      5  O   UNL A   1      40.153  19.706  26.531  1.00  0.00    -0.460 OA
BRANCH   5   6
ATOM      6  C   UNL A   1      41.493  19.918  26.508  1.00  0.00     0.338 C 
ATOM      7  O   UNL A   1      42.231  18.954  26.305  1.00  0.00    -0.246 OA
BRANCH   6   8
ATOM      8  C   UNL A   1      42.132  21.263  26.683  1.00  0.00     0.060 A 
ATOM      9  C   UNL A   1      42.811  21.698  27.823  1.00  0.00     0.016 A 
ATOM     10  C   UNL A   1      42.110  22.122  25.570  1.00  0.00     0.016 A 
ATOM     11  C   UNL A   1      43.434  22.926  27.881  1.00  0.00     0.010 A 
ATOM     12  C   UNL A   1      42.748  23.366  25.611  1.00  0.00     0.010 A 
ATOM     13  C   UNL A   1      43.410  23.765  26.777  1.00  0.00    -0.014 A 
BRANCH  13  14
ATOM     14  C   UNL A   1      43.963  25.109  26.983  1.00  0.00     0.031 A 
ATOM     15  C   UNL A   1      43.072  26.129  27.617  1.00  0.00     0.074 A 
ATOM     16  C   UNL A   1      45.282  25.305  26.814  1.00  0.00     0.049 A 
ATOM     17  N   UNL A   1      43.313  27.378  27.896  1.00  0.00    -0.248 NA
ATOM     18  C   UNL A   1      41.729  25.667  28.012  1.00  0.00     0.031 C 
ATOM     19  C   UNL A   1      46.235  24.278  26.374  1.00  0.00     0.029 A 
ATOM     20  N   UNL A   1      46.062  26.405  27.036  1.00  0.00    -0.354 N 
ATOM     21  C   UNL A   1      42.150  27.857  28.485  1.00  0.00     0.074 A 
ATOM     22  C   UNL A   1      41.196  26.773  28.501  1.00  0.00     0.031 C 
ATOM     23  C   UNL A   1      47.473  24.798  26.378  1.00  0.00     0.029 A 
ATOM     24  C   UNL A   1      47.388  26.208  26.733  1.00  0.00     0.049 A 
ATOM     25  H   UNL A   1      45.707  27.256  27.381  1.00  0.00     0.167 HD
ATOM     26  C   UNL A   1      41.919  29.100  28.967  1.00  0.00     0.034 A 
ATOM     27  C   UNL A   1      48.402  27.096  26.698  1.00  0.00     0.034 A 
ATOM     28  C   UNL A   1      42.906  30.145  28.904  1.00  0.00     0.049 A 
ATOM     29  C   UNL A   1      48.072  28.516  27.091  1.00  0.00     0.074 A 
ATOM     30  C   UNL A   1      42.783  31.482  29.225  1.00  0.00     0.029 A 
ATOM     31  N   UNL A   1      44.222  29.953  28.483  1.00  0.00    -0.354 N 
ATOM     32  N   UNL A   1      46.932  29.007  27.528  1.00  0.00    -0.248 NA
ATOM     33  C   UNL A   1      49.151  29.500  26.984  1.00  0.00     0.031 C 
ATOM     34  C   UNL A   1      44.001  32.108  28.940  1.00  0.00     0.029 A 
ATOM     35  C   UNL A   1      44.914  31.150  28.520  1.00  0.00     0.049 A 
ATOM     36  H   UNL A   1      44.602  29.090  28.200  1.00  0.00     0.167 HD
ATOM     37  C   UNL A   1      47.165  30.357  27.768  1.00  0.00     0.074 A 
ATOM     38  C   UNL A   1      48.565  30.588  27.458  1.00  0.00     0.031 C 
ATOM     39  C   UNL A   1      46.312  31.324  28.196  1.00  0.00     0.034 A 
BRANCH  26  40
ATOM     40  C   UNL A   1      40.530  29.380  29.482  1.00  0.00     0.023 A 
ATOM     41  C   UNL A   1      40.245  29.433  30.859  1.00  0.00     0.031 A 
ATOM     42  C   UNL A   1      39.454  29.487  28.584  1.00  0.00     0.131 A 
ATOM     43  C   UNL A   1      38.913  29.503  31.295  1.00  0.00     0.055 A 
ATOM     44  C   UNL A   1      38.139  29.641  29.024  1.00  0.00     0.041 A 
ATOM     45  F   UNL A   1      39.660  29.403  27.260  1.00  0.00    -0.206 F 
ATOM     46  C   UNL A   1      37.859  29.633  30.387  1.00  0.00     0.022 A 
BRANCH  43  47
ATOM     47  S   UNL A   1      38.559  29.255  33.059  1.00  0.00     0.124 S 
ATOM     48  O   UNL A   1      37.448  28.307  33.005  1.00  0.00    -0.237 OA
ATOM     49  O   UNL A   1      39.822  28.733  33.566  1.00  0.00    -0.237 OA
ATOM     50  O   UNL A   1      38.205  30.593  33.529  1.00  0.00    -0.744 OA
ENDBRANCH  43  47
ENDBRANCH  26  40
BRANCH  27  51
ATOM     51  C   UNL A   1      49.754  26.712  26.189  1.00  0.00     0.023 A 
ATOM     52  C   UNL A   1      50.219  27.139  24.935  1.00  0.00     0.031 A 
ATOM     53  C   UNL A   1      50.575  25.831  26.921  1.00  0.00     0.131 A 
ATOM     54  C   UNL A   1      51.431  26.638  24.428  1.00  0.00     0.055 A 
ATOM     55  C   UNL A   1      51.810  25.393  26.444  1.00  0.00     0.041 A 
ATOM     56  F   UNL A   1      50.183  25.373  28.121  1.00  0.00    -0.206 F 
ATOM     57  C   UNL A   1      52.237  25.781  25.179  1.00  0.00     0.022 A 
BRANCH  54  58
ATOM     58  S   UNL A   1      51.876  27.014  22.709  1.00  0.00     0.124 S 
ATOM     59  O   UNL A   1      52.959  26.066  22.468  1.00  0.00    -0.237 OA
ATOM     60  O   UNL A   1      50.625  26.751  22.007  1.00  0.00    -0.237 OA
ATOM     61  O   UNL A   1      52.278  28.419  22.761  1.00  0.00    -0.744 OA
ENDBRANCH  54  58
ENDBRANCH  27  51
BRANCH  39  62
ATOM     62  C   UNL A   1      46.902  32.696  28.391  1.00  0.00     0.023 A 
ATOM     63  C   UNL A   1      47.037  33.597  27.321  1.00  0.00     0.031 A 
ATOM     64  C   UNL A   1      47.350  33.095  29.661  1.00  0.00     0.131 A 
ATOM     65  C   UNL A   1      47.675  34.826  27.527  1.00  0.00     0.055 A 
ATOM     66  C   UNL A   1      47.913  34.352  29.876  1.00  0.00     0.041 A 
ATOM     67  F   UNL A   1      47.245  32.269  30.715  1.00  0.00    -0.206 F 
ATOM     68  C   UNL A   1      48.094  35.219  28.801  1.00  0.00     0.022 A 
BRANCH  65  69
ATOM     69  S   UNL A   1      48.054  35.854  26.084  1.00  0.00     0.124 S 
ATOM     70  O   UNL A   1      46.889  36.731  26.023  1.00  0.00    -0.237 OA
ATOM     71  O   UNL A   1      49.310  36.488  26.473  1.00  0.00    -0.237 OA
ATOM     72  O   UNL A   1      48.161  34.886  24.993  1.00  0.00    -0.744 OA
ENDBRANCH  65  69
ENDBRANCH  39  62
ENDBRANCH  13  14
ENDBRANCH   6   8
ENDBRANCH   5   6
ENDBRANCH   4   5
ENDBRANCH   3   4
ENDBRANCH   2   3
ENDBRANCH   1   2
BRANCH   1  73
ATOM     73  C   UNL A   1      35.748  21.748  26.031  1.00  0.00     0.261 C 
BRANCH  73  74
ATOM     74  O   UNL A   1      34.535  22.448  25.704  1.00  0.00    -0.463 OA
BRANCH  74  75
ATOM     75  C   UNL A   1      34.745  23.668  25.133  1.00  0.00     0.310 C 
ATOM     76  O   UNL A   1      35.847  24.167  24.920  1.00  0.00    -0.252 OA
BRANCH  75  77
ATOM     77  C   UNL A   1      33.422  24.350  24.837  1.00  0.00     0.115 C 
ATOM     78  C   UNL A   1      33.446  24.660  23.315  1.00  0.00     0.004 C 
ATOM     79  C   UNL A   1      32.209  23.447  25.186  1.00  0.00     0.096 C 
ATOM     80  C   UNL A   1      33.563  23.369  22.477  1.00  0.00     0.005 C 
ATOM     81  C   UNL A   1      32.106  25.287  22.947  1.00  0.00     0.005 C 
ATOM     82  C   UNL A   1      31.479  23.039  23.877  1.00  0.00     0.002 C 
ATOM     83  C   UNL A   1      32.519  22.341  22.957  1.00  0.00     0.005 C 
ATOM     84  C   UNL A   1      30.992  24.242  23.064  1.00  0.00     0.005 C 
BRANCH  79  85
ATOM     85  C   UNL A   1      31.326  23.800  26.424  1.00  0.00     0.228 C 
ATOM     86  O   UNL A   1      31.356  23.029  27.399  1.00  0.00    -0.274 OA
ATOM     87  N   UNL A   1      30.493  24.860  26.606  1.00  0.00    -0.326 N 
ATOM     88  H   UNL A   1      29.966  24.827  27.436  1.00  0.00     0.169 HD
BRANCH  87  89
ATOM     89  C   UNL A   1      30.261  25.980  25.824  1.00  0.00     0.041 A 
ATOM     90  C   UNL A   1      31.170  27.033  25.831  1.00  0.00     0.026 A 
ATOM     91  C   UNL A   1      29.105  26.053  25.054  1.00  0.00     0.026 A 
ATOM     92  C   UNL A   1      31.083  28.007  24.840  1.00  0.00     0.006 A 
ATOM     93  C   UNL A   1      29.033  27.001  24.034  1.00  0.00     0.006 A 
ATOM     94  C   UNL A   1      30.087  27.912  23.857  1.00  0.00    -0.043 A 
BRANCH  94  95
ATOM     95  C   UNL A   1      30.265  28.622  22.535  1.00  0.00     0.071 C 
BRANCH  95  96
ATOM     96  C   UNL A   1      29.507  29.909  22.432  1.00  0.00    -0.041 A 
ATOM     97  C   UNL A   1      29.249  30.656  23.581  1.00  0.00     0.024 A 
ATOM     98  C   UNL A   1      29.025  30.364  21.204  1.00  0.00     0.024 A 
ATOM     99  C   UNL A   1      28.500  31.811  23.459  1.00  0.00     0.111 A 
ATOM    100  C   UNL A   1      28.288  31.536  21.185  1.00  0.00     0.111 A 
ATOM    101  N   UNL A   1      28.013  32.270  22.286  1.00  0.00    -0.265 NA
ENDBRANCH  95  96
ENDBRANCH  94  95
ENDBRANCH  87  89
ENDBRANCH  79  85
ENDBRANCH  75  77
ENDBRANCH  74  75
ENDBRANCH  73  74
ENDBRANCH   1  73
TORSDOF 21
ENDMDL
