MODEL 1
REMARK VINA RESULT:     -11.9      0.000      0.000
REMARK SMILES O=CN[C@@H](CCSC1CCO[C@]2(CCOC2)C1)C(=O)OCCOCCOC(=O)c1ccc(-c2c3nc(c(-c4cc(S(=O)(=O)[O-])ccc4F)c4ccc([nH]4)c(-c4cc(S(=O)(=O)[O-])ccc4F)c4nc(c(-c5cc(S(=O)(=O)[O-])ccc5F)c5ccc2[nH]5)C=C4)C=C3)cc1
REMARK SMILES IDX 22 1 21 2 20 3 18 4 19 5 4 6 3 7 1 8 2 9 5 11 6 12 7 13 8 14
REMARK SMILES IDX 9 15 17 16 10 17 12 18 11 19 13 20 16 21 14 22 15 23 23 24
REMARK SMILES IDX 24 25 25 26 26 27 27 28 28 29 29 30 30 31 91 32 31 33 90 34
REMARK SMILES IDX 32 35 33 36 34 37 84 38 35 39 89 40 83 41 85 42 36 43 88 44
REMARK SMILES IDX 82 45 81 46 37 48 69 49 49 50 68 51 50 52 53 53 67 54 86 55
REMARK SMILES IDX 51 56 52 57 66 59 87 60 54 61 38 62 39 63 47 64 40 65 46 66
REMARK SMILES IDX 48 67 45 68 41 69 42 70 43 71 44 72 70 73 71 74 79 75 72 76
REMARK SMILES IDX 78 77 80 78 77 79 73 80 74 81 75 82 76 83 55 84 56 85 64 86
REMARK SMILES IDX 57 87 63 88 65 89 62 90 58 91 59 92 60 93 61 94
REMARK H PARENT 3 10 85 47 53 58
REMARK Flexibility Score: inf
ROOT
ATOM      1  C   UNL A   1      36.320  22.836  23.782  1.00  0.00     0.202 C 
ENDROOT
BRANCH   1   2
ATOM      2  C   UNL A   1      35.031  23.599  23.143  1.00  0.00     0.261 C 
BRANCH   2   3
ATOM      3  O   UNL A   1      33.833  23.713  24.063  1.00  0.00    -0.462 OA
BRANCH   3   4
ATOM      4  C   UNL A   1      32.715  22.955  24.359  1.00  0.00     0.328 C 
ATOM      5  O   UNL A   1      32.761  21.801  24.769  1.00  0.00    -0.250 OA
BRANCH   4   6
ATOM      6  C   UNL A   1      31.278  23.745  24.083  1.00  0.00     0.192 C 
BRANCH   6   7
ATOM      7  N   UNL A   1      30.522  24.638  25.018  1.00  0.00    -0.345 N 
ATOM      8  O   UNL A   1      29.154  25.021  26.767  1.00  0.00    -0.279 OA
ATOM      9  C   UNL A   1      30.205  24.555  26.338  1.00  0.00     0.337 C 
ATOM     10  H   UNL A   1      30.185  25.457  24.586  1.00  0.00     0.164 HD
ENDBRANCH   6   7
BRANCH   6  11
ATOM     11  C   UNL A   1      31.654  24.713  23.000  1.00  0.00     0.048 C 
BRANCH  11  12
ATOM     12  C   UNL A   1      32.101  26.038  23.669  1.00  0.00     0.072 C 
BRANCH  12  13
ATOM     13  S   UNL A   1      31.619  27.873  22.918  1.00  0.00    -0.158 SA
BRANCH  13  14
ATOM     14  C   UNL A   1      29.583  28.514  23.207  1.00  0.00     0.052 C 
ATOM     15  C   UNL A   1      28.120  27.885  23.322  1.00  0.00     0.043 C 
ATOM     16  C   UNL A   1      29.504  30.044  23.344  1.00  0.00     0.052 C 
ATOM     17  C   UNL A   1      26.884  28.735  23.127  1.00  0.00     0.162 C 
ATOM     18  C   UNL A   1      28.177  30.666  22.870  1.00  0.00     0.095 C 
ATOM     19  O   UNL A   1      27.108  30.055  23.590  1.00  0.00    -0.372 OA
ATOM     20  C   UNL A   1      27.828  30.682  21.389  1.00  0.00     0.066 C 
ATOM     21  C   UNL A   1      28.230  32.160  23.163  1.00  0.00     0.195 C 
ATOM     22  C   UNL A   1      28.370  31.978  20.858  1.00  0.00     0.163 C 
ATOM     23  O   UNL A   1      28.739  32.785  21.976  1.00  0.00    -0.378 OA
ENDBRANCH  13  14
ENDBRANCH  12  13
ENDBRANCH  11  12
ENDBRANCH   6  11
ENDBRANCH   4   6
ENDBRANCH   3   4
ENDBRANCH   2   3
ENDBRANCH   1   2
BRANCH   1  24
ATOM     24  O   UNL A   1      36.074  21.467  24.114  1.00  0.00    -0.374 OA
BRANCH  24  25
ATOM     25  C   UNL A   1      36.620  20.720  25.229  1.00  0.00     0.202 C 
BRANCH  25  26
ATOM     26  C   UNL A   1      38.036  20.072  25.264  1.00  0.00     0.261 C 
BRANCH  26  27
ATOM     27  O   UNL A   1      39.079  21.025  25.326  1.00  0.00    -0.460 OA
BRANCH  27  28
ATOM     28  C   UNL A   1      39.925  20.779  26.337  1.00  0.00     0.338 C 
ATOM     29  O   UNL A   1      40.557  19.747  26.535  1.00  0.00    -0.246 OA
BRANCH  28  30
ATOM     30  C   UNL A   1      40.225  22.065  26.957  1.00  0.00     0.060 A 
ATOM     31  C   UNL A   1      39.449  23.137  26.515  1.00  0.00     0.016 A 
ATOM     32  C   UNL A   1      41.208  22.221  27.941  1.00  0.00     0.016 A 
ATOM     33  C   UNL A   1      39.744  24.408  26.956  1.00  0.00     0.010 A 
ATOM     34  C   UNL A   1      41.513  23.506  28.382  1.00  0.00     0.010 A 
ATOM     35  C   UNL A   1      40.835  24.598  27.815  1.00  0.00    -0.014 A 
BRANCH  35  36
ATOM     36  C   UNL A   1      41.435  25.945  27.798  1.00  0.00     0.031 A 
ATOM     37  C   UNL A   1      40.717  27.027  28.562  1.00  0.00     0.074 A 
ATOM     38  C   UNL A   1      42.666  26.128  27.299  1.00  0.00     0.049 A 
ATOM     39  N   UNL A   1      41.098  28.247  28.828  1.00  0.00    -0.248 NA
ATOM     40  C   UNL A   1      39.396  26.677  29.114  1.00  0.00     0.031 C 
ATOM     41  C   UNL A   1      43.464  25.100  26.630  1.00  0.00     0.029 A 
ATOM     42  N   UNL A   1      43.474  27.230  27.318  1.00  0.00    -0.354 N 
ATOM     43  C   UNL A   1      40.067  28.804  29.581  1.00  0.00     0.074 A 
ATOM     44  C   UNL A   1      39.026  27.809  29.686  1.00  0.00     0.031 C 
ATOM     45  C   UNL A   1      44.663  25.621  26.313  1.00  0.00     0.029 A 
ATOM     46  C   UNL A   1      44.697  27.022  26.728  1.00  0.00     0.049 A 
ATOM     47  H   UNL A   1      43.207  28.089  27.716  1.00  0.00     0.167 HD
ATOM     48  C   UNL A   1      40.007  30.033  30.147  1.00  0.00     0.034 A 
ATOM     49  C   UNL A   1      45.718  27.880  26.540  1.00  0.00     0.034 A 
ATOM     50  C   UNL A   1      41.059  31.007  30.015  1.00  0.00     0.049 A 
ATOM     51  C   UNL A   1      45.586  29.277  27.097  1.00  0.00     0.074 A 
ATOM     52  C   UNL A   1      41.107  32.297  30.505  1.00  0.00     0.029 A 
ATOM     53  N   UNL A   1      42.252  30.794  29.330  1.00  0.00    -0.354 N 
ATOM     54  N   UNL A   1      44.597  29.807  27.782  1.00  0.00    -0.248 NA
ATOM     55  C   UNL A   1      46.717  30.183  26.872  1.00  0.00     0.031 C 
ATOM     56  C   UNL A   1      42.292  32.890  30.053  1.00  0.00     0.029 A 
ATOM     57  C   UNL A   1      43.029  31.940  29.364  1.00  0.00     0.049 A 
ATOM     58  H   UNL A   1      42.506  29.952  28.887  1.00  0.00     0.167 HD
ATOM     59  C   UNL A   1      45.008  31.099  28.106  1.00  0.00     0.074 A 
ATOM     60  C   UNL A   1      46.339  31.253  27.554  1.00  0.00     0.031 C 
ATOM     61  C   UNL A   1      44.353  32.067  28.799  1.00  0.00     0.034 A 
BRANCH  48  62
ATOM     62  C   UNL A   1      38.738  30.397  30.879  1.00  0.00     0.023 A 
ATOM     63  C   UNL A   1      37.649  31.012  30.233  1.00  0.00     0.031 A 
ATOM     64  C   UNL A   1      38.639  30.174  32.263  1.00  0.00     0.131 A 
ATOM     65  C   UNL A   1      36.543  31.443  30.982  1.00  0.00     0.055 A 
ATOM     66  C   UNL A   1      37.500  30.529  32.988  1.00  0.00     0.041 A 
ATOM     67  F   UNL A   1      39.659  29.625  32.942  1.00  0.00    -0.206 F 
ATOM     68  C   UNL A   1      36.449  31.180  32.351  1.00  0.00     0.022 A 
BRANCH  65  69
ATOM     69  S   UNL A   1      35.295  32.484  30.174  1.00  0.00     0.124 S 
ATOM     70  O   UNL A   1      34.828  31.607  29.103  1.00  0.00    -0.237 OA
ATOM     71  O   UNL A   1      34.347  32.737  31.253  1.00  0.00    -0.237 OA
ATOM     72  O   UNL A   1      36.057  33.649  29.728  1.00  0.00    -0.744 OA
ENDBRANCH  65  69
ENDBRANCH  48  62
BRANCH  49  73
ATOM     73  C   UNL A   1      46.925  27.462  25.771  1.00  0.00     0.023 A 
ATOM     74  C   UNL A   1      47.106  27.832  24.430  1.00  0.00     0.031 A 
ATOM     75  C   UNL A   1      47.892  26.627  26.361  1.00  0.00     0.131 A 
ATOM     76  C   UNL A   1      48.196  27.320  23.707  1.00  0.00     0.055 A 
ATOM     77  C   UNL A   1      49.006  26.171  25.655  1.00  0.00     0.041 A 
ATOM     78  F   UNL A   1      47.770  26.243  27.642  1.00  0.00    -0.206 F 
ATOM     79  C   UNL A   1      49.153  26.504  24.314  1.00  0.00     0.022 A 
BRANCH  76  80
ATOM     80  S   UNL A   1      48.289  27.653  21.926  1.00  0.00     0.124 S 
ATOM     81  O   UNL A   1      49.414  28.576  21.857  1.00  0.00    -0.237 OA
ATOM     82  O   UNL A   1      48.518  26.318  21.383  1.00  0.00    -0.237 OA
ATOM     83  O   UNL A   1      46.983  28.232  21.620  1.00  0.00    -0.744 OA
ENDBRANCH  76  80
ENDBRANCH  49  73
BRANCH  61  84
ATOM     84  C   UNL A   1      45.105  33.354  29.050  1.00  0.00     0.023 A 
ATOM     85  C   UNL A   1      45.125  34.398  28.110  1.00  0.00     0.031 A 
ATOM     86  C   UNL A   1      45.838  33.519  30.238  1.00  0.00     0.131 A 
ATOM     87  C   UNL A   1      45.930  35.523  28.336  1.00  0.00     0.055 A 
ATOM     88  C   UNL A   1      46.572  34.678  30.494  1.00  0.00     0.041 A 
ATOM     89  F   UNL A   1      45.856  32.555  31.172  1.00  0.00    -0.206 F 
ATOM     90  C   UNL A   1      46.638  35.680  29.531  1.00  0.00     0.022 A 
BRANCH  87  91
ATOM     91  S   UNL A   1      46.153  36.714  26.987  1.00  0.00     0.124 S 
ATOM     92  O   UNL A   1      44.900  37.462  27.033  1.00  0.00    -0.237 OA
ATOM     93  O   UNL A   1      47.345  37.443  27.408  1.00  0.00    -0.237 OA
ATOM     94  O   UNL A   1      46.328  35.868  25.807  1.00  0.00    -0.744 OA
ENDBRANCH  87  91
ENDBRANCH  61  84
ENDBRANCH  35  36
ENDBRANCH  28  30
ENDBRANCH  27  28
ENDBRANCH  26  27
ENDBRANCH  25  26
ENDBRANCH  24  25
ENDBRANCH   1  24
TORSDOF 22
ENDMDL
MODEL 2
REMARK VINA RESULT:     -11.7      2.425      5.209
REMARK SMILES O=CN[C@@H](CCSC1CCO[C@]2(CCOC2)C1)C(=O)OCCOCCOC(=O)c1ccc(-c2c3nc(c(-c4cc(S(=O)(=O)[O-])ccc4F)c4ccc([nH]4)c(-c4cc(S(=O)(=O)[O-])ccc4F)c4nc(c(-c5cc(S(=O)(=O)[O-])ccc5F)c5ccc2[nH]5)C=C4)C=C3)cc1
REMARK SMILES IDX 22 1 21 2 20 3 18 4 19 5 4 6 3 7 1 8 2 9 5 11 6 12 7 13 8 14
REMARK SMILES IDX 9 15 17 16 10 17 12 18 11 19 13 20 16 21 14 22 15 23 23 24
REMARK SMILES IDX 24 25 25 26 26 27 27 28 28 29 29 30 30 31 91 32 31 33 90 34
REMARK SMILES IDX 32 35 33 36 34 37 84 38 35 39 89 40 83 41 85 42 36 43 88 44
REMARK SMILES IDX 82 45 81 46 37 48 69 49 49 50 68 51 50 52 53 53 67 54 86 55
REMARK SMILES IDX 51 56 52 57 66 59 87 60 54 61 38 62 39 63 47 64 40 65 46 66
REMARK SMILES IDX 48 67 45 68 41 69 42 70 43 71 44 72 70 73 71 74 79 75 72 76
REMARK SMILES IDX 78 77 80 78 77 79 73 80 74 81 75 82 76 83 55 84 56 85 64 86
REMARK SMILES IDX 57 87 63 88 65 89 62 90 58 91 59 92 60 93 61 94
REMARK H PARENT 3 10 85 47 53 58
REMARK Flexibility Score: inf
ROOT
ATOM      1  C   UNL A   1      35.732  22.878  23.482  1.00  0.00     0.202 C 
ENDROOT
BRANCH   1   2
ATOM      2  C   UNL A   1      34.340  23.521  22.932  1.00  0.00     0.261 C 
BRANCH   2   3
ATOM      3  O   UNL A   1      33.749  24.610  23.803  1.00  0.00    -0.462 OA
BRANCH   3   4
ATOM      4  C   UNL A   1      33.111  24.686  25.027  1.00  0.00     0.328 C 
ATOM      5  O   UNL A   1      33.693  24.642  26.105  1.00  0.00    -0.250 OA
BRANCH   4   6
ATOM      6  C   UNL A   1      31.458  24.817  24.914  1.00  0.00     0.192 C 
BRANCH   6   7
ATOM      7  N   UNL A   1      30.663  25.722  24.023  1.00  0.00    -0.345 N 
ATOM      8  O   UNL A   1      28.913  27.068  23.571  1.00  0.00    -0.279 OA
ATOM      9  C   UNL A   1      29.905  26.828  24.253  1.00  0.00     0.337 C 
ATOM     10  H   UNL A   1      30.696  25.462  23.074  1.00  0.00     0.164 HD
ENDBRANCH   6   7
BRANCH   6  11
ATOM     11  C   UNL A   1      31.071  23.470  24.375  1.00  0.00     0.048 C 
BRANCH  11  12
ATOM     12  C   UNL A   1      31.104  22.453  25.545  1.00  0.00     0.072 C 
BRANCH  12  13
ATOM     13  S   UNL A   1      32.618  21.110  25.799  1.00  0.00    -0.158 SA
BRANCH  13  14
ATOM     14  C   UNL A   1      32.835  19.619  24.259  1.00  0.00     0.052 C 
ATOM     15  C   UNL A   1      32.216  19.250  22.835  1.00  0.00     0.043 C 
ATOM     16  C   UNL A   1      33.913  18.591  24.641  1.00  0.00     0.052 C 
ATOM     17  C   UNL A   1      32.375  17.866  22.246  1.00  0.00     0.162 C 
ATOM     18  C   UNL A   1      33.703  17.185  24.046  1.00  0.00     0.095 C 
ATOM     19  O   UNL A   1      33.617  17.301  22.627  1.00  0.00    -0.372 OA
ATOM     20  C   UNL A   1      32.557  16.313  24.540  1.00  0.00     0.066 C 
ATOM     21  C   UNL A   1      34.899  16.328  24.439  1.00  0.00     0.195 C 
ATOM     22  C   UNL A   1      33.119  15.508  25.676  1.00  0.00     0.163 C 
ATOM     23  O   UNL A   1      34.538  15.669  25.662  1.00  0.00    -0.378 OA
ENDBRANCH  13  14
ENDBRANCH  12  13
ENDBRANCH  11  12
ENDBRANCH   6  11
ENDBRANCH   4   6
ENDBRANCH   3   4
ENDBRANCH   2   3
ENDBRANCH   1   2
BRANCH   1  24
ATOM     24  O   UNL A   1      35.546  21.751  24.342  1.00  0.00    -0.374 OA
BRANCH  24  25
ATOM     25  C   UNL A   1      36.429  21.294  25.397  1.00  0.00     0.202 C 
BRANCH  25  26
ATOM     26  C   UNL A   1      37.648  20.347  25.196  1.00  0.00     0.261 C 
BRANCH  26  27
ATOM     27  O   UNL A   1      38.879  21.039  25.119  1.00  0.00    -0.460 OA
BRANCH  27  28
ATOM     28  C   UNL A   1      39.687  20.743  26.147  1.00  0.00     0.338 C 
ATOM     29  O   UNL A   1      40.282  19.688  26.337  1.00  0.00    -0.246 OA
BRANCH  28  30
ATOM     30  C   UNL A   1      40.007  22.004  26.807  1.00  0.00     0.060 A 
ATOM     31  C   UNL A   1      39.313  23.119  26.335  1.00  0.00     0.016 A 
ATOM     32  C   UNL A   1      40.930  22.098  27.855  1.00  0.00     0.016 A 
ATOM     33  C   UNL A   1      39.640  24.367  26.817  1.00  0.00     0.010 A 
ATOM     34  C   UNL A   1      41.267  23.360  28.337  1.00  0.00     0.010 A 
ATOM     35  C   UNL A   1      40.680  24.492  27.746  1.00  0.00    -0.014 A 
BRANCH  35  36
ATOM     36  C   UNL A   1      41.343  25.808  27.791  1.00  0.00     0.031 A 
ATOM     37  C   UNL A   1      40.636  26.910  28.537  1.00  0.00     0.074 A 
ATOM     38  C   UNL A   1      42.608  25.940  27.366  1.00  0.00     0.049 A 
ATOM     39  N   UNL A   1      41.058  28.105  28.849  1.00  0.00    -0.248 NA
ATOM     40  C   UNL A   1      39.270  26.614  29.007  1.00  0.00     0.031 C 
ATOM     41  C   UNL A   1      43.394  24.887  26.721  1.00  0.00     0.029 A 
ATOM     42  N   UNL A   1      43.466  27.001  27.453  1.00  0.00    -0.354 N 
ATOM     43  C   UNL A   1      40.014  28.697  29.555  1.00  0.00     0.074 A 
ATOM     44  C   UNL A   1      38.923  27.753  29.580  1.00  0.00     0.031 C 
ATOM     45  C   UNL A   1      44.631  25.355  26.483  1.00  0.00     0.029 A 
ATOM     46  C   UNL A   1      44.708  26.745  26.928  1.00  0.00     0.049 A 
ATOM     47  H   UNL A   1      43.217  27.865  27.854  1.00  0.00     0.167 HD
ATOM     48  C   UNL A   1      39.980  29.917  30.142  1.00  0.00     0.034 A 
ATOM     49  C   UNL A   1      45.778  27.556  26.816  1.00  0.00     0.034 A 
ATOM     50  C   UNL A   1      41.083  30.841  30.090  1.00  0.00     0.049 A 
ATOM     51  C   UNL A   1      45.681  28.947  27.394  1.00  0.00     0.074 A 
ATOM     52  C   UNL A   1      41.164  32.118  30.609  1.00  0.00     0.029 A 
ATOM     53  N   UNL A   1      42.301  30.583  29.469  1.00  0.00    -0.354 N 
ATOM     54  N   UNL A   1      44.681  29.511  28.034  1.00  0.00    -0.248 NA
ATOM     55  C   UNL A   1      46.865  29.801  27.252  1.00  0.00     0.031 C 
ATOM     56  C   UNL A   1      42.399  32.661  30.237  1.00  0.00     0.029 A 
ATOM     57  C   UNL A   1      43.129  31.689  29.570  1.00  0.00     0.049 A 
ATOM     58  H   UNL A   1      42.539  29.738  29.023  1.00  0.00     0.167 HD
ATOM     59  C   UNL A   1      45.133  30.776  28.407  1.00  0.00     0.074 A 
ATOM     60  C   UNL A   1      46.500  30.875  27.934  1.00  0.00     0.031 C 
ATOM     61  C   UNL A   1      44.488  31.762  29.083  1.00  0.00     0.034 A 
BRANCH  48  62
ATOM     62  C   UNL A   1      38.690  30.329  30.810  1.00  0.00     0.023 A 
ATOM     63  C   UNL A   1      37.643  30.948  30.101  1.00  0.00     0.031 A 
ATOM     64  C   UNL A   1      38.529  30.148  32.194  1.00  0.00     0.131 A 
ATOM     65  C   UNL A   1      36.516  31.424  30.791  1.00  0.00     0.055 A 
ATOM     66  C   UNL A   1      37.368  30.548  32.860  1.00  0.00     0.041 A 
ATOM     67  F   UNL A   1      39.507  29.597  32.930  1.00  0.00    -0.206 F 
ATOM     68  C   UNL A   1      36.360  31.203  32.161  1.00  0.00     0.022 A 
BRANCH  65  69
ATOM     69  S   UNL A   1      35.327  32.468  29.902  1.00  0.00     0.124 S 
ATOM     70  O   UNL A   1      34.895  31.575  28.830  1.00  0.00    -0.237 OA
ATOM     71  O   UNL A   1      34.334  32.761  30.930  1.00  0.00    -0.237 OA
ATOM     72  O   UNL A   1      36.130  33.609  29.468  1.00  0.00    -0.744 OA
ENDBRANCH  65  69
ENDBRANCH  48  62
BRANCH  49  73
ATOM     73  C   UNL A   1      47.005  27.094  26.107  1.00  0.00     0.023 A 
ATOM     74  C   UNL A   1      48.027  26.406  26.779  1.00  0.00     0.031 A 
ATOM     75  C   UNL A   1      47.198  27.395  24.746  1.00  0.00     0.131 A 
ATOM     76  C   UNL A   1      49.218  26.093  26.104  1.00  0.00     0.055 A 
ATOM     77  C   UNL A   1      48.359  27.028  24.064  1.00  0.00     0.041 A 
ATOM     78  F   UNL A   1      46.253  28.050  24.053  1.00  0.00    -0.206 F 
ATOM     79  C   UNL A   1      49.385  26.387  24.748  1.00  0.00     0.022 A 
BRANCH  76  80
ATOM     80  S   UNL A   1      50.594  25.387  27.053  1.00  0.00     0.124 S 
ATOM     81  O   UNL A   1      50.992  26.518  27.881  1.00  0.00    -0.237 OA
ATOM     82  O   UNL A   1      49.944  24.280  27.745  1.00  0.00    -0.237 OA
ATOM     83  O   UNL A   1      51.552  24.998  26.021  1.00  0.00    -0.744 OA
ENDBRANCH  76  80
ENDBRANCH  49  73
BRANCH  61  84
ATOM     84  C   UNL A   1      45.284  33.006  29.402  1.00  0.00     0.023 A 
ATOM     85  C   UNL A   1      45.326  34.106  28.530  1.00  0.00     0.031 A 
ATOM     86  C   UNL A   1      46.038  33.073  30.587  1.00  0.00     0.131 A 
ATOM     87  C   UNL A   1      46.169  35.189  28.813  1.00  0.00     0.055 A 
ATOM     88  C   UNL A   1      46.812  34.189  30.904  1.00  0.00     0.041 A 
ATOM     89  F   UNL A   1      46.037  32.051  31.459  1.00  0.00    -0.206 F 
ATOM     90  C   UNL A   1      46.898  35.248  30.005  1.00  0.00     0.022 A 
BRANCH  87  91
ATOM     91  S   UNL A   1      46.413  36.455  27.538  1.00  0.00     0.124 S 
ATOM     92  O   UNL A   1      47.323  35.783  26.615  1.00  0.00    -0.237 OA
ATOM     93  O   UNL A   1      45.055  36.670  27.049  1.00  0.00    -0.237 OA
ATOM     94  O   UNL A   1      46.993  37.577  28.275  1.00  0.00    -0.744 OA
ENDBRANCH  87  91
ENDBRANCH  61  84
ENDBRANCH  35  36
ENDBRANCH  28  30
ENDBRANCH  27  28
ENDBRANCH  26  27
ENDBRANCH  25  26
ENDBRANCH  24  25
ENDBRANCH   1  24
TORSDOF 22
ENDMDL
MODEL 3
REMARK VINA RESULT:     -10.9      5.449     10.543
REMARK SMILES O=CN[C@@H](CCSC1CCO[C@]2(CCOC2)C1)C(=O)OCCOCCOC(=O)c1ccc(-c2c3nc(c(-c4cc(S(=O)(=O)[O-])ccc4F)c4ccc([nH]4)c(-c4cc(S(=O)(=O)[O-])ccc4F)c4nc(c(-c5cc(S(=O)(=O)[O-])ccc5F)c5ccc2[nH]5)C=C4)C=C3)cc1
REMARK SMILES IDX 22 1 21 2 20 3 18 4 19 5 4 6 3 7 1 8 2 9 5 11 6 12 7 13 8 14
REMARK SMILES IDX 9 15 17 16 10 17 12 18 11 19 13 20 16 21 14 22 15 23 23 24
REMARK SMILES IDX 24 25 25 26 26 27 27 28 28 29 29 30 30 31 91 32 31 33 90 34
REMARK SMILES IDX 32 35 33 36 34 37 84 38 35 39 89 40 83 41 85 42 36 43 88 44
REMARK SMILES IDX 82 45 81 46 37 48 69 49 49 50 68 51 50 52 53 53 67 54 86 55
REMARK SMILES IDX 51 56 52 57 66 59 87 60 54 61 38 62 39 63 47 64 40 65 46 66
REMARK SMILES IDX 48 67 45 68 41 69 42 70 43 71 44 72 70 73 71 74 79 75 72 76
REMARK SMILES IDX 78 77 80 78 77 79 73 80 74 81 75 82 76 83 55 84 56 85 64 86
REMARK SMILES IDX 57 87 63 88 65 89 62 90 58 91 59 92 60 93 61 94
REMARK H PARENT 3 10 85 47 53 58
REMARK Flexibility Score: inf
ROOT
ATOM      1  C   UNL A   1      32.876  35.875  30.519  1.00  0.00     0.202 C 
ENDROOT
BRANCH   1   2
ATOM      2  C   UNL A   1      33.698  36.147  31.899  1.00  0.00     0.261 C 
BRANCH   2   3
ATOM      3  O   UNL A   1      33.813  34.952  32.823  1.00  0.00    -0.462 OA
BRANCH   3   4
ATOM      4  C   UNL A   1      34.529  33.769  32.855  1.00  0.00     0.328 C 
ATOM      5  O   UNL A   1      34.072  32.684  32.513  1.00  0.00    -0.250 OA
BRANCH   4   6
ATOM      6  C   UNL A   1      36.078  33.940  33.433  1.00  0.00     0.192 C 
BRANCH   6   7
ATOM      7  N   UNL A   1      36.707  33.253  34.606  1.00  0.00    -0.345 N 
ATOM      8  O   UNL A   1      37.581  31.461  35.655  1.00  0.00    -0.279 OA
ATOM      9  C   UNL A   1      37.627  32.258  34.723  1.00  0.00     0.337 C 
ATOM     10  H   UNL A   1      36.387  33.593  35.473  1.00  0.00     0.164 HD
ENDBRANCH   6   7
BRANCH   6  11
ATOM     11  C   UNL A   1      36.898  33.388  32.303  1.00  0.00     0.048 C 
BRANCH  11  12
ATOM     12  C   UNL A   1      37.973  34.439  31.926  1.00  0.00     0.072 C 
BRANCH  12  13
ATOM     13  S   UNL A   1      38.578  34.763  30.005  1.00  0.00    -0.158 SA
BRANCH  13  14
ATOM     14  C   UNL A   1      40.699  34.646  29.643  1.00  0.00     0.052 C 
ATOM     15  C   UNL A   1      42.024  34.123  30.364  1.00  0.00     0.043 C 
ATOM     16  C   UNL A   1      41.055  35.250  28.275  1.00  0.00     0.052 C 
ATOM     17  C   UNL A   1      43.393  34.596  29.929  1.00  0.00     0.162 C 
ATOM     18  C   UNL A   1      42.471  35.851  28.184  1.00  0.00     0.095 C 
ATOM     19  O   UNL A   1      43.415  34.840  28.533  1.00  0.00    -0.372 OA
ATOM     20  C   UNL A   1      42.808  37.125  28.945  1.00  0.00     0.066 C 
ATOM     21  C   UNL A   1      42.691  36.313  26.749  1.00  0.00     0.195 C 
ATOM     22  C   UNL A   1      42.508  38.254  28.000  1.00  0.00     0.163 C 
ATOM     23  O   UNL A   1      42.298  37.692  26.705  1.00  0.00    -0.378 OA
ENDBRANCH  13  14
ENDBRANCH  12  13
ENDBRANCH  11  12
ENDBRANCH   6  11
ENDBRANCH   4   6
ENDBRANCH   3   4
ENDBRANCH   2   3
ENDBRANCH   1   2
BRANCH   1  24
ATOM     24  O   UNL A   1      33.109  34.583  29.954  1.00  0.00    -0.374 OA
BRANCH  24  25
ATOM     25  C   UNL A   1      34.104  34.222  28.964  1.00  0.00     0.202 C 
BRANCH  25  26
ATOM     26  C   UNL A   1      34.043  32.961  28.053  1.00  0.00     0.261 C 
BRANCH  26  27
ATOM     27  O   UNL A   1      34.148  31.750  28.776  1.00  0.00    -0.460 OA
BRANCH  27  28
ATOM     28  C   UNL A   1      34.895  30.842  28.130  1.00  0.00     0.338 C 
ATOM     29  O   UNL A   1      34.738  30.441  26.982  1.00  0.00    -0.246 OA
BRANCH  28  30
ATOM     30  C   UNL A   1      36.119  30.677  28.905  1.00  0.00     0.060 A 
ATOM     31  C   UNL A   1      37.194  31.469  28.499  1.00  0.00     0.016 A 
ATOM     32  C   UNL A   1      36.216  29.801  29.992  1.00  0.00     0.016 A 
ATOM     33  C   UNL A   1      38.423  31.289  29.095  1.00  0.00     0.010 A 
ATOM     34  C   UNL A   1      37.460  29.613  30.590  1.00  0.00     0.010 A 
ATOM     35  C   UNL A   1      38.573  30.297  30.072  1.00  0.00    -0.014 A 
BRANCH  35  36
ATOM     36  C   UNL A   1      39.941  29.777  30.252  1.00  0.00     0.031 A 
ATOM     37  C   UNL A   1      40.744  30.337  31.397  1.00  0.00     0.074 A 
ATOM     38  C   UNL A   1      40.353  28.710  29.552  1.00  0.00     0.049 A 
ATOM     39  N   UNL A   1      41.903  29.957  31.862  1.00  0.00    -0.248 NA
ATOM     40  C   UNL A   1      40.148  31.471  32.126  1.00  0.00     0.031 C 
ATOM     41  C   UNL A   1      39.589  28.051  28.492  1.00  0.00     0.029 A 
ATOM     42  N   UNL A   1      41.496  27.969  29.660  1.00  0.00    -0.354 N 
ATOM     43  C   UNL A   1      42.169  30.800  32.937  1.00  0.00     0.074 A 
ATOM     44  C   UNL A   1      41.079  31.742  33.024  1.00  0.00     0.031 C 
ATOM     45  C   UNL A   1      40.284  26.987  28.055  1.00  0.00     0.029 A 
ATOM     46  C   UNL A   1      41.550  26.915  28.781  1.00  0.00     0.049 A 
ATOM     47  H   UNL A   1      42.212  28.170  30.305  1.00  0.00     0.167 HD
ATOM     48  C   UNL A   1      43.225  30.775  33.785  1.00  0.00     0.034 A 
ATOM     49  C   UNL A   1      42.526  26.006  28.586  1.00  0.00     0.034 A 
ATOM     50  C   UNL A   1      44.303  29.828  33.665  1.00  0.00     0.049 A 
ATOM     51  C   UNL A   1      43.739  26.061  29.482  1.00  0.00     0.074 A 
ATOM     52  C   UNL A   1      45.446  29.720  34.433  1.00  0.00     0.029 A 
ATOM     53  N   UNL A   1      44.370  28.826  32.702  1.00  0.00    -0.354 N 
ATOM     54  N   UNL A   1      43.998  26.880  30.479  1.00  0.00    -0.248 NA
ATOM     55  C   UNL A   1      44.780  25.057  29.241  1.00  0.00     0.031 C 
ATOM     56  C   UNL A   1      46.240  28.705  33.888  1.00  0.00     0.029 A 
ATOM     57  C   UNL A   1      45.550  28.113  32.841  1.00  0.00     0.049 A 
ATOM     58  H   UNL A   1      43.681  28.650  32.022  1.00  0.00     0.167 HD
ATOM     59  C   UNL A   1      45.217  26.459  31.009  1.00  0.00     0.074 A 
ATOM     60  C   UNL A   1      45.624  25.306  30.230  1.00  0.00     0.031 C 
ATOM     61  C   UNL A   1      45.933  26.970  32.045  1.00  0.00     0.034 A 
BRANCH  48  62
ATOM     62  C   UNL A   1      43.285  31.847  34.847  1.00  0.00     0.023 A 
ATOM     63  C   UNL A   1      42.660  31.698  36.099  1.00  0.00     0.031 A 
ATOM     64  C   UNL A   1      43.935  33.064  34.578  1.00  0.00     0.131 A 
ATOM     65  C   UNL A   1      42.641  32.772  37.004  1.00  0.00     0.055 A 
ATOM     66  C   UNL A   1      43.983  34.098  35.516  1.00  0.00     0.041 A 
ATOM     67  F   UNL A   1      44.517  33.280  33.388  1.00  0.00    -0.206 F 
ATOM     68  C   UNL A   1      43.322  33.960  36.732  1.00  0.00     0.022 A 
BRANCH  65  69
ATOM     69  S   UNL A   1      41.587  32.651  38.477  1.00  0.00     0.124 S 
ATOM     70  O   UNL A   1      41.602  34.029  38.963  1.00  0.00    -0.237 OA
ATOM     71  O   UNL A   1      40.322  32.182  37.923  1.00  0.00    -0.237 OA
ATOM     72  O   UNL A   1      42.291  31.691  39.324  1.00  0.00    -0.744 OA
ENDBRANCH  65  69
ENDBRANCH  48  62
BRANCH  49  73
ATOM     73  C   UNL A   1      42.416  25.002  27.491  1.00  0.00     0.023 A 
ATOM     74  C   UNL A   1      41.682  23.817  27.651  1.00  0.00     0.031 A 
ATOM     75  C   UNL A   1      43.103  25.192  26.277  1.00  0.00     0.131 A 
ATOM     76  C   UNL A   1      41.701  22.842  26.640  1.00  0.00     0.055 A 
ATOM     77  C   UNL A   1      43.068  24.248  25.251  1.00  0.00     0.041 A 
ATOM     78  F   UNL A   1      43.819  26.308  26.069  1.00  0.00    -0.206 F 
ATOM     79  C   UNL A   1      42.377  23.056  25.437  1.00  0.00     0.022 A 
BRANCH  76  80
ATOM     80  S   UNL A   1      40.912  21.241  26.963  1.00  0.00     0.124 S 
ATOM     81  O   UNL A   1      41.893  20.313  26.415  1.00  0.00    -0.237 OA
ATOM     82  O   UNL A   1      40.783  21.257  28.416  1.00  0.00    -0.237 OA
ATOM     83  O   UNL A   1      39.653  21.330  26.226  1.00  0.00    -0.744 OA
ENDBRANCH  76  80
ENDBRANCH  49  73
BRANCH  61  84
ATOM     84  C   UNL A   1      47.197  26.236  32.429  1.00  0.00     0.023 A 
ATOM     85  C   UNL A   1      48.425  26.488  31.795  1.00  0.00     0.031 A 
ATOM     86  C   UNL A   1      47.159  25.246  33.427  1.00  0.00     0.131 A 
ATOM     87  C   UNL A   1      49.543  25.702  32.104  1.00  0.00     0.055 A 
ATOM     88  C   UNL A   1      48.296  24.523  33.788  1.00  0.00     0.041 A 
ATOM     89  F   UNL A   1      46.013  24.961  34.067  1.00  0.00    -0.206 F 
ATOM     90  C   UNL A   1      49.493  24.734  33.111  1.00  0.00     0.022 A 
BRANCH  87  91
ATOM     91  S   UNL A   1      51.027  25.862  31.073  1.00  0.00     0.124 S 
ATOM     92  O   UNL A   1      51.058  27.298  30.809  1.00  0.00    -0.237 OA
ATOM     93  O   UNL A   1      52.074  25.354  31.954  1.00  0.00    -0.237 OA
ATOM     94  O   UNL A   1      50.731  25.023  29.913  1.00  0.00    -0.744 OA
ENDBRANCH  87  91
ENDBRANCH  61  84
ENDBRANCH  35  36
ENDBRANCH  28  30
ENDBRANCH  27  28
ENDBRANCH  26  27
ENDBRANCH  25  26
ENDBRANCH  24  25
ENDBRANCH   1  24
TORSDOF 22
ENDMDL
