MODEL 1
REMARK VINA RESULT:      -7.9      0.000      0.000
REMARK SMILES C[C@@H](CCO)SCc1cccc(/C=C/C(=O)OCCOCCOC(=O)c2ccc(-c3c4nc(c(-c5cc(S(=O)(=O)[O-])ccc5F)c5ccc([nH]5)c(-c5cc(S(=O)(=O)[O-])ccc5F)c5nc(c(-c6cc(S(=O)(=O)[O-])ccc6F)c6ccc3[nH]6)C=C5)C=C4)cc2)c1
REMARK SMILES IDX 18 1 17 2 15 3 16 4 14 5 13 6 12 7 8 8 9 9 89 10 10 11 11 12
REMARK SMILES IDX 7 13 6 14 2 15 1 16 3 17 4 18 5 19 19 21 20 22 21 23 22 24
REMARK SMILES IDX 23 25 24 26 25 27 26 28 27 29 88 30 28 31 87 32 29 33 30 34
REMARK SMILES IDX 31 35 81 36 32 37 86 38 80 39 82 40 33 41 85 42 79 43 78 44
REMARK SMILES IDX 34 46 66 47 46 48 65 49 47 50 50 51 64 52 83 53 48 54 49 55
REMARK SMILES IDX 63 57 84 58 51 59 35 60 36 61 44 62 37 63 43 64 45 65 42 66
REMARK SMILES IDX 38 67 39 68 40 69 41 70 67 71 68 72 76 73 69 74 75 75 77 76
REMARK SMILES IDX 74 77 70 78 71 79 72 80 73 81 52 82 53 83 61 84 54 85 60 86
REMARK SMILES IDX 62 87 59 88 55 89 56 90 57 91 58 92
REMARK H PARENT 5 20 82 45 50 56
REMARK Flexibility Score: inf
ROOT
ATOM      1  C   UNL A   1      46.017  21.072  24.777  1.00  0.00     0.261 C 
ENDROOT
BRANCH   1   2
ATOM      2  O   UNL A   1      45.497  21.817  25.890  1.00  0.00    -0.460 OA
BRANCH   2   3
ATOM      3  C   UNL A   1      45.610  23.161  25.788  1.00  0.00     0.330 C 
ATOM      4  O   UNL A   1      45.113  23.874  24.929  1.00  0.00    -0.247 OA
BRANCH   3   5
ATOM      5  C   UNL A   1      46.333  23.754  26.932  1.00  0.00     0.094 C 
ATOM      6  C   UNL A   1      47.442  24.510  26.883  1.00  0.00     0.015 C 
BRANCH   6   7
ATOM      7  C   UNL A   1      48.114  24.989  28.105  1.00  0.00    -0.025 A 
ATOM      8  C   UNL A   1      47.966  25.992  30.338  1.00  0.00    -0.037 A 
ATOM      9  C   UNL A   1      49.360  25.896  30.452  1.00  0.00     0.004 A 
ATOM     10  C   UNL A   1      47.368  25.600  29.123  1.00  0.00     0.012 A 
ATOM     11  C   UNL A   1      50.120  25.324  29.435  1.00  0.00     0.001 A 
ATOM     12  C   UNL A   1      49.500  24.866  28.275  1.00  0.00     0.008 A 
BRANCH   8  13
ATOM     13  C   UNL A   1      47.097  26.548  31.448  1.00  0.00     0.105 C 
BRANCH  13  14
ATOM     14  S   UNL A   1      46.024  25.349  32.315  1.00  0.00    -0.154 SA
BRANCH  14  15
ATOM     15  C   UNL A   1      44.422  26.249  32.531  1.00  0.00     0.046 C 
ATOM     16  C   UNL A   1      44.206  26.717  33.965  1.00  0.00     0.019 C 
BRANCH  15  17
ATOM     17  C   UNL A   1      44.068  27.224  31.393  1.00  0.00     0.042 C 
BRANCH  17  18
ATOM     18  C   UNL A   1      44.048  28.737  31.616  1.00  0.00     0.157 C 
BRANCH  18  19
ATOM     19  O   UNL A   1      43.013  29.422  30.949  1.00  0.00    -0.396 OA
ATOM     20  H   UNL A   1      42.249  29.509  31.541  1.00  0.00     0.210 HD
ENDBRANCH  18  19
ENDBRANCH  17  18
ENDBRANCH  15  17
ENDBRANCH  14  15
ENDBRANCH  13  14
ENDBRANCH   8  13
ENDBRANCH   6   7
ENDBRANCH   3   5
ENDBRANCH   2   3
ENDBRANCH   1   2
BRANCH   1  21
ATOM     21  C   UNL A   1      45.177  19.822  24.495  1.00  0.00     0.202 C 
BRANCH  21  22
ATOM     22  O   UNL A   1      43.769  19.957  24.689  1.00  0.00    -0.374 OA
BRANCH  22  23
ATOM     23  C   UNL A   1      43.148  19.041  25.592  1.00  0.00     0.202 C 
BRANCH  23  24
ATOM     24  C   UNL A   1      41.908  19.549  26.340  1.00  0.00     0.261 C 
BRANCH  24  25
ATOM     25  O   UNL A   1      41.833  20.987  26.354  1.00  0.00    -0.460 OA
BRANCH  25  26
ATOM     26  C   UNL A   1      40.630  21.497  26.714  1.00  0.00     0.338 C 
ATOM     27  O   UNL A   1      39.575  20.888  26.824  1.00  0.00    -0.246 OA
BRANCH  26  28
ATOM     28  C   UNL A   1      40.796  22.896  27.153  1.00  0.00     0.060 A 
ATOM     29  C   UNL A   1      40.251  23.906  26.348  1.00  0.00     0.016 A 
ATOM     30  C   UNL A   1      41.512  23.219  28.307  1.00  0.00     0.016 A 
ATOM     31  C   UNL A   1      40.440  25.246  26.685  1.00  0.00     0.010 A 
ATOM     32  C   UNL A   1      41.710  24.564  28.635  1.00  0.00     0.010 A 
ATOM     33  C   UNL A   1      41.193  25.584  27.816  1.00  0.00    -0.014 A 
BRANCH  33  34
ATOM     34  C   UNL A   1      41.536  27.002  28.090  1.00  0.00     0.031 A 
ATOM     35  C   UNL A   1      42.953  27.462  27.895  1.00  0.00     0.074 A 
ATOM     36  C   UNL A   1      40.594  27.866  28.512  1.00  0.00     0.049 A 
ATOM     37  N   UNL A   1      43.497  28.618  28.169  1.00  0.00    -0.248 NA
ATOM     38  C   UNL A   1      43.882  26.478  27.318  1.00  0.00     0.031 C 
ATOM     39  C   UNL A   1      39.177  27.548  28.686  1.00  0.00     0.029 A 
ATOM     40  N   UNL A   1      40.693  29.182  28.887  1.00  0.00    -0.354 N 
ATOM     41  C   UNL A   1      44.834  28.506  27.804  1.00  0.00     0.074 A 
ATOM     42  C   UNL A   1      45.022  27.153  27.320  1.00  0.00     0.031 C 
ATOM     43  C   UNL A   1      38.543  28.636  29.154  1.00  0.00     0.029 A 
ATOM     44  C   UNL A   1      39.512  29.710  29.356  1.00  0.00     0.049 A 
ATOM     45  H   UNL A   1      41.529  29.698  28.826  1.00  0.00     0.167 HD
ATOM     46  C   UNL A   1      45.811  29.444  27.864  1.00  0.00     0.034 A 
ATOM     47  C   UNL A   1      39.255  30.908  29.918  1.00  0.00     0.034 A 
ATOM     48  C   UNL A   1      45.608  30.782  28.366  1.00  0.00     0.049 A 
ATOM     49  C   UNL A   1      40.381  31.901  30.078  1.00  0.00     0.074 A 
ATOM     50  C   UNL A   1      46.521  31.818  28.454  1.00  0.00     0.029 A 
ATOM     51  N   UNL A   1      44.412  31.265  28.881  1.00  0.00    -0.354 N 
ATOM     52  N   UNL A   1      41.641  31.785  29.725  1.00  0.00    -0.248 NA
ATOM     53  C   UNL A   1      40.052  33.185  30.712  1.00  0.00     0.031 C 
ATOM     54  C   UNL A   1      45.900  32.899  29.088  1.00  0.00     0.029 A 
ATOM     55  C   UNL A   1      44.576  32.568  29.327  1.00  0.00     0.049 A 
ATOM     56  H   UNL A   1      43.570  30.756  28.925  1.00  0.00     0.167 HD
ATOM     57  C   UNL A   1      42.245  32.992  30.070  1.00  0.00     0.074 A 
ATOM     58  C   UNL A   1      41.211  33.824  30.649  1.00  0.00     0.031 C 
ATOM     59  C   UNL A   1      43.538  33.381  29.916  1.00  0.00     0.034 A 
BRANCH  46  60
ATOM     60  C   UNL A   1      47.196  29.032  27.430  1.00  0.00     0.023 A 
ATOM     61  C   UNL A   1      47.460  28.586  26.123  1.00  0.00     0.031 A 
ATOM     62  C   UNL A   1      48.262  29.059  28.345  1.00  0.00     0.131 A 
ATOM     63  C   UNL A   1      48.741  28.121  25.788  1.00  0.00     0.055 A 
ATOM     64  C   UNL A   1      49.553  28.668  27.984  1.00  0.00     0.041 A 
ATOM     65  F   UNL A   1      48.065  29.454  29.613  1.00  0.00    -0.206 F 
ATOM     66  C   UNL A   1      49.796  28.182  26.702  1.00  0.00     0.022 A 
BRANCH  63  67
ATOM     67  S   UNL A   1      48.978  27.306  24.185  1.00  0.00     0.124 S 
ATOM     68  O   UNL A   1      47.615  27.293  23.657  1.00  0.00    -0.237 OA
ATOM     69  O   UNL A   1      49.914  28.199  23.513  1.00  0.00    -0.237 OA
ATOM     70  O   UNL A   1      49.513  25.995  24.542  1.00  0.00    -0.744 OA
ENDBRANCH  63  67
ENDBRANCH  46  60
BRANCH  47  71
ATOM     71  C   UNL A   1      37.890  31.224  30.430  1.00  0.00     0.023 A 
ATOM     72  C   UNL A   1      36.933  31.845  29.614  1.00  0.00     0.031 A 
ATOM     73  C   UNL A   1      37.543  30.957  31.767  1.00  0.00     0.131 A 
ATOM     74  C   UNL A   1      35.690  32.217  30.151  1.00  0.00     0.055 A 
ATOM     75  C   UNL A   1      36.287  31.281  32.284  1.00  0.00     0.041 A 
ATOM     76  F   UNL A   1      38.422  30.367  32.593  1.00  0.00    -0.206 F 
ATOM     77  C   UNL A   1      35.356  31.927  31.477  1.00  0.00     0.022 A 
BRANCH  74  78
ATOM     78  S   UNL A   1      34.543  33.164  29.114  1.00  0.00     0.124 S 
ATOM     79  O   UNL A   1      35.459  33.997  28.343  1.00  0.00    -0.237 OA
ATOM     80  O   UNL A   1      33.861  32.107  28.375  1.00  0.00    -0.237 OA
ATOM     81  O   UNL A   1      33.716  33.877  30.084  1.00  0.00    -0.744 OA
ENDBRANCH  74  78
ENDBRANCH  47  71
BRANCH  59  82
ATOM     82  C   UNL A   1      43.890  34.785  30.343  1.00  0.00     0.023 A 
ATOM     83  C   UNL A   1      44.221  35.094  31.675  1.00  0.00     0.031 A 
ATOM     84  C   UNL A   1      43.901  35.827  29.400  1.00  0.00     0.131 A 
ATOM     85  C   UNL A   1      44.505  36.420  32.034  1.00  0.00     0.055 A 
ATOM     86  C   UNL A   1      44.239  37.135  29.751  1.00  0.00     0.041 A 
ATOM     87  F   UNL A   1      43.592  35.588  28.115  1.00  0.00    -0.206 F 
ATOM     88  C   UNL A   1      44.533  37.439  31.077  1.00  0.00     0.022 A 
BRANCH  85  89
ATOM     89  S   UNL A   1      44.773  36.813  33.784  1.00  0.00     0.124 S 
ATOM     90  O   UNL A   1      43.603  36.208  34.413  1.00  0.00    -0.237 OA
ATOM     91  O   UNL A   1      46.051  36.165  34.059  1.00  0.00    -0.237 OA
ATOM     92  O   UNL A   1      44.802  38.275  33.807  1.00  0.00    -0.744 OA
ENDBRANCH  85  89
ENDBRANCH  59  82
ENDBRANCH  33  34
ENDBRANCH  26  28
ENDBRANCH  25  26
ENDBRANCH  24  25
ENDBRANCH  23  24
ENDBRANCH  22  23
ENDBRANCH  21  22
ENDBRANCH   1  21
TORSDOF 24
ENDMDL
MODEL 2
REMARK VINA RESULT:      -7.4      5.555     12.522
REMARK SMILES C[C@@H](CCO)SCc1cccc(/C=C/C(=O)OCCOCCOC(=O)c2ccc(-c3c4nc(c(-c5cc(S(=O)(=O)[O-])ccc5F)c5ccc([nH]5)c(-c5cc(S(=O)(=O)[O-])ccc5F)c5nc(c(-c6cc(S(=O)(=O)[O-])ccc6F)c6ccc3[nH]6)C=C5)C=C4)cc2)c1
REMARK SMILES IDX 18 1 17 2 15 3 16 4 14 5 13 6 12 7 8 8 9 9 89 10 10 11 11 12
REMARK SMILES IDX 7 13 6 14 2 15 1 16 3 17 4 18 5 19 19 21 20 22 21 23 22 24
REMARK SMILES IDX 23 25 24 26 25 27 26 28 27 29 88 30 28 31 87 32 29 33 30 34
REMARK SMILES IDX 31 35 81 36 32 37 86 38 80 39 82 40 33 41 85 42 79 43 78 44
REMARK SMILES IDX 34 46 66 47 46 48 65 49 47 50 50 51 64 52 83 53 48 54 49 55
REMARK SMILES IDX 63 57 84 58 51 59 35 60 36 61 44 62 37 63 43 64 45 65 42 66
REMARK SMILES IDX 38 67 39 68 40 69 41 70 67 71 68 72 76 73 69 74 75 75 77 76
REMARK SMILES IDX 74 77 70 78 71 79 72 80 73 81 52 82 53 83 61 84 54 85 60 86
REMARK SMILES IDX 62 87 59 88 55 89 56 90 57 91 58 92
REMARK H PARENT 5 20 82 45 50 56
REMARK Flexibility Score: inf
ROOT
ATOM      1  C   UNL A   1      31.417  29.217  25.120  1.00  0.00     0.261 C 
ENDROOT
BRANCH   1   2
ATOM      2  O   UNL A   1      31.120  29.223  23.713  1.00  0.00    -0.460 OA
BRANCH   2   3
ATOM      3  C   UNL A   1      30.681  28.046  23.212  1.00  0.00     0.330 C 
ATOM      4  O   UNL A   1      30.262  27.842  22.082  1.00  0.00    -0.247 OA
BRANCH   3   5
ATOM      5  C   UNL A   1      30.864  26.927  24.160  1.00  0.00     0.094 C 
ATOM      6  C   UNL A   1      31.741  25.915  24.057  1.00  0.00     0.015 C 
BRANCH   6   7
ATOM      7  C   UNL A   1      31.781  24.815  25.037  1.00  0.00    -0.025 A 
ATOM      8  C   UNL A   1      33.039  23.030  26.154  1.00  0.00    -0.037 A 
ATOM      9  C   UNL A   1      31.897  22.723  26.907  1.00  0.00     0.004 A 
ATOM     10  C   UNL A   1      32.939  24.034  25.168  1.00  0.00     0.012 A 
ATOM     11  C   UNL A   1      30.728  23.467  26.763  1.00  0.00     0.001 A 
ATOM     12  C   UNL A   1      30.675  24.510  25.841  1.00  0.00     0.008 A 
BRANCH   8  13
ATOM     13  C   UNL A   1      34.349  22.289  26.327  1.00  0.00     0.105 C 
BRANCH  13  14
ATOM     14  S   UNL A   1      34.883  21.246  24.923  1.00  0.00    -0.154 SA
BRANCH  14  15
ATOM     15  C   UNL A   1      33.425  20.157  24.589  1.00  0.00     0.046 C 
ATOM     16  C   UNL A   1      32.497  20.735  23.528  1.00  0.00     0.019 C 
BRANCH  15  17
ATOM     17  C   UNL A   1      33.741  18.651  24.529  1.00  0.00     0.042 C 
BRANCH  17  18
ATOM     18  C   UNL A   1      32.937  17.635  25.342  1.00  0.00     0.157 C 
BRANCH  18  19
ATOM     19  O   UNL A   1      31.694  17.278  24.783  1.00  0.00    -0.396 OA
ATOM     20  H   UNL A   1      31.089  17.003  25.490  1.00  0.00     0.210 HD
ENDBRANCH  18  19
ENDBRANCH  17  18
ENDBRANCH  15  17
ENDBRANCH  14  15
ENDBRANCH  13  14
ENDBRANCH   8  13
ENDBRANCH   6   7
ENDBRANCH   3   5
ENDBRANCH   2   3
ENDBRANCH   1   2
BRANCH   1  21
ATOM     21  C   UNL A   1      32.849  29.688  25.393  1.00  0.00     0.202 C 
BRANCH  21  22
ATOM     22  O   UNL A   1      33.001  30.662  26.426  1.00  0.00    -0.374 OA
BRANCH  22  23
ATOM     23  C   UNL A   1      31.811  31.291  26.904  1.00  0.00     0.202 C 
BRANCH  23  24
ATOM     24  C   UNL A   1      31.800  32.826  26.907  1.00  0.00     0.261 C 
BRANCH  24  25
ATOM     25  O   UNL A   1      33.127  33.379  26.990  1.00  0.00    -0.460 OA
BRANCH  25  26
ATOM     26  C   UNL A   1      33.371  34.125  28.095  1.00  0.00     0.338 C 
ATOM     27  O   UNL A   1      32.717  35.077  28.500  1.00  0.00    -0.246 OA
BRANCH  26  28
ATOM     28  C   UNL A   1      34.456  33.508  28.880  1.00  0.00     0.060 A 
ATOM     29  C   UNL A   1      35.777  33.821  28.534  1.00  0.00     0.016 A 
ATOM     30  C   UNL A   1      34.189  32.601  29.908  1.00  0.00     0.016 A 
ATOM     31  C   UNL A   1      36.838  33.210  29.202  1.00  0.00     0.010 A 
ATOM     32  C   UNL A   1      35.255  31.981  30.568  1.00  0.00     0.010 A 
ATOM     33  C   UNL A   1      36.584  32.267  30.206  1.00  0.00    -0.014 A 
BRANCH  33  34
ATOM     34  C   UNL A   1      37.700  31.494  30.806  1.00  0.00     0.031 A 
ATOM     35  C   UNL A   1      38.153  31.827  32.200  1.00  0.00     0.074 A 
ATOM     36  C   UNL A   1      38.305  30.513  30.112  1.00  0.00     0.049 A 
ATOM     37  N   UNL A   1      39.166  31.357  32.879  1.00  0.00    -0.248 NA
ATOM     38  C   UNL A   1      37.355  32.832  32.920  1.00  0.00     0.031 C 
ATOM     39  C   UNL A   1      37.919  30.066  28.774  1.00  0.00     0.029 A 
ATOM     40  N   UNL A   1      39.383  29.726  30.432  1.00  0.00    -0.354 N 
ATOM     41  C   UNL A   1      39.135  32.009  34.107  1.00  0.00     0.074 A 
ATOM     42  C   UNL A   1      38.019  32.933  34.062  1.00  0.00     0.031 C 
ATOM     43  C   UNL A   1      38.762  29.096  28.380  1.00  0.00     0.029 A 
ATOM     44  C   UNL A   1      39.773  28.887  29.414  1.00  0.00     0.049 A 
ATOM     45  H   UNL A   1      39.834  29.759  31.307  1.00  0.00     0.167 HD
ATOM     46  C   UNL A   1      39.958  31.849  35.172  1.00  0.00     0.034 A 
ATOM     47  C   UNL A   1      40.843  28.073  29.315  1.00  0.00     0.034 A 
ATOM     48  C   UNL A   1      41.075  30.936  35.193  1.00  0.00     0.049 A 
ATOM     49  C   UNL A   1      41.811  27.991  30.471  1.00  0.00     0.074 A 
ATOM     50  C   UNL A   1      41.962  30.679  36.224  1.00  0.00     0.029 A 
ATOM     51  N   UNL A   1      41.472  30.140  34.125  1.00  0.00    -0.354 N 
ATOM     52  N   UNL A   1      41.769  28.609  31.630  1.00  0.00    -0.248 NA
ATOM     53  C   UNL A   1      42.970  27.103  30.307  1.00  0.00     0.031 C 
ATOM     54  C   UNL A   1      42.934  29.789  35.757  1.00  0.00     0.029 A 
ATOM     55  C   UNL A   1      42.613  29.427  34.459  1.00  0.00     0.049 A 
ATOM     56  H   UNL A   1      41.010  30.091  33.257  1.00  0.00     0.167 HD
ATOM     57  C   UNL A   1      42.882  28.162  32.340  1.00  0.00     0.074 A 
ATOM     58  C   UNL A   1      43.568  27.215  31.484  1.00  0.00     0.031 C 
ATOM     59  C   UNL A   1      43.295  28.497  33.589  1.00  0.00     0.034 A 
BRANCH  46  60
ATOM     60  C   UNL A   1      39.711  32.724  36.377  1.00  0.00     0.023 A 
ATOM     61  C   UNL A   1      38.920  32.293  37.456  1.00  0.00     0.031 A 
ATOM     62  C   UNL A   1      40.253  34.019  36.434  1.00  0.00     0.131 A 
ATOM     63  C   UNL A   1      38.637  33.172  38.511  1.00  0.00     0.055 A 
ATOM     64  C   UNL A   1      40.032  34.864  37.524  1.00  0.00     0.041 A 
ATOM     65  F   UNL A   1      40.998  34.494  35.423  1.00  0.00    -0.206 F 
ATOM     66  C   UNL A   1      39.207  34.447  38.565  1.00  0.00     0.022 A 
BRANCH  63  67
ATOM     67  S   UNL A   1      37.402  32.680  39.745  1.00  0.00     0.124 S 
ATOM     68  O   UNL A   1      36.172  32.708  38.958  1.00  0.00    -0.237 OA
ATOM     69  O   UNL A   1      37.871  31.360  40.151  1.00  0.00    -0.237 OA
ATOM     70  O   UNL A   1      37.504  33.719  40.767  1.00  0.00    -0.744 OA
ENDBRANCH  63  67
ENDBRANCH  46  60
BRANCH  47  71
ATOM     71  C   UNL A   1      41.100  27.312  28.059  1.00  0.00     0.023 A 
ATOM     72  C   UNL A   1      40.875  25.929  27.987  1.00  0.00     0.031 A 
ATOM     73  C   UNL A   1      41.627  27.954  26.923  1.00  0.00     0.131 A 
ATOM     74  C   UNL A   1      41.216  25.224  26.823  1.00  0.00     0.055 A 
ATOM     75  C   UNL A   1      41.916  27.257  25.748  1.00  0.00     0.041 A 
ATOM     76  F   UNL A   1      41.864  29.275  26.938  1.00  0.00    -0.206 F 
ATOM     77  C   UNL A   1      41.722  25.881  25.698  1.00  0.00     0.022 A 
BRANCH  74  78
ATOM     78  S   UNL A   1      41.068  23.416  26.825  1.00  0.00     0.124 S 
ATOM     79  O   UNL A   1      39.654  23.234  26.518  1.00  0.00    -0.237 OA
ATOM     80  O   UNL A   1      42.007  23.035  25.776  1.00  0.00    -0.237 OA
ATOM     81  O   UNL A   1      41.466  23.043  28.181  1.00  0.00    -0.744 OA
ENDBRANCH  74  78
ENDBRANCH  47  71
BRANCH  59  82
ATOM     82  C   UNL A   1      44.525  27.800  34.118  1.00  0.00     0.023 A 
ATOM     83  C   UNL A   1      45.787  28.420  34.116  1.00  0.00     0.031 A 
ATOM     84  C   UNL A   1      44.429  26.497  34.638  1.00  0.00     0.131 A 
ATOM     85  C   UNL A   1      46.910  27.720  34.583  1.00  0.00     0.055 A 
ATOM     86  C   UNL A   1      45.539  25.826  35.152  1.00  0.00     0.041 A 
ATOM     87  F   UNL A   1      43.248  25.858  34.663  1.00  0.00    -0.206 F 
ATOM     88  C   UNL A   1      46.790  26.434  35.117  1.00  0.00     0.022 A 
BRANCH  85  89
ATOM     89  S   UNL A   1      48.546  28.486  34.422  1.00  0.00     0.124 S 
ATOM     90  O   UNL A   1      48.707  28.555  32.972  1.00  0.00    -0.237 OA
ATOM     91  O   UNL A   1      48.364  29.762  35.105  1.00  0.00    -0.237 OA
ATOM     92  O   UNL A   1      49.435  27.543  35.099  1.00  0.00    -0.744 OA
ENDBRANCH  85  89
ENDBRANCH  59  82
ENDBRANCH  33  34
ENDBRANCH  26  28
ENDBRANCH  25  26
ENDBRANCH  24  25
ENDBRANCH  23  24
ENDBRANCH  22  23
ENDBRANCH  21  22
ENDBRANCH   1  21
TORSDOF 24
ENDMDL
MODEL 3
REMARK VINA RESULT:      -7.3      5.740     13.113
REMARK SMILES C[C@@H](CCO)SCc1cccc(/C=C/C(=O)OCCOCCOC(=O)c2ccc(-c3c4nc(c(-c5cc(S(=O)(=O)[O-])ccc5F)c5ccc([nH]5)c(-c5cc(S(=O)(=O)[O-])ccc5F)c5nc(c(-c6cc(S(=O)(=O)[O-])ccc6F)c6ccc3[nH]6)C=C5)C=C4)cc2)c1
REMARK SMILES IDX 18 1 17 2 15 3 16 4 14 5 13 6 12 7 8 8 9 9 89 10 10 11 11 12
REMARK SMILES IDX 7 13 6 14 2 15 1 16 3 17 4 18 5 19 19 21 20 22 21 23 22 24
REMARK SMILES IDX 23 25 24 26 25 27 26 28 27 29 88 30 28 31 87 32 29 33 30 34
REMARK SMILES IDX 31 35 81 36 32 37 86 38 80 39 82 40 33 41 85 42 79 43 78 44
REMARK SMILES IDX 34 46 66 47 46 48 65 49 47 50 50 51 64 52 83 53 48 54 49 55
REMARK SMILES IDX 63 57 84 58 51 59 35 60 36 61 44 62 37 63 43 64 45 65 42 66
REMARK SMILES IDX 38 67 39 68 40 69 41 70 67 71 68 72 76 73 69 74 75 75 77 76
REMARK SMILES IDX 74 77 70 78 71 79 72 80 73 81 52 82 53 83 61 84 54 85 60 86
REMARK SMILES IDX 62 87 59 88 55 89 56 90 57 91 58 92
REMARK H PARENT 5 20 82 45 50 56
REMARK Flexibility Score: inf
ROOT
ATOM      1  C   UNL A   1      35.889  32.214  28.350  1.00  0.00     0.261 C 
ENDROOT
BRANCH   1   2
ATOM      2  O   UNL A   1      34.949  31.246  27.857  1.00  0.00    -0.460 OA
BRANCH   2   3
ATOM      3  C   UNL A   1      35.452  30.006  27.655  1.00  0.00     0.330 C 
ATOM      4  O   UNL A   1      36.598  29.637  27.865  1.00  0.00    -0.247 OA
BRANCH   3   5
ATOM      5  C   UNL A   1      34.414  29.038  27.242  1.00  0.00     0.094 C 
ATOM      6  C   UNL A   1      34.279  28.463  26.035  1.00  0.00     0.015 C 
BRANCH   6   7
ATOM      7  C   UNL A   1      33.156  27.561  25.721  1.00  0.00    -0.025 A 
ATOM      8  C   UNL A   1      30.976  27.198  24.658  1.00  0.00    -0.037 A 
ATOM      9  C   UNL A   1      31.008  25.866  25.094  1.00  0.00     0.004 A 
ATOM     10  C   UNL A   1      32.029  28.053  25.047  1.00  0.00     0.012 A 
ATOM     11  C   UNL A   1      32.104  25.372  25.797  1.00  0.00     0.001 A 
ATOM     12  C   UNL A   1      33.174  26.212  26.100  1.00  0.00     0.008 A 
BRANCH   8  13
ATOM     13  C   UNL A   1      29.833  27.757  23.835  1.00  0.00     0.105 C 
BRANCH  13  14
ATOM     14  S   UNL A   1      29.902  29.544  23.460  1.00  0.00    -0.154 SA
BRANCH  14  15
ATOM     15  C   UNL A   1      28.317  29.880  22.565  1.00  0.00     0.046 C 
ATOM     16  C   UNL A   1      27.201  28.932  22.983  1.00  0.00     0.019 C 
BRANCH  15  17
ATOM     17  C   UNL A   1      27.972  31.371  22.394  1.00  0.00     0.042 C 
BRANCH  17  18
ATOM     18  C   UNL A   1      28.809  32.464  23.060  1.00  0.00     0.157 C 
BRANCH  18  19
ATOM     19  O   UNL A   1      28.390  33.782  22.788  1.00  0.00    -0.396 OA
ATOM     20  H   UNL A   1      28.990  34.184  22.141  1.00  0.00     0.210 HD
ENDBRANCH  18  19
ENDBRANCH  17  18
ENDBRANCH  15  17
ENDBRANCH  14  15
ENDBRANCH  13  14
ENDBRANCH   8  13
ENDBRANCH   6   7
ENDBRANCH   3   5
ENDBRANCH   2   3
ENDBRANCH   1   2
BRANCH   1  21
ATOM     21  C   UNL A   1      35.213  33.561  28.626  1.00  0.00     0.202 C 
BRANCH  21  22
ATOM     22  O   UNL A   1      34.109  33.892  27.785  1.00  0.00    -0.374 OA
BRANCH  22  23
ATOM     23  C   UNL A   1      33.003  34.558  28.399  1.00  0.00     0.202 C 
BRANCH  23  24
ATOM     24  C   UNL A   1      33.325  35.457  29.600  1.00  0.00     0.261 C 
BRANCH  24  25
ATOM     25  O   UNL A   1      32.604  35.064  30.783  1.00  0.00    -0.460 OA
BRANCH  25  26
ATOM     26  C   UNL A   1      33.002  35.670  31.928  1.00  0.00     0.338 C 
ATOM     27  O   UNL A   1      32.445  36.594  32.504  1.00  0.00    -0.246 OA
BRANCH  26  28
ATOM     28  C   UNL A   1      34.132  34.926  32.515  1.00  0.00     0.060 A 
ATOM     29  C   UNL A   1      35.425  35.429  32.313  1.00  0.00     0.016 A 
ATOM     30  C   UNL A   1      33.937  33.732  33.211  1.00  0.00     0.016 A 
ATOM     31  C   UNL A   1      36.531  34.725  32.789  1.00  0.00     0.010 A 
ATOM     32  C   UNL A   1      35.049  33.022  33.677  1.00  0.00     0.010 A 
ATOM     33  C   UNL A   1      36.352  33.504  33.452  1.00  0.00    -0.014 A 
BRANCH  33  34
ATOM     34  C   UNL A   1      37.525  32.672  33.816  1.00  0.00     0.031 A 
ATOM     35  C   UNL A   1      38.324  33.029  35.038  1.00  0.00     0.074 A 
ATOM     36  C   UNL A   1      37.876  31.614  33.062  1.00  0.00     0.049 A 
ATOM     37  N   UNL A   1      39.437  32.510  35.484  1.00  0.00    -0.248 NA
ATOM     38  C   UNL A   1      37.795  34.127  35.862  1.00  0.00     0.031 C 
ATOM     39  C   UNL A   1      37.147  31.140  31.886  1.00  0.00     0.029 A 
ATOM     40  N   UNL A   1      38.943  30.758  33.164  1.00  0.00    -0.354 N 
ATOM     41  C   UNL A   1      39.749  33.217  36.641  1.00  0.00     0.074 A 
ATOM     42  C   UNL A   1      38.721  34.225  36.804  1.00  0.00     0.031 C 
ATOM     43  C   UNL A   1      37.801  30.088  31.364  1.00  0.00     0.029 A 
ATOM     44  C   UNL A   1      39.016  29.844  32.138  1.00  0.00     0.049 A 
ATOM     45  H   UNL A   1      39.594  30.794  33.902  1.00  0.00     0.167 HD
ATOM     46  C   UNL A   1      40.794  33.039  37.486  1.00  0.00     0.034 A 
ATOM     47  C   UNL A   1      39.973  28.943  31.838  1.00  0.00     0.034 A 
ATOM     48  C   UNL A   1      41.818  32.039  37.297  1.00  0.00     0.049 A 
ATOM     49  C   UNL A   1      41.184  28.835  32.733  1.00  0.00     0.074 A 
ATOM     50  C   UNL A   1      42.909  31.759  38.101  1.00  0.00     0.029 A 
ATOM     51  N   UNL A   1      41.888  31.167  36.218  1.00  0.00    -0.354 N 
ATOM     52  N   UNL A   1      41.468  29.506  33.826  1.00  0.00    -0.248 NA
ATOM     53  C   UNL A   1      42.207  27.850  32.353  1.00  0.00     0.031 C 
ATOM     54  C   UNL A   1      43.676  30.772  37.473  1.00  0.00     0.029 A 
ATOM     55  C   UNL A   1      43.025  30.380  36.315  1.00  0.00     0.049 A 
ATOM     56  H   UNL A   1      41.228  31.117  35.490  1.00  0.00     0.167 HD
ATOM     57  C   UNL A   1      42.686  29.003  34.277  1.00  0.00     0.074 A 
ATOM     58  C   UNL A   1      43.078  27.966  33.344  1.00  0.00     0.031 C 
ATOM     59  C   UNL A   1      43.412  29.359  35.368  1.00  0.00     0.034 A 
BRANCH  46  60
ATOM     60  C   UNL A   1      40.907  33.984  38.657  1.00  0.00     0.023 A 
ATOM     61  C   UNL A   1      41.706  35.139  38.602  1.00  0.00     0.031 A 
ATOM     62  C   UNL A   1      40.226  33.711  39.856  1.00  0.00     0.131 A 
ATOM     63  C   UNL A   1      41.859  35.939  39.745  1.00  0.00     0.055 A 
ATOM     64  C   UNL A   1      40.321  34.552  40.966  1.00  0.00     0.041 A 
ATOM     65  F   UNL A   1      39.466  32.610  39.975  1.00  0.00    -0.206 F 
ATOM     66  C   UNL A   1      41.153  35.668  40.919  1.00  0.00     0.022 A 
BRANCH  63  67
ATOM     67  S   UNL A   1      43.101  37.261  39.720  1.00  0.00     0.124 S 
ATOM     68  O   UNL A   1      42.618  38.139  40.783  1.00  0.00    -0.237 OA
ATOM     69  O   UNL A   1      44.335  36.538  40.000  1.00  0.00    -0.237 OA
ATOM     70  O   UNL A   1      42.992  37.809  38.370  1.00  0.00    -0.744 OA
ENDBRANCH  63  67
ENDBRANCH  46  60
BRANCH  47  71
ATOM     71  C   UNL A   1      39.865  28.108  30.607  1.00  0.00     0.023 A 
ATOM     72  C   UNL A   1      40.569  28.437  29.440  1.00  0.00     0.031 A 
ATOM     73  C   UNL A   1      39.007  26.993  30.568  1.00  0.00     0.131 A 
ATOM     74  C   UNL A   1      40.373  27.688  28.270  1.00  0.00     0.055 A 
ATOM     75  C   UNL A   1      38.855  26.219  29.416  1.00  0.00     0.041 A 
ATOM     76  F   UNL A   1      38.307  26.635  31.656  1.00  0.00    -0.206 F 
ATOM     77  C   UNL A   1      39.531  26.573  28.253  1.00  0.00     0.022 A 
BRANCH  74  78
ATOM     78  S   UNL A   1      41.171  28.243  26.738  1.00  0.00     0.124 S 
ATOM     79  O   UNL A   1      41.114  27.036  25.920  1.00  0.00    -0.237 OA
ATOM     80  O   UNL A   1      40.302  29.339  26.325  1.00  0.00    -0.237 OA
ATOM     81  O   UNL A   1      42.508  28.639  27.174  1.00  0.00    -0.744 OA
ENDBRANCH  74  78
ENDBRANCH  47  71
BRANCH  59  82
ATOM     82  C   UNL A   1      44.683  28.590  35.631  1.00  0.00     0.023 A 
ATOM     83  C   UNL A   1      44.683  27.383  36.354  1.00  0.00     0.031 A 
ATOM     84  C   UNL A   1      45.912  29.070  35.146  1.00  0.00     0.131 A 
ATOM     85  C   UNL A   1      45.894  26.721  36.607  1.00  0.00     0.055 A 
ATOM     86  C   UNL A   1      47.107  28.379  35.354  1.00  0.00     0.041 A 
ATOM     87  F   UNL A   1      45.970  30.218  34.452  1.00  0.00    -0.206 F 
ATOM     88  C   UNL A   1      47.103  27.202  36.096  1.00  0.00     0.022 A 
BRANCH  85  89
ATOM     89  S   UNL A   1      45.881  25.254  37.673  1.00  0.00     0.124 S 
ATOM     90  O   UNL A   1      45.060  25.701  38.795  1.00  0.00    -0.237 OA
ATOM     91  O   UNL A   1      45.282  24.242  36.808  1.00  0.00    -0.237 OA
ATOM     92  O   UNL A   1      47.294  25.043  37.985  1.00  0.00    -0.744 OA
ENDBRANCH  85  89
ENDBRANCH  59  82
ENDBRANCH  33  34
ENDBRANCH  26  28
ENDBRANCH  25  26
ENDBRANCH  24  25
ENDBRANCH  23  24
ENDBRANCH  22  23
ENDBRANCH  21  22
ENDBRANCH   1  21
TORSDOF 24
ENDMDL
