MODEL 1
REMARK VINA RESULT:     -11.8      0.000      0.000
REMARK SMILES O=C(OCCOCCOC(=O)[C@H]1CC=CC[C@@H]1C(=O)NC1CCCCC1)c1ccc(-c2c3nc(c(-c4cc(S(=O)(=O)[O-])ccc4F)c4ccc([nH]4)c(-c4cc(S(=O)(=O)[O-])ccc4F)c4nc(c(-c5cc(S(=O)(=O)[O-])ccc5F)c5ccc2[nH]5)C=C4)C=C3)cc1
REMARK SMILES IDX 5 1 4 2 3 3 2 4 1 5 27 6 28 7 89 8 29 9 88 10 30 11 31 12
REMARK SMILES IDX 32 13 82 14 33 15 87 16 81 17 83 18 34 19 86 20 80 21 79 22
REMARK SMILES IDX 35 24 67 25 47 26 66 27 48 28 51 29 65 30 84 31 49 32 50 33
REMARK SMILES IDX 64 35 85 36 52 37 36 38 37 39 45 40 38 41 44 42 46 43 43 44
REMARK SMILES IDX 39 45 40 46 41 47 42 48 68 49 69 50 77 51 70 52 76 53 78 54
REMARK SMILES IDX 75 55 71 56 72 57 73 58 74 59 53 60 54 61 62 62 55 63 61 64
REMARK SMILES IDX 63 65 60 66 56 67 57 68 58 69 59 70 6 71 7 72 8 73 9 74
REMARK SMILES IDX 10 75 11 76 12 77 13 78 17 79 14 80 16 81 15 82 18 83 19 84
REMARK SMILES IDX 20 85 21 87 22 88 26 89 23 90 25 91 24 92
REMARK H PARENT 83 23 51 34 20 86
REMARK Flexibility Score: inf
ROOT
ATOM      1  C   UNL A   1      31.641  28.961  25.322  1.00  0.00     0.202 C 
ENDROOT
BRANCH   1   2
ATOM      2  C   UNL A   1      31.639  30.433  25.736  1.00  0.00     0.261 C 
BRANCH   2   3
ATOM      3  O   UNL A   1      32.235  30.598  27.028  1.00  0.00    -0.460 OA
BRANCH   3   4
ATOM      4  C   UNL A   1      33.183  31.526  27.322  1.00  0.00     0.338 C 
ATOM      5  O   UNL A   1      32.894  32.719  27.243  1.00  0.00    -0.246 OA
BRANCH   4   6
ATOM      6  C   UNL A   1      34.511  31.146  27.896  1.00  0.00     0.060 A 
ATOM      7  C   UNL A   1      34.917  29.849  28.239  1.00  0.00     0.016 A 
ATOM      8  C   UNL A   1      35.435  32.191  28.036  1.00  0.00     0.016 A 
ATOM      9  C   UNL A   1      36.170  29.601  28.780  1.00  0.00     0.010 A 
ATOM     10  C   UNL A   1      36.708  31.947  28.550  1.00  0.00     0.010 A 
ATOM     11  C   UNL A   1      37.062  30.652  28.947  1.00  0.00    -0.014 A 
BRANCH  11  12
ATOM     12  C   UNL A   1      38.316  30.418  29.676  1.00  0.00     0.031 A 
ATOM     13  C   UNL A   1      39.328  29.530  29.033  1.00  0.00     0.074 A 
ATOM     14  C   UNL A   1      38.531  31.017  30.856  1.00  0.00     0.049 A 
ATOM     15  N   UNL A   1      40.373  28.949  29.548  1.00  0.00    -0.248 NA
ATOM     16  C   UNL A   1      39.115  29.252  27.603  1.00  0.00     0.031 C 
ATOM     17  C   UNL A   1      37.647  32.011  31.469  1.00  0.00     0.029 A 
ATOM     18  N   UNL A   1      39.548  30.868  31.758  1.00  0.00    -0.354 N 
ATOM     19  C   UNL A   1      40.915  28.186  28.520  1.00  0.00     0.074 A 
ATOM     20  C   UNL A   1      40.087  28.393  27.352  1.00  0.00     0.031 C 
ATOM     21  C   UNL A   1      38.148  32.361  32.665  1.00  0.00     0.029 A 
ATOM     22  C   UNL A   1      39.331  31.550  32.931  1.00  0.00     0.049 A 
ATOM     23  H   UNL A   1      40.353  30.328  31.583  1.00  0.00     0.167 HD
ATOM     24  C   UNL A   1      41.992  27.365  28.578  1.00  0.00     0.034 A 
ATOM     25  C   UNL A   1      39.975  31.454  34.109  1.00  0.00     0.034 A 
ATOM     26  C   UNL A   1      42.745  27.183  29.795  1.00  0.00     0.049 A 
ATOM     27  C   UNL A   1      41.116  30.472  34.194  1.00  0.00     0.074 A 
ATOM     28  C   UNL A   1      43.794  26.323  30.057  1.00  0.00     0.029 A 
ATOM     29  N   UNL A   1      42.501  27.887  30.974  1.00  0.00    -0.354 N 
ATOM     30  N   UNL A   1      41.574  29.663  33.263  1.00  0.00    -0.248 NA
ATOM     31  C   UNL A   1      41.814  30.374  35.479  1.00  0.00     0.031 C 
ATOM     32  C   UNL A   1      44.146  26.471  31.406  1.00  0.00     0.029 A 
ATOM     33  C   UNL A   1      43.366  27.473  31.970  1.00  0.00     0.049 A 
ATOM     34  H   UNL A   1      41.812  28.582  31.081  1.00  0.00     0.167 HD
ATOM     35  C   UNL A   1      42.625  28.964  33.845  1.00  0.00     0.074 A 
ATOM     36  C   UNL A   1      42.735  29.457  35.207  1.00  0.00     0.031 C 
ATOM     37  C   UNL A   1      43.427  28.006  33.313  1.00  0.00     0.034 A 
BRANCH  24  38
ATOM     38  C   UNL A   1      42.279  26.544  27.343  1.00  0.00     0.023 A 
ATOM     39  C   UNL A   1      41.815  25.222  27.205  1.00  0.00     0.031 A 
ATOM     40  C   UNL A   1      43.166  27.030  26.367  1.00  0.00     0.131 A 
ATOM     41  C   UNL A   1      42.336  24.398  26.193  1.00  0.00     0.055 A 
ATOM     42  C   UNL A   1      43.606  26.234  25.305  1.00  0.00     0.041 A 
ATOM     43  F   UNL A   1      43.669  28.272  26.456  1.00  0.00    -0.206 F 
ATOM     44  C   UNL A   1      43.212  24.902  25.229  1.00  0.00     0.022 A 
BRANCH  41  45
ATOM     45  S   UNL A   1      42.020  22.612  26.287  1.00  0.00     0.124 S 
ATOM     46  O   UNL A   1      40.560  22.578  26.419  1.00  0.00    -0.237 OA
ATOM     47  O   UNL A   1      42.560  22.124  25.037  1.00  0.00    -0.237 OA
ATOM     48  O   UNL A   1      42.748  22.199  27.493  1.00  0.00    -0.744 OA
ENDBRANCH  41  45
ENDBRANCH  24  38
BRANCH  25  49
ATOM     49  C   UNL A   1      39.482  32.217  35.290  1.00  0.00     0.023 A 
ATOM     50  C   UNL A   1      39.924  33.520  35.564  1.00  0.00     0.031 A 
ATOM     51  C   UNL A   1      38.516  31.656  36.150  1.00  0.00     0.131 A 
ATOM     52  C   UNL A   1      39.402  34.218  36.668  1.00  0.00     0.055 A 
ATOM     53  C   UNL A   1      37.972  32.368  37.221  1.00  0.00     0.041 A 
ATOM     54  F   UNL A   1      38.056  30.413  35.934  1.00  0.00    -0.206 F 
ATOM     55  C   UNL A   1      38.419  33.656  37.487  1.00  0.00     0.022 A 
BRANCH  52  56
ATOM     56  S   UNL A   1      40.050  35.871  37.044  1.00  0.00     0.124 S 
ATOM     57  O   UNL A   1      39.694  36.612  35.839  1.00  0.00    -0.237 OA
ATOM     58  O   UNL A   1      39.313  36.220  38.254  1.00  0.00    -0.237 OA
ATOM     59  O   UNL A   1      41.482  35.641  37.234  1.00  0.00    -0.744 OA
ENDBRANCH  52  56
ENDBRANCH  25  49
BRANCH  37  60
ATOM     60  C   UNL A   1      44.521  27.481  34.201  1.00  0.00     0.023 A 
ATOM     61  C   UNL A   1      44.345  26.328  34.982  1.00  0.00     0.031 A 
ATOM     62  C   UNL A   1      45.767  28.130  34.226  1.00  0.00     0.131 A 
ATOM     63  C   UNL A   1      45.398  25.873  35.787  1.00  0.00     0.055 A 
ATOM     64  C   UNL A   1      46.825  27.647  34.994  1.00  0.00     0.041 A 
ATOM     65  F   UNL A   1      45.977  29.234  33.491  1.00  0.00    -0.206 F 
ATOM     66  C   UNL A   1      46.641  26.516  35.785  1.00  0.00     0.022 A 
BRANCH  63  67
ATOM     67  S   UNL A   1      45.113  24.448  36.870  1.00  0.00     0.124 S 
ATOM     68  O   UNL A   1      46.476  24.027  37.178  1.00  0.00    -0.237 OA
ATOM     69  O   UNL A   1      44.361  25.036  37.974  1.00  0.00    -0.237 OA
ATOM     70  O   UNL A   1      44.354  23.526  36.027  1.00  0.00    -0.744 OA
ENDBRANCH  63  67
ENDBRANCH  37  60
ENDBRANCH  11  12
ENDBRANCH   4   6
ENDBRANCH   3   4
ENDBRANCH   2   3
ENDBRANCH   1   2
BRANCH   1  71
ATOM     71  O   UNL A   1      32.851  28.284  25.659  1.00  0.00    -0.374 OA
BRANCH  71  72
ATOM     72  C   UNL A   1      33.893  28.442  24.701  1.00  0.00     0.202 C 
BRANCH  72  73
ATOM     73  C   UNL A   1      33.763  27.448  23.541  1.00  0.00     0.261 C 
BRANCH  73  74
ATOM     74  O   UNL A   1      33.652  26.079  23.995  1.00  0.00    -0.463 OA
BRANCH  74  75
ATOM     75  C   UNL A   1      33.782  25.171  22.984  1.00  0.00     0.310 C 
ATOM     76  O   UNL A   1      33.851  25.494  21.803  1.00  0.00    -0.252 OA
BRANCH  75  77
ATOM     77  C   UNL A   1      33.675  23.711  23.453  1.00  0.00     0.115 C 
ATOM     78  C   UNL A   1      35.088  23.136  23.315  1.00  0.00     0.043 C 
ATOM     79  C   UNL A   1      33.056  23.469  24.846  1.00  0.00     0.096 C 
ATOM     80  C   UNL A   1      35.966  23.336  24.505  1.00  0.00    -0.030 C 
ATOM     81  C   UNL A   1      34.021  23.344  26.050  1.00  0.00     0.041 C 
ATOM     82  C   UNL A   1      35.478  23.434  25.743  1.00  0.00    -0.030 C 
BRANCH  79  83
ATOM     83  C   UNL A   1      31.985  22.387  25.029  1.00  0.00     0.224 C 
ATOM     84  O   UNL A   1      30.882  22.738  25.483  1.00  0.00    -0.275 OA
ATOM     85  N   UNL A   1      32.131  21.043  24.930  1.00  0.00    -0.353 N 
ATOM     86  H   UNL A   1      31.592  20.575  25.609  1.00  0.00     0.163 HD
BRANCH  85  87
ATOM     87  C   UNL A   1      32.871  20.090  24.089  1.00  0.00     0.082 C 
ATOM     88  C   UNL A   1      33.674  19.123  24.958  1.00  0.00     0.025 C 
ATOM     89  C   UNL A   1      32.137  19.544  22.860  1.00  0.00     0.025 C 
ATOM     90  C   UNL A   1      34.277  17.974  24.172  1.00  0.00     0.002 C 
ATOM     91  C   UNL A   1      32.511  18.121  22.397  1.00  0.00     0.002 C 
ATOM     92  C   UNL A   1      33.186  17.225  23.436  1.00  0.00     0.000 C 
ENDBRANCH  85  87
ENDBRANCH  79  83
ENDBRANCH  75  77
ENDBRANCH  74  75
ENDBRANCH  73  74
ENDBRANCH  72  73
ENDBRANCH  71  72
ENDBRANCH   1  71
TORSDOF 19
ENDMDL
MODEL 2
REMARK VINA RESULT:     -11.8      4.730     10.283
REMARK SMILES O=C(OCCOCCOC(=O)[C@H]1CC=CC[C@@H]1C(=O)NC1CCCCC1)c1ccc(-c2c3nc(c(-c4cc(S(=O)(=O)[O-])ccc4F)c4ccc([nH]4)c(-c4cc(S(=O)(=O)[O-])ccc4F)c4nc(c(-c5cc(S(=O)(=O)[O-])ccc5F)c5ccc2[nH]5)C=C4)C=C3)cc1
REMARK SMILES IDX 5 1 4 2 3 3 2 4 1 5 27 6 28 7 89 8 29 9 88 10 30 11 31 12
REMARK SMILES IDX 32 13 82 14 33 15 87 16 81 17 83 18 34 19 86 20 80 21 79 22
REMARK SMILES IDX 35 24 67 25 47 26 66 27 48 28 51 29 65 30 84 31 49 32 50 33
REMARK SMILES IDX 64 35 85 36 52 37 36 38 37 39 45 40 38 41 44 42 46 43 43 44
REMARK SMILES IDX 39 45 40 46 41 47 42 48 68 49 69 50 77 51 70 52 76 53 78 54
REMARK SMILES IDX 75 55 71 56 72 57 73 58 74 59 53 60 54 61 62 62 55 63 61 64
REMARK SMILES IDX 63 65 60 66 56 67 57 68 58 69 59 70 6 71 7 72 8 73 9 74
REMARK SMILES IDX 10 75 11 76 12 77 13 78 17 79 14 80 16 81 15 82 18 83 19 84
REMARK SMILES IDX 20 85 21 87 22 88 26 89 23 90 25 91 24 92
REMARK H PARENT 83 23 51 34 20 86
REMARK Flexibility Score: inf
ROOT
ATOM      1  C   UNL A   1      34.973  20.640  25.238  1.00  0.00     0.202 C 
ENDROOT
BRANCH   1   2
ATOM      2  C   UNL A   1      36.455  20.362  24.991  1.00  0.00     0.261 C 
BRANCH   2   3
ATOM      3  O   UNL A   1      37.243  21.528  25.262  1.00  0.00    -0.460 OA
BRANCH   3   4
ATOM      4  C   UNL A   1      38.486  21.503  25.809  1.00  0.00     0.338 C 
ATOM      5  O   UNL A   1      39.161  20.481  25.709  1.00  0.00    -0.246 OA
BRANCH   4   6
ATOM      6  C   UNL A   1      39.123  22.730  26.382  1.00  0.00     0.060 A 
ATOM      7  C   UNL A   1      38.718  24.051  26.147  1.00  0.00     0.016 A 
ATOM      8  C   UNL A   1      40.177  22.507  27.279  1.00  0.00     0.016 A 
ATOM      9  C   UNL A   1      39.385  25.126  26.717  1.00  0.00     0.010 A 
ATOM     10  C   UNL A   1      40.834  23.578  27.881  1.00  0.00     0.010 A 
ATOM     11  C   UNL A   1      40.451  24.890  27.575  1.00  0.00    -0.014 A 
BRANCH  11  12
ATOM     12  C   UNL A   1      41.262  26.025  28.039  1.00  0.00     0.031 A 
ATOM     13  C   UNL A   1      40.581  27.060  28.869  1.00  0.00     0.074 A 
ATOM     14  C   UNL A   1      42.568  26.085  27.740  1.00  0.00     0.049 A 
ATOM     15  N   UNL A   1      40.966  28.265  29.178  1.00  0.00    -0.248 NA
ATOM     16  C   UNL A   1      39.269  26.677  29.416  1.00  0.00     0.031 C 
ATOM     17  C   UNL A   1      43.326  25.034  27.060  1.00  0.00     0.029 A 
ATOM     18  N   UNL A   1      43.484  27.077  27.957  1.00  0.00    -0.354 N 
ATOM     19  C   UNL A   1      39.917  28.811  29.910  1.00  0.00     0.074 A 
ATOM     20  C   UNL A   1      38.890  27.797  30.007  1.00  0.00     0.031 C 
ATOM     21  C   UNL A   1      44.590  25.452  26.886  1.00  0.00     0.029 A 
ATOM     22  C   UNL A   1      44.698  26.826  27.363  1.00  0.00     0.049 A 
ATOM     23  H   UNL A   1      43.293  27.887  28.483  1.00  0.00     0.167 HD
ATOM     24  C   UNL A   1      39.828  30.064  30.419  1.00  0.00     0.034 A 
ATOM     25  C   UNL A   1      45.739  27.655  27.158  1.00  0.00     0.034 A 
ATOM     26  C   UNL A   1      40.884  31.032  30.246  1.00  0.00     0.049 A 
ATOM     27  C   UNL A   1      45.598  29.074  27.646  1.00  0.00     0.074 A 
ATOM     28  C   UNL A   1      40.919  32.365  30.607  1.00  0.00     0.029 A 
ATOM     29  N   UNL A   1      42.106  30.751  29.636  1.00  0.00    -0.354 N 
ATOM     30  N   UNL A   1      44.571  29.638  28.245  1.00  0.00    -0.248 NA
ATOM     31  C   UNL A   1      46.737  29.970  27.423  1.00  0.00     0.031 C 
ATOM     32  C   UNL A   1      42.138  32.899  30.168  1.00  0.00     0.029 A 
ATOM     33  C   UNL A   1      42.896  31.885  29.595  1.00  0.00     0.049 A 
ATOM     34  H   UNL A   1      42.370  29.869  29.286  1.00  0.00     0.167 HD
ATOM     35  C   UNL A   1      44.942  30.957  28.481  1.00  0.00     0.074 A 
ATOM     36  C   UNL A   1      46.293  31.097  27.967  1.00  0.00     0.031 C 
ATOM     37  C   UNL A   1      44.240  31.961  29.067  1.00  0.00     0.034 A 
BRANCH  24  38
ATOM     38  C   UNL A   1      38.510  30.440  31.054  1.00  0.00     0.023 A 
ATOM     39  C   UNL A   1      37.454  30.991  30.304  1.00  0.00     0.031 A 
ATOM     40  C   UNL A   1      38.368  30.401  32.452  1.00  0.00     0.131 A 
ATOM     41  C   UNL A   1      36.366  31.591  30.960  1.00  0.00     0.055 A 
ATOM     42  C   UNL A   1      37.237  30.914  33.095  1.00  0.00     0.041 A 
ATOM     43  F   UNL A   1      39.351  29.916  33.227  1.00  0.00    -0.206 F 
ATOM     44  C   UNL A   1      36.241  31.537  32.350  1.00  0.00     0.022 A 
BRANCH  41  45
ATOM     45  S   UNL A   1      35.236  32.628  29.987  1.00  0.00     0.124 S 
ATOM     46  O   UNL A   1      34.220  32.974  30.986  1.00  0.00    -0.237 OA
ATOM     47  O   UNL A   1      36.092  33.707  29.544  1.00  0.00    -0.237 OA
ATOM     48  O   UNL A   1      34.764  31.723  28.932  1.00  0.00    -0.744 OA
ENDBRANCH  41  45
ENDBRANCH  24  38
BRANCH  25  49
ATOM     49  C   UNL A   1      46.919  27.187  26.378  1.00  0.00     0.023 A 
ATOM     50  C   UNL A   1      48.030  26.599  27.001  1.00  0.00     0.031 A 
ATOM     51  C   UNL A   1      46.931  27.286  24.972  1.00  0.00     0.131 A 
ATOM     52  C   UNL A   1      49.106  26.137  26.221  1.00  0.00     0.055 A 
ATOM     53  C   UNL A   1      47.982  26.789  24.200  1.00  0.00     0.041 A 
ATOM     54  F   UNL A   1      45.892  27.838  24.323  1.00  0.00    -0.206 F 
ATOM     55  C   UNL A   1      49.081  26.214  24.826  1.00  0.00     0.022 A 
BRANCH  52  56
ATOM     56  S   UNL A   1      50.564  25.454  27.060  1.00  0.00     0.124 S 
ATOM     57  O   UNL A   1      51.458  25.192  25.938  1.00  0.00    -0.237 OA
ATOM     58  O   UNL A   1      50.947  26.549  27.945  1.00  0.00    -0.237 OA
ATOM     59  O   UNL A   1      50.044  24.265  27.734  1.00  0.00    -0.744 OA
ENDBRANCH  52  56
ENDBRANCH  25  49
BRANCH  37  60
ATOM     60  C   UNL A   1      44.956  33.274  29.223  1.00  0.00     0.023 A 
ATOM     61  C   UNL A   1      44.883  34.272  28.239  1.00  0.00     0.031 A 
ATOM     62  C   UNL A   1      45.685  33.533  30.396  1.00  0.00     0.131 A 
ATOM     63  C   UNL A   1      45.561  35.484  28.434  1.00  0.00     0.055 A 
ATOM     64  C   UNL A   1      46.319  34.756  30.604  1.00  0.00     0.041 A 
ATOM     65  F   UNL A   1      45.776  32.606  31.362  1.00  0.00    -0.206 F 
ATOM     66  C   UNL A   1      46.264  35.738  29.617  1.00  0.00     0.022 A 
BRANCH  63  67
ATOM     67  S   UNL A   1      45.545  36.715  27.105  1.00  0.00     0.124 S 
ATOM     68  O   UNL A   1      46.326  37.800  27.690  1.00  0.00    -0.237 OA
ATOM     69  O   UNL A   1      46.174  35.997  26.002  1.00  0.00    -0.237 OA
ATOM     70  O   UNL A   1      44.123  37.002  26.924  1.00  0.00    -0.744 OA
ENDBRANCH  63  67
ENDBRANCH  37  60
ENDBRANCH  11  12
ENDBRANCH   4   6
ENDBRANCH   3   4
ENDBRANCH   2   3
ENDBRANCH   1   2
BRANCH   1  71
ATOM     71  O   UNL A   1      34.690  22.018  25.478  1.00  0.00    -0.374 OA
BRANCH  71  72
ATOM     72  C   UNL A   1      33.307  22.308  25.650  1.00  0.00     0.202 C 
BRANCH  72  73
ATOM     73  C   UNL A   1      33.080  23.476  26.616  1.00  0.00     0.261 C 
BRANCH  73  74
ATOM     74  O   UNL A   1      32.303  24.541  26.023  1.00  0.00    -0.463 OA
BRANCH  74  75
ATOM     75  C   UNL A   1      33.061  25.617  25.661  1.00  0.00     0.310 C 
ATOM     76  O   UNL A   1      34.282  25.639  25.775  1.00  0.00    -0.252 OA
BRANCH  75  77
ATOM     77  C   UNL A   1      32.233  26.843  25.249  1.00  0.00     0.115 C 
ATOM     78  C   UNL A   1      31.251  27.076  26.402  1.00  0.00     0.043 C 
ATOM     79  C   UNL A   1      33.016  28.114  24.855  1.00  0.00     0.096 C 
ATOM     80  C   UNL A   1      31.770  27.937  27.505  1.00  0.00    -0.030 C 
ATOM     81  C   UNL A   1      33.264  29.175  25.954  1.00  0.00     0.041 C 
ATOM     82  C   UNL A   1      32.687  28.885  27.298  1.00  0.00    -0.030 C 
BRANCH  79  83
ATOM     83  C   UNL A   1      32.636  28.882  23.582  1.00  0.00     0.224 C 
ATOM     84  O   UNL A   1      33.497  28.983  22.692  1.00  0.00    -0.275 OA
ATOM     85  N   UNL A   1      31.531  29.634  23.360  1.00  0.00    -0.353 N 
ATOM     86  H   UNL A   1      31.747  30.436  22.830  1.00  0.00     0.163 HD
BRANCH  85  87
ATOM     87  C   UNL A   1      30.099  29.584  23.690  1.00  0.00     0.082 C 
ATOM     88  C   UNL A   1      29.453  30.952  23.476  1.00  0.00     0.025 C 
ATOM     89  C   UNL A   1      29.335  28.330  23.249  1.00  0.00     0.025 C 
ATOM     90  C   UNL A   1      27.941  30.921  23.576  1.00  0.00     0.002 C 
ATOM     91  C   UNL A   1      27.840  28.504  22.913  1.00  0.00     0.002 C 
ATOM     92  C   UNL A   1      27.380  29.924  22.583  1.00  0.00     0.000 C 
ENDBRANCH  85  87
ENDBRANCH  79  83
ENDBRANCH  75  77
ENDBRANCH  74  75
ENDBRANCH  73  74
ENDBRANCH  72  73
ENDBRANCH  71  72
ENDBRANCH   1  71
TORSDOF 19
ENDMDL
MODEL 3
REMARK VINA RESULT:     -11.8      1.332      2.067
REMARK SMILES O=C(OCCOCCOC(=O)[C@H]1CC=CC[C@@H]1C(=O)NC1CCCCC1)c1ccc(-c2c3nc(c(-c4cc(S(=O)(=O)[O-])ccc4F)c4ccc([nH]4)c(-c4cc(S(=O)(=O)[O-])ccc4F)c4nc(c(-c5cc(S(=O)(=O)[O-])ccc5F)c5ccc2[nH]5)C=C4)C=C3)cc1
REMARK SMILES IDX 5 1 4 2 3 3 2 4 1 5 27 6 28 7 89 8 29 9 88 10 30 11 31 12
REMARK SMILES IDX 32 13 82 14 33 15 87 16 81 17 83 18 34 19 86 20 80 21 79 22
REMARK SMILES IDX 35 24 67 25 47 26 66 27 48 28 51 29 65 30 84 31 49 32 50 33
REMARK SMILES IDX 64 35 85 36 52 37 36 38 37 39 45 40 38 41 44 42 46 43 43 44
REMARK SMILES IDX 39 45 40 46 41 47 42 48 68 49 69 50 77 51 70 52 76 53 78 54
REMARK SMILES IDX 75 55 71 56 72 57 73 58 74 59 53 60 54 61 62 62 55 63 61 64
REMARK SMILES IDX 63 65 60 66 56 67 57 68 58 69 59 70 6 71 7 72 8 73 9 74
REMARK SMILES IDX 10 75 11 76 12 77 13 78 17 79 14 80 16 81 15 82 18 83 19 84
REMARK SMILES IDX 20 85 21 87 22 88 26 89 23 90 25 91 24 92
REMARK H PARENT 83 23 51 34 20 86
REMARK Flexibility Score: inf
ROOT
ATOM      1  C   UNL A   1      31.424  29.542  25.125  1.00  0.00     0.202 C 
ENDROOT
BRANCH   1   2
ATOM      2  C   UNL A   1      31.408  30.817  25.968  1.00  0.00     0.261 C 
BRANCH   2   3
ATOM      3  O   UNL A   1      32.295  30.697  27.087  1.00  0.00    -0.460 OA
BRANCH   3   4
ATOM      4  C   UNL A   1      33.242  31.614  27.415  1.00  0.00     0.338 C 
ATOM      5  O   UNL A   1      32.955  32.809  27.377  1.00  0.00    -0.246 OA
BRANCH   4   6
ATOM      6  C   UNL A   1      34.569  31.214  27.980  1.00  0.00     0.060 A 
ATOM      7  C   UNL A   1      34.942  29.917  28.359  1.00  0.00     0.016 A 
ATOM      8  C   UNL A   1      35.525  32.234  28.070  1.00  0.00     0.016 A 
ATOM      9  C   UNL A   1      36.196  29.649  28.887  1.00  0.00     0.010 A 
ATOM     10  C   UNL A   1      36.799  31.970  28.571  1.00  0.00     0.010 A 
ATOM     11  C   UNL A   1      37.122  30.678  29.004  1.00  0.00    -0.014 A 
BRANCH  11  12
ATOM     12  C   UNL A   1      38.381  30.431  29.720  1.00  0.00     0.031 A 
ATOM     13  C   UNL A   1      39.372  29.524  29.071  1.00  0.00     0.074 A 
ATOM     14  C   UNL A   1      38.618  31.034  30.894  1.00  0.00     0.049 A 
ATOM     15  N   UNL A   1      40.414  28.931  29.577  1.00  0.00    -0.248 NA
ATOM     16  C   UNL A   1      39.138  29.239  27.646  1.00  0.00     0.031 C 
ATOM     17  C   UNL A   1      37.757  32.045  31.510  1.00  0.00     0.029 A 
ATOM     18  N   UNL A   1      39.644  30.876  31.784  1.00  0.00    -0.354 N 
ATOM     19  C   UNL A   1      40.933  28.153  28.548  1.00  0.00     0.074 A 
ATOM     20  C   UNL A   1      40.095  28.365  27.389  1.00  0.00     0.031 C 
ATOM     21  C   UNL A   1      38.277  32.395  32.697  1.00  0.00     0.029 A 
ATOM     22  C   UNL A   1      39.452  31.569  32.955  1.00  0.00     0.049 A 
ATOM     23  H   UNL A   1      40.439  30.323  31.603  1.00  0.00     0.167 HD
ATOM     24  C   UNL A   1      41.999  27.317  28.599  1.00  0.00     0.034 A 
ATOM     25  C   UNL A   1      40.108  31.471  34.126  1.00  0.00     0.034 A 
ATOM     26  C   UNL A   1      42.763  27.131  29.809  1.00  0.00     0.049 A 
ATOM     27  C   UNL A   1      41.235  30.473  34.204  1.00  0.00     0.074 A 
ATOM     28  C   UNL A   1      43.803  26.259  30.064  1.00  0.00     0.029 A 
ATOM     29  N   UNL A   1      42.544  27.847  30.986  1.00  0.00    -0.354 N 
ATOM     30  N   UNL A   1      41.670  29.651  33.273  1.00  0.00    -0.248 NA
ATOM     31  C   UNL A   1      41.948  30.374  35.481  1.00  0.00     0.031 C 
ATOM     32  C   UNL A   1      44.173  26.410  31.407  1.00  0.00     0.029 A 
ATOM     33  C   UNL A   1      43.415  27.427  31.974  1.00  0.00     0.049 A 
ATOM     34  H   UNL A   1      41.866  28.553  31.096  1.00  0.00     0.167 HD
ATOM     35  C   UNL A   1      42.718  28.941  33.848  1.00  0.00     0.074 A 
ATOM     36  C   UNL A   1      42.852  29.442  35.205  1.00  0.00     0.031 C 
ATOM     37  C   UNL A   1      43.500  27.968  33.312  1.00  0.00     0.034 A 
BRANCH  24  38
ATOM     38  C   UNL A   1      42.259  26.483  27.367  1.00  0.00     0.023 A 
ATOM     39  C   UNL A   1      41.794  25.159  27.253  1.00  0.00     0.031 A 
ATOM     40  C   UNL A   1      43.122  26.961  26.365  1.00  0.00     0.131 A 
ATOM     41  C   UNL A   1      42.293  24.326  26.237  1.00  0.00     0.055 A 
ATOM     42  C   UNL A   1      43.539  26.155  25.302  1.00  0.00     0.041 A 
ATOM     43  F   UNL A   1      43.625  28.204  26.430  1.00  0.00    -0.206 F 
ATOM     44  C   UNL A   1      43.146  24.821  25.249  1.00  0.00     0.022 A 
BRANCH  41  45
ATOM     45  S   UNL A   1      41.983  22.540  26.357  1.00  0.00     0.124 S 
ATOM     46  O   UNL A   1      42.573  22.226  27.663  1.00  0.00    -0.237 OA
ATOM     47  O   UNL A   1      40.542  22.457  26.270  1.00  0.00    -0.237 OA
ATOM     48  O   UNL A   1      42.718  21.987  25.213  1.00  0.00    -0.744 OA
ENDBRANCH  41  45
ENDBRANCH  24  38
BRANCH  25  49
ATOM     49  C   UNL A   1      39.641  32.249  35.308  1.00  0.00     0.023 A 
ATOM     50  C   UNL A   1      40.073  33.563  35.544  1.00  0.00     0.031 A 
ATOM     51  C   UNL A   1      38.707  31.692  36.205  1.00  0.00     0.131 A 
ATOM     52  C   UNL A   1      39.575  34.274  36.652  1.00  0.00     0.055 A 
ATOM     53  C   UNL A   1      38.186  32.416  37.279  1.00  0.00     0.041 A 
ATOM     54  F   UNL A   1      38.258  30.440  36.026  1.00  0.00    -0.206 F 
ATOM     55  C   UNL A   1      38.624  33.714  37.509  1.00  0.00     0.022 A 
BRANCH  52  56
ATOM     56  S   UNL A   1      40.213  35.942  36.978  1.00  0.00     0.124 S 
ATOM     57  O   UNL A   1      39.569  36.264  38.246  1.00  0.00    -0.237 OA
ATOM     58  O   UNL A   1      41.653  35.713  37.028  1.00  0.00    -0.237 OA
ATOM     59  O   UNL A   1      39.747  36.715  35.828  1.00  0.00    -0.744 OA
ENDBRANCH  52  56
ENDBRANCH  25  49
BRANCH  37  60
ATOM     60  C   UNL A   1      44.596  27.433  34.191  1.00  0.00     0.023 A 
ATOM     61  C   UNL A   1      44.366  26.390  35.101  1.00  0.00     0.031 A 
ATOM     62  C   UNL A   1      45.895  27.956  34.076  1.00  0.00     0.131 A 
ATOM     63  C   UNL A   1      45.423  25.920  35.893  1.00  0.00     0.055 A 
ATOM     64  C   UNL A   1      46.952  27.453  34.833  1.00  0.00     0.041 A 
ATOM     65  F   UNL A   1      46.158  28.951  33.214  1.00  0.00    -0.206 F 
ATOM     66  C   UNL A   1      46.717  26.433  35.752  1.00  0.00     0.022 A 
BRANCH  63  67
ATOM     67  S   UNL A   1      45.081  24.650  37.139  1.00  0.00     0.124 S 
ATOM     68  O   UNL A   1      45.176  23.424  36.354  1.00  0.00    -0.237 OA
ATOM     69  O   UNL A   1      46.144  24.868  38.114  1.00  0.00    -0.237 OA
ATOM     70  O   UNL A   1      43.736  24.984  37.606  1.00  0.00    -0.744 OA
ENDBRANCH  63  67
ENDBRANCH  37  60
ENDBRANCH  11  12
ENDBRANCH   4   6
ENDBRANCH   3   4
ENDBRANCH   2   3
ENDBRANCH   1   2
BRANCH   1  71
ATOM     71  O   UNL A   1      30.672  29.656  23.918  1.00  0.00    -0.374 OA
BRANCH  71  72
ATOM     72  C   UNL A   1      31.244  28.970  22.809  1.00  0.00     0.202 C 
BRANCH  72  73
ATOM     73  C   UNL A   1      30.397  27.768  22.377  1.00  0.00     0.261 C 
BRANCH  73  74
ATOM     74  O   UNL A   1      31.114  26.517  22.491  1.00  0.00    -0.463 OA
BRANCH  74  75
ATOM     75  C   UNL A   1      30.662  25.736  23.516  1.00  0.00     0.310 C 
ATOM     76  O   UNL A   1      29.504  25.770  23.918  1.00  0.00    -0.252 OA
BRANCH  75  77
ATOM     77  C   UNL A   1      31.772  24.934  24.213  1.00  0.00     0.115 C 
ATOM     78  C   UNL A   1      33.042  25.211  23.404  1.00  0.00     0.043 C 
ATOM     79  C   UNL A   1      31.955  25.169  25.728  1.00  0.00     0.096 C 
ATOM     80  C   UNL A   1      33.806  26.421  23.827  1.00  0.00    -0.030 C 
ATOM     81  C   UNL A   1      33.010  26.212  26.171  1.00  0.00     0.041 C 
ATOM     82  C   UNL A   1      33.785  26.875  25.083  1.00  0.00    -0.030 C 
BRANCH  79  83
ATOM     83  C   UNL A   1      32.098  23.971  26.675  1.00  0.00     0.224 C 
ATOM     84  O   UNL A   1      31.118  23.672  27.379  1.00  0.00    -0.275 OA
ATOM     85  N   UNL A   1      33.224  23.286  26.990  1.00  0.00    -0.353 N 
ATOM     86  H   UNL A   1      33.232  23.032  27.942  1.00  0.00     0.163 HD
BRANCH  85  87
ATOM     87  C   UNL A   1      34.438  22.818  26.304  1.00  0.00     0.082 C 
ATOM     88  C   UNL A   1      34.073  22.062  25.029  1.00  0.00     0.025 C 
ATOM     89  C   UNL A   1      35.628  23.785  26.275  1.00  0.00     0.025 C 
ATOM     90  C   UNL A   1      35.272  21.749  24.155  1.00  0.00     0.002 C 
ATOM     91  C   UNL A   1      36.571  23.695  25.059  1.00  0.00     0.002 C 
ATOM     92  C   UNL A   1      36.002  23.030  23.806  1.00  0.00     0.000 C 
ENDBRANCH  85  87
ENDBRANCH  79  83
ENDBRANCH  75  77
ENDBRANCH  74  75
ENDBRANCH  73  74
ENDBRANCH  72  73
ENDBRANCH  71  72
ENDBRANCH   1  71
TORSDOF 19
ENDMDL
