MODEL 1
REMARK VINA RESULT:     -10.2      0.000      0.000
REMARK SMILES Cc1nc(-c2ccc(S(=O)(=O)N3CC[NH2+][C@H](C(=O)OCCOCCOC(=O)c4ccc(-c5c6nc(c(-c7cc(S(=O)(=O)[O-])ccc7F)c7ccc([nH]7)c(-c7cc(S(=O)(=O)[O-])ccc7F)c7nc(c(-c8cc(S(=O)(=O)[O-])ccc8F)c8ccc5[nH]8)C=C7)C=C6)cc4)C3)s2)cs1
REMARK SMILES IDX 22 1 21 2 20 3 19 4 17 5 18 6 16 7 12 8 13 9 91 10 14 11
REMARK SMILES IDX 15 12 9 15 10 16 11 17 8 18 5 19 6 20 92 21 7 22 4 23 1 24
REMARK SMILES IDX 2 25 3 26 94 27 93 28 23 29 24 30 25 31 26 32 27 33 28 34
REMARK SMILES IDX 29 35 90 36 30 37 89 38 31 39 32 40 33 41 83 42 34 43 88 44
REMARK SMILES IDX 82 45 84 46 35 47 87 48 81 49 80 50 36 52 68 53 48 54 67 55
REMARK SMILES IDX 49 56 52 57 66 58 85 59 50 60 51 61 65 63 86 64 53 65 37 66
REMARK SMILES IDX 38 67 46 68 39 69 45 70 47 71 44 72 40 73 41 74 42 75 43 76
REMARK SMILES IDX 69 77 70 78 78 79 71 80 77 81 79 82 76 83 72 84 73 85 74 86
REMARK SMILES IDX 75 87 54 88 55 89 63 90 56 91 62 92 64 93 61 94 57 95 58 96
REMARK SMILES IDX 59 97 60 98
REMARK H PARENT 15 13 15 14 84 51 52 62
REMARK Flexibility Score: inf
ROOT
ATOM      1  O   UNL A   1      37.088  21.931  24.207  1.00  0.00    -0.374 OA
ENDROOT
BRANCH   1   2
ATOM      2  C   UNL A   1      36.817  23.210  24.775  1.00  0.00     0.202 C 
BRANCH   2   3
ATOM      3  C   UNL A   1      35.369  23.564  25.124  1.00  0.00     0.261 C 
BRANCH   3   4
ATOM      4  O   UNL A   1      34.410  22.848  24.323  1.00  0.00    -0.459 OA
BRANCH   4   5
ATOM      5  C   UNL A   1      34.062  23.490  23.180  1.00  0.00     0.366 C 
ATOM      6  O   UNL A   1      34.570  23.294  22.079  1.00  0.00    -0.245 OA
BRANCH   5   7
ATOM      7  C   UNL A   1      32.939  24.493  23.353  1.00  0.00     0.308 C 
ATOM      8  N   UNL A   1      30.846  24.978  24.478  1.00  0.00    -0.185 NA
ATOM      9  C   UNL A   1      30.517  26.039  23.486  1.00  0.00     0.164 C 
ATOM     10  C   UNL A   1      31.658  23.876  23.896  1.00  0.00     0.180 C 
ATOM     11  C   UNL A   1      31.712  26.442  22.583  1.00  0.00     0.278 C 
ATOM     12  N   UNL A   1      32.660  25.375  22.181  1.00  0.00    -0.332 N 
ATOM     13  H   UNL A   1      33.530  25.798  21.858  1.00  0.00     0.347 HD
ATOM     14  H   UNL A   1      32.251  24.822  21.428  1.00  0.00     0.347 HD
BRANCH   8  15
ATOM     15  S   UNL A   1      31.078  25.351  26.121  1.00  0.00     0.253 S 
ATOM     16  O   UNL A   1      31.638  24.164  26.735  1.00  0.00    -0.206 OA
ATOM     17  O   UNL A   1      29.863  25.958  26.614  1.00  0.00    -0.206 OA
BRANCH  15  18
ATOM     18  C   UNL A   1      32.320  26.633  26.344  1.00  0.00     0.135 A 
ATOM     19  C   UNL A   1      33.358  28.807  26.935  1.00  0.00     0.055 A 
ATOM     20  C   UNL A   1      34.261  27.934  26.374  1.00  0.00     0.023 A 
ATOM     21  S   UNL A   1      31.819  28.099  27.109  1.00  0.00    -0.121 S 
ATOM     22  C   UNL A   1      33.649  26.722  25.974  1.00  0.00     0.034 A 
BRANCH  19  23
ATOM     23  C   UNL A   1      33.769  30.207  27.267  1.00  0.00     0.091 A 
ATOM     24  C   UNL A   1      32.519  33.596  27.750  1.00  0.00     0.079 C 
ATOM     25  C   UNL A   1      33.319  32.349  27.617  1.00  0.00     0.090 A 
ATOM     26  N   UNL A   1      32.812  31.211  27.210  1.00  0.00    -0.241 NA
ATOM     27  S   UNL A   1      34.991  32.309  28.005  1.00  0.00    -0.127 S 
ATOM     28  C   UNL A   1      35.020  30.620  27.672  1.00  0.00     0.096 A 
ENDBRANCH  19  23
ENDBRANCH  15  18
ENDBRANCH   8  15
ENDBRANCH   5   7
ENDBRANCH   4   5
ENDBRANCH   3   4
ENDBRANCH   2   3
ENDBRANCH   1   2
BRANCH   1  29
ATOM     29  C   UNL A   1      37.656  20.922  25.035  1.00  0.00     0.202 C 
BRANCH  29  30
ATOM     30  C   UNL A   1      38.918  21.253  25.848  1.00  0.00     0.261 C 
BRANCH  30  31
ATOM     31  O   UNL A   1      39.966  20.271  25.745  1.00  0.00    -0.460 OA
BRANCH  31  32
ATOM     32  C   UNL A   1      40.789  20.240  26.828  1.00  0.00     0.338 C 
ATOM     33  O   UNL A   1      40.863  19.353  27.663  1.00  0.00    -0.246 OA
BRANCH  32  34
ATOM     34  C   UNL A   1      41.763  21.348  26.788  1.00  0.00     0.060 A 
ATOM     35  C   UNL A   1      42.273  21.789  28.018  1.00  0.00     0.016 A 
ATOM     36  C   UNL A   1      42.070  22.028  25.609  1.00  0.00     0.016 A 
ATOM     37  C   UNL A   1      43.041  22.947  28.081  1.00  0.00     0.010 A 
ATOM     38  C   UNL A   1      42.833  23.203  25.677  1.00  0.00     0.010 A 
ATOM     39  C   UNL A   1      43.278  23.691  26.919  1.00  0.00    -0.014 A 
BRANCH  39  40
ATOM     40  C   UNL A   1      43.806  25.071  27.068  1.00  0.00     0.031 A 
ATOM     41  C   UNL A   1      42.901  26.129  27.644  1.00  0.00     0.074 A 
ATOM     42  C   UNL A   1      45.092  25.351  26.793  1.00  0.00     0.049 A 
ATOM     43  N   UNL A   1      43.158  27.379  27.931  1.00  0.00    -0.248 NA
ATOM     44  C   UNL A   1      41.520  25.716  27.939  1.00  0.00     0.031 C 
ATOM     45  C   UNL A   1      46.072  24.395  26.281  1.00  0.00     0.029 A 
ATOM     46  N   UNL A   1      45.798  26.520  26.922  1.00  0.00    -0.354 N 
ATOM     47  C   UNL A   1      41.974  27.901  28.445  1.00  0.00     0.074 A 
ATOM     48  C   UNL A   1      40.989  26.843  28.386  1.00  0.00     0.031 C 
ATOM     49  C   UNL A   1      47.255  25.017  26.139  1.00  0.00     0.029 A 
ATOM     50  C   UNL A   1      47.111  26.419  26.527  1.00  0.00     0.049 A 
ATOM     51  H   UNL A   1      45.402  27.354  27.264  1.00  0.00     0.167 HD
ATOM     52  C   UNL A   1      41.736  29.143  28.934  1.00  0.00     0.034 A 
ATOM     53  C   UNL A   1      48.081  27.354  26.476  1.00  0.00     0.034 A 
ATOM     54  C   UNL A   1      42.726  30.191  28.973  1.00  0.00     0.049 A 
ATOM     55  C   UNL A   1      47.772  28.753  26.956  1.00  0.00     0.074 A 
ATOM     56  C   UNL A   1      42.596  31.486  29.445  1.00  0.00     0.029 A 
ATOM     57  N   UNL A   1      44.032  30.067  28.513  1.00  0.00    -0.354 N 
ATOM     58  N   UNL A   1      46.651  29.230  27.447  1.00  0.00    -0.248 NA
ATOM     59  C   UNL A   1      48.865  29.730  26.890  1.00  0.00     0.031 C 
ATOM     60  C   UNL A   1      43.798  32.163  29.208  1.00  0.00     0.029 A 
ATOM     61  C   UNL A   1      44.706  31.270  28.660  1.00  0.00     0.049 A 
ATOM     62  H   UNL A   1      44.420  29.245  28.137  1.00  0.00     0.167 HD
ATOM     63  C   UNL A   1      46.915  30.558  27.775  1.00  0.00     0.074 A 
ATOM     64  C   UNL A   1      48.306  30.796  27.442  1.00  0.00     0.031 C 
ATOM     65  C   UNL A   1      46.090  31.495  28.308  1.00  0.00     0.034 A 
BRANCH  52  66
ATOM     66  C   UNL A   1      40.333  29.439  29.410  1.00  0.00     0.023 A 
ATOM     67  C   UNL A   1      39.992  29.418  30.774  1.00  0.00     0.031 A 
ATOM     68  C   UNL A   1      39.312  29.705  28.480  1.00  0.00     0.131 A 
ATOM     69  C   UNL A   1      38.654  29.584  31.164  1.00  0.00     0.055 A 
ATOM     70  C   UNL A   1      37.996  29.948  28.881  1.00  0.00     0.041 A 
ATOM     71  F   UNL A   1      39.571  29.713  27.163  1.00  0.00    -0.206 F 
ATOM     72  C   UNL A   1      37.657  29.873  30.229  1.00  0.00     0.022 A 
BRANCH  69  73
ATOM     73  S   UNL A   1      38.207  29.272  32.894  1.00  0.00     0.124 S 
ATOM     74  O   UNL A   1      39.477  29.509  33.575  1.00  0.00    -0.237 OA
ATOM     75  O   UNL A   1      37.160  30.259  33.133  1.00  0.00    -0.237 OA
ATOM     76  O   UNL A   1      37.762  27.880  32.889  1.00  0.00    -0.744 OA
ENDBRANCH  69  73
ENDBRANCH  52  66
BRANCH  53  77
ATOM     77  C   UNL A   1      49.426  27.019  25.925  1.00  0.00     0.023 A 
ATOM     78  C   UNL A   1      49.784  27.357  24.611  1.00  0.00     0.031 A 
ATOM     79  C   UNL A   1      50.357  26.304  26.699  1.00  0.00     0.131 A 
ATOM     80  C   UNL A   1      51.021  26.941  24.094  1.00  0.00     0.055 A 
ATOM     81  C   UNL A   1      51.607  25.936  26.197  1.00  0.00     0.041 A 
ATOM     82  F   UNL A   1      50.066  25.957  27.963  1.00  0.00    -0.206 F 
ATOM     83  C   UNL A   1      51.939  26.243  24.881  1.00  0.00     0.022 A 
BRANCH  80  84
ATOM     84  S   UNL A   1      51.383  27.254  22.344  1.00  0.00     0.124 S 
ATOM     85  O   UNL A   1      51.741  28.668  22.363  1.00  0.00    -0.237 OA
ATOM     86  O   UNL A   1      52.475  26.320  22.089  1.00  0.00    -0.237 OA
ATOM     87  O   UNL A   1      50.125  26.937  21.673  1.00  0.00    -0.744 OA
ENDBRANCH  80  84
ENDBRANCH  53  77
BRANCH  65  88
ATOM     88  C   UNL A   1      46.689  32.850  28.598  1.00  0.00     0.023 A 
ATOM     89  C   UNL A   1      47.215  33.172  29.861  1.00  0.00     0.031 A 
ATOM     90  C   UNL A   1      46.713  33.841  27.600  1.00  0.00     0.131 A 
ATOM     91  C   UNL A   1      47.683  34.471  30.114  1.00  0.00     0.055 A 
ATOM     92  C   UNL A   1      47.238  35.112  27.838  1.00  0.00     0.041 A 
ATOM     93  F   UNL A   1      46.225  33.590  26.375  1.00  0.00    -0.206 F 
ATOM     94  C   UNL A   1      47.712  35.438  29.106  1.00  0.00     0.022 A 
BRANCH  91  95
ATOM     95  S   UNL A   1      48.155  34.911  31.809  1.00  0.00     0.124 S 
ATOM     96  O   UNL A   1      47.166  35.929  32.146  1.00  0.00    -0.237 OA
ATOM     97  O   UNL A   1      48.024  33.638  32.510  1.00  0.00    -0.237 OA
ATOM     98  O   UNL A   1      49.525  35.401  31.667  1.00  0.00    -0.744 OA
ENDBRANCH  91  95
ENDBRANCH  65  88
ENDBRANCH  39  40
ENDBRANCH  32  34
ENDBRANCH  31  32
ENDBRANCH  30  31
ENDBRANCH  29  30
ENDBRANCH   1  29
TORSDOF 20
ENDMDL
MODEL 2
REMARK VINA RESULT:      -9.9      5.409     10.720
REMARK SMILES Cc1nc(-c2ccc(S(=O)(=O)N3CC[NH2+][C@H](C(=O)OCCOCCOC(=O)c4ccc(-c5c6nc(c(-c7cc(S(=O)(=O)[O-])ccc7F)c7ccc([nH]7)c(-c7cc(S(=O)(=O)[O-])ccc7F)c7nc(c(-c8cc(S(=O)(=O)[O-])ccc8F)c8ccc5[nH]8)C=C7)C=C6)cc4)C3)s2)cs1
REMARK SMILES IDX 22 1 21 2 20 3 19 4 17 5 18 6 16 7 12 8 13 9 91 10 14 11
REMARK SMILES IDX 15 12 9 15 10 16 11 17 8 18 5 19 6 20 92 21 7 22 4 23 1 24
REMARK SMILES IDX 2 25 3 26 94 27 93 28 23 29 24 30 25 31 26 32 27 33 28 34
REMARK SMILES IDX 29 35 90 36 30 37 89 38 31 39 32 40 33 41 83 42 34 43 88 44
REMARK SMILES IDX 82 45 84 46 35 47 87 48 81 49 80 50 36 52 68 53 48 54 67 55
REMARK SMILES IDX 49 56 52 57 66 58 85 59 50 60 51 61 65 63 86 64 53 65 37 66
REMARK SMILES IDX 38 67 46 68 39 69 45 70 47 71 44 72 40 73 41 74 42 75 43 76
REMARK SMILES IDX 69 77 70 78 78 79 71 80 77 81 79 82 76 83 72 84 73 85 74 86
REMARK SMILES IDX 75 87 54 88 55 89 63 90 56 91 62 92 64 93 61 94 57 95 58 96
REMARK SMILES IDX 59 97 60 98
REMARK H PARENT 15 13 15 14 84 51 52 62
REMARK Flexibility Score: inf
ROOT
ATOM      1  O   UNL A   1      50.212  27.783  24.709  1.00  0.00    -0.374 OA
ENDROOT
BRANCH   1   2
ATOM      2  C   UNL A   1      49.379  26.841  24.038  1.00  0.00     0.202 C 
BRANCH   2   3
ATOM      3  C   UNL A   1      48.267  26.152  24.834  1.00  0.00     0.261 C 
BRANCH   3   4
ATOM      4  O   UNL A   1      46.962  26.349  24.256  1.00  0.00    -0.459 OA
BRANCH   4   5
ATOM      5  C   UNL A   1      46.315  27.446  24.724  1.00  0.00     0.366 C 
ATOM      6  O   UNL A   1      46.438  28.582  24.273  1.00  0.00    -0.245 OA
BRANCH   5   7
ATOM      7  C   UNL A   1      45.372  27.162  25.875  1.00  0.00     0.308 C 
ATOM      8  N   UNL A   1      43.250  27.721  26.908  1.00  0.00    -0.185 NA
ATOM      9  C   UNL A   1      43.671  27.098  28.193  1.00  0.00     0.164 C 
ATOM     10  C   UNL A   1      44.391  28.294  26.144  1.00  0.00     0.180 C 
ATOM     11  C   UNL A   1      44.952  26.231  28.078  1.00  0.00     0.278 C 
ATOM     12  N   UNL A   1      46.006  26.684  27.140  1.00  0.00    -0.332 N 
ATOM     13  H   UNL A   1      46.635  25.908  26.934  1.00  0.00     0.347 HD
ATOM     14  H   UNL A   1      46.535  27.446  27.565  1.00  0.00     0.347 HD
BRANCH   8  15
ATOM     15  S   UNL A   1      41.932  27.109  26.024  1.00  0.00     0.253 S 
ATOM     16  O   UNL A   1      42.310  27.178  24.626  1.00  0.00    -0.206 OA
ATOM     17  O   UNL A   1      40.733  27.745  26.517  1.00  0.00    -0.206 OA
BRANCH  15  18
ATOM     18  C   UNL A   1      41.660  25.362  26.358  1.00  0.00     0.135 A 
ATOM     19  C   UNL A   1      41.962  22.900  26.329  1.00  0.00     0.055 A 
ATOM     20  C   UNL A   1      40.848  23.280  27.040  1.00  0.00     0.023 A 
ATOM     21  S   UNL A   1      42.826  24.246  25.742  1.00  0.00    -0.121 S 
ATOM     22  C   UNL A   1      40.641  24.679  26.995  1.00  0.00     0.034 A 
BRANCH  19  23
ATOM     23  C   UNL A   1      42.260  21.450  26.111  1.00  0.00     0.091 A 
ATOM     24  C   UNL A   1      44.716  19.133  24.739  1.00  0.00     0.079 C 
ATOM     25  C   UNL A   1      43.548  19.806  25.368  1.00  0.00     0.090 A 
ATOM     26  N   UNL A   1      43.392  21.107  25.384  1.00  0.00    -0.241 NA
ATOM     27  S   UNL A   1      42.305  18.910  26.142  1.00  0.00    -0.127 S 
ATOM     28  C   UNL A   1      41.537  20.382  26.596  1.00  0.00     0.096 A 
ENDBRANCH  19  23
ENDBRANCH  15  18
ENDBRANCH   8  15
ENDBRANCH   5   7
ENDBRANCH   4   5
ENDBRANCH   3   4
ENDBRANCH   2   3
ENDBRANCH   1   2
BRANCH   1  29
ATOM     29  C   UNL A   1      51.585  27.866  24.339  1.00  0.00     0.202 C 
BRANCH  29  30
ATOM     30  C   UNL A   1      52.655  27.425  25.350  1.00  0.00     0.261 C 
BRANCH  30  31
ATOM     31  O   UNL A   1      52.640  28.158  26.590  1.00  0.00    -0.460 OA
BRANCH  31  32
ATOM     32  C   UNL A   1      52.730  27.364  27.691  1.00  0.00     0.338 C 
ATOM     33  O   UNL A   1      53.728  26.792  28.097  1.00  0.00    -0.246 OA
BRANCH  32  34
ATOM     34  C   UNL A   1      51.491  27.419  28.490  1.00  0.00     0.060 A 
ATOM     35  C   UNL A   1      50.414  26.639  28.045  1.00  0.00     0.016 A 
ATOM     36  C   UNL A   1      51.332  28.303  29.559  1.00  0.00     0.016 A 
ATOM     37  C   UNL A   1      49.159  26.783  28.626  1.00  0.00     0.010 A 
ATOM     38  C   UNL A   1      50.062  28.457  30.134  1.00  0.00     0.010 A 
ATOM     39  C   UNL A   1      48.963  27.733  29.636  1.00  0.00    -0.014 A 
BRANCH  39  40
ATOM     40  C   UNL A   1      47.568  28.092  29.997  1.00  0.00     0.031 A 
ATOM     41  C   UNL A   1      46.862  27.271  31.044  1.00  0.00     0.074 A 
ATOM     42  C   UNL A   1      46.981  29.185  29.478  1.00  0.00     0.049 A 
ATOM     43  N   UNL A   1      45.675  27.433  31.569  1.00  0.00    -0.248 NA
ATOM     44  C   UNL A   1      47.599  26.112  31.571  1.00  0.00     0.031 C 
ATOM     45  C   UNL A   1      47.588  30.082  28.496  1.00  0.00     0.029 A 
ATOM     46  N   UNL A   1      45.747  29.734  29.718  1.00  0.00    -0.354 N 
ATOM     47  C   UNL A   1      45.525  26.402  32.493  1.00  0.00     0.074 A 
ATOM     48  C   UNL A   1      46.724  25.596  32.419  1.00  0.00     0.031 C 
ATOM     49  C   UNL A   1      46.723  31.073  28.218  1.00  0.00     0.029 A 
ATOM     50  C   UNL A   1      45.494  30.867  28.982  1.00  0.00     0.049 A 
ATOM     51  H   UNL A   1      45.102  29.353  30.357  1.00  0.00     0.167 HD
ATOM     52  C   UNL A   1      44.489  26.160  33.334  1.00  0.00     0.034 A 
ATOM     53  C   UNL A   1      44.392  31.642  28.925  1.00  0.00     0.034 A 
ATOM     54  C   UNL A   1      43.294  26.966  33.385  1.00  0.00     0.049 A 
ATOM     55  C   UNL A   1      43.219  31.310  29.817  1.00  0.00     0.074 A 
ATOM     56  C   UNL A   1      42.183  26.814  34.195  1.00  0.00     0.029 A 
ATOM     57  N   UNL A   1      43.050  28.075  32.584  1.00  0.00    -0.354 N 
ATOM     58  N   UNL A   1      43.094  30.336  30.691  1.00  0.00    -0.248 NA
ATOM     59  C   UNL A   1      42.049  32.190  29.725  1.00  0.00     0.031 C 
ATOM     60  C   UNL A   1      41.242  27.786  33.838  1.00  0.00     0.029 A 
ATOM     61  C   UNL A   1      41.795  28.596  32.858  1.00  0.00     0.049 A 
ATOM     62  H   UNL A   1      43.678  28.438  31.918  1.00  0.00     0.167 HD
ATOM     63  C   UNL A   1      41.840  30.508  31.273  1.00  0.00     0.074 A 
ATOM     64  C   UNL A   1      41.260  31.688  30.662  1.00  0.00     0.031 C 
ATOM     65  C   UNL A   1      41.224  29.765  32.229  1.00  0.00     0.034 A 
BRANCH  52  66
ATOM     66  C   UNL A   1      44.591  24.940  34.220  1.00  0.00     0.023 A 
ATOM     67  C   UNL A   1      45.091  25.016  35.532  1.00  0.00     0.031 A 
ATOM     68  C   UNL A   1      44.223  23.675  33.728  1.00  0.00     0.131 A 
ATOM     69  C   UNL A   1      45.277  23.842  36.280  1.00  0.00     0.055 A 
ATOM     70  C   UNL A   1      44.337  22.521  34.505  1.00  0.00     0.041 A 
ATOM     71  F   UNL A   1      43.763  23.537  32.474  1.00  0.00    -0.206 F 
ATOM     72  C   UNL A   1      44.882  22.598  35.784  1.00  0.00     0.022 A 
BRANCH  69  73
ATOM     73  S   UNL A   1      46.181  23.945  37.849  1.00  0.00     0.124 S 
ATOM     74  O   UNL A   1      45.653  22.789  38.569  1.00  0.00    -0.237 OA
ATOM     75  O   UNL A   1      47.571  23.850  37.419  1.00  0.00    -0.237 OA
ATOM     76  O   UNL A   1      45.782  25.242  38.392  1.00  0.00    -0.744 OA
ENDBRANCH  69  73
ENDBRANCH  52  66
BRANCH  53  77
ATOM     77  C   UNL A   1      44.323  32.790  27.975  1.00  0.00     0.023 A 
ATOM     78  C   UNL A   1      44.563  34.106  28.398  1.00  0.00     0.031 A 
ATOM     79  C   UNL A   1      43.960  32.585  26.632  1.00  0.00     0.131 A 
ATOM     80  C   UNL A   1      44.394  35.171  27.500  1.00  0.00     0.055 A 
ATOM     81  C   UNL A   1      43.842  33.642  25.729  1.00  0.00     0.041 A 
ATOM     82  F   UNL A   1      43.721  31.345  26.175  1.00  0.00    -0.206 F 
ATOM     83  C   UNL A   1      44.047  34.948  26.165  1.00  0.00     0.022 A 
BRANCH  80  84
ATOM     84  S   UNL A   1      44.555  36.868  28.120  1.00  0.00     0.124 S 
ATOM     85  O   UNL A   1      45.576  36.713  29.151  1.00  0.00    -0.237 OA
ATOM     86  O   UNL A   1      44.961  37.592  26.920  1.00  0.00    -0.237 OA
ATOM     87  O   UNL A   1      43.215  37.181  28.610  1.00  0.00    -0.744 OA
ENDBRANCH  80  84
ENDBRANCH  53  77
BRANCH  65  88
ATOM     88  C   UNL A   1      39.868  30.238  32.695  1.00  0.00     0.023 A 
ATOM     89  C   UNL A   1      39.698  30.907  33.919  1.00  0.00     0.031 A 
ATOM     90  C   UNL A   1      38.726  29.994  31.911  1.00  0.00     0.131 A 
ATOM     91  C   UNL A   1      38.410  31.251  34.356  1.00  0.00     0.055 A 
ATOM     92  C   UNL A   1      37.454  30.395  32.321  1.00  0.00     0.041 A 
ATOM     93  F   UNL A   1      38.829  29.359  30.733  1.00  0.00    -0.206 F 
ATOM     94  C   UNL A   1      37.289  31.014  33.557  1.00  0.00     0.022 A 
BRANCH  91  95
ATOM     95  S   UNL A   1      38.207  31.920  36.030  1.00  0.00     0.124 S 
ATOM     96  O   UNL A   1      39.472  32.619  36.233  1.00  0.00    -0.237 OA
ATOM     97  O   UNL A   1      37.026  32.766  35.886  1.00  0.00    -0.237 OA
ATOM     98  O   UNL A   1      38.018  30.728  36.855  1.00  0.00    -0.744 OA
ENDBRANCH  91  95
ENDBRANCH  65  88
ENDBRANCH  39  40
ENDBRANCH  32  34
ENDBRANCH  31  32
ENDBRANCH  30  31
ENDBRANCH  29  30
ENDBRANCH   1  29
TORSDOF 20
ENDMDL
MODEL 3
REMARK VINA RESULT:      -9.9      4.848      9.986
REMARK SMILES Cc1nc(-c2ccc(S(=O)(=O)N3CC[NH2+][C@H](C(=O)OCCOCCOC(=O)c4ccc(-c5c6nc(c(-c7cc(S(=O)(=O)[O-])ccc7F)c7ccc([nH]7)c(-c7cc(S(=O)(=O)[O-])ccc7F)c7nc(c(-c8cc(S(=O)(=O)[O-])ccc8F)c8ccc5[nH]8)C=C7)C=C6)cc4)C3)s2)cs1
REMARK SMILES IDX 22 1 21 2 20 3 19 4 17 5 18 6 16 7 12 8 13 9 91 10 14 11
REMARK SMILES IDX 15 12 9 15 10 16 11 17 8 18 5 19 6 20 92 21 7 22 4 23 1 24
REMARK SMILES IDX 2 25 3 26 94 27 93 28 23 29 24 30 25 31 26 32 27 33 28 34
REMARK SMILES IDX 29 35 90 36 30 37 89 38 31 39 32 40 33 41 83 42 34 43 88 44
REMARK SMILES IDX 82 45 84 46 35 47 87 48 81 49 80 50 36 52 68 53 48 54 67 55
REMARK SMILES IDX 49 56 52 57 66 58 85 59 50 60 51 61 65 63 86 64 53 65 37 66
REMARK SMILES IDX 38 67 46 68 39 69 45 70 47 71 44 72 40 73 41 74 42 75 43 76
REMARK SMILES IDX 69 77 70 78 78 79 71 80 77 81 79 82 76 83 72 84 73 85 74 86
REMARK SMILES IDX 75 87 54 88 55 89 63 90 56 91 62 92 64 93 61 94 57 95 58 96
REMARK SMILES IDX 59 97 60 98
REMARK H PARENT 15 13 15 14 84 51 52 62
REMARK Flexibility Score: inf
ROOT
ATOM      1  O   UNL A   1      50.571  28.408  24.077  1.00  0.00    -0.374 OA
ENDROOT
BRANCH   1   2
ATOM      2  C   UNL A   1      49.797  27.474  23.329  1.00  0.00     0.202 C 
BRANCH   2   3
ATOM      3  C   UNL A   1      48.624  26.775  24.022  1.00  0.00     0.261 C 
BRANCH   3   4
ATOM      4  O   UNL A   1      47.345  27.170  23.490  1.00  0.00    -0.459 OA
BRANCH   4   5
ATOM      5  C   UNL A   1      46.548  27.802  24.388  1.00  0.00     0.366 C 
ATOM      6  O   UNL A   1      46.540  29.013  24.594  1.00  0.00    -0.245 OA
BRANCH   5   7
ATOM      7  C   UNL A   1      45.611  26.877  25.139  1.00  0.00     0.308 C 
ATOM      8  N   UNL A   1      43.632  26.737  26.534  1.00  0.00    -0.185 NA
ATOM      9  C   UNL A   1      43.996  25.361  26.973  1.00  0.00     0.164 C 
ATOM     10  C   UNL A   1      44.821  27.580  26.233  1.00  0.00     0.180 C 
ATOM     11  C   UNL A   1      45.127  24.714  26.132  1.00  0.00     0.278 C 
ATOM     12  N   UNL A   1      46.207  25.601  25.636  1.00  0.00    -0.332 N 
ATOM     13  H   UNL A   1      46.704  25.139  24.875  1.00  0.00     0.347 HD
ATOM     14  H   UNL A   1      46.858  25.802  26.395  1.00  0.00     0.347 HD
BRANCH   8  15
ATOM     15  S   UNL A   1      42.209  27.030  25.650  1.00  0.00     0.253 S 
ATOM     16  O   UNL A   1      41.829  25.763  25.055  1.00  0.00    -0.206 OA
ATOM     17  O   UNL A   1      42.420  28.211  24.846  1.00  0.00    -0.206 OA
BRANCH  15  18
ATOM     18  C   UNL A   1      40.838  27.480  26.724  1.00  0.00     0.135 A 
ATOM     19  C   UNL A   1      39.060  28.829  27.808  1.00  0.00     0.055 A 
ATOM     20  C   UNL A   1      39.140  27.559  28.328  1.00  0.00     0.023 A 
ATOM     21  S   UNL A   1      40.167  29.060  26.533  1.00  0.00    -0.121 S 
ATOM     22  C   UNL A   1      40.201  26.817  27.757  1.00  0.00     0.034 A 
BRANCH  19  23
ATOM     23  C   UNL A   1      38.116  29.828  28.398  1.00  0.00     0.091 A 
ATOM     24  C   UNL A   1      37.918  33.130  29.931  1.00  0.00     0.079 C 
ATOM     25  C   UNL A   1      37.677  31.780  29.355  1.00  0.00     0.090 A 
ATOM     26  N   UNL A   1      38.641  30.979  28.972  1.00  0.00    -0.241 NA
ATOM     27  S   UNL A   1      36.087  31.168  29.136  1.00  0.00    -0.127 S 
ATOM     28  C   UNL A   1      36.741  29.752  28.405  1.00  0.00     0.096 A 
ENDBRANCH  19  23
ENDBRANCH  15  18
ENDBRANCH   8  15
ENDBRANCH   5   7
ENDBRANCH   4   5
ENDBRANCH   3   4
ENDBRANCH   2   3
ENDBRANCH   1   2
BRANCH   1  29
ATOM     29  C   UNL A   1      51.985  28.407  23.917  1.00  0.00     0.202 C 
BRANCH  29  30
ATOM     30  C   UNL A   1      52.863  27.911  25.078  1.00  0.00     0.261 C 
BRANCH  30  31
ATOM     31  O   UNL A   1      52.464  28.394  26.374  1.00  0.00    -0.460 OA
BRANCH  31  32
ATOM     32  C   UNL A   1      52.505  27.442  27.345  1.00  0.00     0.338 C 
ATOM     33  O   UNL A   1      53.470  26.766  27.662  1.00  0.00    -0.246 OA
BRANCH  32  34
ATOM     34  C   UNL A   1      51.263  27.441  28.142  1.00  0.00     0.060 A 
ATOM     35  C   UNL A   1      50.122  26.896  27.536  1.00  0.00     0.016 A 
ATOM     36  C   UNL A   1      51.174  28.069  29.385  1.00  0.00     0.016 A 
ATOM     37  C   UNL A   1      48.877  27.032  28.141  1.00  0.00     0.010 A 
ATOM     38  C   UNL A   1      49.916  28.217  29.986  1.00  0.00     0.010 A 
ATOM     39  C   UNL A   1      48.759  27.742  29.342  1.00  0.00    -0.014 A 
BRANCH  39  40
ATOM     40  C   UNL A   1      47.401  28.150  29.782  1.00  0.00     0.031 A 
ATOM     41  C   UNL A   1      46.705  27.322  30.831  1.00  0.00     0.074 A 
ATOM     42  C   UNL A   1      46.843  29.289  29.332  1.00  0.00     0.049 A 
ATOM     43  N   UNL A   1      45.554  27.519  31.418  1.00  0.00    -0.248 NA
ATOM     44  C   UNL A   1      47.411  26.112  31.279  1.00  0.00     0.031 C 
ATOM     45  C   UNL A   1      47.446  30.194  28.356  1.00  0.00     0.029 A 
ATOM     46  N   UNL A   1      45.649  29.884  29.651  1.00  0.00    -0.354 N 
ATOM     47  C   UNL A   1      45.397  26.460  32.309  1.00  0.00     0.074 A 
ATOM     48  C   UNL A   1      46.551  25.603  32.149  1.00  0.00     0.031 C 
ATOM     49  C   UNL A   1      46.617  31.234  28.156  1.00  0.00     0.029 A 
ATOM     50  C   UNL A   1      45.416  31.055  28.970  1.00  0.00     0.049 A 
ATOM     51  H   UNL A   1      45.017  29.508  30.306  1.00  0.00     0.167 HD
ATOM     52  C   UNL A   1      44.391  26.234  33.189  1.00  0.00     0.034 A 
ATOM     53  C   UNL A   1      44.351  31.881  28.995  1.00  0.00     0.034 A 
ATOM     54  C   UNL A   1      43.239  27.091  33.328  1.00  0.00     0.049 A 
ATOM     55  C   UNL A   1      43.206  31.568  29.929  1.00  0.00     0.074 A 
ATOM     56  C   UNL A   1      42.160  26.958  34.184  1.00  0.00     0.029 A 
ATOM     57  N   UNL A   1      43.012  28.240  32.580  1.00  0.00    -0.354 N 
ATOM     58  N   UNL A   1      43.075  30.568  30.771  1.00  0.00    -0.248 NA
ATOM     59  C   UNL A   1      42.076  32.505  29.926  1.00  0.00     0.031 C 
ATOM     60  C   UNL A   1      41.251  27.986  33.908  1.00  0.00     0.029 A 
ATOM     61  C   UNL A   1      41.797  28.807  32.933  1.00  0.00     0.049 A 
ATOM     62  H   UNL A   1      43.625  28.599  31.899  1.00  0.00     0.167 HD
ATOM     63  C   UNL A   1      41.859  30.775  31.419  1.00  0.00     0.074 A 
ATOM     64  C   UNL A   1      41.308  32.003  30.880  1.00  0.00     0.031 C 
ATOM     65  C   UNL A   1      41.254  30.024  32.375  1.00  0.00     0.034 A 
BRANCH  52  66
ATOM     66  C   UNL A   1      44.476  24.976  34.024  1.00  0.00     0.023 A 
ATOM     67  C   UNL A   1      44.912  25.002  35.361  1.00  0.00     0.031 A 
ATOM     68  C   UNL A   1      44.155  23.729  33.460  1.00  0.00     0.131 A 
ATOM     69  C   UNL A   1      45.087  23.799  36.063  1.00  0.00     0.055 A 
ATOM     70  C   UNL A   1      44.256  22.543  34.190  1.00  0.00     0.041 A 
ATOM     71  F   UNL A   1      43.757  23.639  32.181  1.00  0.00    -0.206 F 
ATOM     72  C   UNL A   1      44.739  22.571  35.495  1.00  0.00     0.022 A 
BRANCH  69  73
ATOM     73  S   UNL A   1      45.914  23.846  37.677  1.00  0.00     0.124 S 
ATOM     74  O   UNL A   1      47.035  24.743  37.407  1.00  0.00    -0.237 OA
ATOM     75  O   UNL A   1      44.871  24.371  38.551  1.00  0.00    -0.237 OA
ATOM     76  O   UNL A   1      46.285  22.453  37.914  1.00  0.00    -0.744 OA
ENDBRANCH  69  73
ENDBRANCH  52  66
BRANCH  53  77
ATOM     77  C   UNL A   1      44.293  33.067  28.091  1.00  0.00     0.023 A 
ATOM     78  C   UNL A   1      44.516  34.366  28.573  1.00  0.00     0.031 A 
ATOM     79  C   UNL A   1      43.958  32.915  26.734  1.00  0.00     0.131 A 
ATOM     80  C   UNL A   1      44.357  35.466  27.716  1.00  0.00     0.055 A 
ATOM     81  C   UNL A   1      43.850  34.009  25.873  1.00  0.00     0.041 A 
ATOM     82  F   UNL A   1      43.735  31.695  26.222  1.00  0.00    -0.206 F 
ATOM     83  C   UNL A   1      44.038  35.296  26.367  1.00  0.00     0.022 A 
BRANCH  80  84
ATOM     84  S   UNL A   1      44.496  37.137  28.409  1.00  0.00     0.124 S 
ATOM     85  O   UNL A   1      44.623  37.950  27.205  1.00  0.00    -0.237 OA
ATOM     86  O   UNL A   1      43.240  37.267  29.141  1.00  0.00    -0.237 OA
ATOM     87  O   UNL A   1      45.694  37.062  29.242  1.00  0.00    -0.744 OA
ENDBRANCH  80  84
ENDBRANCH  53  77
BRANCH  65  88
ATOM     88  C   UNL A   1      39.945  30.541  32.923  1.00  0.00     0.023 A 
ATOM     89  C   UNL A   1      39.899  31.509  33.940  1.00  0.00     0.031 A 
ATOM     90  C   UNL A   1      38.726  30.037  32.434  1.00  0.00     0.131 A 
ATOM     91  C   UNL A   1      38.664  31.897  34.482  1.00  0.00     0.055 A 
ATOM     92  C   UNL A   1      37.497  30.472  32.932  1.00  0.00     0.041 A 
ATOM     93  F   UNL A   1      38.709  29.110  31.462  1.00  0.00    -0.206 F 
ATOM     94  C   UNL A   1      37.462  31.396  33.973  1.00  0.00     0.022 A 
BRANCH  91  95
ATOM     95  S   UNL A   1      38.652  32.985  35.932  1.00  0.00     0.124 S 
ATOM     96  O   UNL A   1      37.518  32.469  36.691  1.00  0.00    -0.237 OA
ATOM     97  O   UNL A   1      39.970  32.745  36.513  1.00  0.00    -0.237 OA
ATOM     98  O   UNL A   1      38.461  34.317  35.360  1.00  0.00    -0.744 OA
ENDBRANCH  91  95
ENDBRANCH  65  88
ENDBRANCH  39  40
ENDBRANCH  32  34
ENDBRANCH  31  32
ENDBRANCH  30  31
ENDBRANCH  29  30
ENDBRANCH   1  29
TORSDOF 20
ENDMDL
