MODEL 1
REMARK VINA RESULT:     -13.0      0.000      0.000
REMARK SMILES Cc1ccc([C@H]2NC(=O)N(C)C3=C2C(=O)N(c2cccc(C(=O)OCCOCCOC(=O)c4ccc(-c5c6nc(c(-c7cc(S(=O)(=O)[O-])ccc7F)c7ccc([nH]7)c(-c7cc(S(=O)(=O)[O-])ccc7F)c7nc(c(-c8cc(S(=O)(=O)[O-])ccc8F)c8ccc5[nH]8)C=C7)C=C6)cc4)c2)C3)cc1
REMARK SMILES IDX 28 1 27 2 26 3 25 4 24 5 22 6 23 7 21 8 17 9 18 10 96 11
REMARK SMILES IDX 19 12 20 13 16 14 6 15 7 16 13 17 8 18 12 20 14 21 9 22
REMARK SMILES IDX 10 23 97 24 15 25 11 26 5 27 1 28 2 29 3 30 99 31 4 32 98 33
REMARK SMILES IDX 29 34 30 35 31 36 32 37 33 38 34 39 95 40 35 41 94 42 36 43
REMARK SMILES IDX 37 44 38 45 88 46 39 47 93 48 87 49 89 50 40 51 92 52 86 53
REMARK SMILES IDX 85 54 41 56 73 57 53 58 72 59 54 60 57 61 71 62 90 63 55 64
REMARK SMILES IDX 56 65 70 67 91 68 58 69 42 70 43 71 51 72 44 73 50 74 52 75
REMARK SMILES IDX 49 76 45 77 46 78 47 79 48 80 74 81 75 82 83 83 76 84 82 85
REMARK SMILES IDX 84 86 81 87 77 88 78 89 79 90 80 91 59 92 60 93 68 94 61 95
REMARK SMILES IDX 67 96 69 97 66 98 62 99 63 100 64 101 65 102
REMARK H PARENT 7 19 89 55 57 66
REMARK Flexibility Score: inf
ROOT
ATOM      1  C   UNL A   1      42.072  18.830  26.054  1.00  0.00     0.202 C 
ENDROOT
BRANCH   1   2
ATOM      2  O   UNL A   1      41.018  19.710  25.729  1.00  0.00    -0.374 OA
BRANCH   2   3
ATOM      3  C   UNL A   1      40.581  20.554  26.793  1.00  0.00     0.202 C 
BRANCH   3   4
ATOM      4  C   UNL A   1      39.938  21.733  26.128  1.00  0.00     0.261 C 
BRANCH   4   5
ATOM      5  O   UNL A   1      38.565  21.486  25.828  1.00  0.00    -0.460 OA
BRANCH   5   6
ATOM      6  C   UNL A   1      37.737  22.557  25.718  1.00  0.00     0.338 C 
ATOM      7  O   UNL A   1      38.012  23.725  25.715  1.00  0.00    -0.246 OA
BRANCH   6   8
ATOM      8  C   UNL A   1      36.403  22.008  25.402  1.00  0.00     0.062 A 
ATOM      9  C   UNL A   1      34.190  22.516  24.614  1.00  0.00     0.045 A 
ATOM     10  C   UNL A   1      33.913  21.149  24.518  1.00  0.00     0.026 A 
ATOM     11  C   UNL A   1      35.430  22.943  25.073  1.00  0.00     0.042 A 
ATOM     12  C   UNL A   1      34.889  20.211  24.859  1.00  0.00     0.003 A 
ATOM     13  C   UNL A   1      36.134  20.641  25.311  1.00  0.00     0.016 A 
BRANCH   9  14
ATOM     14  N   UNL A   1      33.231  23.474  24.272  1.00  0.00    -0.303 N 
ATOM     15  C   UNL A   1      31.313  26.499  25.084  1.00  0.00     0.152 C 
ATOM     16  N   UNL A   1      30.639  27.228  24.013  1.00  0.00    -0.327 N 
ATOM     17  C   UNL A   1      31.907  25.297  24.492  1.00  0.00     0.066 C 
ATOM     18  C   UNL A   1      30.879  27.109  22.669  1.00  0.00     0.322 C 
ATOM     19  H   UNL A   1      29.943  27.869  24.283  1.00  0.00     0.166 HD
ATOM     20  C   UNL A   1      32.182  25.155  23.198  1.00  0.00     0.053 C 
ATOM     21  C   UNL A   1      32.466  24.154  25.207  1.00  0.00     0.258 C 
ATOM     22  O   UNL A   1      30.330  27.885  21.890  1.00  0.00    -0.248 OA
ATOM     23  N   UNL A   1      31.717  26.066  22.277  1.00  0.00    -0.299 N 
ATOM     24  C   UNL A   1      33.098  24.015  22.938  1.00  0.00     0.180 C 
ATOM     25  O   UNL A   1      32.296  23.944  26.393  1.00  0.00    -0.269 OA
ATOM     26  C   UNL A   1      32.039  25.902  20.868  1.00  0.00     0.155 C 
BRANCH  15  27
ATOM     27  C   UNL A   1      32.305  27.420  25.798  1.00  0.00    -0.021 A 
ATOM     28  C   UNL A   1      35.013  30.052  27.944  1.00  0.00     0.044 C 
ATOM     29  C   UNL A   1      34.076  29.146  27.195  1.00  0.00    -0.051 A 
ATOM     30  C   UNL A   1      32.727  29.066  27.554  1.00  0.00     0.004 A 
ATOM     31  C   UNL A   1      34.536  28.370  26.132  1.00  0.00     0.004 A 
ATOM     32  C   UNL A   1      31.854  28.213  26.867  1.00  0.00     0.006 A 
ATOM     33  C   UNL A   1      33.662  27.526  25.437  1.00  0.00     0.006 A 
ENDBRANCH  15  27
ENDBRANCH   9  14
ENDBRANCH   6   8
ENDBRANCH   5   6
ENDBRANCH   4   5
ENDBRANCH   3   4
ENDBRANCH   2   3
ENDBRANCH   1   2
BRANCH   1  34
ATOM     34  C   UNL A   1      43.365  19.118  25.279  1.00  0.00     0.261 C 
BRANCH  34  35
ATOM     35  O   UNL A   1      44.072  20.220  25.887  1.00  0.00    -0.460 OA
BRANCH  35  36
ATOM     36  C   UNL A   1      44.324  21.285  25.075  1.00  0.00     0.338 C 
ATOM     37  O   UNL A   1      45.088  21.277  24.125  1.00  0.00    -0.246 OA
BRANCH  36  38
ATOM     38  C   UNL A   1      43.651  22.502  25.615  1.00  0.00     0.060 A 
ATOM     39  C   UNL A   1      43.423  23.623  24.790  1.00  0.00     0.016 A 
ATOM     40  C   UNL A   1      43.508  22.616  26.995  1.00  0.00     0.016 A 
ATOM     41  C   UNL A   1      43.172  24.882  25.361  1.00  0.00     0.010 A 
ATOM     42  C   UNL A   1      43.368  23.869  27.549  1.00  0.00     0.010 A 
ATOM     43  C   UNL A   1      43.204  25.011  26.751  1.00  0.00    -0.014 A 
BRANCH  43  44
ATOM     44  C   UNL A   1      43.219  26.267  27.504  1.00  0.00     0.031 A 
ATOM     45  C   UNL A   1      41.941  26.952  27.791  1.00  0.00     0.074 A 
ATOM     46  C   UNL A   1      44.332  26.678  28.156  1.00  0.00     0.049 A 
ATOM     47  N   UNL A   1      41.853  28.207  28.070  1.00  0.00    -0.248 NA
ATOM     48  C   UNL A   1      40.639  26.287  27.760  1.00  0.00     0.031 C 
ATOM     49  C   UNL A   1      44.415  27.546  29.329  1.00  0.00     0.029 A 
ATOM     50  N   UNL A   1      45.660  26.394  27.868  1.00  0.00    -0.354 N 
ATOM     51  C   UNL A   1      40.595  28.424  28.579  1.00  0.00     0.074 A 
ATOM     52  C   UNL A   1      39.847  27.230  28.273  1.00  0.00     0.031 C 
ATOM     53  C   UNL A   1      45.700  27.867  29.562  1.00  0.00     0.029 A 
ATOM     54  C   UNL A   1      46.501  27.328  28.475  1.00  0.00     0.049 A 
ATOM     55  H   UNL A   1      45.965  25.641  27.312  1.00  0.00     0.167 HD
ATOM     56  C   UNL A   1      40.360  29.513  29.361  1.00  0.00     0.034 A 
ATOM     57  C   UNL A   1      47.436  27.972  27.728  1.00  0.00     0.034 A 
ATOM     58  C   UNL A   1      41.603  30.249  29.623  1.00  0.00     0.049 A 
ATOM     59  C   UNL A   1      46.996  29.408  27.571  1.00  0.00     0.074 A 
ATOM     60  C   UNL A   1      42.431  30.311  30.734  1.00  0.00     0.029 A 
ATOM     61  N   UNL A   1      42.335  30.789  28.566  1.00  0.00    -0.354 N 
ATOM     62  N   UNL A   1      45.795  29.810  27.892  1.00  0.00    -0.248 NA
ATOM     63  C   UNL A   1      47.841  30.507  27.123  1.00  0.00     0.031 C 
ATOM     64  C   UNL A   1      43.683  30.842  30.321  1.00  0.00     0.029 A 
ATOM     65  C   UNL A   1      43.611  31.142  28.971  1.00  0.00     0.049 A 
ATOM     66  H   UNL A   1      41.989  30.905  27.652  1.00  0.00     0.167 HD
ATOM     67  C   UNL A   1      45.691  31.156  27.754  1.00  0.00     0.074 A 
ATOM     68  C   UNL A   1      47.000  31.552  27.256  1.00  0.00     0.031 C 
ATOM     69  C   UNL A   1      44.532  31.813  28.056  1.00  0.00     0.034 A 
BRANCH  56  70
ATOM     70  C   UNL A   1      39.081  29.702  30.149  1.00  0.00     0.023 A 
ATOM     71  C   UNL A   1      38.349  30.898  30.020  1.00  0.00     0.031 A 
ATOM     72  C   UNL A   1      38.529  28.753  31.036  1.00  0.00     0.131 A 
ATOM     73  C   UNL A   1      37.217  31.157  30.815  1.00  0.00     0.055 A 
ATOM     74  C   UNL A   1      37.449  29.037  31.882  1.00  0.00     0.041 A 
ATOM     75  F   UNL A   1      38.975  27.489  31.079  1.00  0.00    -0.206 F 
ATOM     76  C   UNL A   1      36.790  30.251  31.781  1.00  0.00     0.022 A 
BRANCH  73  77
ATOM     77  S   UNL A   1      36.267  32.674  30.525  1.00  0.00     0.124 S 
ATOM     78  O   UNL A   1      36.711  33.066  29.191  1.00  0.00    -0.237 OA
ATOM     79  O   UNL A   1      34.891  32.205  30.637  1.00  0.00    -0.237 OA
ATOM     80  O   UNL A   1      36.704  33.558  31.604  1.00  0.00    -0.744 OA
ENDBRANCH  73  77
ENDBRANCH  56  70
BRANCH  57  81
ATOM     81  C   UNL A   1      48.086  27.058  26.730  1.00  0.00     0.023 A 
ATOM     82  C   UNL A   1      47.782  27.278  25.357  1.00  0.00     0.031 A 
ATOM     83  C   UNL A   1      49.266  26.356  27.019  1.00  0.00     0.131 A 
ATOM     84  C   UNL A   1      48.687  26.905  24.345  1.00  0.00     0.055 A 
ATOM     85  C   UNL A   1      50.159  25.971  26.005  1.00  0.00     0.041 A 
ATOM     86  F   UNL A   1      49.647  26.158  28.289  1.00  0.00    -0.206 F 
ATOM     87  C   UNL A   1      49.887  26.266  24.668  1.00  0.00     0.022 A 
BRANCH  84  88
ATOM     88  S   UNL A   1      48.484  27.561  22.643  1.00  0.00     0.124 S 
ATOM     89  O   UNL A   1      48.512  26.348  21.836  1.00  0.00    -0.237 OA
ATOM     90  O   UNL A   1      47.200  28.253  22.698  1.00  0.00    -0.237 OA
ATOM     91  O   UNL A   1      49.640  28.447  22.493  1.00  0.00    -0.744 OA
ENDBRANCH  84  88
ENDBRANCH  57  81
BRANCH  69  92
ATOM     92  C   UNL A   1      44.207  33.201  27.582  1.00  0.00     0.023 A 
ATOM     93  C   UNL A   1      44.278  34.309  28.432  1.00  0.00     0.031 A 
ATOM     94  C   UNL A   1      43.926  33.477  26.224  1.00  0.00     0.131 A 
ATOM     95  C   UNL A   1      43.972  35.595  27.971  1.00  0.00     0.055 A 
ATOM     96  C   UNL A   1      43.734  34.774  25.743  1.00  0.00     0.041 A 
ATOM     97  F   UNL A   1      43.840  32.508  25.303  1.00  0.00    -0.206 F 
ATOM     98  C   UNL A   1      43.733  35.844  26.624  1.00  0.00     0.022 A 
BRANCH  95  99
ATOM     99  S   UNL A   1      43.800  36.901  29.208  1.00  0.00     0.124 S 
ATOM    100  O   UNL A   1      42.661  37.653  28.686  1.00  0.00    -0.237 OA
ATOM    101  O   UNL A   1      43.550  36.147  30.432  1.00  0.00    -0.237 OA
ATOM    102  O   UNL A   1      45.082  37.597  29.152  1.00  0.00    -0.744 OA
ENDBRANCH  95  99
ENDBRANCH  69  92
ENDBRANCH  43  44
ENDBRANCH  36  38
ENDBRANCH  35  36
ENDBRANCH  34  35
ENDBRANCH   1  34
TORSDOF 19
ENDMDL
MODEL 2
REMARK VINA RESULT:     -12.4      4.377     10.567
REMARK SMILES Cc1ccc([C@H]2NC(=O)N(C)C3=C2C(=O)N(c2cccc(C(=O)OCCOCCOC(=O)c4ccc(-c5c6nc(c(-c7cc(S(=O)(=O)[O-])ccc7F)c7ccc([nH]7)c(-c7cc(S(=O)(=O)[O-])ccc7F)c7nc(c(-c8cc(S(=O)(=O)[O-])ccc8F)c8ccc5[nH]8)C=C7)C=C6)cc4)c2)C3)cc1
REMARK SMILES IDX 28 1 27 2 26 3 25 4 24 5 22 6 23 7 21 8 17 9 18 10 96 11
REMARK SMILES IDX 19 12 20 13 16 14 6 15 7 16 13 17 8 18 12 20 14 21 9 22
REMARK SMILES IDX 10 23 97 24 15 25 11 26 5 27 1 28 2 29 3 30 99 31 4 32 98 33
REMARK SMILES IDX 29 34 30 35 31 36 32 37 33 38 34 39 95 40 35 41 94 42 36 43
REMARK SMILES IDX 37 44 38 45 88 46 39 47 93 48 87 49 89 50 40 51 92 52 86 53
REMARK SMILES IDX 85 54 41 56 73 57 53 58 72 59 54 60 57 61 71 62 90 63 55 64
REMARK SMILES IDX 56 65 70 67 91 68 58 69 42 70 43 71 51 72 44 73 50 74 52 75
REMARK SMILES IDX 49 76 45 77 46 78 47 79 48 80 74 81 75 82 83 83 76 84 82 85
REMARK SMILES IDX 84 86 81 87 77 88 78 89 79 90 80 91 59 92 60 93 68 94 61 95
REMARK SMILES IDX 67 96 69 97 66 98 62 99 63 100 64 101 65 102
REMARK H PARENT 7 19 89 55 57 66
REMARK Flexibility Score: inf
ROOT
ATOM      1  C   UNL A   1      35.336  31.606  27.657  1.00  0.00     0.202 C 
ENDROOT
BRANCH   1   2
ATOM      2  O   UNL A   1      35.356  30.339  28.279  1.00  0.00    -0.374 OA
BRANCH   2   3
ATOM      3  C   UNL A   1      35.410  29.225  27.388  1.00  0.00     0.202 C 
BRANCH   3   4
ATOM      4  C   UNL A   1      33.982  28.881  27.094  1.00  0.00     0.261 C 
BRANCH   4   5
ATOM      5  O   UNL A   1      33.631  29.190  25.746  1.00  0.00    -0.460 OA
BRANCH   5   6
ATOM      6  C   UNL A   1      32.390  29.690  25.512  1.00  0.00     0.338 C 
ATOM      7  O   UNL A   1      31.860  30.649  25.998  1.00  0.00    -0.246 OA
BRANCH   6   8
ATOM      8  C   UNL A   1      31.853  28.923  24.369  1.00  0.00     0.062 A 
ATOM      9  C   UNL A   1      31.422  26.730  23.485  1.00  0.00     0.045 A 
ATOM     10  C   UNL A   1      30.675  27.297  22.448  1.00  0.00     0.026 A 
ATOM     11  C   UNL A   1      32.025  27.546  24.434  1.00  0.00     0.042 A 
ATOM     12  C   UNL A   1      30.512  28.682  22.379  1.00  0.00     0.003 A 
ATOM     13  C   UNL A   1      31.110  29.498  23.336  1.00  0.00     0.016 A 
BRANCH   9  14
ATOM     14  N   UNL A   1      31.594  25.346  23.580  1.00  0.00    -0.303 N 
ATOM     15  C   UNL A   1      33.772  22.389  23.501  1.00  0.00     0.152 C 
ATOM     16  N   UNL A   1      33.292  21.132  24.069  1.00  0.00    -0.327 N 
ATOM     17  C   UNL A   1      32.672  23.355  23.580  1.00  0.00     0.066 C 
ATOM     18  C   UNL A   1      32.231  20.975  24.923  1.00  0.00     0.322 C 
ATOM     19  H   UNL A   1      33.779  20.316  23.815  1.00  0.00     0.166 HD
ATOM     20  C   UNL A   1      31.641  23.253  24.414  1.00  0.00     0.053 C 
ATOM     21  C   UNL A   1      32.602  24.657  22.922  1.00  0.00     0.258 C 
ATOM     22  O   UNL A   1      32.025  19.874  25.428  1.00  0.00    -0.248 OA
ATOM     23  N   UNL A   1      31.424  22.094  25.124  1.00  0.00    -0.299 N 
ATOM     24  C   UNL A   1      30.889  24.528  24.539  1.00  0.00     0.180 C 
ATOM     25  O   UNL A   1      33.350  25.010  22.030  1.00  0.00    -0.269 OA
ATOM     26  C   UNL A   1      30.299  22.006  26.042  1.00  0.00     0.155 C 
BRANCH  15  27
ATOM     27  C   UNL A   1      35.058  22.823  24.207  1.00  0.00    -0.021 A 
ATOM     28  C   UNL A   1      38.621  24.139  26.314  1.00  0.00     0.044 C 
ATOM     29  C   UNL A   1      37.391  23.686  25.578  1.00  0.00    -0.051 A 
ATOM     30  C   UNL A   1      36.161  24.313  25.799  1.00  0.00     0.004 A 
ATOM     31  C   UNL A   1      37.456  22.635  24.665  1.00  0.00     0.004 A 
ATOM     32  C   UNL A   1      35.009  23.885  25.125  1.00  0.00     0.006 A 
ATOM     33  C   UNL A   1      36.309  22.214  23.982  1.00  0.00     0.006 A 
ENDBRANCH  15  27
ENDBRANCH   9  14
ENDBRANCH   6   8
ENDBRANCH   5   6
ENDBRANCH   4   5
ENDBRANCH   3   4
ENDBRANCH   2   3
ENDBRANCH   1   2
BRANCH   1  34
ATOM     34  C   UNL A   1      34.114  32.451  28.040  1.00  0.00     0.261 C 
BRANCH  34  35
ATOM     35  O   UNL A   1      34.539  33.711  28.603  1.00  0.00    -0.460 OA
BRANCH  35  36
ATOM     36  C   UNL A   1      34.565  33.775  29.964  1.00  0.00     0.338 C 
ATOM     37  O   UNL A   1      33.634  34.128  30.668  1.00  0.00    -0.246 OA
BRANCH  36  38
ATOM     38  C   UNL A   1      35.947  33.501  30.455  1.00  0.00     0.060 A 
ATOM     39  C   UNL A   1      37.067  34.036  29.785  1.00  0.00     0.016 A 
ATOM     40  C   UNL A   1      36.121  32.496  31.402  1.00  0.00     0.016 A 
ATOM     41  C   UNL A   1      38.341  33.476  29.978  1.00  0.00     0.010 A 
ATOM     42  C   UNL A   1      37.350  31.885  31.507  1.00  0.00     0.010 A 
ATOM     43  C   UNL A   1      38.468  32.356  30.801  1.00  0.00    -0.014 A 
BRANCH  43  44
ATOM     44  C   UNL A   1      39.648  31.498  30.920  1.00  0.00     0.031 A 
ATOM     45  C   UNL A   1      39.766  30.308  30.050  1.00  0.00     0.074 A 
ATOM     46  C   UNL A   1      40.739  31.900  31.614  1.00  0.00     0.049 A 
ATOM     47  N   UNL A   1      40.514  29.296  30.326  1.00  0.00    -0.248 NA
ATOM     48  C   UNL A   1      39.025  30.140  28.800  1.00  0.00     0.031 C 
ATOM     49  C   UNL A   1      42.126  31.482  31.425  1.00  0.00     0.029 A 
ATOM     50  N   UNL A   1      40.809  32.789  32.677  1.00  0.00    -0.354 N 
ATOM     51  C   UNL A   1      40.622  28.545  29.180  1.00  0.00     0.074 A 
ATOM     52  C   UNL A   1      39.604  29.050  28.294  1.00  0.00     0.031 C 
ATOM     53  C   UNL A   1      42.882  31.963  32.427  1.00  0.00     0.029 A 
ATOM     54  C   UNL A   1      42.000  32.608  33.385  1.00  0.00     0.049 A 
ATOM     55  H   UNL A   1      40.118  33.452  32.902  1.00  0.00     0.167 HD
ATOM     56  C   UNL A   1      41.673  27.693  29.026  1.00  0.00     0.034 A 
ATOM     57  C   UNL A   1      41.957  32.433  34.732  1.00  0.00     0.034 A 
ATOM     58  C   UNL A   1      42.619  27.820  30.141  1.00  0.00     0.049 A 
ATOM     59  C   UNL A   1      42.302  30.993  35.024  1.00  0.00     0.074 A 
ATOM     60  C   UNL A   1      43.850  28.448  30.250  1.00  0.00     0.029 A 
ATOM     61  N   UNL A   1      42.205  27.555  31.446  1.00  0.00    -0.354 N 
ATOM     62  N   UNL A   1      42.351  30.083  34.087  1.00  0.00    -0.248 NA
ATOM     63  C   UNL A   1      42.679  30.460  36.326  1.00  0.00     0.031 C 
ATOM     64  C   UNL A   1      44.145  28.606  31.632  1.00  0.00     0.029 A 
ATOM     65  C   UNL A   1      43.116  28.040  32.368  1.00  0.00     0.049 A 
ATOM     66  H   UNL A   1      41.374  27.083  31.681  1.00  0.00     0.167 HD
ATOM     67  C   UNL A   1      42.783  28.900  34.595  1.00  0.00     0.074 A 
ATOM     68  C   UNL A   1      42.966  29.181  36.011  1.00  0.00     0.031 C 
ATOM     69  C   UNL A   1      42.941  27.801  33.799  1.00  0.00     0.034 A 
BRANCH  56  70
ATOM     70  C   UNL A   1      41.996  27.012  27.713  1.00  0.00     0.023 A 
ATOM     71  C   UNL A   1      42.167  25.614  27.672  1.00  0.00     0.031 A 
ATOM     72  C   UNL A   1      42.150  27.672  26.475  1.00  0.00     0.131 A 
ATOM     73  C   UNL A   1      42.574  24.958  26.496  1.00  0.00     0.055 A 
ATOM     74  C   UNL A   1      42.628  27.033  25.323  1.00  0.00     0.041 A 
ATOM     75  F   UNL A   1      41.784  28.951  26.311  1.00  0.00    -0.206 F 
ATOM     76  C   UNL A   1      42.853  25.666  25.332  1.00  0.00     0.022 A 
BRANCH  73  77
ATOM     77  S   UNL A   1      42.676  23.147  26.491  1.00  0.00     0.124 S 
ATOM     78  O   UNL A   1      42.491  22.831  25.079  1.00  0.00    -0.237 OA
ATOM     79  O   UNL A   1      44.006  22.909  27.039  1.00  0.00    -0.237 OA
ATOM     80  O   UNL A   1      41.573  22.744  27.363  1.00  0.00    -0.744 OA
ENDBRANCH  73  77
ENDBRANCH  56  70
BRANCH  57  81
ATOM     81  C   UNL A   1      40.937  33.322  35.383  1.00  0.00     0.023 A 
ATOM     82  C   UNL A   1      39.754  32.699  35.869  1.00  0.00     0.031 A 
ATOM     83  C   UNL A   1      41.274  34.569  35.930  1.00  0.00     0.131 A 
ATOM     84  C   UNL A   1      39.022  33.263  36.932  1.00  0.00     0.055 A 
ATOM     85  C   UNL A   1      40.533  35.137  36.980  1.00  0.00     0.041 A 
ATOM     86  F   UNL A   1      42.404  35.192  35.562  1.00  0.00    -0.206 F 
ATOM     87  C   UNL A   1      39.420  34.475  37.502  1.00  0.00     0.022 A 
BRANCH  84  88
ATOM     88  S   UNL A   1      37.765  32.261  37.816  1.00  0.00     0.124 S 
ATOM     89  O   UNL A   1      37.828  30.988  37.110  1.00  0.00    -0.237 OA
ATOM     90  O   UNL A   1      38.253  32.244  39.192  1.00  0.00    -0.237 OA
ATOM     91  O   UNL A   1      36.535  33.031  37.623  1.00  0.00    -0.744 OA
ENDBRANCH  84  88
ENDBRANCH  57  81
BRANCH  69  92
ATOM     92  C   UNL A   1      43.036  26.395  34.319  1.00  0.00     0.023 A 
ATOM     93  C   UNL A   1      44.246  25.695  34.342  1.00  0.00     0.031 A 
ATOM     94  C   UNL A   1      41.932  25.748  34.923  1.00  0.00     0.131 A 
ATOM     95  C   UNL A   1      44.314  24.386  34.832  1.00  0.00     0.055 A 
ATOM     96  C   UNL A   1      42.030  24.488  35.515  1.00  0.00     0.041 A 
ATOM     97  F   UNL A   1      40.718  26.314  34.978  1.00  0.00    -0.206 F 
ATOM     98  C   UNL A   1      43.223  23.786  35.452  1.00  0.00     0.022 A 
BRANCH  95  99
ATOM     99  S   UNL A   1      45.843  23.469  34.539  1.00  0.00     0.124 S 
ATOM    100  O   UNL A   1      45.331  22.143  34.197  1.00  0.00    -0.237 OA
ATOM    101  O   UNL A   1      46.453  24.211  33.441  1.00  0.00    -0.237 OA
ATOM    102  O   UNL A   1      46.544  23.553  35.817  1.00  0.00    -0.744 OA
ENDBRANCH  95  99
ENDBRANCH  69  92
ENDBRANCH  43  44
ENDBRANCH  36  38
ENDBRANCH  35  36
ENDBRANCH  34  35
ENDBRANCH   1  34
TORSDOF 19
ENDMDL
MODEL 3
REMARK VINA RESULT:     -12.3      3.957      5.810
REMARK SMILES Cc1ccc([C@H]2NC(=O)N(C)C3=C2C(=O)N(c2cccc(C(=O)OCCOCCOC(=O)c4ccc(-c5c6nc(c(-c7cc(S(=O)(=O)[O-])ccc7F)c7ccc([nH]7)c(-c7cc(S(=O)(=O)[O-])ccc7F)c7nc(c(-c8cc(S(=O)(=O)[O-])ccc8F)c8ccc5[nH]8)C=C7)C=C6)cc4)c2)C3)cc1
REMARK SMILES IDX 28 1 27 2 26 3 25 4 24 5 22 6 23 7 21 8 17 9 18 10 96 11
REMARK SMILES IDX 19 12 20 13 16 14 6 15 7 16 13 17 8 18 12 20 14 21 9 22
REMARK SMILES IDX 10 23 97 24 15 25 11 26 5 27 1 28 2 29 3 30 99 31 4 32 98 33
REMARK SMILES IDX 29 34 30 35 31 36 32 37 33 38 34 39 95 40 35 41 94 42 36 43
REMARK SMILES IDX 37 44 38 45 88 46 39 47 93 48 87 49 89 50 40 51 92 52 86 53
REMARK SMILES IDX 85 54 41 56 73 57 53 58 72 59 54 60 57 61 71 62 90 63 55 64
REMARK SMILES IDX 56 65 70 67 91 68 58 69 42 70 43 71 51 72 44 73 50 74 52 75
REMARK SMILES IDX 49 76 45 77 46 78 47 79 48 80 74 81 75 82 83 83 76 84 82 85
REMARK SMILES IDX 84 86 81 87 77 88 78 89 79 90 80 91 59 92 60 93 68 94 61 95
REMARK SMILES IDX 67 96 69 97 66 98 62 99 63 100 64 101 65 102
REMARK H PARENT 7 19 89 55 57 66
REMARK Flexibility Score: inf
ROOT
ATOM      1  C   UNL A   1      42.944  22.369  26.048  1.00  0.00     0.202 C 
ENDROOT
BRANCH   1   2
ATOM      2  O   UNL A   1      41.727  21.990  25.442  1.00  0.00    -0.374 OA
BRANCH   2   3
ATOM      3  C   UNL A   1      40.944  21.056  26.184  1.00  0.00     0.202 C 
BRANCH   3   4
ATOM      4  C   UNL A   1      39.752  21.828  26.664  1.00  0.00     0.261 C 
BRANCH   4   5
ATOM      5  O   UNL A   1      38.743  21.921  25.660  1.00  0.00    -0.460 OA
BRANCH   5   6
ATOM      6  C   UNL A   1      37.841  22.931  25.758  1.00  0.00     0.338 C 
ATOM      7  O   UNL A   1      38.037  24.105  25.904  1.00  0.00    -0.246 OA
BRANCH   6   8
ATOM      8  C   UNL A   1      36.525  22.331  25.455  1.00  0.00     0.062 A 
ATOM      9  C   UNL A   1      34.293  22.750  24.669  1.00  0.00     0.045 A 
ATOM     10  C   UNL A   1      34.064  21.373  24.592  1.00  0.00     0.026 A 
ATOM     11  C   UNL A   1      35.519  23.227  25.118  1.00  0.00     0.042 A 
ATOM     12  C   UNL A   1      35.074  20.475  24.940  1.00  0.00     0.003 A 
ATOM     13  C   UNL A   1      36.305  20.954  25.382  1.00  0.00     0.016 A 
BRANCH   9  14
ATOM     14  N   UNL A   1      33.300  23.670  24.319  1.00  0.00    -0.303 N 
ATOM     15  C   UNL A   1      31.258  26.618  25.115  1.00  0.00     0.152 C 
ATOM     16  N   UNL A   1      30.563  27.319  24.038  1.00  0.00    -0.327 N 
ATOM     17  C   UNL A   1      31.904  25.439  24.529  1.00  0.00     0.066 C 
ATOM     18  C   UNL A   1      30.818  27.208  22.696  1.00  0.00     0.322 C 
ATOM     19  H   UNL A   1      29.841  27.932  24.303  1.00  0.00     0.166 HD
ATOM     20  C   UNL A   1      32.193  25.307  23.237  1.00  0.00     0.053 C 
ATOM     21  C   UNL A   1      32.501  24.319  25.249  1.00  0.00     0.258 C 
ATOM     22  O   UNL A   1      30.245  27.961  21.912  1.00  0.00    -0.248 OA
ATOM     23  N   UNL A   1      31.699  26.198  22.311  1.00  0.00    -0.299 N 
ATOM     24  C   UNL A   1      33.155  24.204  22.985  1.00  0.00     0.180 C 
ATOM     25  O   UNL A   1      32.332  24.104  26.434  1.00  0.00    -0.269 OA
ATOM     26  C   UNL A   1      32.037  26.045  20.905  1.00  0.00     0.155 C 
BRANCH  15  27
ATOM     27  C   UNL A   1      32.207  27.578  25.835  1.00  0.00    -0.021 A 
ATOM     28  C   UNL A   1      34.776  30.362  27.960  1.00  0.00     0.044 C 
ATOM     29  C   UNL A   1      33.890  29.401  27.218  1.00  0.00    -0.051 A 
ATOM     30  C   UNL A   1      32.500  29.560  27.233  1.00  0.00     0.004 A 
ATOM     31  C   UNL A   1      34.437  28.336  26.504  1.00  0.00     0.004 A 
ATOM     32  C   UNL A   1      31.670  28.659  26.553  1.00  0.00     0.006 A 
ATOM     33  C   UNL A   1      33.609  27.442  25.815  1.00  0.00     0.006 A 
ENDBRANCH  15  27
ENDBRANCH   9  14
ENDBRANCH   6   8
ENDBRANCH   5   6
ENDBRANCH   4   5
ENDBRANCH   3   4
ENDBRANCH   2   3
ENDBRANCH   1   2
BRANCH   1  34
ATOM     34  C   UNL A   1      42.804  23.571  26.992  1.00  0.00     0.261 C 
BRANCH  34  35
ATOM     35  O   UNL A   1      42.929  24.802  26.249  1.00  0.00    -0.460 OA
BRANCH  35  36
ATOM     36  C   UNL A   1      41.813  25.585  26.204  1.00  0.00     0.338 C 
ATOM     37  O   UNL A   1      41.226  25.912  25.187  1.00  0.00    -0.246 OA
BRANCH  36  38
ATOM     38  C   UNL A   1      41.512  26.111  27.567  1.00  0.00     0.060 A 
ATOM     39  C   UNL A   1      40.224  25.969  28.124  1.00  0.00     0.016 A 
ATOM     40  C   UNL A   1      42.429  26.978  28.154  1.00  0.00     0.016 A 
ATOM     41  C   UNL A   1      39.821  26.787  29.193  1.00  0.00     0.010 A 
ATOM     42  C   UNL A   1      41.994  27.847  29.129  1.00  0.00     0.010 A 
ATOM     43  C   UNL A   1      40.696  27.771  29.656  1.00  0.00    -0.014 A 
BRANCH  43  44
ATOM     44  C   UNL A   1      40.364  28.864  30.573  1.00  0.00     0.031 A 
ATOM     45  C   UNL A   1      39.566  30.005  30.076  1.00  0.00     0.074 A 
ATOM     46  C   UNL A   1      40.545  28.736  31.908  1.00  0.00     0.049 A 
ATOM     47  N   UNL A   1      39.558  31.165  30.637  1.00  0.00    -0.248 NA
ATOM     48  C   UNL A   1      38.727  29.950  28.880  1.00  0.00     0.031 C 
ATOM     49  C   UNL A   1      39.830  29.427  32.980  1.00  0.00     0.029 A 
ATOM     50  N   UNL A   1      41.455  27.937  32.587  1.00  0.00    -0.354 N 
ATOM     51  C   UNL A   1      38.495  31.863  30.115  1.00  0.00     0.074 A 
ATOM     52  C   UNL A   1      38.074  31.110  28.960  1.00  0.00     0.031 C 
ATOM     53  C   UNL A   1      40.425  29.167  34.158  1.00  0.00     0.029 A 
ATOM     54  C   UNL A   1      41.631  28.400  33.892  1.00  0.00     0.049 A 
ATOM     55  H   UNL A   1      41.913  27.155  32.201  1.00  0.00     0.167 HD
ATOM     56  C   UNL A   1      37.966  32.908  30.809  1.00  0.00     0.034 A 
ATOM     57  C   UNL A   1      42.888  28.631  34.356  1.00  0.00     0.034 A 
ATOM     58  C   UNL A   1      38.601  33.040  32.125  1.00  0.00     0.049 A 
ATOM     59  C   UNL A   1      43.072  30.124  34.473  1.00  0.00     0.074 A 
ATOM     60  C   UNL A   1      38.181  32.691  33.400  1.00  0.00     0.029 A 
ATOM     61  N   UNL A   1      39.971  33.278  32.222  1.00  0.00    -0.354 N 
ATOM     62  N   UNL A   1      42.231  30.975  33.948  1.00  0.00    -0.248 NA
ATOM     63  C   UNL A   1      44.133  30.790  35.217  1.00  0.00     0.031 C 
ATOM     64  C   UNL A   1      39.321  32.669  34.249  1.00  0.00     0.029 A 
ATOM     65  C   UNL A   1      40.430  33.043  33.507  1.00  0.00     0.049 A 
ATOM     66  H   UNL A   1      40.539  33.575  31.475  1.00  0.00     0.167 HD
ATOM     67  C   UNL A   1      42.568  32.246  34.284  1.00  0.00     0.074 A 
ATOM     68  C   UNL A   1      43.779  32.083  35.074  1.00  0.00     0.031 C 
ATOM     69  C   UNL A   1      41.819  33.312  33.872  1.00  0.00     0.034 A 
BRANCH  56  70
ATOM     70  C   UNL A   1      36.661  33.574  30.426  1.00  0.00     0.023 A 
ATOM     71  C   UNL A   1      35.741  33.940  31.428  1.00  0.00     0.031 A 
ATOM     72  C   UNL A   1      36.262  33.874  29.106  1.00  0.00     0.131 A 
ATOM     73  C   UNL A   1      34.473  34.460  31.107  1.00  0.00     0.055 A 
ATOM     74  C   UNL A   1      34.974  34.320  28.780  1.00  0.00     0.041 A 
ATOM     75  F   UNL A   1      37.122  33.807  28.079  1.00  0.00    -0.206 F 
ATOM     76  C   UNL A   1      34.065  34.607  29.785  1.00  0.00     0.022 A 
BRANCH  73  77
ATOM     77  S   UNL A   1      33.382  35.003  32.449  1.00  0.00     0.124 S 
ATOM     78  O   UNL A   1      33.083  33.748  33.132  1.00  0.00    -0.237 OA
ATOM     79  O   UNL A   1      34.224  35.948  33.173  1.00  0.00    -0.237 OA
ATOM     80  O   UNL A   1      32.251  35.604  31.743  1.00  0.00    -0.744 OA
ENDBRANCH  73  77
ENDBRANCH  56  70
BRANCH  57  81
ATOM     81  C   UNL A   1      43.858  27.581  33.897  1.00  0.00     0.023 A 
ATOM     82  C   UNL A   1      43.880  26.358  34.623  1.00  0.00     0.031 A 
ATOM     83  C   UNL A   1      44.369  27.558  32.590  1.00  0.00     0.131 A 
ATOM     84  C   UNL A   1      44.292  25.158  34.011  1.00  0.00     0.055 A 
ATOM     85  C   UNL A   1      44.793  26.362  31.988  1.00  0.00     0.041 A 
ATOM     86  F   UNL A   1      44.331  28.659  31.824  1.00  0.00    -0.206 F 
ATOM     87  C   UNL A   1      44.732  25.154  32.685  1.00  0.00     0.022 A 
BRANCH  84  88
ATOM     88  S   UNL A   1      43.923  23.547  34.807  1.00  0.00     0.124 S 
ATOM     89  O   UNL A   1      44.522  22.596  33.880  1.00  0.00    -0.237 OA
ATOM     90  O   UNL A   1      44.574  23.656  36.109  1.00  0.00    -0.237 OA
ATOM     91  O   UNL A   1      42.460  23.536  34.865  1.00  0.00    -0.744 OA
ENDBRANCH  84  88
ENDBRANCH  57  81
BRANCH  69  92
ATOM     92  C   UNL A   1      42.312  34.731  33.865  1.00  0.00     0.023 A 
ATOM     93  C   UNL A   1      42.965  35.281  32.758  1.00  0.00     0.031 A 
ATOM     94  C   UNL A   1      42.038  35.620  34.930  1.00  0.00     0.131 A 
ATOM     95  C   UNL A   1      43.416  36.606  32.770  1.00  0.00     0.055 A 
ATOM     96  C   UNL A   1      42.387  36.971  34.892  1.00  0.00     0.041 A 
ATOM     97  F   UNL A   1      41.409  35.224  36.045  1.00  0.00    -0.206 F 
ATOM     98  C   UNL A   1      43.103  37.469  33.815  1.00  0.00     0.022 A 
BRANCH  95  99
ATOM     99  S   UNL A   1      44.505  37.124  31.425  1.00  0.00     0.124 S 
ATOM    100  O   UNL A   1      44.197  36.133  30.397  1.00  0.00    -0.237 OA
ATOM    101  O   UNL A   1      44.046  38.482  31.150  1.00  0.00    -0.237 OA
ATOM    102  O   UNL A   1      45.841  37.021  32.006  1.00  0.00    -0.744 OA
ENDBRANCH  95  99
ENDBRANCH  69  92
ENDBRANCH  43  44
ENDBRANCH  36  38
ENDBRANCH  35  36
ENDBRANCH  34  35
ENDBRANCH   1  34
TORSDOF 19
ENDMDL
