MODEL 1
REMARK VINA RESULT:      -9.6      0.000      0.000
REMARK SMILES N#C[C@@]1([C@@H](O)C(=O)OCCOCCOC(=O)c2ccc(-c3c4nc(c(-c5cc(S(=O)(=O)[O-])ccc5F)c5ccc([nH]5)c(-c5cc(S(=O)(=O)[O-])ccc5F)c5nc(c(-c6cc(S(=O)(=O)[O-])ccc6F)c6ccc3[nH]6)C=C5)C=C4)cc2)CCCc2ccccc21
REMARK SMILES IDX 12 1 11 2 10 3 9 4 8 5 6 6 7 7 4 8 3 9 80 10 88 11 81 12
REMARK SMILES IDX 83 13 87 14 82 15 84 16 86 17 85 18 2 19 1 20 5 21 13 23
REMARK SMILES IDX 14 24 15 25 16 26 17 27 18 28 79 29 19 30 78 31 20 32 21 33
REMARK SMILES IDX 22 34 72 35 23 36 77 37 71 38 73 39 24 40 76 41 70 42 69 43
REMARK SMILES IDX 25 45 57 46 37 47 56 48 38 49 41 50 55 51 74 52 39 53 40 54
REMARK SMILES IDX 54 56 75 57 42 58 26 59 27 60 35 61 28 62 34 63 36 64 33 65
REMARK SMILES IDX 29 66 30 67 31 68 32 69 58 70 59 71 67 72 60 73 66 74 68 75
REMARK SMILES IDX 65 76 61 77 62 78 63 79 64 80 43 81 44 82 52 83 45 84 51 85
REMARK SMILES IDX 53 86 50 87 46 88 47 89 48 90 49 91
REMARK H PARENT 5 22 73 44 41 55
REMARK Flexibility Score: inf
ROOT
ATOM      1  C   UNL A   1      41.025  19.483  26.534  1.00  0.00     0.202 C 
ENDROOT
BRANCH   1   2
ATOM      2  O   UNL A   1      41.792  18.655  25.662  1.00  0.00    -0.374 OA
BRANCH   2   3
ATOM      3  C   UNL A   1      43.193  18.577  25.919  1.00  0.00     0.202 C 
BRANCH   3   4
ATOM      4  C   UNL A   1      44.081  19.500  25.084  1.00  0.00     0.261 C 
BRANCH   4   5
ATOM      5  O   UNL A   1      44.169  20.838  25.625  1.00  0.00    -0.461 OA
BRANCH   5   6
ATOM      6  C   UNL A   1      45.201  21.611  25.199  1.00  0.00     0.337 C 
ATOM      7  O   UNL A   1      46.382  21.286  25.268  1.00  0.00    -0.249 OA
BRANCH   6   8
ATOM      8  C   UNL A   1      44.769  23.016  24.756  1.00  0.00     0.248 C 
BRANCH   8   9
ATOM      9  C   UNL A   1      44.864  24.244  25.732  1.00  0.00     0.119 C 
ATOM     10  C   UNL A   1      46.242  24.958  25.710  1.00  0.00     0.031 C 
ATOM     11  C   UNL A   1      44.387  23.898  27.163  1.00  0.00    -0.021 A 
ATOM     12  C   UNL A   1      47.180  24.502  26.812  1.00  0.00     0.007 C 
ATOM     13  C   UNL A   1      45.207  24.089  28.294  1.00  0.00    -0.043 A 
ATOM     14  C   UNL A   1      43.059  23.468  27.381  1.00  0.00     0.006 A 
ATOM     15  C   UNL A   1      46.570  24.717  28.185  1.00  0.00     0.036 C 
ATOM     16  C   UNL A   1      44.712  23.806  29.581  1.00  0.00     0.004 A 
ATOM     17  C   UNL A   1      42.569  23.222  28.665  1.00  0.00     0.000 A 
ATOM     18  C   UNL A   1      43.402  23.374  29.765  1.00  0.00     0.000 A 
BRANCH   9  19
ATOM     19  C   UNL A   1      43.893  25.262  25.190  1.00  0.00     0.077 C 
ATOM     20  N   UNL A   1      43.130  26.046  24.809  1.00  0.00    -0.197 NA
ENDBRANCH   9  19
ENDBRANCH   8   9
BRANCH   8  21
ATOM     21  O   UNL A   1      45.470  23.286  23.526  1.00  0.00    -0.380 OA
ATOM     22  H   UNL A   1      45.833  24.185  23.552  1.00  0.00     0.211 HD
ENDBRANCH   8  21
ENDBRANCH   6   8
ENDBRANCH   5   6
ENDBRANCH   4   5
ENDBRANCH   3   4
ENDBRANCH   2   3
ENDBRANCH   1   2
BRANCH   1  23
ATOM     23  C   UNL A   1      40.773  20.922  26.045  1.00  0.00     0.261 C 
BRANCH  23  24
ATOM     24  O   UNL A   1      39.893  21.661  26.922  1.00  0.00    -0.460 OA
BRANCH  24  25
ATOM     25  C   UNL A   1      39.100  22.598  26.338  1.00  0.00     0.338 C 
ATOM     26  O   UNL A   1      38.162  22.376  25.593  1.00  0.00    -0.246 OA
BRANCH  25  27
ATOM     27  C   UNL A   1      39.378  23.944  26.922  1.00  0.00     0.060 A 
ATOM     28  C   UNL A   1      39.100  24.283  28.247  1.00  0.00     0.016 A 
ATOM     29  C   UNL A   1      39.935  24.909  26.075  1.00  0.00     0.016 A 
ATOM     30  C   UNL A   1      39.384  25.582  28.717  1.00  0.00     0.010 A 
ATOM     31  C   UNL A   1      40.249  26.189  26.554  1.00  0.00     0.010 A 
ATOM     32  C   UNL A   1      39.996  26.545  27.887  1.00  0.00    -0.014 A 
BRANCH  32  33
ATOM     33  C   UNL A   1      40.508  27.853  28.421  1.00  0.00     0.031 A 
ATOM     34  C   UNL A   1      41.979  28.114  28.660  1.00  0.00     0.074 A 
ATOM     35  C   UNL A   1      39.621  28.799  28.802  1.00  0.00     0.049 A 
ATOM     36  N   UNL A   1      42.552  29.164  29.198  1.00  0.00    -0.248 NA
ATOM     37  C   UNL A   1      42.923  27.066  28.253  1.00  0.00     0.031 C 
ATOM     38  C   UNL A   1      38.169  28.678  28.678  1.00  0.00     0.029 A 
ATOM     39  N   UNL A   1      39.799  30.035  29.385  1.00  0.00    -0.354 N 
ATOM     40  C   UNL A   1      43.921  28.904  29.202  1.00  0.00     0.074 A 
ATOM     41  C   UNL A   1      44.086  27.578  28.645  1.00  0.00     0.031 C 
ATOM     42  C   UNL A   1      37.592  29.795  29.145  1.00  0.00     0.029 A 
ATOM     43  C   UNL A   1      38.621  30.692  29.666  1.00  0.00     0.049 A 
ATOM     44  H   UNL A   1      40.687  30.412  29.582  1.00  0.00     0.167 HD
ATOM     45  C   UNL A   1      44.942  29.700  29.612  1.00  0.00     0.034 A 
ATOM     46  C   UNL A   1      38.376  31.867  30.288  1.00  0.00     0.034 A 
ATOM     47  C   UNL A   1      44.778  31.030  30.155  1.00  0.00     0.049 A 
ATOM     48  C   UNL A   1      39.527  32.717  30.767  1.00  0.00     0.074 A 
ATOM     49  C   UNL A   1      45.770  31.923  30.528  1.00  0.00     0.029 A 
ATOM     50  N   UNL A   1      43.570  31.662  30.410  1.00  0.00    -0.354 N 
ATOM     51  N   UNL A   1      40.815  32.496  30.661  1.00  0.00    -0.248 NA
ATOM     52  C   UNL A   1      39.197  33.984  31.439  1.00  0.00     0.031 C 
ATOM     53  C   UNL A   1      45.168  33.047  31.091  1.00  0.00     0.029 A 
ATOM     54  C   UNL A   1      43.797  32.910  30.973  1.00  0.00     0.049 A 
ATOM     55  H   UNL A   1      42.682  31.279  30.220  1.00  0.00     0.167 HD
ATOM     56  C   UNL A   1      41.443  33.610  31.216  1.00  0.00     0.074 A 
ATOM     57  C   UNL A   1      40.396  34.515  31.634  1.00  0.00     0.031 C 
ATOM     58  C   UNL A   1      42.771  33.847  31.366  1.00  0.00     0.034 A 
BRANCH  45  59
ATOM     59  C   UNL A   1      46.369  29.209  29.472  1.00  0.00     0.023 A 
ATOM     60  C   UNL A   1      47.039  29.327  28.235  1.00  0.00     0.031 A 
ATOM     61  C   UNL A   1      46.976  28.439  30.480  1.00  0.00     0.131 A 
ATOM     62  C   UNL A   1      48.240  28.637  28.022  1.00  0.00     0.055 A 
ATOM     63  C   UNL A   1      48.201  27.799  30.280  1.00  0.00     0.041 A 
ATOM     64  F   UNL A   1      46.375  28.281  31.671  1.00  0.00    -0.206 F 
ATOM     65  C   UNL A   1      48.828  27.880  29.040  1.00  0.00     0.022 A 
BRANCH  62  66
ATOM     66  S   UNL A   1      49.031  28.604  26.388  1.00  0.00     0.124 S 
ATOM     67  O   UNL A   1      49.691  29.907  26.348  1.00  0.00    -0.237 OA
ATOM     68  O   UNL A   1      49.924  27.455  26.505  1.00  0.00    -0.237 OA
ATOM     69  O   UNL A   1      47.915  28.446  25.462  1.00  0.00    -0.744 OA
ENDBRANCH  62  66
ENDBRANCH  45  59
BRANCH  46  70
ATOM     70  C   UNL A   1      36.961  32.329  30.444  1.00  0.00     0.023 A 
ATOM     71  C   UNL A   1      36.255  32.891  29.365  1.00  0.00     0.031 A 
ATOM     72  C   UNL A   1      36.327  32.293  31.698  1.00  0.00     0.131 A 
ATOM     73  C   UNL A   1      34.994  33.461  29.578  1.00  0.00     0.055 A 
ATOM     74  C   UNL A   1      35.033  32.784  31.886  1.00  0.00     0.041 A 
ATOM     75  F   UNL A   1      36.960  31.777  32.763  1.00  0.00    -0.206 F 
ATOM     76  C   UNL A   1      34.368  33.389  30.826  1.00  0.00     0.022 A 
BRANCH  73  77
ATOM     77  S   UNL A   1      34.188  34.443  28.282  1.00  0.00     0.124 S 
ATOM     78  O   UNL A   1      33.025  33.624  27.956  1.00  0.00    -0.237 OA
ATOM     79  O   UNL A   1      33.904  35.690  28.990  1.00  0.00    -0.237 OA
ATOM     80  O   UNL A   1      35.205  34.540  27.241  1.00  0.00    -0.744 OA
ENDBRANCH  73  77
ENDBRANCH  46  70
BRANCH  58  81
ATOM     81  C   UNL A   1      43.230  35.153  31.983  1.00  0.00     0.023 A 
ATOM     82  C   UNL A   1      43.523  36.256  31.155  1.00  0.00     0.031 A 
ATOM     83  C   UNL A   1      43.540  35.258  33.350  1.00  0.00     0.131 A 
ATOM     84  C   UNL A   1      44.161  37.384  31.686  1.00  0.00     0.055 A 
ATOM     85  C   UNL A   1      44.118  36.412  33.888  1.00  0.00     0.041 A 
ATOM     86  F   UNL A   1      43.297  34.236  34.187  1.00  0.00    -0.206 F 
ATOM     87  C   UNL A   1      44.449  37.474  33.051  1.00  0.00     0.022 A 
BRANCH  84  88
ATOM     88  S   UNL A   1      44.739  38.730  30.613  1.00  0.00     0.124 S 
ATOM     89  O   UNL A   1      43.510  39.485  30.383  1.00  0.00    -0.237 OA
ATOM     90  O   UNL A   1      45.727  39.394  31.459  1.00  0.00    -0.237 OA
ATOM     91  O   UNL A   1      45.273  38.042  29.442  1.00  0.00    -0.744 OA
ENDBRANCH  84  88
ENDBRANCH  58  81
ENDBRANCH  32  33
ENDBRANCH  25  27
ENDBRANCH  24  25
ENDBRANCH  23  24
ENDBRANCH   1  23
TORSDOF 20
ENDMDL
MODEL 2
REMARK VINA RESULT:      -9.3      4.218     10.025
REMARK SMILES N#C[C@@]1([C@@H](O)C(=O)OCCOCCOC(=O)c2ccc(-c3c4nc(c(-c5cc(S(=O)(=O)[O-])ccc5F)c5ccc([nH]5)c(-c5cc(S(=O)(=O)[O-])ccc5F)c5nc(c(-c6cc(S(=O)(=O)[O-])ccc6F)c6ccc3[nH]6)C=C5)C=C4)cc2)CCCc2ccccc21
REMARK SMILES IDX 12 1 11 2 10 3 9 4 8 5 6 6 7 7 4 8 3 9 80 10 88 11 81 12
REMARK SMILES IDX 83 13 87 14 82 15 84 16 86 17 85 18 2 19 1 20 5 21 13 23
REMARK SMILES IDX 14 24 15 25 16 26 17 27 18 28 79 29 19 30 78 31 20 32 21 33
REMARK SMILES IDX 22 34 72 35 23 36 77 37 71 38 73 39 24 40 76 41 70 42 69 43
REMARK SMILES IDX 25 45 57 46 37 47 56 48 38 49 41 50 55 51 74 52 39 53 40 54
REMARK SMILES IDX 54 56 75 57 42 58 26 59 27 60 35 61 28 62 34 63 36 64 33 65
REMARK SMILES IDX 29 66 30 67 31 68 32 69 58 70 59 71 67 72 60 73 66 74 68 75
REMARK SMILES IDX 65 76 61 77 62 78 63 79 64 80 43 81 44 82 52 83 45 84 51 85
REMARK SMILES IDX 53 86 50 87 46 88 47 89 48 90 49 91
REMARK H PARENT 5 22 73 44 41 55
REMARK Flexibility Score: inf
ROOT
ATOM      1  C   UNL A   1      35.737  20.787  25.355  1.00  0.00     0.202 C 
ENDROOT
BRANCH   1   2
ATOM      2  O   UNL A   1      35.666  22.101  24.805  1.00  0.00    -0.374 OA
BRANCH   2   3
ATOM      3  C   UNL A   1      34.575  22.370  23.927  1.00  0.00     0.202 C 
BRANCH   3   4
ATOM      4  C   UNL A   1      33.336  21.492  24.107  1.00  0.00     0.261 C 
BRANCH   4   5
ATOM      5  O   UNL A   1      32.101  22.204  23.868  1.00  0.00    -0.461 OA
BRANCH   5   6
ATOM      6  C   UNL A   1      31.845  23.279  24.657  1.00  0.00     0.337 C 
ATOM      7  O   UNL A   1      31.848  23.252  25.884  1.00  0.00    -0.249 OA
BRANCH   6   8
ATOM      8  C   UNL A   1      31.390  24.518  23.873  1.00  0.00     0.248 C 
BRANCH   8   9
ATOM      9  C   UNL A   1      32.340  25.755  23.678  1.00  0.00     0.119 C 
ATOM     10  C   UNL A   1      33.596  25.730  24.589  1.00  0.00     0.031 C 
ATOM     11  C   UNL A   1      31.577  27.100  23.740  1.00  0.00    -0.021 A 
ATOM     12  C   UNL A   1      33.439  26.540  25.862  1.00  0.00     0.007 C 
ATOM     13  C   UNL A   1      31.926  28.120  24.649  1.00  0.00    -0.043 A 
ATOM     14  C   UNL A   1      30.557  27.377  22.801  1.00  0.00     0.006 A 
ATOM     15  C   UNL A   1      33.115  27.991  25.561  1.00  0.00     0.036 C 
ATOM     16  C   UNL A   1      31.234  29.345  24.635  1.00  0.00     0.004 A 
ATOM     17  C   UNL A   1      29.901  28.609  22.776  1.00  0.00     0.000 A 
ATOM     18  C   UNL A   1      30.227  29.588  23.705  1.00  0.00     0.000 A 
BRANCH   9  19
ATOM     19  C   UNL A   1      32.877  25.629  22.275  1.00  0.00     0.077 C 
ATOM     20  N   UNL A   1      33.294  25.493  21.203  1.00  0.00    -0.197 NA
ENDBRANCH   9  19
ENDBRANCH   8   9
BRANCH   8  21
ATOM     21  O   UNL A   1      30.908  24.038  22.601  1.00  0.00    -0.380 OA
ATOM     22  H   UNL A   1      30.251  24.660  22.250  1.00  0.00     0.211 HD
ENDBRANCH   8  21
ENDBRANCH   6   8
ENDBRANCH   5   6
ENDBRANCH   4   5
ENDBRANCH   3   4
ENDBRANCH   2   3
ENDBRANCH   1   2
BRANCH   1  23
ATOM     23  C   UNL A   1      37.005  19.983  25.012  1.00  0.00     0.261 C 
BRANCH  23  24
ATOM     24  O   UNL A   1      38.184  20.815  24.922  1.00  0.00    -0.460 OA
BRANCH  24  25
ATOM     25  C   UNL A   1      39.217  20.497  25.747  1.00  0.00     0.338 C 
ATOM     26  O   UNL A   1      39.743  19.401  25.842  1.00  0.00    -0.246 OA
BRANCH  25  27
ATOM     27  C   UNL A   1      39.791  21.733  26.354  1.00  0.00     0.060 A 
ATOM     28  C   UNL A   1      40.899  21.734  27.203  1.00  0.00     0.016 A 
ATOM     29  C   UNL A   1      39.162  22.948  26.056  1.00  0.00     0.016 A 
ATOM     30  C   UNL A   1      41.373  22.948  27.744  1.00  0.00     0.010 A 
ATOM     31  C   UNL A   1      39.656  24.157  26.567  1.00  0.00     0.010 A 
ATOM     32  C   UNL A   1      40.780  24.182  27.406  1.00  0.00    -0.014 A 
BRANCH  32  33
ATOM     33  C   UNL A   1      41.397  25.498  27.789  1.00  0.00     0.031 A 
ATOM     34  C   UNL A   1      40.635  26.564  28.545  1.00  0.00     0.074 A 
ATOM     35  C   UNL A   1      42.643  25.790  27.355  1.00  0.00     0.049 A 
ATOM     36  N   UNL A   1      41.014  27.779  28.863  1.00  0.00    -0.248 NA
ATOM     37  C   UNL A   1      39.276  26.230  28.993  1.00  0.00     0.031 C 
ATOM     38  C   UNL A   1      43.488  24.885  26.576  1.00  0.00     0.029 A 
ATOM     39  N   UNL A   1      43.411  26.927  27.485  1.00  0.00    -0.354 N 
ATOM     40  C   UNL A   1      39.945  28.358  29.542  1.00  0.00     0.074 A 
ATOM     41  C   UNL A   1      38.886  27.370  29.555  1.00  0.00     0.031 C 
ATOM     42  C   UNL A   1      44.658  25.487  26.318  1.00  0.00     0.029 A 
ATOM     43  C   UNL A   1      44.633  26.847  26.852  1.00  0.00     0.049 A 
ATOM     44  H   UNL A   1      43.114  27.721  27.983  1.00  0.00     0.167 HD
ATOM     45  C   UNL A   1      39.860  29.587  30.115  1.00  0.00     0.034 A 
ATOM     46  C   UNL A   1      45.620  27.757  26.690  1.00  0.00     0.034 A 
ATOM     47  C   UNL A   1      40.922  30.568  30.115  1.00  0.00     0.049 A 
ATOM     48  C   UNL A   1      45.485  29.127  27.306  1.00  0.00     0.074 A 
ATOM     49  C   UNL A   1      40.933  31.807  30.735  1.00  0.00     0.029 A 
ATOM     50  N   UNL A   1      42.146  30.441  29.475  1.00  0.00    -0.354 N 
ATOM     51  N   UNL A   1      44.509  29.612  28.033  1.00  0.00    -0.248 NA
ATOM     52  C   UNL A   1      46.592  30.074  27.093  1.00  0.00     0.031 C 
ATOM     53  C   UNL A   1      42.114  32.464  30.394  1.00  0.00     0.029 A 
ATOM     54  C   UNL A   1      42.895  31.596  29.652  1.00  0.00     0.049 A 
ATOM     55  H   UNL A   1      42.439  29.648  28.969  1.00  0.00     0.167 HD
ATOM     56  C   UNL A   1      44.901  30.900  28.395  1.00  0.00     0.074 A 
ATOM     57  C   UNL A   1      46.214  31.112  27.828  1.00  0.00     0.031 C 
ATOM     58  C   UNL A   1      44.221  31.819  29.126  1.00  0.00     0.034 A 
BRANCH  45  59
ATOM     59  C   UNL A   1      38.591  29.978  30.847  1.00  0.00     0.023 A 
ATOM     60  C   UNL A   1      37.585  30.707  30.178  1.00  0.00     0.031 A 
ATOM     61  C   UNL A   1      38.479  29.824  32.240  1.00  0.00     0.131 A 
ATOM     62  C   UNL A   1      36.549  31.303  30.910  1.00  0.00     0.055 A 
ATOM     63  C   UNL A   1      37.413  30.374  32.957  1.00  0.00     0.041 A 
ATOM     64  F   UNL A   1      39.416  29.153  32.929  1.00  0.00    -0.206 F 
ATOM     65  C   UNL A   1      36.454  31.133  32.294  1.00  0.00     0.022 A 
BRANCH  62  66
ATOM     66  S   UNL A   1      35.348  32.408  30.115  1.00  0.00     0.124 S 
ATOM     67  O   UNL A   1      34.377  32.617  31.188  1.00  0.00    -0.237 OA
ATOM     68  O   UNL A   1      36.171  33.568  29.786  1.00  0.00    -0.237 OA
ATOM     69  O   UNL A   1      34.859  31.636  28.979  1.00  0.00    -0.744 OA
ENDBRANCH  62  66
ENDBRANCH  45  59
BRANCH  46  70
ATOM     70  C   UNL A   1      46.856  27.366  25.942  1.00  0.00     0.023 A 
ATOM     71  C   UNL A   1      47.080  27.806  24.625  1.00  0.00     0.031 A 
ATOM     72  C   UNL A   1      47.786  26.475  26.505  1.00  0.00     0.131 A 
ATOM     73  C   UNL A   1      48.159  27.297  23.893  1.00  0.00     0.055 A 
ATOM     74  C   UNL A   1      48.910  26.038  25.800  1.00  0.00     0.041 A 
ATOM     75  F   UNL A   1      47.614  26.016  27.753  1.00  0.00    -0.206 F 
ATOM     76  C   UNL A   1      49.090  26.435  24.480  1.00  0.00     0.022 A 
BRANCH  73  77
ATOM     77  S   UNL A   1      48.310  27.620  22.113  1.00  0.00     0.124 S 
ATOM     78  O   UNL A   1      49.495  28.469  22.056  1.00  0.00    -0.237 OA
ATOM     79  O   UNL A   1      48.475  26.269  21.581  1.00  0.00    -0.237 OA
ATOM     80  O   UNL A   1      47.049  28.270  21.773  1.00  0.00    -0.744 OA
ENDBRANCH  73  77
ENDBRANCH  46  70
BRANCH  58  81
ATOM     81  C   UNL A   1      44.861  33.162  29.416  1.00  0.00     0.023 A 
ATOM     82  C   UNL A   1      44.681  34.235  28.518  1.00  0.00     0.031 A 
ATOM     83  C   UNL A   1      45.776  33.335  30.470  1.00  0.00     0.131 A 
ATOM     84  C   UNL A   1      45.445  35.401  28.653  1.00  0.00     0.055 A 
ATOM     85  C   UNL A   1      46.489  34.525  30.638  1.00  0.00     0.041 A 
ATOM     86  F   UNL A   1      46.000  32.346  31.350  1.00  0.00    -0.206 F 
ATOM     87  C   UNL A   1      46.339  35.557  29.716  1.00  0.00     0.022 A 
BRANCH  84  88
ATOM     88  S   UNL A   1      45.389  36.711  27.398  1.00  0.00     0.124 S 
ATOM     89  O   UNL A   1      45.959  36.041  26.232  1.00  0.00    -0.237 OA
ATOM     90  O   UNL A   1      43.959  36.994  27.315  1.00  0.00    -0.237 OA
ATOM     91  O   UNL A   1      46.210  37.777  27.964  1.00  0.00    -0.744 OA
ENDBRANCH  84  88
ENDBRANCH  58  81
ENDBRANCH  32  33
ENDBRANCH  25  27
ENDBRANCH  24  25
ENDBRANCH  23  24
ENDBRANCH   1  23
TORSDOF 20
ENDMDL
MODEL 3
REMARK VINA RESULT:      -9.2      4.276     10.308
REMARK SMILES N#C[C@@]1([C@@H](O)C(=O)OCCOCCOC(=O)c2ccc(-c3c4nc(c(-c5cc(S(=O)(=O)[O-])ccc5F)c5ccc([nH]5)c(-c5cc(S(=O)(=O)[O-])ccc5F)c5nc(c(-c6cc(S(=O)(=O)[O-])ccc6F)c6ccc3[nH]6)C=C5)C=C4)cc2)CCCc2ccccc21
REMARK SMILES IDX 12 1 11 2 10 3 9 4 8 5 6 6 7 7 4 8 3 9 80 10 88 11 81 12
REMARK SMILES IDX 83 13 87 14 82 15 84 16 86 17 85 18 2 19 1 20 5 21 13 23
REMARK SMILES IDX 14 24 15 25 16 26 17 27 18 28 79 29 19 30 78 31 20 32 21 33
REMARK SMILES IDX 22 34 72 35 23 36 77 37 71 38 73 39 24 40 76 41 70 42 69 43
REMARK SMILES IDX 25 45 57 46 37 47 56 48 38 49 41 50 55 51 74 52 39 53 40 54
REMARK SMILES IDX 54 56 75 57 42 58 26 59 27 60 35 61 28 62 34 63 36 64 33 65
REMARK SMILES IDX 29 66 30 67 31 68 32 69 58 70 59 71 67 72 60 73 66 74 68 75
REMARK SMILES IDX 65 76 61 77 62 78 63 79 64 80 43 81 44 82 52 83 45 84 51 85
REMARK SMILES IDX 53 86 50 87 46 88 47 89 48 90 49 91
REMARK H PARENT 5 22 73 44 41 55
REMARK Flexibility Score: inf
ROOT
ATOM      1  C   UNL A   1      35.555  20.231  24.998  1.00  0.00     0.202 C 
ENDROOT
BRANCH   1   2
ATOM      2  O   UNL A   1      35.423  21.450  24.268  1.00  0.00    -0.374 OA
BRANCH   2   3
ATOM      3  C   UNL A   1      34.340  22.302  24.635  1.00  0.00     0.202 C 
BRANCH   3   4
ATOM      4  C   UNL A   1      32.997  21.614  24.881  1.00  0.00     0.261 C 
BRANCH   4   5
ATOM      5  O   UNL A   1      31.886  22.317  24.280  1.00  0.00    -0.461 OA
BRANCH   5   6
ATOM      6  C   UNL A   1      31.491  23.473  24.874  1.00  0.00     0.337 C 
ATOM      7  O   UNL A   1      31.254  23.588  26.072  1.00  0.00    -0.249 OA
BRANCH   6   8
ATOM      8  C   UNL A   1      31.211  24.607  23.877  1.00  0.00     0.248 C 
BRANCH   8   9
ATOM      9  C   UNL A   1      32.174  25.843  23.755  1.00  0.00     0.119 C 
ATOM     10  C   UNL A   1      33.341  25.831  24.778  1.00  0.00     0.031 C 
ATOM     11  C   UNL A   1      31.407  27.187  23.732  1.00  0.00    -0.021 A 
ATOM     12  C   UNL A   1      33.068  26.655  26.022  1.00  0.00     0.007 C 
ATOM     13  C   UNL A   1      31.671  28.218  24.657  1.00  0.00    -0.043 A 
ATOM     14  C   UNL A   1      30.477  27.452  22.701  1.00  0.00     0.006 A 
ATOM     15  C   UNL A   1      32.771  28.102  25.676  1.00  0.00     0.036 C 
ATOM     16  C   UNL A   1      30.982  29.442  24.565  1.00  0.00     0.004 A 
ATOM     17  C   UNL A   1      29.825  28.682  22.601  1.00  0.00     0.000 A 
ATOM     18  C   UNL A   1      30.063  29.672  23.544  1.00  0.00     0.000 A 
BRANCH   9  19
ATOM     19  C   UNL A   1      32.837  25.702  22.409  1.00  0.00     0.077 C 
ATOM     20  N   UNL A   1      33.346  25.634  21.371  1.00  0.00    -0.197 NA
ENDBRANCH   9  19
ENDBRANCH   8   9
BRANCH   8  21
ATOM     21  O   UNL A   1      31.020  23.979  22.593  1.00  0.00    -0.380 OA
ATOM     22  H   UNL A   1      30.446  23.204  22.695  1.00  0.00     0.211 HD
ENDBRANCH   8  21
ENDBRANCH   6   8
ENDBRANCH   5   6
ENDBRANCH   4   5
ENDBRANCH   3   4
ENDBRANCH   2   3
ENDBRANCH   1   2
BRANCH   1  23
ATOM     23  C   UNL A   1      36.952  19.583  24.975  1.00  0.00     0.261 C 
BRANCH  23  24
ATOM     24  O   UNL A   1      38.019  20.559  24.997  1.00  0.00    -0.460 OA
BRANCH  24  25
ATOM     25  C   UNL A   1      39.129  20.230  25.709  1.00  0.00     0.338 C 
ATOM     26  O   UNL A   1      39.693  19.150  25.692  1.00  0.00    -0.246 OA
BRANCH  25  27
ATOM     27  C   UNL A   1      39.717  21.449  26.338  1.00  0.00     0.060 A 
ATOM     28  C   UNL A   1      40.803  21.418  27.216  1.00  0.00     0.016 A 
ATOM     29  C   UNL A   1      39.127  22.680  26.030  1.00  0.00     0.016 A 
ATOM     30  C   UNL A   1      41.292  22.616  27.775  1.00  0.00     0.010 A 
ATOM     31  C   UNL A   1      39.638  23.874  26.560  1.00  0.00     0.010 A 
ATOM     32  C   UNL A   1      40.739  23.867  27.429  1.00  0.00    -0.014 A 
BRANCH  32  33
ATOM     33  C   UNL A   1      41.378  25.165  27.834  1.00  0.00     0.031 A 
ATOM     34  C   UNL A   1      40.622  26.249  28.570  1.00  0.00     0.074 A 
ATOM     35  C   UNL A   1      42.645  25.424  27.441  1.00  0.00     0.049 A 
ATOM     36  N   UNL A   1      41.023  27.453  28.904  1.00  0.00    -0.248 NA
ATOM     37  C   UNL A   1      39.241  25.951  28.974  1.00  0.00     0.031 C 
ATOM     38  C   UNL A   1      43.489  24.500  26.686  1.00  0.00     0.029 A 
ATOM     39  N   UNL A   1      43.438  26.540  27.598  1.00  0.00    -0.354 N 
ATOM     40  C   UNL A   1      39.948  28.059  29.551  1.00  0.00     0.074 A 
ATOM     41  C   UNL A   1      38.864  27.100  29.527  1.00  0.00     0.031 C 
ATOM     42  C   UNL A   1      44.682  25.070  26.467  1.00  0.00     0.029 A 
ATOM     43  C   UNL A   1      44.677  26.430  27.004  1.00  0.00     0.049 A 
ATOM     44  H   UNL A   1      43.147  27.342  28.090  1.00  0.00     0.167 HD
ATOM     45  C   UNL A   1      39.878  29.288  30.124  1.00  0.00     0.034 A 
ATOM     46  C   UNL A   1      45.693  27.313  26.876  1.00  0.00     0.034 A 
ATOM     47  C   UNL A   1      40.965  30.240  30.161  1.00  0.00     0.049 A 
ATOM     48  C   UNL A   1      45.575  28.685  27.491  1.00  0.00     0.074 A 
ATOM     49  C   UNL A   1      40.990  31.478  30.784  1.00  0.00     0.029 A 
ATOM     50  N   UNL A   1      42.204  30.083  29.559  1.00  0.00    -0.354 N 
ATOM     51  N   UNL A   1      44.589  29.194  28.190  1.00  0.00    -0.248 NA
ATOM     52  C   UNL A   1      46.713  29.603  27.316  1.00  0.00     0.031 C 
ATOM     53  C   UNL A   1      42.198  32.103  30.483  1.00  0.00     0.029 A 
ATOM     54  C   UNL A   1      42.979  31.217  29.763  1.00  0.00     0.049 A 
ATOM     55  H   UNL A   1      42.492  29.283  29.060  1.00  0.00     0.167 HD
ATOM     56  C   UNL A   1      45.004  30.471  28.567  1.00  0.00     0.074 A 
ATOM     57  C   UNL A   1      46.339  30.649  28.042  1.00  0.00     0.031 C 
ATOM     58  C   UNL A   1      44.326  31.405  29.280  1.00  0.00     0.034 A 
BRANCH  45  59
ATOM     59  C   UNL A   1      38.598  29.711  30.817  1.00  0.00     0.023 A 
ATOM     60  C   UNL A   1      37.626  30.455  30.114  1.00  0.00     0.031 A 
ATOM     61  C   UNL A   1      38.443  29.571  32.208  1.00  0.00     0.131 A 
ATOM     62  C   UNL A   1      36.583  31.078  30.812  1.00  0.00     0.055 A 
ATOM     63  C   UNL A   1      37.370  30.149  32.890  1.00  0.00     0.041 A 
ATOM     64  F   UNL A   1      39.346  28.887  32.928  1.00  0.00    -0.206 F 
ATOM     65  C   UNL A   1      36.445  30.922  32.195  1.00  0.00     0.022 A 
BRANCH  62  66
ATOM     66  S   UNL A   1      35.427  32.201  29.975  1.00  0.00     0.124 S 
ATOM     67  O   UNL A   1      36.307  33.301  29.584  1.00  0.00    -0.237 OA
ATOM     68  O   UNL A   1      34.938  31.374  28.877  1.00  0.00    -0.237 OA
ATOM     69  O   UNL A   1      34.449  32.528  31.006  1.00  0.00    -0.744 OA
ENDBRANCH  62  66
ENDBRANCH  45  59
BRANCH  46  70
ATOM     70  C   UNL A   1      46.941  26.891  26.166  1.00  0.00     0.023 A 
ATOM     71  C   UNL A   1      47.965  26.203  26.840  1.00  0.00     0.031 A 
ATOM     72  C   UNL A   1      47.161  27.250  24.825  1.00  0.00     0.131 A 
ATOM     73  C   UNL A   1      49.186  25.964  26.197  1.00  0.00     0.055 A 
ATOM     74  C   UNL A   1      48.348  26.932  24.161  1.00  0.00     0.041 A 
ATOM     75  F   UNL A   1      46.221  27.919  24.139  1.00  0.00    -0.206 F 
ATOM     76  C   UNL A   1      49.375  26.302  24.854  1.00  0.00     0.022 A 
BRANCH  73  77
ATOM     77  S   UNL A   1      50.616  25.341  27.123  1.00  0.00     0.124 S 
ATOM     78  O   UNL A   1      51.494  24.877  26.055  1.00  0.00    -0.237 OA
ATOM     79  O   UNL A   1      51.059  26.543  27.828  1.00  0.00    -0.237 OA
ATOM     80  O   UNL A   1      50.050  24.299  27.973  1.00  0.00    -0.744 OA
ENDBRANCH  73  77
ENDBRANCH  46  70
BRANCH  58  81
ATOM     81  C   UNL A   1      44.992  32.730  29.594  1.00  0.00     0.023 A 
ATOM     82  C   UNL A   1      44.942  33.782  28.655  1.00  0.00     0.031 A 
ATOM     83  C   UNL A   1      45.810  32.899  30.725  1.00  0.00     0.131 A 
ATOM     84  C   UNL A   1      45.739  34.920  28.831  1.00  0.00     0.055 A 
ATOM     85  C   UNL A   1      46.553  34.065  30.929  1.00  0.00     0.041 A 
ATOM     86  F   UNL A   1      45.909  31.928  31.648  1.00  0.00    -0.206 F 
ATOM     87  C   UNL A   1      46.535  35.074  29.970  1.00  0.00     0.022 A 
BRANCH  84  88
ATOM     88  S   UNL A   1      45.856  36.193  27.542  1.00  0.00     0.124 S 
ATOM     89  O   UNL A   1      47.268  36.565  27.609  1.00  0.00    -0.237 OA
ATOM     90  O   UNL A   1      45.463  35.454  26.345  1.00  0.00    -0.237 OA
ATOM     91  O   UNL A   1      44.922  37.226  27.980  1.00  0.00    -0.744 OA
ENDBRANCH  84  88
ENDBRANCH  58  81
ENDBRANCH  32  33
ENDBRANCH  25  27
ENDBRANCH  24  25
ENDBRANCH  23  24
ENDBRANCH   1  23
TORSDOF 20
ENDMDL
