MODEL 1
REMARK VINA RESULT:     -12.5      0.000      0.000
REMARK SMILES O=C(OCCOCCOC(=O)c1nccnc1C(=O)Nc1n[nH]c2ncccc12)c1ccc(-c2c3nc(c(-c4cc(S(=O)(=O)[O-])ccc4F)c4ccc([nH]4)c(-c4cc(S(=O)(=O)[O-])ccc4F)c4nc(c(-c5cc(S(=O)(=O)[O-])ccc5F)c5ccc2[nH]5)C=C4)C=C3)cc1
REMARK SMILES IDX 5 1 4 2 3 3 2 4 1 5 30 6 31 7 92 8 32 9 91 10 33 11 34 12
REMARK SMILES IDX 35 13 85 14 36 15 90 16 84 17 86 18 37 19 89 20 83 21 82 22
REMARK SMILES IDX 38 24 70 25 50 26 69 27 51 28 54 29 68 30 87 31 52 32 53 33
REMARK SMILES IDX 67 35 88 36 55 37 39 38 40 39 48 40 41 41 47 42 49 43 46 44
REMARK SMILES IDX 42 45 43 46 44 47 45 48 71 49 72 50 80 51 73 52 79 53 81 54
REMARK SMILES IDX 78 55 74 56 75 57 76 58 77 59 56 60 57 61 65 62 58 63 64 64
REMARK SMILES IDX 66 65 63 66 59 67 60 68 61 69 62 70 6 71 7 72 8 73 9 74
REMARK SMILES IDX 10 75 11 76 12 77 13 78 17 79 14 80 16 81 15 82 18 83 19 84
REMARK SMILES IDX 20 85 21 87 22 88 29 89 23 90 24 91 28 92 25 94 27 95 26 96
REMARK H PARENT 86 23 54 34 20 86 23 93
REMARK Flexibility Score: inf
ROOT
ATOM      1  C   UNL A   1      31.386  31.617  26.813  1.00  0.00     0.202 C 
ENDROOT
BRANCH   1   2
ATOM      2  C   UNL A   1      31.866  33.052  26.611  1.00  0.00     0.261 C 
BRANCH   2   3
ATOM      3  O   UNL A   1      32.285  33.674  27.837  1.00  0.00    -0.460 OA
BRANCH   3   4
ATOM      4  C   UNL A   1      33.523  34.179  28.086  1.00  0.00     0.338 C 
ATOM      5  O   UNL A   1      33.723  35.384  27.962  1.00  0.00    -0.246 OA
BRANCH   4   6
ATOM      6  C   UNL A   1      34.653  33.316  28.514  1.00  0.00     0.060 A 
ATOM      7  C   UNL A   1      34.516  31.961  28.814  1.00  0.00     0.016 A 
ATOM      8  C   UNL A   1      35.938  33.862  28.498  1.00  0.00     0.016 A 
ATOM      9  C   UNL A   1      35.575  31.201  29.273  1.00  0.00     0.010 A 
ATOM     10  C   UNL A   1      37.035  33.074  28.858  1.00  0.00     0.010 A 
ATOM     11  C   UNL A   1      36.845  31.754  29.301  1.00  0.00    -0.014 A 
BRANCH  11  12
ATOM     12  C   UNL A   1      37.915  31.010  29.991  1.00  0.00     0.031 A 
ATOM     13  C   UNL A   1      38.092  31.286  31.452  1.00  0.00     0.074 A 
ATOM     14  C   UNL A   1      38.607  30.043  29.365  1.00  0.00     0.049 A 
ATOM     15  N   UNL A   1      39.074  30.973  32.248  1.00  0.00    -0.248 NA
ATOM     16  C   UNL A   1      37.009  32.048  32.096  1.00  0.00     0.031 C 
ATOM     17  C   UNL A   1      38.368  29.577  27.995  1.00  0.00     0.029 A 
ATOM     18  N   UNL A   1      39.635  29.255  29.807  1.00  0.00    -0.354 N 
ATOM     19  C   UNL A   1      38.769  31.576  33.465  1.00  0.00     0.074 A 
ATOM     20  C   UNL A   1      37.514  32.273  33.295  1.00  0.00     0.031 C 
ATOM     21  C   UNL A   1      39.202  28.561  27.725  1.00  0.00     0.029 A 
ATOM     22  C   UNL A   1      40.108  28.384  28.853  1.00  0.00     0.049 A 
ATOM     23  H   UNL A   1      39.999  29.307  30.719  1.00  0.00     0.167 HD
ATOM     24  C   UNL A   1      39.500  31.556  34.605  1.00  0.00     0.034 A 
ATOM     25  C   UNL A   1      41.192  27.584  28.883  1.00  0.00     0.034 A 
ATOM     26  C   UNL A   1      40.730  30.811  34.705  1.00  0.00     0.049 A 
ATOM     27  C   UNL A   1      42.044  27.637  30.127  1.00  0.00     0.074 A 
ATOM     28  C   UNL A   1      41.629  30.743  35.751  1.00  0.00     0.029 A 
ATOM     29  N   UNL A   1      41.227  29.985  33.696  1.00  0.00    -0.354 N 
ATOM     30  N   UNL A   1      41.852  28.329  31.231  1.00  0.00    -0.248 NA
ATOM     31  C   UNL A   1      43.265  26.828  30.126  1.00  0.00     0.031 C 
ATOM     32  C   UNL A   1      42.696  29.928  35.350  1.00  0.00     0.029 A 
ATOM     33  C   UNL A   1      42.425  29.417  34.088  1.00  0.00     0.049 A 
ATOM     34  H   UNL A   1      40.786  29.829  32.830  1.00  0.00     0.167 HD
ATOM     35  C   UNL A   1      42.916  28.016  32.068  1.00  0.00     0.074 A 
ATOM     36  C   UNL A   1      43.736  27.061  31.342  1.00  0.00     0.031 C 
ATOM     37  C   UNL A   1      43.200  28.468  33.319  1.00  0.00     0.034 A 
BRANCH  24  38
ATOM     38  C   UNL A   1      39.036  32.458  35.726  1.00  0.00     0.023 A 
ATOM     39  C   UNL A   1      39.411  33.812  35.808  1.00  0.00     0.031 A 
ATOM     40  C   UNL A   1      38.334  31.908  36.814  1.00  0.00     0.131 A 
ATOM     41  C   UNL A   1      39.197  34.526  37.000  1.00  0.00     0.055 A 
ATOM     42  C   UNL A   1      38.031  32.657  37.954  1.00  0.00     0.041 A 
ATOM     43  F   UNL A   1      37.978  30.614  36.814  1.00  0.00    -0.206 F 
ATOM     44  C   UNL A   1      38.486  33.966  38.063  1.00  0.00     0.022 A 
BRANCH  41  45
ATOM     45  S   UNL A   1      40.052  36.113  37.224  1.00  0.00     0.124 S 
ATOM     46  O   UNL A   1      39.236  36.743  38.261  1.00  0.00    -0.237 OA
ATOM     47  O   UNL A   1      41.390  35.698  37.630  1.00  0.00    -0.237 OA
ATOM     48  O   UNL A   1      39.964  36.741  35.908  1.00  0.00    -0.744 OA
ENDBRANCH  41  45
ENDBRANCH  24  38
BRANCH  25  49
ATOM     49  C   UNL A   1      41.568  26.751  27.702  1.00  0.00     0.023 A 
ATOM     50  C   UNL A   1      41.253  25.384  27.645  1.00  0.00     0.031 A 
ATOM     51  C   UNL A   1      42.278  27.302  26.616  1.00  0.00     0.131 A 
ATOM     52  C   UNL A   1      41.668  24.611  26.547  1.00  0.00     0.055 A 
ATOM     53  C   UNL A   1      42.638  26.542  25.501  1.00  0.00     0.041 A 
ATOM     54  F   UNL A   1      42.617  28.601  26.614  1.00  0.00    -0.206 F 
ATOM     55  C   UNL A   1      42.343  25.185  25.467  1.00  0.00     0.022 A 
BRANCH  52  56
ATOM     56  S   UNL A   1      41.377  22.820  26.580  1.00  0.00     0.124 S 
ATOM     57  O   UNL A   1      39.925  22.752  26.463  1.00  0.00    -0.237 OA
ATOM     58  O   UNL A   1      42.137  22.368  25.420  1.00  0.00    -0.237 OA
ATOM     59  O   UNL A   1      41.918  22.411  27.875  1.00  0.00    -0.744 OA
ENDBRANCH  52  56
ENDBRANCH  25  49
BRANCH  37  60
ATOM     60  C   UNL A   1      44.411  27.869  33.984  1.00  0.00     0.023 A 
ATOM     61  C   UNL A   1      44.360  26.625  34.632  1.00  0.00     0.031 A 
ATOM     62  C   UNL A   1      45.631  28.568  33.973  1.00  0.00     0.131 A 
ATOM     63  C   UNL A   1      45.493  26.146  35.301  1.00  0.00     0.055 A 
ATOM     64  C   UNL A   1      46.774  28.053  34.579  1.00  0.00     0.041 A 
ATOM     65  F   UNL A   1      45.728  29.763  33.367  1.00  0.00    -0.206 F 
ATOM     66  C   UNL A   1      46.705  26.842  35.262  1.00  0.00     0.022 A 
BRANCH  63  67
ATOM     67  S   UNL A   1      45.333  24.654  36.319  1.00  0.00     0.124 S 
ATOM     68  O   UNL A   1      46.372  23.795  35.760  1.00  0.00    -0.237 OA
ATOM     69  O   UNL A   1      45.582  25.166  37.663  1.00  0.00    -0.237 OA
ATOM     70  O   UNL A   1      43.962  24.214  36.067  1.00  0.00    -0.744 OA
ENDBRANCH  63  67
ENDBRANCH  37  60
ENDBRANCH  11  12
ENDBRANCH   4   6
ENDBRANCH   3   4
ENDBRANCH   2   3
ENDBRANCH   1   2
BRANCH   1  71
ATOM     71  O   UNL A   1      32.165  30.614  26.183  1.00  0.00    -0.374 OA
BRANCH  71  72
ATOM     72  C   UNL A   1      32.738  29.565  26.955  1.00  0.00     0.202 C 
BRANCH  72  73
ATOM     73  C   UNL A   1      31.613  28.419  27.451  1.00  0.00     0.261 C 
BRANCH  73  74
ATOM     74  O   UNL A   1      31.186  26.600  26.633  1.00  0.00    -0.458 OA
BRANCH  74  75
ATOM     75  C   UNL A   1      31.305  25.332  25.971  1.00  0.00     0.359 C 
ATOM     76  O   UNL A   1      30.375  24.525  25.993  1.00  0.00    -0.244 OA
BRANCH  75  77
ATOM     77  C   UNL A   1      32.599  24.883  25.328  1.00  0.00     0.179 A 
ATOM     78  N   UNL A   1      33.445  24.448  26.338  1.00  0.00    -0.245 NA
ATOM     79  C   UNL A   1      33.031  24.943  23.987  1.00  0.00     0.161 A 
ATOM     80  C   UNL A   1      34.694  24.085  26.000  1.00  0.00     0.132 A 
ATOM     81  N   UNL A   1      34.343  24.595  23.715  1.00  0.00    -0.247 NA
ATOM     82  C   UNL A   1      35.140  24.167  24.709  1.00  0.00     0.132 A 
BRANCH  79  83
ATOM     83  C   UNL A   1      32.376  25.318  22.650  1.00  0.00     0.278 C 
ATOM     84  O   UNL A   1      32.621  24.595  21.673  1.00  0.00    -0.267 OA
ATOM     85  N   UNL A   1      31.505  26.341  22.390  1.00  0.00    -0.303 N 
ATOM     86  H   UNL A   1      30.978  26.246  21.564  1.00  0.00     0.172 HD
BRANCH  85  87
ATOM     87  C   UNL A   1      31.267  27.461  23.107  1.00  0.00     0.164 A 
ATOM     88  N   UNL A   1      32.259  28.337  23.323  1.00  0.00    -0.155 NA
ATOM     89  C   UNL A   1      30.009  27.880  23.528  1.00  0.00     0.063 A 
ATOM     90  N   UNL A   1      31.709  29.575  23.491  1.00  0.00    -0.259 N 
ATOM     91  C   UNL A   1      30.350  29.584  23.550  1.00  0.00     0.157 A 
ATOM     92  C   UNL A   1      28.262  27.335  23.463  1.00  0.00     0.017 A 
ATOM     93  H   UNL A   1      32.251  30.394  23.562  1.00  0.00     0.192 HD
ATOM     94  N   UNL A   1      29.155  30.806  23.500  1.00  0.00    -0.237 NA
ATOM     95  C   UNL A   1      26.979  28.578  23.363  1.00  0.00     0.021 A 
ATOM     96  C   UNL A   1      27.493  30.267  23.351  1.00  0.00     0.113 A 
ENDBRANCH  85  87
ENDBRANCH  79  83
ENDBRANCH  75  77
ENDBRANCH  74  75
ENDBRANCH  73  74
ENDBRANCH  72  73
ENDBRANCH  71  72
ENDBRANCH   1  71
TORSDOF 19
ENDMDL
MODEL 2
REMARK VINA RESULT:     -12.2      4.840     10.322
REMARK SMILES O=C(OCCOCCOC(=O)c1nccnc1C(=O)Nc1n[nH]c2ncccc12)c1ccc(-c2c3nc(c(-c4cc(S(=O)(=O)[O-])ccc4F)c4ccc([nH]4)c(-c4cc(S(=O)(=O)[O-])ccc4F)c4nc(c(-c5cc(S(=O)(=O)[O-])ccc5F)c5ccc2[nH]5)C=C4)C=C3)cc1
REMARK SMILES IDX 5 1 4 2 3 3 2 4 1 5 30 6 31 7 92 8 32 9 91 10 33 11 34 12
REMARK SMILES IDX 35 13 85 14 36 15 90 16 84 17 86 18 37 19 89 20 83 21 82 22
REMARK SMILES IDX 38 24 70 25 50 26 69 27 51 28 54 29 68 30 87 31 52 32 53 33
REMARK SMILES IDX 67 35 88 36 55 37 39 38 40 39 48 40 41 41 47 42 49 43 46 44
REMARK SMILES IDX 42 45 43 46 44 47 45 48 71 49 72 50 80 51 73 52 79 53 81 54
REMARK SMILES IDX 78 55 74 56 75 57 76 58 77 59 56 60 57 61 65 62 58 63 64 64
REMARK SMILES IDX 66 65 63 66 59 67 60 68 61 69 62 70 6 71 7 72 8 73 9 74
REMARK SMILES IDX 10 75 11 76 12 77 13 78 17 79 14 80 16 81 15 82 18 83 19 84
REMARK SMILES IDX 20 85 21 87 22 88 29 89 23 90 24 91 28 92 25 94 27 95 26 96
REMARK H PARENT 86 23 54 34 20 86 23 93
REMARK Flexibility Score: inf
ROOT
ATOM      1  C   UNL A   1      37.112  21.827  24.618  1.00  0.00     0.202 C 
ENDROOT
BRANCH   1   2
ATOM      2  C   UNL A   1      37.808  20.658  25.311  1.00  0.00     0.261 C 
BRANCH   2   3
ATOM      3  O   UNL A   1      39.235  20.820  25.371  1.00  0.00    -0.460 OA
BRANCH   3   4
ATOM      4  C   UNL A   1      39.957  21.073  26.495  1.00  0.00     0.338 C 
ATOM      5  O   UNL A   1      40.411  20.138  27.148  1.00  0.00    -0.246 OA
BRANCH   4   6
ATOM      6  C   UNL A   1      40.226  22.457  26.962  1.00  0.00     0.060 A 
ATOM      7  C   UNL A   1      39.461  23.560  26.583  1.00  0.00     0.016 A 
ATOM      8  C   UNL A   1      41.219  22.643  27.925  1.00  0.00     0.016 A 
ATOM      9  C   UNL A   1      39.776  24.844  26.984  1.00  0.00     0.010 A 
ATOM     10  C   UNL A   1      41.480  23.923  28.420  1.00  0.00     0.010 A 
ATOM     11  C   UNL A   1      40.793  25.036  27.905  1.00  0.00    -0.014 A 
BRANCH  11  12
ATOM     12  C   UNL A   1      41.258  26.413  28.153  1.00  0.00     0.031 A 
ATOM     13  C   UNL A   1      42.612  26.772  27.624  1.00  0.00     0.074 A 
ATOM     14  C   UNL A   1      40.451  27.330  28.714  1.00  0.00     0.049 A 
ATOM     15  N   UNL A   1      43.366  27.801  27.887  1.00  0.00    -0.248 NA
ATOM     16  C   UNL A   1      43.206  25.812  26.679  1.00  0.00     0.031 C 
ATOM     17  C   UNL A   1      39.049  27.117  29.085  1.00  0.00     0.029 A 
ATOM     18  N   UNL A   1      40.684  28.638  29.044  1.00  0.00    -0.354 N 
ATOM     19  C   UNL A   1      44.559  27.568  27.210  1.00  0.00     0.074 A 
ATOM     20  C   UNL A   1      44.423  26.300  26.530  1.00  0.00     0.031 C 
ATOM     21  C   UNL A   1      38.539  28.265  29.557  1.00  0.00     0.029 A 
ATOM     22  C   UNL A   1      39.605  29.256  29.632  1.00  0.00     0.049 A 
ATOM     23  H   UNL A   1      41.540  29.092  28.875  1.00  0.00     0.167 HD
ATOM     24  C   UNL A   1      45.665  28.347  27.191  1.00  0.00     0.034 A 
ATOM     25  C   UNL A   1      39.523  30.468  30.216  1.00  0.00     0.034 A 
ATOM     26  C   UNL A   1      45.712  29.617  27.872  1.00  0.00     0.049 A 
ATOM     27  C   UNL A   1      40.788  31.289  30.263  1.00  0.00     0.074 A 
ATOM     28  C   UNL A   1      46.769  30.493  28.019  1.00  0.00     0.029 A 
ATOM     29  N   UNL A   1      44.621  30.195  28.522  1.00  0.00    -0.354 N 
ATOM     30  N   UNL A   1      41.973  31.010  29.761  1.00  0.00    -0.248 NA
ATOM     31  C   UNL A   1      40.717  32.570  30.968  1.00  0.00     0.031 C 
ATOM     32  C   UNL A   1      46.335  31.566  28.808  1.00  0.00     0.029 A 
ATOM     33  C   UNL A   1      44.983  31.405  29.084  1.00  0.00     0.049 A 
ATOM     34  H   UNL A   1      43.722  29.797  28.572  1.00  0.00     0.167 HD
ATOM     35  C   UNL A   1      42.784  32.096  30.068  1.00  0.00     0.074 A 
ATOM     36  C   UNL A   1      41.943  33.039  30.785  1.00  0.00     0.031 C 
ATOM     37  C   UNL A   1      44.098  32.306  29.789  1.00  0.00     0.034 A 
BRANCH  24  38
ATOM     38  C   UNL A   1      46.896  27.765  26.533  1.00  0.00     0.023 A 
ATOM     39  C   UNL A   1      47.273  28.090  25.217  1.00  0.00     0.031 A 
ATOM     40  C   UNL A   1      47.615  26.745  27.185  1.00  0.00     0.131 A 
ATOM     41  C   UNL A   1      48.245  27.319  24.556  1.00  0.00     0.055 A 
ATOM     42  C   UNL A   1      48.653  26.054  26.555  1.00  0.00     0.041 A 
ATOM     43  F   UNL A   1      47.284  26.363  28.428  1.00  0.00    -0.206 F 
ATOM     44  C   UNL A   1      48.956  26.321  25.225  1.00  0.00     0.022 A 
BRANCH  41  45
ATOM     45  S   UNL A   1      48.408  27.489  22.755  1.00  0.00     0.124 S 
ATOM     46  O   UNL A   1      49.666  28.226  22.641  1.00  0.00    -0.237 OA
ATOM     47  O   UNL A   1      48.438  26.102  22.307  1.00  0.00    -0.237 OA
ATOM     48  O   UNL A   1      47.217  28.245  22.371  1.00  0.00    -0.744 OA
ENDBRANCH  41  45
ENDBRANCH  24  38
BRANCH  25  49
ATOM     49  C   UNL A   1      38.256  30.931  30.857  1.00  0.00     0.023 A 
ATOM     50  C   UNL A   1      37.279  31.623  30.125  1.00  0.00     0.031 A 
ATOM     51  C   UNL A   1      38.010  30.713  32.228  1.00  0.00     0.131 A 
ATOM     52  C   UNL A   1      36.121  32.095  30.765  1.00  0.00     0.055 A 
ATOM     53  C   UNL A   1      36.832  31.135  32.848  1.00  0.00     0.041 A 
ATOM     54  F   UNL A   1      38.909  30.065  32.986  1.00  0.00    -0.206 F 
ATOM     55  C   UNL A   1      35.884  31.841  32.118  1.00  0.00     0.022 A 
BRANCH  52  56
ATOM     56  S   UNL A   1      34.956  33.117  29.822  1.00  0.00     0.124 S 
ATOM     57  O   UNL A   1      34.417  32.151  28.870  1.00  0.00    -0.237 OA
ATOM     58  O   UNL A   1      34.041  33.574  30.863  1.00  0.00    -0.237 OA
ATOM     59  O   UNL A   1      35.805  34.156  29.242  1.00  0.00    -0.744 OA
ENDBRANCH  52  56
ENDBRANCH  25  49
BRANCH  37  60
ATOM     60  C   UNL A   1      44.664  33.637  30.209  1.00  0.00     0.023 A 
ATOM     61  C   UNL A   1      44.596  34.766  29.377  1.00  0.00     0.031 A 
ATOM     62  C   UNL A   1      45.287  33.766  31.463  1.00  0.00     0.131 A 
ATOM     63  C   UNL A   1      45.203  35.961  29.781  1.00  0.00     0.055 A 
ATOM     64  C   UNL A   1      45.827  34.977  31.889  1.00  0.00     0.041 A 
ATOM     65  F   UNL A   1      45.377  32.714  32.293  1.00  0.00    -0.206 F 
ATOM     66  C   UNL A   1      45.801  36.080  31.040  1.00  0.00     0.022 A 
BRANCH  63  67
ATOM     67  S   UNL A   1      45.301  37.328  28.594  1.00  0.00     0.124 S 
ATOM     68  O   UNL A   1      44.079  37.141  27.819  1.00  0.00    -0.237 OA
ATOM     69  O   UNL A   1      45.330  38.497  29.468  1.00  0.00    -0.237 OA
ATOM     70  O   UNL A   1      46.542  37.063  27.870  1.00  0.00    -0.744 OA
ENDBRANCH  63  67
ENDBRANCH  37  60
ENDBRANCH  11  12
ENDBRANCH   4   6
ENDBRANCH   3   4
ENDBRANCH   2   3
ENDBRANCH   1   2
BRANCH   1  71
ATOM     71  O   UNL A   1      36.078  22.452  25.359  1.00  0.00    -0.374 OA
BRANCH  71  72
ATOM     72  C   UNL A   1      35.536  21.812  26.509  1.00  0.00     0.202 C 
BRANCH  72  73
ATOM     73  C   UNL A   1      34.539  22.816  27.416  1.00  0.00     0.261 C 
BRANCH  73  74
ATOM     74  O   UNL A   1      32.541  23.171  27.207  1.00  0.00    -0.458 OA
BRANCH  74  75
ATOM     75  C   UNL A   1      31.280  23.692  26.762  1.00  0.00     0.359 C 
ATOM     76  O   UNL A   1      30.231  23.335  27.299  1.00  0.00    -0.244 OA
BRANCH  75  77
ATOM     77  C   UNL A   1      31.169  24.596  25.553  1.00  0.00     0.179 A 
ATOM     78  N   UNL A   1      29.992  25.320  25.672  1.00  0.00    -0.245 NA
ATOM     79  C   UNL A   1      31.980  24.701  24.404  1.00  0.00     0.161 A 
ATOM     80  C   UNL A   1      29.644  26.128  24.656  1.00  0.00     0.132 A 
ATOM     81  N   UNL A   1      31.542  25.519  23.377  1.00  0.00    -0.247 NA
ATOM     82  C   UNL A   1      30.402  26.219  23.520  1.00  0.00     0.132 A 
BRANCH  79  83
ATOM     83  C   UNL A   1      33.324  24.105  23.965  1.00  0.00     0.278 C 
ATOM     84  O   UNL A   1      34.301  24.868  23.927  1.00  0.00    -0.267 OA
ATOM     85  N   UNL A   1      33.610  22.807  23.639  1.00  0.00    -0.303 N 
ATOM     86  H   UNL A   1      34.564  22.565  23.668  1.00  0.00     0.172 HD
BRANCH  85  87
ATOM     87  C   UNL A   1      32.768  21.812  23.284  1.00  0.00     0.164 A 
ATOM     88  N   UNL A   1      31.899  22.000  22.282  1.00  0.00    -0.155 NA
ATOM     89  C   UNL A   1      32.823  20.513  23.780  1.00  0.00     0.063 A 
ATOM     90  N   UNL A   1      31.624  20.787  21.718  1.00  0.00    -0.259 N 
ATOM     91  C   UNL A   1      32.153  19.725  22.384  1.00  0.00     0.157 A 
ATOM     92  C   UNL A   1      33.789  19.513  24.973  1.00  0.00     0.017 A 
ATOM     93  H   UNL A   1      31.088  20.689  20.898  1.00  0.00     0.192 HD
ATOM     94  N   UNL A   1      32.345  18.063  22.030  1.00  0.00    -0.237 NA
ATOM     95  C   UNL A   1      34.055  17.780  24.621  1.00  0.00     0.021 A 
ATOM     96  C   UNL A   1      33.344  17.140  23.137  1.00  0.00     0.113 A 
ENDBRANCH  85  87
ENDBRANCH  79  83
ENDBRANCH  75  77
ENDBRANCH  74  75
ENDBRANCH  73  74
ENDBRANCH  72  73
ENDBRANCH  71  72
ENDBRANCH   1  71
TORSDOF 19
ENDMDL
MODEL 3
REMARK VINA RESULT:     -12.1      4.808     10.440
REMARK SMILES O=C(OCCOCCOC(=O)c1nccnc1C(=O)Nc1n[nH]c2ncccc12)c1ccc(-c2c3nc(c(-c4cc(S(=O)(=O)[O-])ccc4F)c4ccc([nH]4)c(-c4cc(S(=O)(=O)[O-])ccc4F)c4nc(c(-c5cc(S(=O)(=O)[O-])ccc5F)c5ccc2[nH]5)C=C4)C=C3)cc1
REMARK SMILES IDX 5 1 4 2 3 3 2 4 1 5 30 6 31 7 92 8 32 9 91 10 33 11 34 12
REMARK SMILES IDX 35 13 85 14 36 15 90 16 84 17 86 18 37 19 89 20 83 21 82 22
REMARK SMILES IDX 38 24 70 25 50 26 69 27 51 28 54 29 68 30 87 31 52 32 53 33
REMARK SMILES IDX 67 35 88 36 55 37 39 38 40 39 48 40 41 41 47 42 49 43 46 44
REMARK SMILES IDX 42 45 43 46 44 47 45 48 71 49 72 50 80 51 73 52 79 53 81 54
REMARK SMILES IDX 78 55 74 56 75 57 76 58 77 59 56 60 57 61 65 62 58 63 64 64
REMARK SMILES IDX 66 65 63 66 59 67 60 68 61 69 62 70 6 71 7 72 8 73 9 74
REMARK SMILES IDX 10 75 11 76 12 77 13 78 17 79 14 80 16 81 15 82 18 83 19 84
REMARK SMILES IDX 20 85 21 87 22 88 29 89 23 90 24 91 28 92 25 94 27 95 26 96
REMARK H PARENT 86 23 54 34 20 86 23 93
REMARK Flexibility Score: inf
ROOT
ATOM      1  C   UNL A   1      37.520  20.401  24.689  1.00  0.00     0.202 C 
ENDROOT
BRANCH   1   2
ATOM      2  C   UNL A   1      38.443  19.488  25.492  1.00  0.00     0.261 C 
BRANCH   2   3
ATOM      3  O   UNL A   1      39.779  20.006  25.600  1.00  0.00    -0.460 OA
BRANCH   3   4
ATOM      4  C   UNL A   1      40.397  20.370  26.755  1.00  0.00     0.338 C 
ATOM      5  O   UNL A   1      40.781  19.506  27.538  1.00  0.00    -0.246 OA
BRANCH   4   6
ATOM      6  C   UNL A   1      40.632  21.795  27.105  1.00  0.00     0.060 A 
ATOM      7  C   UNL A   1      39.871  22.848  26.599  1.00  0.00     0.016 A 
ATOM      8  C   UNL A   1      41.586  22.080  28.083  1.00  0.00     0.016 A 
ATOM      9  C   UNL A   1      40.157  24.167  26.894  1.00  0.00     0.010 A 
ATOM     10  C   UNL A   1      41.815  23.404  28.470  1.00  0.00     0.010 A 
ATOM     11  C   UNL A   1      41.136  24.456  27.831  1.00  0.00    -0.014 A 
BRANCH  11  12
ATOM     12  C   UNL A   1      41.577  25.856  27.972  1.00  0.00     0.031 A 
ATOM     13  C   UNL A   1      42.878  26.220  27.326  1.00  0.00     0.074 A 
ATOM     14  C   UNL A   1      40.785  26.782  28.540  1.00  0.00     0.049 A 
ATOM     15  N   UNL A   1      43.618  27.281  27.478  1.00  0.00    -0.248 NA
ATOM     16  C   UNL A   1      43.431  25.225  26.393  1.00  0.00     0.031 C 
ATOM     17  C   UNL A   1      39.420  26.553  29.024  1.00  0.00     0.029 A 
ATOM     18  N   UNL A   1      41.003  28.111  28.782  1.00  0.00    -0.354 N 
ATOM     19  C   UNL A   1      44.765  27.042  26.729  1.00  0.00     0.074 A 
ATOM     20  C   UNL A   1      44.619  25.735  26.129  1.00  0.00     0.031 C 
ATOM     21  C   UNL A   1      38.912  27.712  29.471  1.00  0.00     0.029 A 
ATOM     22  C   UNL A   1      39.951  28.733  29.414  1.00  0.00     0.049 A 
ATOM     23  H   UNL A   1      41.831  28.577  28.527  1.00  0.00     0.167 HD
ATOM     24  C   UNL A   1      45.844  27.847  26.587  1.00  0.00     0.034 A 
ATOM     25  C   UNL A   1      39.875  29.972  29.938  1.00  0.00     0.034 A 
ATOM     26  C   UNL A   1      45.902  29.153  27.195  1.00  0.00     0.049 A 
ATOM     27  C   UNL A   1      41.115  30.827  29.847  1.00  0.00     0.074 A 
ATOM     28  C   UNL A   1      46.941  30.063  27.217  1.00  0.00     0.029 A 
ATOM     29  N   UNL A   1      44.844  29.738  27.891  1.00  0.00    -0.354 N 
ATOM     30  N   UNL A   1      42.269  30.551  29.276  1.00  0.00    -0.248 NA
ATOM     31  C   UNL A   1      41.057  32.143  30.487  1.00  0.00     0.031 C 
ATOM     32  C   UNL A   1      46.532  31.166  27.977  1.00  0.00     0.029 A 
ATOM     33  C   UNL A   1      45.209  30.986  28.359  1.00  0.00     0.049 A 
ATOM     34  H   UNL A   1      43.962  29.320  28.028  1.00  0.00     0.167 HD
ATOM     35  C   UNL A   1      43.067  31.673  29.464  1.00  0.00     0.074 A 
ATOM     36  C   UNL A   1      42.252  32.633  30.190  1.00  0.00     0.031 C 
ATOM     37  C   UNL A   1      44.351  31.901  29.079  1.00  0.00     0.034 A 
BRANCH  24  38
ATOM     38  C   UNL A   1      47.041  27.261  25.873  1.00  0.00     0.023 A 
ATOM     39  C   UNL A   1      48.004  26.476  26.534  1.00  0.00     0.031 A 
ATOM     40  C   UNL A   1      47.302  27.629  24.540  1.00  0.00     0.131 A 
ATOM     41  C   UNL A   1      49.230  26.197  25.907  1.00  0.00     0.055 A 
ATOM     42  C   UNL A   1      48.480  27.256  23.887  1.00  0.00     0.041 A 
ATOM     43  F   UNL A   1      46.442  28.405  23.863  1.00  0.00    -0.206 F 
ATOM     44  C   UNL A   1      49.464  26.559  24.578  1.00  0.00     0.022 A 
BRANCH  41  45
ATOM     45  S   UNL A   1      50.595  25.554  26.919  1.00  0.00     0.124 S 
ATOM     46  O   UNL A   1      51.590  25.228  25.899  1.00  0.00    -0.237 OA
ATOM     47  O   UNL A   1      50.912  26.688  27.780  1.00  0.00    -0.237 OA
ATOM     48  O   UNL A   1      50.007  24.400  27.596  1.00  0.00    -0.744 OA
ENDBRANCH  41  45
ENDBRANCH  24  38
BRANCH  25  49
ATOM     49  C   UNL A   1      38.644  30.437  30.645  1.00  0.00     0.023 A 
ATOM     50  C   UNL A   1      37.614  31.099  29.957  1.00  0.00     0.031 A 
ATOM     51  C   UNL A   1      38.486  30.252  32.033  1.00  0.00     0.131 A 
ATOM     52  C   UNL A   1      36.493  31.574  30.657  1.00  0.00     0.055 A 
ATOM     53  C   UNL A   1      37.343  30.676  32.714  1.00  0.00     0.041 A 
ATOM     54  F   UNL A   1      39.438  29.634  32.750  1.00  0.00    -0.206 F 
ATOM     55  C   UNL A   1      36.343  31.352  32.027  1.00  0.00     0.022 A 
BRANCH  52  56
ATOM     56  S   UNL A   1      35.258  32.558  29.762  1.00  0.00     0.124 S 
ATOM     57  O   UNL A   1      36.060  33.677  29.282  1.00  0.00    -0.237 OA
ATOM     58  O   UNL A   1      34.796  31.616  28.748  1.00  0.00    -0.237 OA
ATOM     59  O   UNL A   1      34.276  32.891  30.792  1.00  0.00    -0.744 OA
ENDBRANCH  52  56
ENDBRANCH  25  49
BRANCH  37  60
ATOM     60  C   UNL A   1      44.905  33.268  29.385  1.00  0.00     0.023 A 
ATOM     61  C   UNL A   1      44.784  34.335  28.482  1.00  0.00     0.031 A 
ATOM     62  C   UNL A   1      45.573  33.493  30.602  1.00  0.00     0.131 A 
ATOM     63  C   UNL A   1      45.382  35.566  28.779  1.00  0.00     0.055 A 
ATOM     64  C   UNL A   1      46.105  34.740  30.924  1.00  0.00     0.041 A 
ATOM     65  F   UNL A   1      45.715  32.502  31.497  1.00  0.00    -0.206 F 
ATOM     66  C   UNL A   1      46.024  35.781  30.002  1.00  0.00     0.022 A 
BRANCH  63  67
ATOM     67  S   UNL A   1      45.408  36.849  27.499  1.00  0.00     0.124 S 
ATOM     68  O   UNL A   1      46.163  36.196  26.434  1.00  0.00    -0.237 OA
ATOM     69  O   UNL A   1      43.987  37.057  27.238  1.00  0.00    -0.237 OA
ATOM     70  O   UNL A   1      46.091  37.966  28.148  1.00  0.00    -0.744 OA
ENDBRANCH  63  67
ENDBRANCH  37  60
ENDBRANCH  11  12
ENDBRANCH   4   6
ENDBRANCH   3   4
ENDBRANCH   2   3
ENDBRANCH   1   2
BRANCH   1  71
ATOM     71  O   UNL A   1      36.850  21.404  25.433  1.00  0.00    -0.374 OA
BRANCH  71  72
ATOM     72  C   UNL A   1      36.783  22.737  24.936  1.00  0.00     0.202 C 
BRANCH  72  73
ATOM     73  C   UNL A   1      35.771  22.895  23.603  1.00  0.00     0.261 C 
BRANCH  73  74
ATOM     74  O   UNL A   1      34.353  24.313  23.229  1.00  0.00    -0.458 OA
BRANCH  74  75
ATOM     75  C   UNL A   1      33.618  25.395  22.637  1.00  0.00     0.359 C 
ATOM     76  O   UNL A   1      33.629  25.566  21.418  1.00  0.00    -0.244 OA
BRANCH  75  77
ATOM     77  C   UNL A   1      32.905  26.431  23.478  1.00  0.00     0.179 A 
ATOM     78  N   UNL A   1      33.793  27.470  23.713  1.00  0.00    -0.245 NA
ATOM     79  C   UNL A   1      31.624  26.417  24.068  1.00  0.00     0.161 A 
ATOM     80  C   UNL A   1      33.396  28.468  24.521  1.00  0.00     0.132 A 
ATOM     81  N   UNL A   1      31.295  27.453  24.923  1.00  0.00    -0.247 NA
ATOM     82  C   UNL A   1      32.169  28.455  25.126  1.00  0.00     0.132 A 
BRANCH  79  83
ATOM     83  C   UNL A   1      30.407  25.484  23.998  1.00  0.00     0.278 C 
ATOM     84  O   UNL A   1      29.310  25.998  23.732  1.00  0.00    -0.267 OA
ATOM     85  N   UNL A   1      30.370  24.126  24.154  1.00  0.00    -0.303 N 
ATOM     86  H   UNL A   1      29.570  23.681  23.792  1.00  0.00     0.172 HD
BRANCH  85  87
ATOM     87  C   UNL A   1      31.277  23.309  24.733  1.00  0.00     0.164 A 
ATOM     88  N   UNL A   1      31.485  23.376  26.056  1.00  0.00    -0.155 NA
ATOM     89  C   UNL A   1      31.929  22.264  24.088  1.00  0.00     0.063 A 
ATOM     90  N   UNL A   1      31.916  22.154  26.486  1.00  0.00    -0.259 N 
ATOM     91  C   UNL A   1      32.166  21.263  25.488  1.00  0.00     0.157 A 
ATOM     92  C   UNL A   1      32.026  21.490  22.429  1.00  0.00     0.017 A 
ATOM     93  H   UNL A   1      32.037  21.935  27.438  1.00  0.00     0.192 HD
ATOM     94  N   UNL A   1      32.472  19.581  25.431  1.00  0.00    -0.237 NA
ATOM     95  C   UNL A   1      32.300  19.726  22.321  1.00  0.00     0.021 A 
ATOM     96  C   UNL A   1      32.476  18.843  23.840  1.00  0.00     0.113 A 
ENDBRANCH  85  87
ENDBRANCH  79  83
ENDBRANCH  75  77
ENDBRANCH  74  75
ENDBRANCH  73  74
ENDBRANCH  72  73
ENDBRANCH  71  72
ENDBRANCH   1  71
TORSDOF 19
ENDMDL
