MODEL 1
REMARK VINA RESULT:     -10.7      0.000      0.000
REMARK SMILES CS(=O)(=O)[C@@H]1CCC[C@@H](Sc2ccc(C(=O)OCCOCCOC(=O)c3ccc(-c4c5nc(c(-c6cc(S(=O)(=O)[O-])ccc6F)c6ccc([nH]6)c(-c6cc(S(=O)(=O)[O-])ccc6F)c6nc(c(-c7cc(S(=O)(=O)[O-])ccc7F)c7ccc4[nH]7)C=C6)C=C5)cc3)cn2)C1
REMARK SMILES IDX 20 1 19 2 18 3 17 4 15 5 16 6 14 7 11 8 12 9 90 10 13 11
REMARK SMILES IDX 89 12 10 13 9 14 5 15 6 16 91 17 7 18 8 19 2 20 1 21 3 22
REMARK SMILES IDX 4 23 21 24 22 25 23 26 24 27 25 28 26 29 27 30 88 31 28 32
REMARK SMILES IDX 87 33 29 34 30 35 31 36 81 37 32 38 86 39 80 40 82 41 33 42
REMARK SMILES IDX 85 43 79 44 78 45 34 47 66 48 46 49 65 50 47 51 50 52 64 53
REMARK SMILES IDX 83 54 48 55 49 56 63 58 84 59 51 60 35 61 36 62 44 63 37 64
REMARK SMILES IDX 43 65 45 66 42 67 38 68 39 69 40 70 41 71 67 72 68 73 76 74
REMARK SMILES IDX 69 75 75 76 77 77 74 78 70 79 71 80 72 81 73 82 52 83 53 84
REMARK SMILES IDX 61 85 54 86 60 87 62 88 59 89 55 90 56 91 57 92 58 93
REMARK H PARENT 82 46 50 57
REMARK Flexibility Score: inf
ROOT
ATOM      1  O   UNL A   1      32.223  28.834  23.977  1.00  0.00    -0.374 OA
ENDROOT
BRANCH   1   2
ATOM      2  C   UNL A   1      30.815  28.976  23.784  1.00  0.00     0.202 C 
BRANCH   2   3
ATOM      3  C   UNL A   1      30.154  27.844  22.992  1.00  0.00     0.261 C 
BRANCH   3   4
ATOM      4  O   UNL A   1      31.111  26.822  22.682  1.00  0.00    -0.460 OA
BRANCH   4   5
ATOM      5  C   UNL A   1      30.967  25.633  23.315  1.00  0.00     0.339 C 
ATOM      6  O   UNL A   1      29.944  24.992  23.475  1.00  0.00    -0.246 OA
BRANCH   5   7
ATOM      7  C   UNL A   1      32.309  25.147  23.693  1.00  0.00     0.078 A 
ATOM      8  C   UNL A   1      34.897  24.295  24.269  1.00  0.00     0.096 A 
ATOM      9  C   UNL A   1      34.173  25.028  25.182  1.00  0.00     0.036 A 
ATOM     10  N   UNL A   1      34.351  23.999  23.064  1.00  0.00    -0.249 NA
ATOM     11  C   UNL A   1      32.882  25.461  24.912  1.00  0.00     0.020 A 
ATOM     12  C   UNL A   1      33.079  24.422  22.801  1.00  0.00     0.128 A 
BRANCH   8  13
ATOM     13  S   UNL A   1      36.560  23.718  24.498  1.00  0.00    -0.103 SA
BRANCH  13  14
ATOM     14  C   UNL A   1      36.649  22.251  25.649  1.00  0.00     0.054 C 
ATOM     15  C   UNL A   1      35.196  20.388  24.734  1.00  0.00     0.109 C 
ATOM     16  C   UNL A   1      36.369  19.397  24.797  1.00  0.00     0.020 C 
ATOM     17  C   UNL A   1      35.341  21.469  25.791  1.00  0.00     0.034 C 
ATOM     18  C   UNL A   1      37.775  20.010  24.901  1.00  0.00     0.002 C 
ATOM     19  C   UNL A   1      37.889  21.351  25.628  1.00  0.00     0.015 C 
BRANCH  15  20
ATOM     20  S   UNL A   1      33.597  19.554  24.806  1.00  0.00     0.150 S 
ATOM     21  C   UNL A   1      32.580  20.580  23.763  1.00  0.00     0.158 C 
ATOM     22  O   UNL A   1      33.078  19.646  26.156  1.00  0.00    -0.229 OA
ATOM     23  O   UNL A   1      33.715  18.270  24.143  1.00  0.00    -0.229 OA
ENDBRANCH  15  20
ENDBRANCH  13  14
ENDBRANCH   8  13
ENDBRANCH   5   7
ENDBRANCH   4   5
ENDBRANCH   3   4
ENDBRANCH   2   3
ENDBRANCH   1   2
BRANCH   1  24
ATOM     24  C   UNL A   1      32.762  29.441  25.155  1.00  0.00     0.202 C 
BRANCH  24  25
ATOM     25  C   UNL A   1      31.886  30.509  25.817  1.00  0.00     0.261 C 
BRANCH  25  26
ATOM     26  O   UNL A   1      32.294  30.761  27.173  1.00  0.00    -0.460 OA
BRANCH  26  27
ATOM     27  C   UNL A   1      33.044  31.881  27.331  1.00  0.00     0.338 C 
ATOM     28  O   UNL A   1      32.655  33.035  27.262  1.00  0.00    -0.246 OA
BRANCH  27  29
ATOM     29  C   UNL A   1      34.395  31.516  27.798  1.00  0.00     0.060 A 
ATOM     30  C   UNL A   1      34.615  30.177  28.146  1.00  0.00     0.016 A 
ATOM     31  C   UNL A   1      35.407  32.465  27.952  1.00  0.00     0.016 A 
ATOM     32  C   UNL A   1      35.831  29.792  28.704  1.00  0.00     0.010 A 
ATOM     33  C   UNL A   1      36.628  32.077  28.512  1.00  0.00     0.010 A 
ATOM     34  C   UNL A   1      36.831  30.747  28.927  1.00  0.00    -0.014 A 
BRANCH  34  35
ATOM     35  C   UNL A   1      38.024  30.387  29.733  1.00  0.00     0.031 A 
ATOM     36  C   UNL A   1      39.059  29.473  29.137  1.00  0.00     0.074 A 
ATOM     37  C   UNL A   1      38.198  30.890  30.968  1.00  0.00     0.049 A 
ATOM     38  N   UNL A   1      40.153  28.992  29.668  1.00  0.00    -0.248 NA
ATOM     39  C   UNL A   1      38.815  29.038  27.755  1.00  0.00     0.031 C 
ATOM     40  C   UNL A   1      37.295  31.829  31.630  1.00  0.00     0.029 A 
ATOM     41  N   UNL A   1      39.198  30.680  31.882  1.00  0.00    -0.354 N 
ATOM     42  C   UNL A   1      40.728  28.190  28.687  1.00  0.00     0.074 A 
ATOM     43  C   UNL A   1      39.827  28.210  27.553  1.00  0.00     0.031 C 
ATOM     44  C   UNL A   1      37.786  32.120  32.846  1.00  0.00     0.029 A 
ATOM     45  C   UNL A   1      39.012  31.353  33.065  1.00  0.00     0.049 A 
ATOM     46  H   UNL A   1      39.975  30.102  31.708  1.00  0.00     0.167 HD
ATOM     47  C   UNL A   1      41.904  27.513  28.724  1.00  0.00     0.034 A 
ATOM     48  C   UNL A   1      39.735  31.336  34.202  1.00  0.00     0.034 A 
ATOM     49  C   UNL A   1      42.776  27.487  29.874  1.00  0.00     0.049 A 
ATOM     50  C   UNL A   1      40.977  30.479  34.270  1.00  0.00     0.074 A 
ATOM     51  C   UNL A   1      43.993  26.844  30.023  1.00  0.00     0.029 A 
ATOM     52  N   UNL A   1      42.515  28.119  31.085  1.00  0.00    -0.354 N 
ATOM     53  N   UNL A   1      41.515  29.725  33.338  1.00  0.00    -0.248 NA
ATOM     54  C   UNL A   1      41.708  30.477  35.542  1.00  0.00     0.031 C 
ATOM     55  C   UNL A   1      44.420  27.013  31.345  1.00  0.00     0.029 A 
ATOM     56  C   UNL A   1      43.523  27.843  31.998  1.00  0.00     0.049 A 
ATOM     57  H   UNL A   1      41.727  28.681  31.270  1.00  0.00     0.167 HD
ATOM     58  C   UNL A   1      42.670  29.188  33.903  1.00  0.00     0.074 A 
ATOM     59  C   UNL A   1      42.749  29.711  35.252  1.00  0.00     0.031 C 
ATOM     60  C   UNL A   1      43.586  28.351  33.351  1.00  0.00     0.034 A 
BRANCH  47  61
ATOM     61  C   UNL A   1      42.265  26.699  27.501  1.00  0.00     0.023 A 
ATOM     62  C   UNL A   1      41.954  25.330  27.406  1.00  0.00     0.031 A 
ATOM     63  C   UNL A   1      43.000  27.277  26.450  1.00  0.00     0.131 A 
ATOM     64  C   UNL A   1      42.471  24.565  26.348  1.00  0.00     0.055 A 
ATOM     65  C   UNL A   1      43.422  26.530  25.347  1.00  0.00     0.041 A 
ATOM     66  F   UNL A   1      43.349  28.571  26.489  1.00  0.00    -0.206 F 
ATOM     67  C   UNL A   1      43.179  25.161  25.304  1.00  0.00     0.022 A 
BRANCH  64  68
ATOM     68  S   UNL A   1      42.386  22.757  26.472  1.00  0.00     0.124 S 
ATOM     69  O   UNL A   1      42.532  22.358  25.074  1.00  0.00    -0.237 OA
ATOM     70  O   UNL A   1      43.512  22.447  27.346  1.00  0.00    -0.237 OA
ATOM     71  O   UNL A   1      41.064  22.513  27.045  1.00  0.00    -0.744 OA
ENDBRANCH  64  68
ENDBRANCH  47  61
BRANCH  48  72
ATOM     72  C   UNL A   1      39.301  32.142  35.377  1.00  0.00     0.023 A 
ATOM     73  C   UNL A   1      39.737  33.465  35.542  1.00  0.00     0.031 A 
ATOM     74  C   UNL A   1      38.462  31.594  36.365  1.00  0.00     0.131 A 
ATOM     75  C   UNL A   1      39.356  34.190  36.682  1.00  0.00     0.055 A 
ATOM     76  C   UNL A   1      38.046  32.335  37.472  1.00  0.00     0.041 A 
ATOM     77  F   UNL A   1      38.018  30.332  36.254  1.00  0.00    -0.206 F 
ATOM     78  C   UNL A   1      38.501  33.639  37.640  1.00  0.00     0.022 A 
BRANCH  75  79
ATOM     79  S   UNL A   1      40.045  35.849  36.925  1.00  0.00     0.124 S 
ATOM     80  O   UNL A   1      39.342  36.290  38.125  1.00  0.00    -0.237 OA
ATOM     81  O   UNL A   1      41.467  35.567  37.080  1.00  0.00    -0.237 OA
ATOM     82  O   UNL A   1      39.682  36.550  35.695  1.00  0.00    -0.744 OA
ENDBRANCH  75  79
ENDBRANCH  48  72
BRANCH  60  83
ATOM     83  C   UNL A   1      44.787  27.986  34.196  1.00  0.00     0.023 A 
ATOM     84  C   UNL A   1      44.824  26.815  34.973  1.00  0.00     0.031 A 
ATOM     85  C   UNL A   1      45.909  28.834  34.229  1.00  0.00     0.131 A 
ATOM     86  C   UNL A   1      45.933  26.554  35.794  1.00  0.00     0.055 A 
ATOM     87  C   UNL A   1      47.038  28.533  34.993  1.00  0.00     0.041 A 
ATOM     88  F   UNL A   1      45.929  29.970  33.513  1.00  0.00    -0.206 F 
ATOM     89  C   UNL A   1      47.049  27.395  35.792  1.00  0.00     0.022 A 
BRANCH  86  90
ATOM     90  S   UNL A   1      45.857  25.155  36.947  1.00  0.00     0.124 S 
ATOM     91  O   UNL A   1      45.539  24.045  36.054  1.00  0.00    -0.237 OA
ATOM     92  O   UNL A   1      47.199  25.149  37.519  1.00  0.00    -0.237 OA
ATOM     93  O   UNL A   1      44.791  25.531  37.873  1.00  0.00    -0.744 OA
ENDBRANCH  86  90
ENDBRANCH  60  83
ENDBRANCH  34  35
ENDBRANCH  27  29
ENDBRANCH  26  27
ENDBRANCH  25  26
ENDBRANCH  24  25
ENDBRANCH   1  24
TORSDOF 20
ENDMDL
MODEL 2
REMARK VINA RESULT:     -10.7      2.613      8.723
REMARK SMILES CS(=O)(=O)[C@@H]1CCC[C@@H](Sc2ccc(C(=O)OCCOCCOC(=O)c3ccc(-c4c5nc(c(-c6cc(S(=O)(=O)[O-])ccc6F)c6ccc([nH]6)c(-c6cc(S(=O)(=O)[O-])ccc6F)c6nc(c(-c7cc(S(=O)(=O)[O-])ccc7F)c7ccc4[nH]7)C=C6)C=C5)cc3)cn2)C1
REMARK SMILES IDX 20 1 19 2 18 3 17 4 15 5 16 6 14 7 11 8 12 9 90 10 13 11
REMARK SMILES IDX 89 12 10 13 9 14 5 15 6 16 91 17 7 18 8 19 2 20 1 21 3 22
REMARK SMILES IDX 4 23 21 24 22 25 23 26 24 27 25 28 26 29 27 30 88 31 28 32
REMARK SMILES IDX 87 33 29 34 30 35 31 36 81 37 32 38 86 39 80 40 82 41 33 42
REMARK SMILES IDX 85 43 79 44 78 45 34 47 66 48 46 49 65 50 47 51 50 52 64 53
REMARK SMILES IDX 83 54 48 55 49 56 63 58 84 59 51 60 35 61 36 62 44 63 37 64
REMARK SMILES IDX 43 65 45 66 42 67 38 68 39 69 40 70 41 71 67 72 68 73 76 74
REMARK SMILES IDX 69 75 75 76 77 77 74 78 70 79 71 80 72 81 73 82 52 83 53 84
REMARK SMILES IDX 61 85 54 86 60 87 62 88 59 89 55 90 56 91 57 92 58 93
REMARK H PARENT 82 46 50 57
REMARK Flexibility Score: inf
ROOT
ATOM      1  O   UNL A   1      41.743  20.421  27.130  1.00  0.00    -0.374 OA
ENDROOT
BRANCH   1   2
ATOM      2  C   UNL A   1      40.475  20.535  26.481  1.00  0.00     0.202 C 
BRANCH   2   3
ATOM      3  C   UNL A   1      39.892  21.951  26.447  1.00  0.00     0.261 C 
BRANCH   3   4
ATOM      4  O   UNL A   1      38.497  21.912  26.118  1.00  0.00    -0.460 OA
BRANCH   4   5
ATOM      5  C   UNL A   1      37.840  23.096  26.081  1.00  0.00     0.339 C 
ATOM      6  O   UNL A   1      38.191  24.158  26.563  1.00  0.00    -0.246 OA
BRANCH   5   7
ATOM      7  C   UNL A   1      36.644  22.934  25.232  1.00  0.00     0.078 A 
ATOM      8  C   UNL A   1      34.305  22.720  23.735  1.00  0.00     0.096 A 
ATOM      9  C   UNL A   1      35.482  23.136  23.155  1.00  0.00     0.036 A 
ATOM     10  N   UNL A   1      34.278  22.428  25.058  1.00  0.00    -0.249 NA
ATOM     11  C   UNL A   1      36.657  23.249  23.885  1.00  0.00     0.020 A 
ATOM     12  C   UNL A   1      35.435  22.535  25.775  1.00  0.00     0.128 A 
BRANCH   8  13
ATOM     13  S   UNL A   1      32.744  22.569  22.904  1.00  0.00    -0.103 SA
BRANCH  13  14
ATOM     14  C   UNL A   1      32.053  24.224  22.387  1.00  0.00     0.054 C 
ATOM     15  C   UNL A   1      32.116  25.805  24.366  1.00  0.00     0.109 C 
ATOM     16  C   UNL A   1      32.883  26.854  23.547  1.00  0.00     0.020 C 
ATOM     17  C   UNL A   1      31.243  24.946  23.467  1.00  0.00     0.034 C 
ATOM     18  C   UNL A   1      33.577  26.349  22.271  1.00  0.00     0.002 C 
ATOM     19  C   UNL A   1      32.918  25.172  21.549  1.00  0.00     0.015 C 
BRANCH  15  20
ATOM     20  S   UNL A   1      31.192  26.548  25.727  1.00  0.00     0.150 S 
ATOM     21  C   UNL A   1      29.675  25.614  25.717  1.00  0.00     0.158 C 
ATOM     22  O   UNL A   1      30.869  27.919  25.385  1.00  0.00    -0.229 OA
ATOM     23  O   UNL A   1      31.869  26.234  26.970  1.00  0.00    -0.229 OA
ENDBRANCH  15  20
ENDBRANCH  13  14
ENDBRANCH   8  13
ENDBRANCH   5   7
ENDBRANCH   4   5
ENDBRANCH   3   4
ENDBRANCH   2   3
ENDBRANCH   1   2
BRANCH   1  24
ATOM     24  C   UNL A   1      42.580  21.579  27.085  1.00  0.00     0.202 C 
BRANCH  24  25
ATOM     25  C   UNL A   1      43.457  21.724  25.836  1.00  0.00     0.261 C 
BRANCH  25  26
ATOM     26  O   UNL A   1      42.968  22.758  24.963  1.00  0.00    -0.460 OA
BRANCH  26  27
ATOM     27  C   UNL A   1      43.717  23.888  24.965  1.00  0.00     0.338 C 
ATOM     28  O   UNL A   1      44.675  24.130  24.250  1.00  0.00    -0.246 OA
BRANCH  27  29
ATOM     29  C   UNL A   1      43.091  24.901  25.837  1.00  0.00     0.060 A 
ATOM     30  C   UNL A   1      43.934  25.854  26.424  1.00  0.00     0.016 A 
ATOM     31  C   UNL A   1      41.725  24.887  26.126  1.00  0.00     0.016 A 
ATOM     32  C   UNL A   1      43.422  26.762  27.347  1.00  0.00     0.010 A 
ATOM     33  C   UNL A   1      41.214  25.800  27.053  1.00  0.00     0.010 A 
ATOM     34  C   UNL A   1      42.067  26.716  27.697  1.00  0.00    -0.014 A 
BRANCH  34  35
ATOM     35  C   UNL A   1      41.577  27.516  28.846  1.00  0.00     0.031 A 
ATOM     36  C   UNL A   1      42.329  27.460  30.147  1.00  0.00     0.074 A 
ATOM     37  C   UNL A   1      40.495  28.305  28.725  1.00  0.00     0.049 A 
ATOM     38  N   UNL A   1      42.064  28.039  31.290  1.00  0.00    -0.248 NA
ATOM     39  C   UNL A   1      43.542  26.630  30.156  1.00  0.00     0.031 C 
ATOM     40  C   UNL A   1      39.717  28.486  27.501  1.00  0.00     0.029 A 
ATOM     41  N   UNL A   1      39.866  29.102  29.646  1.00  0.00    -0.354 N 
ATOM     42  C   UNL A   1      43.073  27.636  32.160  1.00  0.00     0.074 A 
ATOM     43  C   UNL A   1      43.918  26.722  31.420  1.00  0.00     0.031 C 
ATOM     44  C   UNL A   1      38.716  29.348  27.746  1.00  0.00     0.029 A 
ATOM     45  C   UNL A   1      38.754  29.741  29.154  1.00  0.00     0.049 A 
ATOM     46  H   UNL A   1      40.180  29.205  30.574  1.00  0.00     0.167 HD
ATOM     47  C   UNL A   1      43.282  28.006  33.449  1.00  0.00     0.034 A 
ATOM     48  C   UNL A   1      37.858  30.535  29.773  1.00  0.00     0.034 A 
ATOM     49  C   UNL A   1      42.412  28.901  34.175  1.00  0.00     0.049 A 
ATOM     50  C   UNL A   1      38.037  30.838  31.241  1.00  0.00     0.074 A 
ATOM     51  C   UNL A   1      42.529  29.353  35.478  1.00  0.00     0.029 A 
ATOM     52  N   UNL A   1      41.249  29.469  33.666  1.00  0.00    -0.354 N 
ATOM     53  N   UNL A   1      38.994  30.456  32.056  1.00  0.00    -0.248 NA
ATOM     54  C   UNL A   1      37.014  31.684  31.868  1.00  0.00     0.031 C 
ATOM     55  C   UNL A   1      41.396  30.116  35.782  1.00  0.00     0.029 A 
ATOM     56  C   UNL A   1      40.617  30.226  34.641  1.00  0.00     0.049 A 
ATOM     57  H   UNL A   1      40.920  29.349  32.745  1.00  0.00     0.167 HD
ATOM     58  C   UNL A   1      38.707  31.048  33.284  1.00  0.00     0.074 A 
ATOM     59  C   UNL A   1      37.491  31.815  33.097  1.00  0.00     0.031 C 
ATOM     60  C   UNL A   1      39.393  30.973  34.454  1.00  0.00     0.034 A 
BRANCH  47  61
ATOM     61  C   UNL A   1      44.464  27.383  34.159  1.00  0.00     0.023 A 
ATOM     62  C   UNL A   1      44.346  26.176  34.872  1.00  0.00     0.031 A 
ATOM     63  C   UNL A   1      45.706  28.042  34.191  1.00  0.00     0.131 A 
ATOM     64  C   UNL A   1      45.407  25.728  35.675  1.00  0.00     0.055 A 
ATOM     65  C   UNL A   1      46.792  27.534  34.908  1.00  0.00     0.041 A 
ATOM     66  F   UNL A   1      45.880  29.208  33.550  1.00  0.00    -0.206 F 
ATOM     67  C   UNL A   1      46.639  26.384  35.676  1.00  0.00     0.022 A 
BRANCH  64  68
ATOM     68  S   UNL A   1      45.081  24.406  36.874  1.00  0.00     0.124 S 
ATOM     69  O   UNL A   1      43.980  24.975  37.648  1.00  0.00    -0.237 OA
ATOM     70  O   UNL A   1      44.742  23.278  36.014  1.00  0.00    -0.237 OA
ATOM     71  O   UNL A   1      46.343  24.283  37.600  1.00  0.00    -0.744 OA
ENDBRANCH  64  68
ENDBRANCH  47  61
BRANCH  48  72
ATOM     72  C   UNL A   1      36.702  31.090  29.015  1.00  0.00     0.023 A 
ATOM     73  C   UNL A   1      35.742  30.241  28.445  1.00  0.00     0.031 A 
ATOM     74  C   UNL A   1      36.552  32.477  28.830  1.00  0.00     0.131 A 
ATOM     75  C   UNL A   1      34.688  30.784  27.692  1.00  0.00     0.055 A 
ATOM     76  C   UNL A   1      35.476  33.014  28.123  1.00  0.00     0.041 A 
ATOM     77  F   UNL A   1      37.444  33.332  29.355  1.00  0.00    -0.206 F 
ATOM     78  C   UNL A   1      34.540  32.164  27.541  1.00  0.00     0.022 A 
BRANCH  75  79
ATOM     79  S   UNL A   1      33.542  29.650  26.862  1.00  0.00     0.124 S 
ATOM     80  O   UNL A   1      34.434  28.568  26.460  1.00  0.00    -0.237 OA
ATOM     81  O   UNL A   1      32.596  29.342  27.927  1.00  0.00    -0.237 OA
ATOM     82  O   UNL A   1      33.004  30.455  25.767  1.00  0.00    -0.744 OA
ENDBRANCH  75  79
ENDBRANCH  48  72
BRANCH  60  83
ATOM     83  C   UNL A   1      38.867  31.786  35.617  1.00  0.00     0.023 A 
ATOM     84  C   UNL A   1      38.225  31.189  36.716  1.00  0.00     0.031 A 
ATOM     85  C   UNL A   1      39.005  33.186  35.617  1.00  0.00     0.131 A 
ATOM     86  C   UNL A   1      37.694  31.992  37.738  1.00  0.00     0.055 A 
ATOM     87  C   UNL A   1      38.537  33.974  36.670  1.00  0.00     0.041 A 
ATOM     88  F   UNL A   1      39.603  33.814  34.591  1.00  0.00    -0.206 F 
ATOM     89  C   UNL A   1      37.865  33.379  37.733  1.00  0.00     0.022 A 
BRANCH  86  90
ATOM     90  S   UNL A   1      36.684  31.211  39.026  1.00  0.00     0.124 S 
ATOM     91  O   UNL A   1      37.606  31.179  40.157  1.00  0.00    -0.237 OA
ATOM     92  O   UNL A   1      35.561  32.135  39.145  1.00  0.00    -0.237 OA
ATOM     93  O   UNL A   1      36.353  29.905  38.459  1.00  0.00    -0.744 OA
ENDBRANCH  86  90
ENDBRANCH  60  83
ENDBRANCH  34  35
ENDBRANCH  27  29
ENDBRANCH  26  27
ENDBRANCH  25  26
ENDBRANCH  24  25
ENDBRANCH   1  24
TORSDOF 20
ENDMDL
MODEL 3
REMARK VINA RESULT:     -10.6      4.862     10.060
REMARK SMILES CS(=O)(=O)[C@@H]1CCC[C@@H](Sc2ccc(C(=O)OCCOCCOC(=O)c3ccc(-c4c5nc(c(-c6cc(S(=O)(=O)[O-])ccc6F)c6ccc([nH]6)c(-c6cc(S(=O)(=O)[O-])ccc6F)c6nc(c(-c7cc(S(=O)(=O)[O-])ccc7F)c7ccc4[nH]7)C=C6)C=C5)cc3)cn2)C1
REMARK SMILES IDX 20 1 19 2 18 3 17 4 15 5 16 6 14 7 11 8 12 9 90 10 13 11
REMARK SMILES IDX 89 12 10 13 9 14 5 15 6 16 91 17 7 18 8 19 2 20 1 21 3 22
REMARK SMILES IDX 4 23 21 24 22 25 23 26 24 27 25 28 26 29 27 30 88 31 28 32
REMARK SMILES IDX 87 33 29 34 30 35 31 36 81 37 32 38 86 39 80 40 82 41 33 42
REMARK SMILES IDX 85 43 79 44 78 45 34 47 66 48 46 49 65 50 47 51 50 52 64 53
REMARK SMILES IDX 83 54 48 55 49 56 63 58 84 59 51 60 35 61 36 62 44 63 37 64
REMARK SMILES IDX 43 65 45 66 42 67 38 68 39 69 40 70 41 71 67 72 68 73 76 74
REMARK SMILES IDX 69 75 75 76 77 77 74 78 70 79 71 80 72 81 73 82 52 83 53 84
REMARK SMILES IDX 61 85 54 86 60 87 62 88 59 89 55 90 56 91 57 92 58 93
REMARK H PARENT 82 46 50 57
REMARK Flexibility Score: inf
ROOT
ATOM      1  O   UNL A   1      33.932  35.241  31.598  1.00  0.00    -0.374 OA
ENDROOT
BRANCH   1   2
ATOM      2  C   UNL A   1      33.625  34.706  30.308  1.00  0.00     0.202 C 
BRANCH   2   3
ATOM      3  C   UNL A   1      34.439  33.471  29.911  1.00  0.00     0.261 C 
BRANCH   3   4
ATOM      4  O   UNL A   1      34.213  33.142  28.534  1.00  0.00    -0.460 OA
BRANCH   4   5
ATOM      5  C   UNL A   1      35.065  32.254  27.966  1.00  0.00     0.339 C 
ATOM      6  O   UNL A   1      36.269  32.366  27.818  1.00  0.00    -0.246 OA
BRANCH   5   7
ATOM      7  C   UNL A   1      34.307  31.029  27.647  1.00  0.00     0.078 A 
ATOM      8  C   UNL A   1      32.828  28.787  26.908  1.00  0.00     0.096 A 
ATOM      9  C   UNL A   1      34.159  28.679  27.243  1.00  0.00     0.036 A 
ATOM     10  N   UNL A   1      32.232  30.004  26.918  1.00  0.00    -0.249 NA
ATOM     11  C   UNL A   1      34.912  29.784  27.613  1.00  0.00     0.020 A 
ATOM     12  C   UNL A   1      32.972  31.091  27.287  1.00  0.00     0.128 A 
BRANCH   8  13
ATOM     13  S   UNL A   1      31.783  27.448  26.392  1.00  0.00    -0.103 SA
BRANCH  13  14
ATOM     14  C   UNL A   1      31.815  27.194  24.543  1.00  0.00     0.054 C 
ATOM     15  C   UNL A   1      30.432  29.004  23.433  1.00  0.00     0.109 C 
ATOM     16  C   UNL A   1      31.606  29.387  22.520  1.00  0.00     0.020 C 
ATOM     17  C   UNL A   1      30.507  27.539  23.827  1.00  0.00     0.034 C 
ATOM     18  C   UNL A   1      32.999  28.912  22.963  1.00  0.00     0.002 C 
ATOM     19  C   UNL A   1      33.061  27.601  23.749  1.00  0.00     0.015 C 
BRANCH  15  20
ATOM     20  S   UNL A   1      28.837  29.450  22.715  1.00  0.00     0.150 S 
ATOM     21  C   UNL A   1      28.500  31.027  23.476  1.00  0.00     0.158 C 
ATOM     22  O   UNL A   1      27.833  28.514  23.177  1.00  0.00    -0.229 OA
ATOM     23  O   UNL A   1      29.023  29.701  21.299  1.00  0.00    -0.229 OA
ENDBRANCH  15  20
ENDBRANCH  13  14
ENDBRANCH   8  13
ENDBRANCH   5   7
ENDBRANCH   4   5
ENDBRANCH   3   4
ENDBRANCH   2   3
ENDBRANCH   1   2
BRANCH   1  24
ATOM     24  C   UNL A   1      33.675  34.383  32.712  1.00  0.00     0.202 C 
BRANCH  24  25
ATOM     25  C   UNL A   1      34.879  34.069  33.607  1.00  0.00     0.261 C 
BRANCH  25  26
ATOM     26  O   UNL A   1      35.954  33.475  32.858  1.00  0.00    -0.460 OA
BRANCH  26  27
ATOM     27  C   UNL A   1      36.675  32.558  33.550  1.00  0.00     0.338 C 
ATOM     28  O   UNL A   1      36.545  32.264  34.726  1.00  0.00    -0.246 OA
BRANCH  27  29
ATOM     29  C   UNL A   1      37.540  31.801  32.624  1.00  0.00     0.060 A 
ATOM     30  C   UNL A   1      38.449  30.896  33.189  1.00  0.00     0.016 A 
ATOM     31  C   UNL A   1      37.509  32.010  31.244  1.00  0.00     0.016 A 
ATOM     32  C   UNL A   1      39.371  30.238  32.379  1.00  0.00     0.010 A 
ATOM     33  C   UNL A   1      38.436  31.348  30.433  1.00  0.00     0.010 A 
ATOM     34  C   UNL A   1      39.397  30.490  31.001  1.00  0.00    -0.014 A 
BRANCH  34  35
ATOM     35  C   UNL A   1      40.523  29.978  30.181  1.00  0.00     0.031 A 
ATOM     36  C   UNL A   1      41.719  30.861  29.954  1.00  0.00     0.074 A 
ATOM     37  C   UNL A   1      40.495  28.735  29.671  1.00  0.00     0.049 A 
ATOM     38  N   UNL A   1      42.795  30.642  29.243  1.00  0.00    -0.248 NA
ATOM     39  C   UNL A   1      41.688  32.172  30.617  1.00  0.00     0.031 C 
ATOM     40  C   UNL A   1      39.418  27.767  29.870  1.00  0.00     0.029 A 
ATOM     41  N   UNL A   1      41.401  28.075  28.882  1.00  0.00    -0.354 N 
ATOM     42  C   UNL A   1      43.569  31.793  29.364  1.00  0.00     0.074 A 
ATOM     43  C   UNL A   1      42.806  32.722  30.173  1.00  0.00     0.031 C 
ATOM     44  C   UNL A   1      39.729  26.632  29.223  1.00  0.00     0.029 A 
ATOM     45  C   UNL A   1      41.003  26.809  28.527  1.00  0.00     0.049 A 
ATOM     46  H   UNL A   1      42.255  28.471  28.596  1.00  0.00     0.167 HD
ATOM     47  C   UNL A   1      44.804  32.044  28.861  1.00  0.00     0.034 A 
ATOM     48  C   UNL A   1      41.589  25.905  27.717  1.00  0.00     0.034 A 
ATOM     49  C   UNL A   1      45.535  31.112  28.036  1.00  0.00     0.049 A 
ATOM     50  C   UNL A   1      42.906  26.249  27.065  1.00  0.00     0.074 A 
ATOM     51  C   UNL A   1      46.794  31.254  27.478  1.00  0.00     0.029 A 
ATOM     52  N   UNL A   1      45.065  29.867  27.632  1.00  0.00    -0.354 N 
ATOM     53  N   UNL A   1      43.632  27.337  27.186  1.00  0.00    -0.248 NA
ATOM     54  C   UNL A   1      43.482  25.238  26.170  1.00  0.00     0.031 C 
ATOM     55  C   UNL A   1      47.045  30.140  26.669  1.00  0.00     0.029 A 
ATOM     56  C   UNL A   1      45.988  29.253  26.797  1.00  0.00     0.049 A 
ATOM     57  H   UNL A   1      44.201  29.477  27.899  1.00  0.00     0.167 HD
ATOM     58  C   UNL A   1      44.771  27.124  26.411  1.00  0.00     0.074 A 
ATOM     59  C   UNL A   1      44.633  25.801  25.833  1.00  0.00     0.031 C 
ATOM     60  C   UNL A   1      45.836  27.942  26.207  1.00  0.00     0.034 A 
BRANCH  47  61
ATOM     61  C   UNL A   1      45.395  33.407  29.144  1.00  0.00     0.023 A 
ATOM     62  C   UNL A   1      45.125  34.516  28.321  1.00  0.00     0.031 A 
ATOM     63  C   UNL A   1      46.304  33.585  30.202  1.00  0.00     0.131 A 
ATOM     64  C   UNL A   1      45.838  35.712  28.497  1.00  0.00     0.055 A 
ATOM     65  C   UNL A   1      46.932  34.811  30.437  1.00  0.00     0.041 A 
ATOM     66  F   UNL A   1      46.624  32.564  31.010  1.00  0.00    -0.206 F 
ATOM     67  C   UNL A   1      46.720  35.876  29.567  1.00  0.00     0.022 A 
BRANCH  64  68
ATOM     68  S   UNL A   1      45.755  36.966  27.188  1.00  0.00     0.124 S 
ATOM     69  O   UNL A   1      44.486  37.623  27.491  1.00  0.00    -0.237 OA
ATOM     70  O   UNL A   1      46.957  37.755  27.431  1.00  0.00    -0.237 OA
ATOM     71  O   UNL A   1      45.761  36.178  25.958  1.00  0.00    -0.744 OA
ENDBRANCH  64  68
ENDBRANCH  47  61
BRANCH  48  72
ATOM     72  C   UNL A   1      40.932  24.593  27.463  1.00  0.00     0.023 A 
ATOM     73  C   UNL A   1      39.741  24.515  26.725  1.00  0.00     0.031 A 
ATOM     74  C   UNL A   1      41.472  23.398  27.973  1.00  0.00     0.131 A 
ATOM     75  C   UNL A   1      39.113  23.274  26.540  1.00  0.00     0.055 A 
ATOM     76  C   UNL A   1      40.870  22.160  27.744  1.00  0.00     0.041 A 
ATOM     77  F   UNL A   1      42.610  23.417  28.685  1.00  0.00    -0.206 F 
ATOM     78  C   UNL A   1      39.677  22.095  27.031  1.00  0.00     0.022 A 
BRANCH  75  79
ATOM     79  S   UNL A   1      37.509  23.231  25.695  1.00  0.00     0.124 S 
ATOM     80  O   UNL A   1      37.355  21.807  25.423  1.00  0.00    -0.237 OA
ATOM     81  O   UNL A   1      36.620  23.794  26.705  1.00  0.00    -0.237 OA
ATOM     82  O   UNL A   1      37.724  24.073  24.519  1.00  0.00    -0.744 OA
ENDBRANCH  75  79
ENDBRANCH  48  72
BRANCH  60  83
ATOM     83  C   UNL A   1      46.966  27.405  25.357  1.00  0.00     0.023 A 
ATOM     84  C   UNL A   1      47.183  27.845  24.039  1.00  0.00     0.031 A 
ATOM     85  C   UNL A   1      47.835  26.427  25.875  1.00  0.00     0.131 A 
ATOM     86  C   UNL A   1      48.204  27.268  23.267  1.00  0.00     0.055 A 
ATOM     87  C   UNL A   1      48.892  25.908  25.125  1.00  0.00     0.041 A 
ATOM     88  F   UNL A   1      47.674  25.963  27.125  1.00  0.00    -0.206 F 
ATOM     89  C   UNL A   1      49.073  26.317  23.809  1.00  0.00     0.022 A 
BRANCH  86  90
ATOM     90  S   UNL A   1      48.317  27.698  21.508  1.00  0.00     0.124 S 
ATOM     91  O   UNL A   1      46.989  28.241  21.243  1.00  0.00    -0.237 OA
ATOM     92  O   UNL A   1      49.414  28.660  21.492  1.00  0.00    -0.237 OA
ATOM     93  O   UNL A   1      48.606  26.420  20.860  1.00  0.00    -0.744 OA
ENDBRANCH  86  90
ENDBRANCH  60  83
ENDBRANCH  34  35
ENDBRANCH  27  29
ENDBRANCH  26  27
ENDBRANCH  25  26
ENDBRANCH  24  25
ENDBRANCH   1  24
TORSDOF 20
ENDMDL
