MODEL 1
REMARK VINA RESULT:     -12.0      0.000      0.000
REMARK SMILES Cc1ccc(C(=O)OCCOCCOC(=O)c2ccc(-c3c4nc(c(-c5cc(S(=O)(=O)[O-])ccc5F)c5ccc([nH]5)c(-c5cc(S(=O)(=O)[O-])ccc5F)c5nc(c(-c6cc(S(=O)(=O)[O-])ccc6F)c6ccc3[nH]6)C=C5)C=C4)cc2)cc1N1C(=O)/C(=C\c2nc3ccccc3n2C)SC1=S
REMARK SMILES IDX 12 1 11 2 10 3 9 4 8 5 6 6 7 7 5 8 1 9 2 10 3 11 81 12 4 13
REMARK SMILES IDX 80 14 82 15 83 16 98 17 84 18 85 19 97 20 99 21 86 22 87 23
REMARK SMILES IDX 88 24 95 25 89 26 94 27 96 28 90 29 93 30 91 31 92 32 13 33
REMARK SMILES IDX 14 34 15 35 16 36 17 37 18 38 79 39 19 40 78 41 20 42 21 43
REMARK SMILES IDX 22 44 72 45 23 46 77 47 71 48 73 49 24 50 76 51 70 52 69 53
REMARK SMILES IDX 25 55 57 56 37 57 56 58 38 59 41 60 55 61 74 62 39 63 40 64
REMARK SMILES IDX 54 66 75 67 42 68 26 69 27 70 35 71 28 72 34 73 36 74 33 75
REMARK SMILES IDX 29 76 30 77 31 78 32 79 58 80 59 81 67 82 60 83 66 84 68 85
REMARK SMILES IDX 65 86 61 87 62 88 63 89 64 90 43 91 44 92 52 93 45 94 51 95
REMARK SMILES IDX 53 96 50 97 46 98 47 99 48 100 49 101
REMARK H PARENT 73 54 41 65
REMARK Flexibility Score: inf
ROOT
ATOM      1  C   UNL A   1      33.192  33.526  27.907  1.00  0.00     0.202 C 
ENDROOT
BRANCH   1   2
ATOM      2  O   UNL A   1      31.954  33.384  27.255  1.00  0.00    -0.374 OA
BRANCH   2   3
ATOM      3  C   UNL A   1      31.581  32.048  26.935  1.00  0.00     0.202 C 
BRANCH   3   4
ATOM      4  C   UNL A   1      32.847  31.273  27.053  1.00  0.00     0.261 C 
BRANCH   4   5
ATOM      5  O   UNL A   1      32.817  30.088  26.253  1.00  0.00    -0.460 OA
BRANCH   5   6
ATOM      6  C   UNL A   1      33.939  29.354  26.044  1.00  0.00     0.338 C 
ATOM      7  O   UNL A   1      34.934  29.267  26.732  1.00  0.00    -0.246 OA
BRANCH   6   8
ATOM      8  C   UNL A   1      33.644  28.515  24.858  1.00  0.00     0.062 A 
ATOM      9  C   UNL A   1      33.014  25.937  21.457  1.00  0.00     0.046 C 
ATOM     10  C   UNL A   1      33.242  26.767  22.686  1.00  0.00    -0.027 A 
ATOM     11  C   UNL A   1      33.775  28.066  22.500  1.00  0.00     0.006 A 
ATOM     12  C   UNL A   1      32.909  26.353  23.986  1.00  0.00     0.054 A 
ATOM     13  C   UNL A   1      33.959  28.944  23.575  1.00  0.00     0.016 A 
ATOM     14  C   UNL A   1      33.135  27.231  25.043  1.00  0.00     0.042 A 
BRANCH  12  15
ATOM     15  N   UNL A   1      32.248  25.137  24.323  1.00  0.00    -0.261 N 
ATOM     16  C   UNL A   1      33.024  23.978  24.409  1.00  0.00     0.270 C 
ATOM     17  C   UNL A   1      30.882  24.939  24.272  1.00  0.00     0.152 C 
ATOM     18  O   UNL A   1      34.203  23.877  24.098  1.00  0.00    -0.268 OA
ATOM     19  C   UNL A   1      32.179  22.823  24.824  1.00  0.00     0.084 C 
ATOM     20  S   UNL A   1      30.516  23.237  24.622  1.00  0.00    -0.054 SA
ATOM     21  S   UNL A   1      29.659  26.023  23.902  1.00  0.00    -0.051 S 
ATOM     22  C   UNL A   1      32.612  21.646  25.311  1.00  0.00     0.068 C 
BRANCH  22  23
ATOM     23  C   UNL A   1      33.983  21.453  25.632  1.00  0.00     0.134 A 
ATOM     24  N   UNL A   1      34.761  22.219  26.371  1.00  0.00    -0.229 NA
ATOM     25  N   UNL A   1      34.715  20.391  25.144  1.00  0.00    -0.328 N 
ATOM     26  C   UNL A   1      36.041  21.887  26.011  1.00  0.00     0.089 A 
ATOM     27  C   UNL A   1      36.049  20.729  25.240  1.00  0.00     0.068 A 
ATOM     28  C   UNL A   1      34.198  19.141  24.649  1.00  0.00     0.152 C 
ATOM     29  C   UNL A   1      37.244  22.548  26.292  1.00  0.00     0.030 A 
ATOM     30  C   UNL A   1      37.231  20.172  24.737  1.00  0.00     0.028 A 
ATOM     31  C   UNL A   1      38.433  22.024  25.776  1.00  0.00     0.002 A 
ATOM     32  C   UNL A   1      38.424  20.850  25.021  1.00  0.00     0.002 A 
ENDBRANCH  22  23
ENDBRANCH  12  15
ENDBRANCH   6   8
ENDBRANCH   5   6
ENDBRANCH   4   5
ENDBRANCH   3   4
ENDBRANCH   2   3
ENDBRANCH   1   2
BRANCH   1  33
ATOM     33  C   UNL A   1      33.210  34.725  28.860  1.00  0.00     0.261 C 
BRANCH  33  34
ATOM     34  O   UNL A   1      34.499  34.805  29.512  1.00  0.00    -0.460 OA
BRANCH  34  35
ATOM     35  C   UNL A   1      34.637  34.080  30.660  1.00  0.00     0.338 C 
ATOM     36  O   UNL A   1      33.721  33.759  31.397  1.00  0.00    -0.246 OA
BRANCH  35  37
ATOM     37  C   UNL A   1      36.085  33.853  30.953  1.00  0.00     0.060 A 
ATOM     38  C   UNL A   1      37.050  33.941  29.928  1.00  0.00     0.016 A 
ATOM     39  C   UNL A   1      36.431  33.288  32.178  1.00  0.00     0.016 A 
ATOM     40  C   UNL A   1      38.308  33.327  30.081  1.00  0.00     0.010 A 
ATOM     41  C   UNL A   1      37.628  32.611  32.286  1.00  0.00     0.010 A 
ATOM     42  C   UNL A   1      38.563  32.587  31.235  1.00  0.00    -0.014 A 
BRANCH  42  43
ATOM     43  C   UNL A   1      39.643  31.604  31.424  1.00  0.00     0.031 A 
ATOM     44  C   UNL A   1      39.639  30.382  30.585  1.00  0.00     0.074 A 
ATOM     45  C   UNL A   1      40.795  31.967  32.044  1.00  0.00     0.049 A 
ATOM     46  N   UNL A   1      40.477  29.414  30.709  1.00  0.00    -0.248 NA
ATOM     47  C   UNL A   1      38.652  30.121  29.540  1.00  0.00     0.031 C 
ATOM     48  C   UNL A   1      42.151  31.458  31.823  1.00  0.00     0.029 A 
ATOM     49  N   UNL A   1      40.994  32.917  33.047  1.00  0.00    -0.354 N 
ATOM     50  C   UNL A   1      40.430  28.677  29.549  1.00  0.00     0.074 A 
ATOM     51  C   UNL A   1      39.175  29.044  28.948  1.00  0.00     0.031 C 
ATOM     52  C   UNL A   1      42.954  31.855  32.826  1.00  0.00     0.029 A 
ATOM     53  C   UNL A   1      42.121  32.539  33.796  1.00  0.00     0.049 A 
ATOM     54  H   UNL A   1      40.439  33.715  33.204  1.00  0.00     0.167 HD
ATOM     55  C   UNL A   1      41.548  27.985  29.181  1.00  0.00     0.034 A 
ATOM     56  C   UNL A   1      42.014  32.318  35.130  1.00  0.00     0.034 A 
ATOM     57  C   UNL A   1      42.559  28.034  30.256  1.00  0.00     0.049 A 
ATOM     58  C   UNL A   1      42.268  30.854  35.353  1.00  0.00     0.074 A 
ATOM     59  C   UNL A   1      43.806  28.626  30.376  1.00  0.00     0.029 A 
ATOM     60  N   UNL A   1      42.196  27.644  31.548  1.00  0.00    -0.354 N 
ATOM     61  N   UNL A   1      42.156  29.974  34.391  1.00  0.00    -0.248 NA
ATOM     62  C   UNL A   1      42.791  30.269  36.580  1.00  0.00     0.031 C 
ATOM     63  C   UNL A   1      44.130  28.685  31.765  1.00  0.00     0.029 A 
ATOM     64  C   UNL A   1      43.104  28.092  32.488  1.00  0.00     0.049 A 
ATOM     65  H   UNL A   1      41.393  27.117  31.763  1.00  0.00     0.167 HD
ATOM     66  C   UNL A   1      42.723  28.801  34.772  1.00  0.00     0.074 A 
ATOM     67  C   UNL A   1      43.043  29.008  36.179  1.00  0.00     0.031 C 
ATOM     68  C   UNL A   1      42.932  27.770  33.902  1.00  0.00     0.034 A 
BRANCH  55  69
ATOM     69  C   UNL A   1      41.854  27.449  27.785  1.00  0.00     0.023 A 
ATOM     70  C   UNL A   1      42.100  26.064  27.634  1.00  0.00     0.031 A 
ATOM     71  C   UNL A   1      41.991  28.196  26.594  1.00  0.00     0.131 A 
ATOM     72  C   UNL A   1      42.486  25.504  26.398  1.00  0.00     0.055 A 
ATOM     73  C   UNL A   1      42.357  27.637  25.360  1.00  0.00     0.041 A 
ATOM     74  F   UNL A   1      41.793  29.513  26.532  1.00  0.00    -0.206 F 
ATOM     75  C   UNL A   1      42.614  26.285  25.255  1.00  0.00     0.022 A 
BRANCH  72  76
ATOM     76  S   UNL A   1      42.838  23.728  26.297  1.00  0.00     0.124 S 
ATOM     77  O   UNL A   1      43.219  23.569  24.898  1.00  0.00    -0.237 OA
ATOM     78  O   UNL A   1      43.901  23.565  27.281  1.00  0.00    -0.237 OA
ATOM     79  O   UNL A   1      41.563  23.109  26.661  1.00  0.00    -0.744 OA
ENDBRANCH  72  76
ENDBRANCH  55  69
BRANCH  56  80
ATOM     80  C   UNL A   1      41.033  33.270  35.749  1.00  0.00     0.023 A 
ATOM     81  C   UNL A   1      39.779  32.710  36.123  1.00  0.00     0.031 A 
ATOM     82  C   UNL A   1      41.453  34.420  36.435  1.00  0.00     0.131 A 
ATOM     83  C   UNL A   1      39.079  33.189  37.246  1.00  0.00     0.055 A 
ATOM     84  C   UNL A   1      40.733  34.912  37.538  1.00  0.00     0.041 A 
ATOM     85  F   UNL A   1      42.637  34.986  36.160  1.00  0.00    -0.206 F 
ATOM     86  C   UNL A   1      39.571  34.272  37.976  1.00  0.00     0.022 A 
BRANCH  83  87
ATOM     87  S   UNL A   1      37.701  32.196  37.934  1.00  0.00     0.124 S 
ATOM     88  O   UNL A   1      36.543  33.036  37.649  1.00  0.00    -0.237 OA
ATOM     89  O   UNL A   1      37.773  30.945  37.183  1.00  0.00    -0.237 OA
ATOM     90  O   UNL A   1      38.054  32.062  39.347  1.00  0.00    -0.744 OA
ENDBRANCH  83  87
ENDBRANCH  56  80
BRANCH  68  91
ATOM     91  C   UNL A   1      43.065  26.345  34.351  1.00  0.00     0.023 A 
ATOM     92  C   UNL A   1      44.307  25.701  34.382  1.00  0.00     0.031 A 
ATOM     93  C   UNL A   1      41.979  25.627  34.896  1.00  0.00     0.131 A 
ATOM     94  C   UNL A   1      44.424  24.378  34.814  1.00  0.00     0.055 A 
ATOM     95  C   UNL A   1      42.120  24.349  35.439  1.00  0.00     0.041 A 
ATOM     96  F   UNL A   1      40.741  26.139  34.947  1.00  0.00    -0.206 F 
ATOM     97  C   UNL A   1      43.346  23.704  35.377  1.00  0.00     0.022 A 
BRANCH  94  98
ATOM     98  S   UNL A   1      45.997  23.547  34.505  1.00  0.00     0.124 S 
ATOM     99  O   UNL A   1      46.563  23.474  35.851  1.00  0.00    -0.237 OA
ATOM    100  O   UNL A   1      45.576  22.273  33.930  1.00  0.00    -0.237 OA
ATOM    101  O   UNL A   1      46.687  24.449  33.588  1.00  0.00    -0.744 OA
ENDBRANCH  94  98
ENDBRANCH  68  91
ENDBRANCH  42  43
ENDBRANCH  35  37
ENDBRANCH  34  35
ENDBRANCH  33  34
ENDBRANCH   1  33
TORSDOF 19
ENDMDL
MODEL 2
REMARK VINA RESULT:     -11.7      1.308      2.028
REMARK SMILES Cc1ccc(C(=O)OCCOCCOC(=O)c2ccc(-c3c4nc(c(-c5cc(S(=O)(=O)[O-])ccc5F)c5ccc([nH]5)c(-c5cc(S(=O)(=O)[O-])ccc5F)c5nc(c(-c6cc(S(=O)(=O)[O-])ccc6F)c6ccc3[nH]6)C=C5)C=C4)cc2)cc1N1C(=O)/C(=C\c2nc3ccccc3n2C)SC1=S
REMARK SMILES IDX 12 1 11 2 10 3 9 4 8 5 6 6 7 7 5 8 1 9 2 10 3 11 81 12 4 13
REMARK SMILES IDX 80 14 82 15 83 16 98 17 84 18 85 19 97 20 99 21 86 22 87 23
REMARK SMILES IDX 88 24 95 25 89 26 94 27 96 28 90 29 93 30 91 31 92 32 13 33
REMARK SMILES IDX 14 34 15 35 16 36 17 37 18 38 79 39 19 40 78 41 20 42 21 43
REMARK SMILES IDX 22 44 72 45 23 46 77 47 71 48 73 49 24 50 76 51 70 52 69 53
REMARK SMILES IDX 25 55 57 56 37 57 56 58 38 59 41 60 55 61 74 62 39 63 40 64
REMARK SMILES IDX 54 66 75 67 42 68 26 69 27 70 35 71 28 72 34 73 36 74 33 75
REMARK SMILES IDX 29 76 30 77 31 78 32 79 58 80 59 81 67 82 60 83 66 84 68 85
REMARK SMILES IDX 65 86 61 87 62 88 63 89 64 90 43 91 44 92 52 93 45 94 51 95
REMARK SMILES IDX 53 96 50 97 46 98 47 99 48 100 49 101
REMARK H PARENT 73 54 41 65
REMARK Flexibility Score: inf
ROOT
ATOM      1  C   UNL A   1      33.574  34.439  28.461  1.00  0.00     0.202 C 
ENDROOT
BRANCH   1   2
ATOM      2  O   UNL A   1      32.397  33.815  28.011  1.00  0.00    -0.374 OA
BRANCH   2   3
ATOM      3  C   UNL A   1      32.587  32.628  27.251  1.00  0.00     0.202 C 
BRANCH   3   4
ATOM      4  C   UNL A   1      33.801  32.000  27.842  1.00  0.00     0.261 C 
BRANCH   4   5
ATOM      5  O   UNL A   1      34.305  30.945  27.018  1.00  0.00    -0.460 OA
BRANCH   5   6
ATOM      6  C   UNL A   1      34.639  29.741  27.547  1.00  0.00     0.338 C 
ATOM      7  O   UNL A   1      35.543  29.464  28.306  1.00  0.00    -0.246 OA
BRANCH   6   8
ATOM      8  C   UNL A   1      33.549  28.821  27.144  1.00  0.00     0.062 A 
ATOM      9  C   UNL A   1      30.272  26.343  25.828  1.00  0.00     0.046 C 
ATOM     10  C   UNL A   1      31.426  27.223  26.208  1.00  0.00    -0.027 A 
ATOM     11  C   UNL A   1      31.402  27.801  27.500  1.00  0.00     0.006 A 
ATOM     12  C   UNL A   1      32.539  27.458  25.383  1.00  0.00     0.054 A 
ATOM     13  C   UNL A   1      32.463  28.580  27.976  1.00  0.00     0.016 A 
ATOM     14  C   UNL A   1      33.566  28.265  25.865  1.00  0.00     0.042 A 
BRANCH  12  15
ATOM     15  N   UNL A   1      32.773  26.848  24.118  1.00  0.00    -0.261 N 
ATOM     16  C   UNL A   1      33.400  25.600  24.105  1.00  0.00     0.270 C 
ATOM     17  C   UNL A   1      32.719  27.502  22.903  1.00  0.00     0.152 C 
ATOM     18  O   UNL A   1      33.886  25.029  25.072  1.00  0.00    -0.268 OA
ATOM     19  C   UNL A   1      33.511  25.093  22.708  1.00  0.00     0.084 C 
ATOM     20  S   UNL A   1      33.232  26.396  21.611  1.00  0.00    -0.054 SA
ATOM     21  S   UNL A   1      32.306  29.089  22.562  1.00  0.00    -0.051 S 
ATOM     22  C   UNL A   1      33.757  23.825  22.331  1.00  0.00     0.068 C 
BRANCH  22  23
ATOM     23  C   UNL A   1      33.780  22.775  23.287  1.00  0.00     0.134 A 
ATOM     24  N   UNL A   1      34.828  22.241  23.881  1.00  0.00    -0.229 NA
ATOM     25  N   UNL A   1      32.636  22.125  23.702  1.00  0.00    -0.328 N 
ATOM     26  C   UNL A   1      34.404  21.016  24.329  1.00  0.00     0.089 A 
ATOM     27  C   UNL A   1      33.019  20.913  24.236  1.00  0.00     0.068 A 
ATOM     28  C   UNL A   1      31.286  22.622  23.626  1.00  0.00     0.152 C 
ATOM     29  C   UNL A   1      35.156  19.934  24.807  1.00  0.00     0.030 A 
ATOM     30  C   UNL A   1      32.326  19.759  24.625  1.00  0.00     0.028 A 
ATOM     31  C   UNL A   1      34.485  18.763  25.174  1.00  0.00     0.002 A 
ATOM     32  C   UNL A   1      33.094  18.685  25.093  1.00  0.00     0.002 A 
ENDBRANCH  22  23
ENDBRANCH  12  15
ENDBRANCH   6   8
ENDBRANCH   5   6
ENDBRANCH   4   5
ENDBRANCH   3   4
ENDBRANCH   2   3
ENDBRANCH   1   2
BRANCH   1  33
ATOM     33  C   UNL A   1      33.353  35.231  29.754  1.00  0.00     0.261 C 
BRANCH  33  34
ATOM     34  O   UNL A   1      34.520  35.112  30.599  1.00  0.00    -0.460 OA
BRANCH  34  35
ATOM     35  C   UNL A   1      34.764  33.873  31.116  1.00  0.00     0.338 C 
ATOM     36  O   UNL A   1      33.909  33.107  31.526  1.00  0.00    -0.246 OA
BRANCH  35  37
ATOM     37  C   UNL A   1      36.236  33.645  31.230  1.00  0.00     0.060 A 
ATOM     38  C   UNL A   1      37.042  33.552  30.076  1.00  0.00     0.016 A 
ATOM     39  C   UNL A   1      36.751  33.253  32.463  1.00  0.00     0.016 A 
ATOM     40  C   UNL A   1      38.303  32.927  30.137  1.00  0.00     0.010 A 
ATOM     41  C   UNL A   1      37.944  32.561  32.498  1.00  0.00     0.010 A 
ATOM     42  C   UNL A   1      38.716  32.354  31.340  1.00  0.00    -0.014 A 
BRANCH  42  43
ATOM     43  C   UNL A   1      39.801  31.375  31.516  1.00  0.00     0.031 A 
ATOM     44  C   UNL A   1      39.765  30.130  30.715  1.00  0.00     0.074 A 
ATOM     45  C   UNL A   1      40.976  31.755  32.082  1.00  0.00     0.049 A 
ATOM     46  N   UNL A   1      40.605  29.164  30.835  1.00  0.00    -0.248 NA
ATOM     47  C   UNL A   1      38.738  29.840  29.715  1.00  0.00     0.031 C 
ATOM     48  C   UNL A   1      42.322  31.236  31.825  1.00  0.00     0.029 A 
ATOM     49  N   UNL A   1      41.214  32.733  33.049  1.00  0.00    -0.354 N 
ATOM     50  C   UNL A   1      40.515  28.394  29.699  1.00  0.00     0.074 A 
ATOM     51  C   UNL A   1      39.238  28.745  29.136  1.00  0.00     0.031 C 
ATOM     52  C   UNL A   1      43.163  31.662  32.785  1.00  0.00     0.029 A 
ATOM     53  C   UNL A   1      42.367  32.375  33.765  1.00  0.00     0.049 A 
ATOM     54  H   UNL A   1      40.666  33.536  33.203  1.00  0.00     0.167 HD
ATOM     55  C   UNL A   1      41.617  27.690  29.310  1.00  0.00     0.034 A 
ATOM     56  C   UNL A   1      42.311  32.193  35.108  1.00  0.00     0.034 A 
ATOM     57  C   UNL A   1      42.668  27.767  30.344  1.00  0.00     0.049 A 
ATOM     58  C   UNL A   1      42.572  30.735  35.364  1.00  0.00     0.074 A 
ATOM     59  C   UNL A   1      43.919  28.361  30.399  1.00  0.00     0.029 A 
ATOM     60  N   UNL A   1      42.354  27.417  31.660  1.00  0.00    -0.354 N 
ATOM     61  N   UNL A   1      42.424  29.828  34.432  1.00  0.00    -0.248 NA
ATOM     62  C   UNL A   1      43.141  30.186  36.586  1.00  0.00     0.031 C 
ATOM     63  C   UNL A   1      44.296  28.460  31.773  1.00  0.00     0.029 A 
ATOM     64  C   UNL A   1      43.297  27.890  32.552  1.00  0.00     0.049 A 
ATOM     65  H   UNL A   1      41.560  26.897  31.920  1.00  0.00     0.167 HD
ATOM     66  C   UNL A   1      43.003  28.666  34.827  1.00  0.00     0.074 A 
ATOM     67  C   UNL A   1      43.377  28.913  36.214  1.00  0.00     0.031 C 
ATOM     68  C   UNL A   1      43.179  27.609  33.980  1.00  0.00     0.034 A 
BRANCH  55  69
ATOM     69  C   UNL A   1      41.870  27.112  27.920  1.00  0.00     0.023 A 
ATOM     70  C   UNL A   1      42.327  25.777  27.817  1.00  0.00     0.031 A 
ATOM     71  C   UNL A   1      41.763  27.786  26.683  1.00  0.00     0.131 A 
ATOM     72  C   UNL A   1      42.677  25.200  26.578  1.00  0.00     0.055 A 
ATOM     73  C   UNL A   1      42.094  27.207  25.448  1.00  0.00     0.041 A 
ATOM     74  F   UNL A   1      41.344  29.047  26.572  1.00  0.00    -0.206 F 
ATOM     75  C   UNL A   1      42.561  25.909  25.389  1.00  0.00     0.022 A 
BRANCH  72  76
ATOM     76  S   UNL A   1      43.308  23.501  26.535  1.00  0.00     0.124 S 
ATOM     77  O   UNL A   1      43.029  23.036  27.890  1.00  0.00    -0.237 OA
ATOM     78  O   UNL A   1      42.516  22.902  25.468  1.00  0.00    -0.237 OA
ATOM     79  O   UNL A   1      44.727  23.673  26.224  1.00  0.00    -0.744 OA
ENDBRANCH  72  76
ENDBRANCH  55  69
BRANCH  56  80
ATOM     80  C   UNL A   1      41.355  33.165  35.736  1.00  0.00     0.023 A 
ATOM     81  C   UNL A   1      40.039  32.674  35.971  1.00  0.00     0.031 A 
ATOM     82  C   UNL A   1      41.801  34.220  36.546  1.00  0.00     0.131 A 
ATOM     83  C   UNL A   1      39.291  33.113  37.079  1.00  0.00     0.055 A 
ATOM     84  C   UNL A   1      41.035  34.676  37.633  1.00  0.00     0.041 A 
ATOM     85  F   UNL A   1      43.040  34.714  36.404  1.00  0.00    -0.206 F 
ATOM     86  C   UNL A   1      39.801  34.093  37.932  1.00  0.00     0.022 A 
BRANCH  83  87
ATOM     87  S   UNL A   1      37.798  32.177  37.581  1.00  0.00     0.124 S 
ATOM     88  O   UNL A   1      36.735  33.153  37.367  1.00  0.00    -0.237 OA
ATOM     89  O   UNL A   1      37.793  31.030  36.674  1.00  0.00    -0.237 OA
ATOM     90  O   UNL A   1      38.070  31.831  38.975  1.00  0.00    -0.744 OA
ENDBRANCH  83  87
ENDBRANCH  56  80
BRANCH  68  91
ATOM     91  C   UNL A   1      43.328  26.198  34.464  1.00  0.00     0.023 A 
ATOM     92  C   UNL A   1      44.578  25.572  34.521  1.00  0.00     0.031 A 
ATOM     93  C   UNL A   1      42.247  25.479  35.019  1.00  0.00     0.131 A 
ATOM     94  C   UNL A   1      44.709  24.262  34.986  1.00  0.00     0.055 A 
ATOM     95  C   UNL A   1      42.401  24.216  35.595  1.00  0.00     0.041 A 
ATOM     96  F   UNL A   1      41.002  25.975  35.048  1.00  0.00    -0.206 F 
ATOM     97  C   UNL A   1      43.636  23.587  35.558  1.00  0.00     0.022 A 
BRANCH  94  98
ATOM     98  S   UNL A   1      46.295  23.445  34.709  1.00  0.00     0.124 S 
ATOM     99  O   UNL A   1      46.811  23.330  36.072  1.00  0.00    -0.237 OA
ATOM    100  O   UNL A   1      45.901  22.190  34.078  1.00  0.00    -0.237 OA
ATOM    101  O   UNL A   1      47.017  24.378  33.848  1.00  0.00    -0.744 OA
ENDBRANCH  94  98
ENDBRANCH  68  91
ENDBRANCH  42  43
ENDBRANCH  35  37
ENDBRANCH  34  35
ENDBRANCH  33  34
ENDBRANCH   1  33
TORSDOF 19
ENDMDL
MODEL 3
REMARK VINA RESULT:     -11.4      4.518     10.927
REMARK SMILES Cc1ccc(C(=O)OCCOCCOC(=O)c2ccc(-c3c4nc(c(-c5cc(S(=O)(=O)[O-])ccc5F)c5ccc([nH]5)c(-c5cc(S(=O)(=O)[O-])ccc5F)c5nc(c(-c6cc(S(=O)(=O)[O-])ccc6F)c6ccc3[nH]6)C=C5)C=C4)cc2)cc1N1C(=O)/C(=C\c2nc3ccccc3n2C)SC1=S
REMARK SMILES IDX 12 1 11 2 10 3 9 4 8 5 6 6 7 7 5 8 1 9 2 10 3 11 81 12 4 13
REMARK SMILES IDX 80 14 82 15 83 16 98 17 84 18 85 19 97 20 99 21 86 22 87 23
REMARK SMILES IDX 88 24 95 25 89 26 94 27 96 28 90 29 93 30 91 31 92 32 13 33
REMARK SMILES IDX 14 34 15 35 16 36 17 37 18 38 79 39 19 40 78 41 20 42 21 43
REMARK SMILES IDX 22 44 72 45 23 46 77 47 71 48 73 49 24 50 76 51 70 52 69 53
REMARK SMILES IDX 25 55 57 56 37 57 56 58 38 59 41 60 55 61 74 62 39 63 40 64
REMARK SMILES IDX 54 66 75 67 42 68 26 69 27 70 35 71 28 72 34 73 36 74 33 75
REMARK SMILES IDX 29 76 30 77 31 78 32 79 58 80 59 81 67 82 60 83 66 84 68 85
REMARK SMILES IDX 65 86 61 87 62 88 63 89 64 90 43 91 44 92 52 93 45 94 51 95
REMARK SMILES IDX 53 96 50 97 46 98 47 99 48 100 49 101
REMARK H PARENT 73 54 41 65
REMARK Flexibility Score: inf
ROOT
ATOM      1  C   UNL A   1      41.725  19.499  26.648  1.00  0.00     0.202 C 
ENDROOT
BRANCH   1   2
ATOM      2  O   UNL A   1      40.852  20.584  26.853  1.00  0.00    -0.374 OA
BRANCH   2   3
ATOM      3  C   UNL A   1      39.563  20.449  26.266  1.00  0.00     0.202 C 
BRANCH   3   4
ATOM      4  C   UNL A   1      39.259  21.803  25.725  1.00  0.00     0.261 C 
BRANCH   4   5
ATOM      5  O   UNL A   1      37.850  22.045  25.669  1.00  0.00    -0.460 OA
BRANCH   5   6
ATOM      6  C   UNL A   1      37.321  23.206  26.129  1.00  0.00     0.338 C 
ATOM      7  O   UNL A   1      37.878  24.254  26.379  1.00  0.00    -0.246 OA
BRANCH   6   8
ATOM      8  C   UNL A   1      35.852  23.003  26.108  1.00  0.00     0.062 A 
ATOM      9  C   UNL A   1      31.554  22.642  26.184  1.00  0.00     0.046 C 
ATOM     10  C   UNL A   1      33.040  22.842  26.127  1.00  0.00    -0.027 A 
ATOM     11  C   UNL A   1      33.828  22.108  27.046  1.00  0.00     0.006 A 
ATOM     12  C   UNL A   1      33.686  23.664  25.189  1.00  0.00     0.054 A 
ATOM     13  C   UNL A   1      35.226  22.171  27.028  1.00  0.00     0.016 A 
ATOM     14  C   UNL A   1      35.076  23.738  25.213  1.00  0.00     0.042 A 
BRANCH  12  15
ATOM     15  N   UNL A   1      33.049  24.360  24.121  1.00  0.00    -0.261 N 
ATOM     16  C   UNL A   1      32.628  25.670  24.360  1.00  0.00     0.270 C 
ATOM     17  C   UNL A   1      32.538  23.766  22.984  1.00  0.00     0.152 C 
ATOM     18  O   UNL A   1      32.637  26.243  25.440  1.00  0.00    -0.268 OA
ATOM     19  C   UNL A   1      32.039  26.255  23.122  1.00  0.00     0.084 C 
ATOM     20  S   UNL A   1      31.699  24.986  22.003  1.00  0.00    -0.054 SA
ATOM     21  S   UNL A   1      32.582  22.161  22.505  1.00  0.00    -0.051 S 
ATOM     22  C   UNL A   1      31.824  27.560  22.875  1.00  0.00     0.068 C 
BRANCH  22  23
ATOM     23  C   UNL A   1      32.310  28.557  23.763  1.00  0.00     0.134 A 
ATOM     24  N   UNL A   1      33.550  28.754  24.165  1.00  0.00    -0.229 NA
ATOM     25  N   UNL A   1      31.478  29.471  24.376  1.00  0.00    -0.328 N 
ATOM     26  C   UNL A   1      33.443  29.488  25.318  1.00  0.00     0.089 A 
ATOM     27  C   UNL A   1      32.145  29.963  25.479  1.00  0.00     0.068 A 
ATOM     28  C   UNL A   1      30.164  29.870  23.942  1.00  0.00     0.152 C 
ATOM     29  C   UNL A   1      34.415  29.766  26.288  1.00  0.00     0.030 A 
ATOM     30  C   UNL A   1      31.763  30.740  26.579  1.00  0.00     0.028 A 
ATOM     31  C   UNL A   1      34.047  30.517  27.409  1.00  0.00     0.002 A 
ATOM     32  C   UNL A   1      32.746  31.003  27.543  1.00  0.00     0.002 A 
ENDBRANCH  22  23
ENDBRANCH  12  15
ENDBRANCH   6   8
ENDBRANCH   5   6
ENDBRANCH   4   5
ENDBRANCH   3   4
ENDBRANCH   2   3
ENDBRANCH   1   2
BRANCH   1  33
ATOM     33  C   UNL A   1      42.823  19.824  25.631  1.00  0.00     0.261 C 
BRANCH  33  34
ATOM     34  O   UNL A   1      42.834  21.246  25.368  1.00  0.00    -0.460 OA
BRANCH  34  35
ATOM     35  C   UNL A   1      43.973  21.746  24.809  1.00  0.00     0.338 C 
ATOM     36  O   UNL A   1      44.537  21.278  23.834  1.00  0.00    -0.246 OA
BRANCH  35  37
ATOM     37  C   UNL A   1      44.505  22.868  25.640  1.00  0.00     0.060 A 
ATOM     38  C   UNL A   1      44.312  22.883  27.037  1.00  0.00     0.016 A 
ATOM     39  C   UNL A   1      44.945  24.020  24.994  1.00  0.00     0.016 A 
ATOM     40  C   UNL A   1      44.414  24.090  27.756  1.00  0.00     0.010 A 
ATOM     41  C   UNL A   1      44.952  25.213  25.686  1.00  0.00     0.010 A 
ATOM     42  C   UNL A   1      44.652  25.274  27.059  1.00  0.00    -0.014 A 
BRANCH  42  43
ATOM     43  C   UNL A   1      44.444  26.643  27.561  1.00  0.00     0.031 A 
ATOM     44  C   UNL A   1      43.058  27.159  27.648  1.00  0.00     0.074 A 
ATOM     45  C   UNL A   1      45.419  27.263  28.275  1.00  0.00     0.049 A 
ATOM     46  N   UNL A   1      42.751  28.359  27.991  1.00  0.00    -0.248 NA
ATOM     47  C   UNL A   1      41.876  26.366  27.315  1.00  0.00     0.031 C 
ATOM     48  C   UNL A   1      45.276  28.254  29.344  1.00  0.00     0.029 A 
ATOM     49  N   UNL A   1      46.804  27.120  28.185  1.00  0.00    -0.354 N 
ATOM     50  C   UNL A   1      41.422  28.360  28.346  1.00  0.00     0.074 A 
ATOM     51  C   UNL A   1      40.895  27.165  27.742  1.00  0.00     0.031 C 
ATOM     52  C   UNL A   1      46.466  28.833  29.588  1.00  0.00     0.029 A 
ATOM     53  C   UNL A   1      47.400  28.320  28.605  1.00  0.00     0.049 A 
ATOM     54  H   UNL A   1      47.282  26.316  27.878  1.00  0.00     0.167 HD
ATOM     55  C   UNL A   1      40.997  29.293  29.246  1.00  0.00     0.034 A 
ATOM     56  C   UNL A   1      48.216  29.009  27.768  1.00  0.00     0.034 A 
ATOM     57  C   UNL A   1      42.072  30.266  29.524  1.00  0.00     0.049 A 
ATOM     58  C   UNL A   1      47.522  30.304  27.449  1.00  0.00     0.074 A 
ATOM     59  C   UNL A   1      42.846  30.551  30.637  1.00  0.00     0.029 A 
ATOM     60  N   UNL A   1      42.687  30.923  28.454  1.00  0.00    -0.354 N 
ATOM     61  N   UNL A   1      46.233  30.460  27.608  1.00  0.00    -0.248 NA
ATOM     62  C   UNL A   1      48.189  31.544  27.076  1.00  0.00     0.031 C 
ATOM     63  C   UNL A   1      43.987  31.290  30.200  1.00  0.00     0.029 A 
ATOM     64  C   UNL A   1      43.888  31.493  28.830  1.00  0.00     0.049 A 
ATOM     65  H   UNL A   1      42.311  30.974  27.546  1.00  0.00     0.167 HD
ATOM     66  C   UNL A   1      45.919  31.779  27.541  1.00  0.00     0.074 A 
ATOM     67  C   UNL A   1      47.164  32.416  27.133  1.00  0.00     0.031 C 
ATOM     68  C   UNL A   1      44.682  32.256  27.871  1.00  0.00     0.034 A 
BRANCH  55  69
ATOM     69  C   UNL A   1      39.710  29.232  30.064  1.00  0.00     0.023 A 
ATOM     70  C   UNL A   1      38.930  30.406  30.183  1.00  0.00     0.031 A 
ATOM     71  C   UNL A   1      39.214  28.130  30.796  1.00  0.00     0.131 A 
ATOM     72  C   UNL A   1      37.780  30.462  30.999  1.00  0.00     0.055 A 
ATOM     73  C   UNL A   1      38.061  28.178  31.593  1.00  0.00     0.041 A 
ATOM     74  F   UNL A   1      39.805  26.935  30.805  1.00  0.00    -0.206 F 
ATOM     75  C   UNL A   1      37.338  29.349  31.706  1.00  0.00     0.022 A 
BRANCH  72  76
ATOM     76  S   UNL A   1      36.865  32.020  31.143  1.00  0.00     0.124 S 
ATOM     77  O   UNL A   1      36.500  32.291  29.757  1.00  0.00    -0.237 OA
ATOM     78  O   UNL A   1      35.775  31.660  32.042  1.00  0.00    -0.237 OA
ATOM     79  O   UNL A   1      37.850  32.941  31.711  1.00  0.00    -0.744 OA
ENDBRANCH  72  76
ENDBRANCH  55  69
BRANCH  56  80
ATOM     80  C   UNL A   1      49.024  28.070  26.921  1.00  0.00     0.023 A 
ATOM     81  C   UNL A   1      48.456  27.731  25.660  1.00  0.00     0.031 A 
ATOM     82  C   UNL A   1      50.419  27.981  27.042  1.00  0.00     0.131 A 
ATOM     83  C   UNL A   1      49.275  27.487  24.541  1.00  0.00     0.055 A 
ATOM     84  C   UNL A   1      51.230  27.707  25.928  1.00  0.00     0.041 A 
ATOM     85  F   UNL A   1      51.027  28.315  28.190  1.00  0.00    -0.206 F 
ATOM     86  C   UNL A   1      50.665  27.506  24.666  1.00  0.00     0.022 A 
BRANCH  83  87
ATOM     87  S   UNL A   1      48.525  27.462  22.870  1.00  0.00     0.124 S 
ATOM     88  O   UNL A   1      49.463  28.269  22.098  1.00  0.00    -0.237 OA
ATOM     89  O   UNL A   1      48.490  26.040  22.532  1.00  0.00    -0.237 OA
ATOM     90  O   UNL A   1      47.205  28.054  23.083  1.00  0.00    -0.744 OA
ENDBRANCH  83  87
ENDBRANCH  56  80
BRANCH  68  91
ATOM     91  C   UNL A   1      44.149  33.557  27.348  1.00  0.00     0.023 A 
ATOM     92  C   UNL A   1      44.128  34.710  28.140  1.00  0.00     0.031 A 
ATOM     93  C   UNL A   1      43.776  33.724  25.997  1.00  0.00     0.131 A 
ATOM     94  C   UNL A   1      43.643  35.920  27.641  1.00  0.00     0.055 A 
ATOM     95  C   UNL A   1      43.406  34.961  25.467  1.00  0.00     0.041 A 
ATOM     96  F   UNL A   1      43.775  32.704  25.127  1.00  0.00    -0.206 F 
ATOM     97  C   UNL A   1      43.312  36.068  26.299  1.00  0.00     0.022 A 
BRANCH  94  98
ATOM     98  S   UNL A   1      43.354  37.246  28.833  1.00  0.00     0.124 S 
ATOM     99  O   UNL A   1      44.427  38.181  28.501  1.00  0.00    -0.237 OA
ATOM    100  O   UNL A   1      42.005  37.690  28.494  1.00  0.00    -0.237 OA
ATOM    101  O   UNL A   1      43.486  36.580  30.126  1.00  0.00    -0.744 OA
ENDBRANCH  94  98
ENDBRANCH  68  91
ENDBRANCH  42  43
ENDBRANCH  35  37
ENDBRANCH  34  35
ENDBRANCH  33  34
ENDBRANCH   1  33
TORSDOF 19
ENDMDL
