MODEL 1
REMARK VINA RESULT:     -10.3      0.000      0.000
REMARK SMILES C[C@H]1OCC[C@H]1C(=O)N1CCCC[C@@H]1CC(=O)OCCOCCOC(=O)c1ccc(-c2c3nc(c(-c4cc(S(=O)(=O)[O-])ccc4F)c4ccc([nH]4)c(-c4cc(S(=O)(=O)[O-])ccc4F)c4nc(c(-c5cc(S(=O)(=O)[O-])ccc5F)c5ccc2[nH]5)C=C4)C=C3)cc1
REMARK SMILES IDX 21 1 20 2 19 3 18 4 16 5 17 6 15 7 14 8 9 9 10 10 11 11
REMARK SMILES IDX 13 12 12 13 7 14 8 15 6 16 1 17 2 18 3 19 4 20 5 21 22 22
REMARK SMILES IDX 23 23 24 24 25 25 26 26 27 27 28 28 89 29 29 30 88 31 30 32
REMARK SMILES IDX 31 33 32 34 82 35 33 36 87 37 81 38 83 39 34 40 86 41 80 42
REMARK SMILES IDX 79 43 35 45 67 46 47 47 66 48 48 49 51 50 65 51 84 52 49 53
REMARK SMILES IDX 50 54 64 56 85 57 52 58 36 59 37 60 45 61 38 62 44 63 46 64
REMARK SMILES IDX 43 65 39 66 40 67 41 68 42 69 68 70 69 71 77 72 70 73 76 74
REMARK SMILES IDX 78 75 75 76 71 77 72 78 73 79 74 80 53 81 54 82 62 83 55 84
REMARK SMILES IDX 61 85 63 86 60 87 56 88 57 89 58 90 59 91
REMARK H PARENT 83 44 51 55
REMARK Flexibility Score: inf
ROOT
ATOM      1  O   UNL A   1      37.668  21.109  25.243  1.00  0.00    -0.374 OA
ENDROOT
BRANCH   1   2
ATOM      2  C   UNL A   1      36.969  21.820  24.226  1.00  0.00     0.202 C 
BRANCH   2   3
ATOM      3  C   UNL A   1      35.444  21.880  24.330  1.00  0.00     0.261 C 
BRANCH   3   4
ATOM      4  O   UNL A   1      34.995  22.430  25.582  1.00  0.00    -0.463 OA
BRANCH   4   5
ATOM      5  C   UNL A   1      35.285  23.740  25.742  1.00  0.00     0.307 C 
ATOM      6  O   UNL A   1      36.370  24.179  26.117  1.00  0.00    -0.252 OA
BRANCH   5   7
ATOM      7  C   UNL A   1      34.179  24.684  25.378  1.00  0.00     0.147 C 
BRANCH   7   8
ATOM      8  C   UNL A   1      34.010  25.302  23.989  1.00  0.00     0.096 C 
ATOM      9  N   UNL A   1      33.814  26.789  24.068  1.00  0.00    -0.339 N 
ATOM     10  C   UNL A   1      33.422  27.462  22.832  1.00  0.00     0.120 C 
ATOM     11  C   UNL A   1      32.243  26.775  22.150  1.00  0.00     0.022 C 
ATOM     12  C   UNL A   1      32.879  24.609  23.214  1.00  0.00     0.026 C 
ATOM     13  C   UNL A   1      32.569  25.309  21.894  1.00  0.00     0.004 C 
BRANCH   9  14
ATOM     14  C   UNL A   1      33.433  27.410  25.256  1.00  0.00     0.228 C 
ATOM     15  O   UNL A   1      34.226  27.548  26.187  1.00  0.00    -0.274 OA
BRANCH  14  16
ATOM     16  C   UNL A   1      31.995  27.967  25.353  1.00  0.00     0.109 C 
ATOM     17  C   UNL A   1      31.019  25.675  26.224  1.00  0.00     0.039 C 
ATOM     18  C   UNL A   1      31.033  27.197  26.260  1.00  0.00     0.127 C 
ATOM     19  O   UNL A   1      31.269  27.704  27.590  1.00  0.00    -0.378 OA
ATOM     20  C   UNL A   1      31.747  29.051  27.464  1.00  0.00     0.161 C 
ATOM     21  C   UNL A   1      31.870  29.346  25.978  1.00  0.00     0.044 C 
ENDBRANCH  14  16
ENDBRANCH   9  14
ENDBRANCH   7   8
ENDBRANCH   5   7
ENDBRANCH   4   5
ENDBRANCH   3   4
ENDBRANCH   2   3
ENDBRANCH   1   2
BRANCH   1  22
ATOM     22  C   UNL A   1      37.988  19.738  25.008  1.00  0.00     0.202 C 
BRANCH  22  23
ATOM     23  C   UNL A   1      39.339  19.222  25.527  1.00  0.00     0.261 C 
BRANCH  23  24
ATOM     24  O   UNL A   1      39.767  19.887  26.734  1.00  0.00    -0.460 OA
BRANCH  24  25
ATOM     25  C   UNL A   1      41.056  20.322  26.714  1.00  0.00     0.338 C 
ATOM     26  O   UNL A   1      42.011  19.753  26.213  1.00  0.00    -0.246 OA
BRANCH  25  27
ATOM     27  C   UNL A   1      41.142  21.702  27.225  1.00  0.00     0.060 A 
ATOM     28  C   UNL A   1      40.533  22.718  26.476  1.00  0.00     0.016 A 
ATOM     29  C   UNL A   1      41.915  22.015  28.343  1.00  0.00     0.016 A 
ATOM     30  C   UNL A   1      40.720  24.054  26.823  1.00  0.00     0.010 A 
ATOM     31  C   UNL A   1      42.115  23.359  28.683  1.00  0.00     0.010 A 
ATOM     32  C   UNL A   1      41.545  24.386  27.907  1.00  0.00    -0.014 A 
BRANCH  32  33
ATOM     33  C   UNL A   1      41.937  25.804  28.115  1.00  0.00     0.031 A 
ATOM     34  C   UNL A   1      43.291  26.261  27.637  1.00  0.00     0.074 A 
ATOM     35  C   UNL A   1      41.083  26.685  28.667  1.00  0.00     0.049 A 
ATOM     36  N   UNL A   1      43.861  27.432  27.750  1.00  0.00    -0.248 NA
ATOM     37  C   UNL A   1      44.107  25.260  26.932  1.00  0.00     0.031 C 
ATOM     38  C   UNL A   1      39.719  26.380  29.098  1.00  0.00     0.029 A 
ATOM     39  N   UNL A   1      41.236  28.019  28.955  1.00  0.00    -0.354 N 
ATOM     40  C   UNL A   1      45.098  27.315  27.124  1.00  0.00     0.074 A 
ATOM     41  C   UNL A   1      45.211  25.944  26.673  1.00  0.00     0.031 C 
ATOM     42  C   UNL A   1      39.162  27.495  29.602  1.00  0.00     0.029 A 
ATOM     43  C   UNL A   1      40.141  28.580  29.572  1.00  0.00     0.049 A 
ATOM     44  H   UNL A   1      42.052  28.525  28.742  1.00  0.00     0.167 HD
ATOM     45  C   UNL A   1      46.047  28.265  26.932  1.00  0.00     0.034 A 
ATOM     46  C   UNL A   1      39.964  29.819  30.077  1.00  0.00     0.034 A 
ATOM     47  C   UNL A   1      45.931  29.624  27.403  1.00  0.00     0.049 A 
ATOM     48  C   UNL A   1      41.089  30.823  29.965  1.00  0.00     0.074 A 
ATOM     49  C   UNL A   1      46.843  30.658  27.287  1.00  0.00     0.029 A 
ATOM     50  N   UNL A   1      44.836  30.137  28.085  1.00  0.00    -0.354 N 
ATOM     51  N   UNL A   1      42.264  30.691  29.392  1.00  0.00    -0.248 NA
ATOM     52  C   UNL A   1      40.862  32.145  30.565  1.00  0.00     0.031 C 
ATOM     53  C   UNL A   1      46.330  31.775  27.954  1.00  0.00     0.029 A 
ATOM     54  C   UNL A   1      45.062  31.464  28.418  1.00  0.00     0.049 A 
ATOM     55  H   UNL A   1      44.018  29.633  28.301  1.00  0.00     0.167 HD
ATOM     56  C   UNL A   1      42.893  31.927  29.527  1.00  0.00     0.074 A 
ATOM     57  C   UNL A   1      41.964  32.793  30.224  1.00  0.00     0.031 C 
ATOM     58  C   UNL A   1      44.125  32.317  29.110  1.00  0.00     0.034 A 
BRANCH  45  59
ATOM     59  C   UNL A   1      47.310  27.850  26.220  1.00  0.00     0.023 A 
ATOM     60  C   UNL A   1      47.458  28.007  24.831  1.00  0.00     0.031 A 
ATOM     61  C   UNL A   1      48.377  27.280  26.937  1.00  0.00     0.131 A 
ATOM     62  C   UNL A   1      48.622  27.546  24.196  1.00  0.00     0.055 A 
ATOM     63  C   UNL A   1      49.562  26.892  26.310  1.00  0.00     0.041 A 
ATOM     64  F   UNL A   1      48.282  27.084  28.262  1.00  0.00    -0.206 F 
ATOM     65  C   UNL A   1      49.685  27.013  24.928  1.00  0.00     0.022 A 
BRANCH  62  66
ATOM     66  S   UNL A   1      48.677  27.539  22.383  1.00  0.00     0.124 S 
ATOM     67  O   UNL A   1      47.498  28.335  22.049  1.00  0.00    -0.237 OA
ATOM     68  O   UNL A   1      49.967  28.159  22.102  1.00  0.00    -0.237 OA
ATOM     69  O   UNL A   1      48.580  26.122  22.042  1.00  0.00    -0.744 OA
ENDBRANCH  62  66
ENDBRANCH  45  59
BRANCH  46  70
ATOM     70  C   UNL A   1      38.699  30.187  30.781  1.00  0.00     0.023 A 
ATOM     71  C   UNL A   1      37.758  31.039  30.182  1.00  0.00     0.031 A 
ATOM     72  C   UNL A   1      38.460  29.770  32.103  1.00  0.00     0.131 A 
ATOM     73  C   UNL A   1      36.660  31.502  30.924  1.00  0.00     0.055 A 
ATOM     74  C   UNL A   1      37.332  30.181  32.815  1.00  0.00     0.041 A 
ATOM     75  F   UNL A   1      39.329  28.962  32.729  1.00  0.00    -0.206 F 
ATOM     76  C   UNL A   1      36.432  31.069  32.232  1.00  0.00     0.022 A 
BRANCH  73  77
ATOM     77  S   UNL A   1      35.603  32.786  30.197  1.00  0.00     0.124 S 
ATOM     78  O   UNL A   1      34.309  32.474  30.791  1.00  0.00    -0.237 OA
ATOM     79  O   UNL A   1      36.248  34.009  30.665  1.00  0.00    -0.237 OA
ATOM     80  O   UNL A   1      35.707  32.538  28.761  1.00  0.00    -0.744 OA
ENDBRANCH  73  77
ENDBRANCH  46  70
BRANCH  58  81
ATOM     81  C   UNL A   1      44.509  33.759  29.342  1.00  0.00     0.023 A 
ATOM     82  C   UNL A   1      44.131  34.781  28.455  1.00  0.00     0.031 A 
ATOM     83  C   UNL A   1      45.274  34.111  30.468  1.00  0.00     0.131 A 
ATOM     84  C   UNL A   1      44.566  36.097  28.678  1.00  0.00     0.055 A 
ATOM     85  C   UNL A   1      45.652  35.430  30.717  1.00  0.00     0.041 A 
ATOM     86  F   UNL A   1      45.663  33.175  31.349  1.00  0.00    -0.206 F 
ATOM     87  C   UNL A   1      45.310  36.431  29.813  1.00  0.00     0.022 A 
BRANCH  84  88
ATOM     88  S   UNL A   1      44.219  37.355  27.419  1.00  0.00     0.124 S 
ATOM     89  O   UNL A   1      45.482  37.413  26.690  1.00  0.00    -0.237 OA
ATOM     90  O   UNL A   1      43.093  36.773  26.696  1.00  0.00    -0.237 OA
ATOM     91  O   UNL A   1      43.900  38.547  28.203  1.00  0.00    -0.744 OA
ENDBRANCH  84  88
ENDBRANCH  58  81
ENDBRANCH  32  33
ENDBRANCH  25  27
ENDBRANCH  24  25
ENDBRANCH  23  24
ENDBRANCH  22  23
ENDBRANCH   1  22
TORSDOF 20
ENDMDL
MODEL 2
REMARK VINA RESULT:     -10.3      1.762      2.419
REMARK SMILES C[C@H]1OCC[C@H]1C(=O)N1CCCC[C@@H]1CC(=O)OCCOCCOC(=O)c1ccc(-c2c3nc(c(-c4cc(S(=O)(=O)[O-])ccc4F)c4ccc([nH]4)c(-c4cc(S(=O)(=O)[O-])ccc4F)c4nc(c(-c5cc(S(=O)(=O)[O-])ccc5F)c5ccc2[nH]5)C=C4)C=C3)cc1
REMARK SMILES IDX 21 1 20 2 19 3 18 4 16 5 17 6 15 7 14 8 9 9 10 10 11 11
REMARK SMILES IDX 13 12 12 13 7 14 8 15 6 16 1 17 2 18 3 19 4 20 5 21 22 22
REMARK SMILES IDX 23 23 24 24 25 25 26 26 27 27 28 28 89 29 29 30 88 31 30 32
REMARK SMILES IDX 31 33 32 34 82 35 33 36 87 37 81 38 83 39 34 40 86 41 80 42
REMARK SMILES IDX 79 43 35 45 67 46 47 47 66 48 48 49 51 50 65 51 84 52 49 53
REMARK SMILES IDX 50 54 64 56 85 57 52 58 36 59 37 60 45 61 38 62 44 63 46 64
REMARK SMILES IDX 43 65 39 66 40 67 41 68 42 69 68 70 69 71 77 72 70 73 76 74
REMARK SMILES IDX 78 75 75 76 71 77 72 78 73 79 74 80 53 81 54 82 62 83 55 84
REMARK SMILES IDX 61 85 63 86 60 87 56 88 57 89 58 90 59 91
REMARK H PARENT 83 44 51 55
REMARK Flexibility Score: inf
ROOT
ATOM      1  O   UNL A   1      36.660  21.328  25.494  1.00  0.00    -0.374 OA
ENDROOT
BRANCH   1   2
ATOM      2  C   UNL A   1      35.361  21.786  25.133  1.00  0.00     0.202 C 
BRANCH   2   3
ATOM      3  C   UNL A   1      35.260  23.157  24.460  1.00  0.00     0.261 C 
BRANCH   3   4
ATOM      4  O   UNL A   1      33.899  23.589  24.285  1.00  0.00    -0.463 OA
BRANCH   4   5
ATOM      5  C   UNL A   1      33.407  24.293  25.328  1.00  0.00     0.307 C 
ATOM      6  O   UNL A   1      32.916  23.800  26.341  1.00  0.00    -0.252 OA
BRANCH   5   7
ATOM      7  C   UNL A   1      33.537  25.782  25.205  1.00  0.00     0.147 C 
BRANCH   7   8
ATOM      8  C   UNL A   1      33.233  26.760  26.342  1.00  0.00     0.096 C 
ATOM      9  N   UNL A   1      31.825  27.277  26.262  1.00  0.00    -0.339 N 
ATOM     10  C   UNL A   1      31.485  28.381  27.157  1.00  0.00     0.120 C 
ATOM     11  C   UNL A   1      32.504  29.513  27.090  1.00  0.00     0.022 C 
ATOM     12  C   UNL A   1      34.267  27.896  26.379  1.00  0.00     0.026 C 
ATOM     13  C   UNL A   1      33.899  28.980  27.389  1.00  0.00     0.004 C 
BRANCH   9  14
ATOM     14  C   UNL A   1      31.081  27.182  25.089  1.00  0.00     0.228 C 
ATOM     15  O   UNL A   1      30.176  26.356  24.971  1.00  0.00    -0.274 OA
BRANCH  14  16
ATOM     16  C   UNL A   1      31.393  28.180  23.951  1.00  0.00     0.109 C 
ATOM     17  C   UNL A   1      31.589  26.269  22.141  1.00  0.00     0.039 C 
ATOM     18  C   UNL A   1      31.153  27.676  22.526  1.00  0.00     0.127 C 
ATOM     19  O   UNL A   1      29.750  27.896  22.271  1.00  0.00    -0.378 OA
ATOM     20  C   UNL A   1      29.329  29.003  23.082  1.00  0.00     0.161 C 
ATOM     21  C   UNL A   1      30.524  29.426  23.920  1.00  0.00     0.044 C 
ENDBRANCH  14  16
ENDBRANCH   9  14
ENDBRANCH   7   8
ENDBRANCH   5   7
ENDBRANCH   4   5
ENDBRANCH   3   4
ENDBRANCH   2   3
ENDBRANCH   1   2
BRANCH   1  22
ATOM     22  C   UNL A   1      37.417  20.610  24.518  1.00  0.00     0.202 C 
BRANCH  22  23
ATOM     23  C   UNL A   1      38.481  19.625  25.025  1.00  0.00     0.261 C 
BRANCH  23  24
ATOM     24  O   UNL A   1      38.974  19.958  26.339  1.00  0.00    -0.460 OA
BRANCH  24  25
ATOM     25  C   UNL A   1      40.304  20.238  26.389  1.00  0.00     0.338 C 
ATOM     26  O   UNL A   1      41.207  19.590  25.887  1.00  0.00    -0.246 OA
BRANCH  25  27
ATOM     27  C   UNL A   1      40.528  21.567  26.988  1.00  0.00     0.060 A 
ATOM     28  C   UNL A   1      39.838  22.657  26.441  1.00  0.00     0.016 A 
ATOM     29  C   UNL A   1      41.494  21.764  27.975  1.00  0.00     0.016 A 
ATOM     30  C   UNL A   1      40.131  23.954  26.858  1.00  0.00     0.010 A 
ATOM     31  C   UNL A   1      41.799  23.070  28.382  1.00  0.00     0.010 A 
ATOM     32  C   UNL A   1      41.143  24.172  27.804  1.00  0.00    -0.014 A 
BRANCH  32  33
ATOM     33  C   UNL A   1      41.618  25.557  28.054  1.00  0.00     0.031 A 
ATOM     34  C   UNL A   1      42.998  25.947  27.593  1.00  0.00     0.074 A 
ATOM     35  C   UNL A   1      40.815  26.472  28.630  1.00  0.00     0.049 A 
ATOM     36  N   UNL A   1      43.637  27.079  27.742  1.00  0.00    -0.248 NA
ATOM     37  C   UNL A   1      43.756  24.920  26.861  1.00  0.00     0.031 C 
ATOM     38  C   UNL A   1      39.434  26.235  29.048  1.00  0.00     0.029 A 
ATOM     39  N   UNL A   1      41.046  27.785  28.957  1.00  0.00    -0.354 N 
ATOM     40  C   UNL A   1      44.867  26.906  27.115  1.00  0.00     0.074 A 
ATOM     41  C   UNL A   1      44.900  25.544  26.624  1.00  0.00     0.031 C 
ATOM     42  C   UNL A   1      38.942  27.367  29.584  1.00  0.00     0.029 A 
ATOM     43  C   UNL A   1      39.983  28.392  29.588  1.00  0.00     0.049 A 
ATOM     44  H   UNL A   1      41.891  28.248  28.761  1.00  0.00     0.167 HD
ATOM     45  C   UNL A   1      45.871  27.804  26.953  1.00  0.00     0.034 A 
ATOM     46  C   UNL A   1      39.878  29.624  30.128  1.00  0.00     0.034 A 
ATOM     47  C   UNL A   1      45.834  29.153  27.464  1.00  0.00     0.049 A 
ATOM     48  C   UNL A   1      41.061  30.562  30.048  1.00  0.00     0.074 A 
ATOM     49  C   UNL A   1      46.806  30.134  27.379  1.00  0.00     0.029 A 
ATOM     50  N   UNL A   1      44.769  29.710  28.157  1.00  0.00    -0.354 N 
ATOM     51  N   UNL A   1      42.228  30.377  29.474  1.00  0.00    -0.248 NA
ATOM     52  C   UNL A   1      40.911  31.877  30.686  1.00  0.00     0.031 C 
ATOM     53  C   UNL A   1      46.357  31.260  28.077  1.00  0.00     0.029 A 
ATOM     54  C   UNL A   1      45.072  31.011  28.530  1.00  0.00     0.049 A 
ATOM     55  H   UNL A   1      43.922  29.250  28.357  1.00  0.00     0.167 HD
ATOM     56  C   UNL A   1      42.930  31.570  29.647  1.00  0.00     0.074 A 
ATOM     57  C   UNL A   1      42.051  32.468  30.366  1.00  0.00     0.031 C 
ATOM     58  C   UNL A   1      44.184  31.898  29.244  1.00  0.00     0.034 A 
BRANCH  45  59
ATOM     59  C   UNL A   1      47.111  27.334  26.232  1.00  0.00     0.023 A 
ATOM     60  C   UNL A   1      48.187  26.749  26.922  1.00  0.00     0.031 A 
ATOM     61  C   UNL A   1      47.222  27.483  24.838  1.00  0.00     0.131 A 
ATOM     62  C   UNL A   1      49.350  26.388  26.223  1.00  0.00     0.055 A 
ATOM     63  C   UNL A   1      48.351  27.052  24.140  1.00  0.00     0.041 A 
ATOM     64  F   UNL A   1      46.235  28.056  24.131  1.00  0.00    -0.206 F 
ATOM     65  C   UNL A   1      49.429  26.511  24.835  1.00  0.00     0.022 A 
BRANCH  62  66
ATOM     66  S   UNL A   1      50.805  25.867  27.173  1.00  0.00     0.124 S 
ATOM     67  O   UNL A   1      50.213  25.548  28.469  1.00  0.00    -0.237 OA
ATOM     68  O   UNL A   1      51.299  24.733  26.399  1.00  0.00    -0.237 OA
ATOM     69  O   UNL A   1      51.663  27.050  27.161  1.00  0.00    -0.744 OA
ENDBRANCH  62  66
ENDBRANCH  45  59
BRANCH  46  70
ATOM     70  C   UNL A   1      38.635  30.046  30.840  1.00  0.00     0.023 A 
ATOM     71  C   UNL A   1      37.640  30.787  30.182  1.00  0.00     0.031 A 
ATOM     72  C   UNL A   1      38.468  29.799  32.214  1.00  0.00     0.131 A 
ATOM     73  C   UNL A   1      36.562  31.313  30.911  1.00  0.00     0.055 A 
ATOM     74  C   UNL A   1      37.360  30.268  32.922  1.00  0.00     0.041 A 
ATOM     75  F   UNL A   1      39.392  29.102  32.896  1.00  0.00    -0.206 F 
ATOM     76  C   UNL A   1      36.407  31.047  32.273  1.00  0.00     0.022 A 
BRANCH  73  77
ATOM     77  S   UNL A   1      35.431  32.462  30.077  1.00  0.00     0.124 S 
ATOM     78  O   UNL A   1      35.047  31.695  28.899  1.00  0.00    -0.237 OA
ATOM     79  O   UNL A   1      34.394  32.651  31.087  1.00  0.00    -0.237 OA
ATOM     80  O   UNL A   1      36.266  33.632  29.816  1.00  0.00    -0.744 OA
ENDBRANCH  73  77
ENDBRANCH  46  70
BRANCH  58  81
ATOM     81  C   UNL A   1      44.652  33.307  29.519  1.00  0.00     0.023 A 
ATOM     82  C   UNL A   1      44.358  34.371  28.650  1.00  0.00     0.031 A 
ATOM     83  C   UNL A   1      45.413  33.583  30.669  1.00  0.00     0.131 A 
ATOM     84  C   UNL A   1      44.869  35.651  28.914  1.00  0.00     0.055 A 
ATOM     85  C   UNL A   1      45.867  34.870  30.958  1.00  0.00     0.041 A 
ATOM     86  F   UNL A   1      45.724  32.605  31.534  1.00  0.00    -0.206 F 
ATOM     87  C   UNL A   1      45.608  35.911  30.071  1.00  0.00     0.022 A 
BRANCH  84  88
ATOM     88  S   UNL A   1      44.629  36.958  27.679  1.00  0.00     0.124 S 
ATOM     89  O   UNL A   1      46.003  37.301  27.327  1.00  0.00    -0.237 OA
ATOM     90  O   UNL A   1      43.858  36.273  26.645  1.00  0.00    -0.237 OA
ATOM     91  O   UNL A   1      43.899  37.992  28.410  1.00  0.00    -0.744 OA
ENDBRANCH  84  88
ENDBRANCH  58  81
ENDBRANCH  32  33
ENDBRANCH  25  27
ENDBRANCH  24  25
ENDBRANCH  23  24
ENDBRANCH  22  23
ENDBRANCH   1  22
TORSDOF 20
ENDMDL
MODEL 3
REMARK VINA RESULT:     -10.2      1.726      2.067
REMARK SMILES C[C@H]1OCC[C@H]1C(=O)N1CCCC[C@@H]1CC(=O)OCCOCCOC(=O)c1ccc(-c2c3nc(c(-c4cc(S(=O)(=O)[O-])ccc4F)c4ccc([nH]4)c(-c4cc(S(=O)(=O)[O-])ccc4F)c4nc(c(-c5cc(S(=O)(=O)[O-])ccc5F)c5ccc2[nH]5)C=C4)C=C3)cc1
REMARK SMILES IDX 21 1 20 2 19 3 18 4 16 5 17 6 15 7 14 8 9 9 10 10 11 11
REMARK SMILES IDX 13 12 12 13 7 14 8 15 6 16 1 17 2 18 3 19 4 20 5 21 22 22
REMARK SMILES IDX 23 23 24 24 25 25 26 26 27 27 28 28 89 29 29 30 88 31 30 32
REMARK SMILES IDX 31 33 32 34 82 35 33 36 87 37 81 38 83 39 34 40 86 41 80 42
REMARK SMILES IDX 79 43 35 45 67 46 47 47 66 48 48 49 51 50 65 51 84 52 49 53
REMARK SMILES IDX 50 54 64 56 85 57 52 58 36 59 37 60 45 61 38 62 44 63 46 64
REMARK SMILES IDX 43 65 39 66 40 67 41 68 42 69 68 70 69 71 77 72 70 73 76 74
REMARK SMILES IDX 78 75 75 76 71 77 72 78 73 79 74 80 53 81 54 82 62 83 55 84
REMARK SMILES IDX 61 85 63 86 60 87 56 88 57 89 58 90 59 91
REMARK H PARENT 83 44 51 55
REMARK Flexibility Score: inf
ROOT
ATOM      1  O   UNL A   1      36.093  20.125  24.654  1.00  0.00    -0.374 OA
ENDROOT
BRANCH   1   2
ATOM      2  C   UNL A   1      35.084  20.313  25.641  1.00  0.00     0.202 C 
BRANCH   2   3
ATOM      3  C   UNL A   1      34.241  21.587  25.551  1.00  0.00     0.261 C 
BRANCH   3   4
ATOM      4  O   UNL A   1      34.350  22.409  26.726  1.00  0.00    -0.463 OA
BRANCH   4   5
ATOM      5  C   UNL A   1      33.248  23.147  26.986  1.00  0.00     0.307 C 
ATOM      6  O   UNL A   1      32.373  22.845  27.794  1.00  0.00    -0.252 OA
BRANCH   5   7
ATOM      7  C   UNL A   1      33.162  24.443  26.237  1.00  0.00     0.147 C 
BRANCH   7   8
ATOM      8  C   UNL A   1      32.528  24.586  24.852  1.00  0.00     0.096 C 
ATOM      9  N   UNL A   1      32.146  26.009  24.565  1.00  0.00    -0.339 N 
ATOM     10  C   UNL A   1      31.334  26.238  23.371  1.00  0.00     0.120 C 
ATOM     11  C   UNL A   1      30.127  25.308  23.308  1.00  0.00     0.022 C 
ATOM     12  C   UNL A   1      31.342  23.622  24.690  1.00  0.00     0.026 C 
ATOM     13  C   UNL A   1      30.580  23.856  23.388  1.00  0.00     0.004 C 
BRANCH   9  14
ATOM     14  C   UNL A   1      32.020  26.949  25.586  1.00  0.00     0.228 C 
ATOM     15  O   UNL A   1      30.972  27.065  26.221  1.00  0.00    -0.274 OA
BRANCH  14  16
ATOM     16  C   UNL A   1      33.255  27.811  25.932  1.00  0.00     0.109 C 
ATOM     17  C   UNL A   1      33.266  28.989  23.570  1.00  0.00     0.039 C 
ATOM     18  C   UNL A   1      33.463  29.064  25.078  1.00  0.00     0.127 C 
ATOM     19  O   UNL A   1      32.641  30.084  25.681  1.00  0.00    -0.378 OA
ATOM     20  C   UNL A   1      32.510  29.769  27.075  1.00  0.00     0.161 C 
ATOM     21  C   UNL A   1      33.235  28.454  27.308  1.00  0.00     0.044 C 
ENDBRANCH  14  16
ENDBRANCH   9  14
ENDBRANCH   7   8
ENDBRANCH   5   7
ENDBRANCH   4   5
ENDBRANCH   3   4
ENDBRANCH   2   3
ENDBRANCH   1   2
BRANCH   1  22
ATOM     22  C   UNL A   1      37.394  20.652  24.913  1.00  0.00     0.202 C 
BRANCH  22  23
ATOM     23  C   UNL A   1      38.551  19.653  25.064  1.00  0.00     0.261 C 
BRANCH  23  24
ATOM     24  O   UNL A   1      39.187  19.722  26.357  1.00  0.00    -0.460 OA
BRANCH  24  25
ATOM     25  C   UNL A   1      40.496  20.090  26.326  1.00  0.00     0.338 C 
ATOM     26  O   UNL A   1      41.409  19.495  25.781  1.00  0.00    -0.246 OA
BRANCH  25  27
ATOM     27  C   UNL A   1      40.663  21.442  26.889  1.00  0.00     0.060 A 
ATOM     28  C   UNL A   1      40.015  22.506  26.247  1.00  0.00     0.016 A 
ATOM     29  C   UNL A   1      41.543  21.684  27.945  1.00  0.00     0.016 A 
ATOM     30  C   UNL A   1      40.267  23.820  26.637  1.00  0.00     0.010 A 
ATOM     31  C   UNL A   1      41.807  23.006  28.326  1.00  0.00     0.010 A 
ATOM     32  C   UNL A   1      41.196  24.081  27.654  1.00  0.00    -0.014 A 
BRANCH  32  33
ATOM     33  C   UNL A   1      41.642  25.478  27.890  1.00  0.00     0.031 A 
ATOM     34  C   UNL A   1      42.996  25.905  27.384  1.00  0.00     0.074 A 
ATOM     35  C   UNL A   1      40.835  26.371  28.493  1.00  0.00     0.049 A 
ATOM     36  N   UNL A   1      43.609  27.053  27.513  1.00  0.00    -0.248 NA
ATOM     37  C   UNL A   1      43.756  24.898  26.626  1.00  0.00     0.031 C 
ATOM     38  C   UNL A   1      39.475  26.098  28.956  1.00  0.00     0.029 A 
ATOM     39  N   UNL A   1      41.041  27.690  28.814  1.00  0.00    -0.354 N 
ATOM     40  C   UNL A   1      44.821  26.913  26.846  1.00  0.00     0.074 A 
ATOM     41  C   UNL A   1      44.875  25.552  26.352  1.00  0.00     0.031 C 
ATOM     42  C   UNL A   1      38.972  27.216  29.509  1.00  0.00     0.029 A 
ATOM     43  C   UNL A   1      39.985  28.269  29.479  1.00  0.00     0.049 A 
ATOM     44  H   UNL A   1      41.867  28.175  28.590  1.00  0.00     0.167 HD
ATOM     45  C   UNL A   1      45.796  27.837  26.651  1.00  0.00     0.034 A 
ATOM     46  C   UNL A   1      39.865  29.498  30.024  1.00  0.00     0.034 A 
ATOM     47  C   UNL A   1      45.740  29.184  27.164  1.00  0.00     0.049 A 
ATOM     48  C   UNL A   1      41.020  30.467  29.906  1.00  0.00     0.074 A 
ATOM     49  C   UNL A   1      46.682  30.191  27.049  1.00  0.00     0.029 A 
ATOM     50  N   UNL A   1      44.684  29.713  27.893  1.00  0.00    -0.354 N 
ATOM     51  N   UNL A   1      42.172  30.313  29.294  1.00  0.00    -0.248 NA
ATOM     52  C   UNL A   1      40.855  31.777  30.550  1.00  0.00     0.031 C 
ATOM     53  C   UNL A   1      46.227  31.304  27.762  1.00  0.00     0.029 A 
ATOM     54  C   UNL A   1      44.964  31.022  28.256  1.00  0.00     0.049 A 
ATOM     55  H   UNL A   1      43.856  29.230  28.120  1.00  0.00     0.167 HD
ATOM     56  C   UNL A   1      42.846  31.523  29.444  1.00  0.00     0.074 A 
ATOM     57  C   UNL A   1      41.968  32.398  30.193  1.00  0.00     0.031 C 
ATOM     58  C   UNL A   1      44.077  31.884  29.000  1.00  0.00     0.034 A 
BRANCH  45  59
ATOM     59  C   UNL A   1      47.023  27.400  25.889  1.00  0.00     0.023 A 
ATOM     60  C   UNL A   1      47.221  27.760  24.545  1.00  0.00     0.031 A 
ATOM     61  C   UNL A   1      48.003  26.607  26.511  1.00  0.00     0.131 A 
ATOM     62  C   UNL A   1      48.342  27.278  23.851  1.00  0.00     0.055 A 
ATOM     63  C   UNL A   1      49.152  26.194  25.837  1.00  0.00     0.041 A 
ATOM     64  F   UNL A   1      47.855  26.214  27.787  1.00  0.00    -0.206 F 
ATOM     65  C   UNL A   1      49.321  26.519  24.494  1.00  0.00     0.022 A 
BRANCH  62  66
ATOM     66  S   UNL A   1      48.439  27.555  22.061  1.00  0.00     0.124 S 
ATOM     67  O   UNL A   1      47.143  28.169  21.786  1.00  0.00    -0.237 OA
ATOM     68  O   UNL A   1      49.600  28.430  21.938  1.00  0.00    -0.237 OA
ATOM     69  O   UNL A   1      48.612  26.211  21.515  1.00  0.00    -0.744 OA
ENDBRANCH  62  66
ENDBRANCH  45  59
BRANCH  46  70
ATOM     70  C   UNL A   1      38.635  29.886  30.777  1.00  0.00     0.023 A 
ATOM     71  C   UNL A   1      37.620  30.639  30.166  1.00  0.00     0.031 A 
ATOM     72  C   UNL A   1      38.502  29.594  32.147  1.00  0.00     0.131 A 
ATOM     73  C   UNL A   1      36.554  31.133  30.935  1.00  0.00     0.055 A 
ATOM     74  C   UNL A   1      37.407  30.032  32.893  1.00  0.00     0.041 A 
ATOM     75  F   UNL A   1      39.446  28.885  32.785  1.00  0.00    -0.206 F 
ATOM     76  C   UNL A   1      36.433  30.823  32.291  1.00  0.00     0.022 A 
BRANCH  73  77
ATOM     77  S   UNL A   1      35.395  32.297  30.164  1.00  0.00     0.124 S 
ATOM     78  O   UNL A   1      34.903  31.519  29.035  1.00  0.00    -0.237 OA
ATOM     79  O   UNL A   1      34.444  32.537  31.244  1.00  0.00    -0.237 OA
ATOM     80  O   UNL A   1      36.241  33.437  29.815  1.00  0.00    -0.744 OA
ENDBRANCH  73  77
ENDBRANCH  46  70
BRANCH  58  81
ATOM     81  C   UNL A   1      44.517  33.306  29.261  1.00  0.00     0.023 A 
ATOM     82  C   UNL A   1      45.236  33.662  30.413  1.00  0.00     0.031 A 
ATOM     83  C   UNL A   1      44.199  34.320  28.339  1.00  0.00     0.131 A 
ATOM     84  C   UNL A   1      45.567  35.007  30.643  1.00  0.00     0.055 A 
ATOM     85  C   UNL A   1      44.583  35.645  28.544  1.00  0.00     0.041 A 
ATOM     86  F   UNL A   1      43.512  34.036  27.220  1.00  0.00    -0.206 F 
ATOM     87  C   UNL A   1      45.259  35.998  29.708  1.00  0.00     0.022 A 
BRANCH  84  88
ATOM     88  S   UNL A   1      46.329  35.459  32.226  1.00  0.00     0.124 S 
ATOM     89  O   UNL A   1      45.618  36.686  32.567  1.00  0.00    -0.237 OA
ATOM     90  O   UNL A   1      46.032  34.298  33.059  1.00  0.00    -0.237 OA
ATOM     91  O   UNL A   1      47.740  35.634  31.889  1.00  0.00    -0.744 OA
ENDBRANCH  84  88
ENDBRANCH  58  81
ENDBRANCH  32  33
ENDBRANCH  25  27
ENDBRANCH  24  25
ENDBRANCH  23  24
ENDBRANCH  22  23
ENDBRANCH   1  22
TORSDOF 20
ENDMDL
