MODEL 1
REMARK VINA RESULT:     -11.4      0.000      0.000
REMARK SMILES Cc1cscc1C(=O)N[C@H](C(=O)OCCOCCOC(=O)c1ccc(-c2c3nc(c(-c4cc(S(=O)(=O)[O-])ccc4F)c4ccc([nH]4)c(-c4cc(S(=O)(=O)[O-])ccc4F)c4nc(c(-c5cc(S(=O)(=O)[O-])ccc5F)c5ccc2[nH]5)C=C4)C=C3)cc1)c1ccccc1
REMARK SMILES IDX 17 1 16 2 15 3 14 4 13 5 11 6 12 7 10 8 9 9 7 10 8 11 6 13
REMARK SMILES IDX 1 14 2 15 3 16 4 17 5 18 85 19 86 20 90 21 87 22 89 23 88 24
REMARK SMILES IDX 18 25 19 26 20 27 21 28 22 29 23 30 84 31 24 32 83 33 25 34
REMARK SMILES IDX 26 35 27 36 77 37 28 38 82 39 76 40 78 41 29 42 81 43 75 44
REMARK SMILES IDX 74 45 30 47 62 48 42 49 61 50 43 51 46 52 60 53 79 54 44 55
REMARK SMILES IDX 45 56 59 58 80 59 47 60 31 61 32 62 40 63 33 64 39 65 41 66
REMARK SMILES IDX 38 67 34 68 35 69 36 70 37 71 63 72 64 73 72 74 65 75 71 76
REMARK SMILES IDX 73 77 70 78 66 79 67 80 68 81 69 82 48 83 49 84 57 85 50 86
REMARK SMILES IDX 56 87 58 88 55 89 51 90 52 91 53 92 54 93
REMARK H PARENT 9 12 78 46 46 57
REMARK Flexibility Score: inf
ROOT
ATOM      1  C   UNL A   1      35.313  21.310  25.241  1.00  0.00     0.202 C 
ENDROOT
BRANCH   1   2
ATOM      2  O   UNL A   1      34.302  21.159  24.254  1.00  0.00    -0.374 OA
BRANCH   2   3
ATOM      3  C   UNL A   1      32.992  20.810  24.687  1.00  0.00     0.202 C 
BRANCH   3   4
ATOM      4  C   UNL A   1      32.013  21.925  25.065  1.00  0.00     0.261 C 
BRANCH   4   5
ATOM      5  O   UNL A   1      32.437  23.255  24.696  1.00  0.00    -0.461 OA
BRANCH   5   6
ATOM      6  C   UNL A   1      32.826  23.973  25.782  1.00  0.00     0.333 C 
ATOM      7  O   UNL A   1      32.606  23.597  26.935  1.00  0.00    -0.249 OA
BRANCH   6   8
ATOM      8  C   UNL A   1      33.543  25.299  25.505  1.00  0.00     0.223 C 
BRANCH   8   9
ATOM      9  N   UNL A   1      33.791  25.432  24.066  1.00  0.00    -0.335 N 
ATOM     10  C   UNL A   1      33.242  26.137  23.032  1.00  0.00     0.253 C 
ATOM     11  O   UNL A   1      33.859  26.025  21.966  1.00  0.00    -0.269 OA
ATOM     12  H   UNL A   1      34.544  24.872  23.770  1.00  0.00     0.165 HD
BRANCH  10  13
ATOM     13  C   UNL A   1      31.971  26.890  23.055  1.00  0.00     0.053 A 
ATOM     14  C   UNL A   1      29.963  25.258  23.677  1.00  0.00     0.046 C 
ATOM     15  C   UNL A   1      30.575  26.562  23.326  1.00  0.00    -0.028 A 
ATOM     16  C   UNL A   1      29.765  27.689  23.297  1.00  0.00     0.069 A 
ATOM     17  S   UNL A   1      30.619  29.127  23.032  1.00  0.00    -0.151 S 
ATOM     18  C   UNL A   1      32.082  28.273  22.921  1.00  0.00     0.079 A 
ENDBRANCH  10  13
ENDBRANCH   8   9
BRANCH   8  19
ATOM     19  C   UNL A   1      33.186  26.651  26.137  1.00  0.00    -0.014 A 
ATOM     20  C   UNL A   1      34.070  27.740  26.082  1.00  0.00     0.006 A 
ATOM     21  C   UNL A   1      31.896  26.913  26.647  1.00  0.00     0.006 A 
ATOM     22  C   UNL A   1      33.687  29.008  26.555  1.00  0.00     0.000 A 
ATOM     23  C   UNL A   1      31.535  28.153  27.177  1.00  0.00     0.000 A 
ATOM     24  C   UNL A   1      32.432  29.207  27.125  1.00  0.00     0.000 A 
ENDBRANCH   8  19
ENDBRANCH   6   8
ENDBRANCH   5   6
ENDBRANCH   4   5
ENDBRANCH   3   4
ENDBRANCH   2   3
ENDBRANCH   1   2
BRANCH   1  25
ATOM     25  C   UNL A   1      36.683  20.644  25.054  1.00  0.00     0.261 C 
BRANCH  25  26
ATOM     26  O   UNL A   1      37.790  21.551  24.992  1.00  0.00    -0.460 OA
BRANCH  26  27
ATOM     27  C   UNL A   1      38.828  21.197  25.795  1.00  0.00     0.338 C 
ATOM     28  O   UNL A   1      39.345  20.099  25.885  1.00  0.00    -0.246 OA
BRANCH  27  29
ATOM     29  C   UNL A   1      39.396  22.405  26.423  1.00  0.00     0.060 A 
ATOM     30  C   UNL A   1      38.850  23.640  26.051  1.00  0.00     0.016 A 
ATOM     31  C   UNL A   1      40.472  22.334  27.308  1.00  0.00     0.016 A 
ATOM     32  C   UNL A   1      39.399  24.819  26.540  1.00  0.00     0.010 A 
ATOM     33  C   UNL A   1      41.044  23.520  27.776  1.00  0.00     0.010 A 
ATOM     34  C   UNL A   1      40.528  24.763  27.364  1.00  0.00    -0.014 A 
BRANCH  34  35
ATOM     35  C   UNL A   1      41.282  26.013  27.607  1.00  0.00     0.031 A 
ATOM     36  C   UNL A   1      40.626  27.086  28.430  1.00  0.00     0.074 A 
ATOM     37  C   UNL A   1      42.545  26.151  27.167  1.00  0.00     0.049 A 
ATOM     38  N   UNL A   1      41.072  28.268  28.764  1.00  0.00    -0.248 NA
ATOM     39  C   UNL A   1      39.283  26.779  28.948  1.00  0.00     0.031 C 
ATOM     40  C   UNL A   1      43.293  25.136  26.426  1.00  0.00     0.029 A 
ATOM     41  N   UNL A   1      43.420  27.200  27.282  1.00  0.00    -0.354 N 
ATOM     42  C   UNL A   1      40.063  28.848  29.526  1.00  0.00     0.074 A 
ATOM     43  C   UNL A   1      38.970  27.902  29.575  1.00  0.00     0.031 C 
ATOM     44  C   UNL A   1      44.516  25.618  26.145  1.00  0.00     0.029 A 
ATOM     45  C   UNL A   1      44.620  26.988  26.645  1.00  0.00     0.049 A 
ATOM     46  H   UNL A   1      43.209  28.026  27.774  1.00  0.00     0.167 HD
ATOM     47  C   UNL A   1      40.057  30.061  30.132  1.00  0.00     0.034 A 
ATOM     48  C   UNL A   1      45.665  27.820  26.464  1.00  0.00     0.034 A 
ATOM     49  C   UNL A   1      41.157  30.989  30.053  1.00  0.00     0.049 A 
ATOM     50  C   UNL A   1      45.593  29.207  27.060  1.00  0.00     0.074 A 
ATOM     51  C   UNL A   1      41.269  32.245  30.624  1.00  0.00     0.029 A 
ATOM     52  N   UNL A   1      42.333  30.769  29.345  1.00  0.00    -0.354 N 
ATOM     53  N   UNL A   1      44.633  29.750  27.775  1.00  0.00    -0.248 NA
ATOM     54  C   UNL A   1      46.746  30.086  26.833  1.00  0.00     0.031 C 
ATOM     55  C   UNL A   1      42.471  32.815  30.191  1.00  0.00     0.029 A 
ATOM     56  C   UNL A   1      43.156  31.880  29.430  1.00  0.00     0.049 A 
ATOM     57  H   UNL A   1      42.551  29.943  28.855  1.00  0.00     0.167 HD
ATOM     58  C   UNL A   1      45.084  31.025  28.111  1.00  0.00     0.074 A 
ATOM     59  C   UNL A   1      46.406  31.159  27.532  1.00  0.00     0.031 C 
ATOM     60  C   UNL A   1      44.468  31.996  28.835  1.00  0.00     0.034 A 
BRANCH  47  61
ATOM     61  C   UNL A   1      38.801  30.468  30.862  1.00  0.00     0.023 A 
ATOM     62  C   UNL A   1      37.850  31.332  30.291  1.00  0.00     0.031 A 
ATOM     63  C   UNL A   1      38.567  30.010  32.172  1.00  0.00     0.131 A 
ATOM     64  C   UNL A   1      36.750  31.765  31.050  1.00  0.00     0.055 A 
ATOM     65  C   UNL A   1      37.429  30.376  32.890  1.00  0.00     0.041 A 
ATOM     66  F   UNL A   1      39.454  29.207  32.782  1.00  0.00    -0.206 F 
ATOM     67  C   UNL A   1      36.518  31.270  32.336  1.00  0.00     0.022 A 
BRANCH  64  68
ATOM     68  S   UNL A   1      35.708  33.095  30.392  1.00  0.00     0.124 S 
ATOM     69  O   UNL A   1      35.844  34.116  31.428  1.00  0.00    -0.237 OA
ATOM     70  O   UNL A   1      36.346  33.393  29.114  1.00  0.00    -0.237 OA
ATOM     71  O   UNL A   1      34.385  32.483  30.301  1.00  0.00    -0.744 OA
ENDBRANCH  64  68
ENDBRANCH  47  61
BRANCH  48  72
ATOM     72  C   UNL A   1      46.840  27.395  25.647  1.00  0.00     0.023 A 
ATOM     73  C   UNL A   1      47.021  27.852  24.332  1.00  0.00     0.031 A 
ATOM     74  C   UNL A   1      47.773  26.472  26.155  1.00  0.00     0.131 A 
ATOM     75  C   UNL A   1      48.077  27.351  23.556  1.00  0.00     0.055 A 
ATOM     76  C   UNL A   1      48.858  26.024  25.400  1.00  0.00     0.041 A 
ATOM     77  F   UNL A   1      47.646  25.994  27.404  1.00  0.00    -0.206 F 
ATOM     78  C   UNL A   1      49.006  26.453  24.085  1.00  0.00     0.022 A 
BRANCH  75  79
ATOM     79  S   UNL A   1      48.161  27.812  21.803  1.00  0.00     0.124 S 
ATOM     80  O   UNL A   1      46.861  28.441  21.599  1.00  0.00    -0.237 OA
ATOM     81  O   UNL A   1      49.316  28.703  21.779  1.00  0.00    -0.237 OA
ATOM     82  O   UNL A   1      48.349  26.532  21.123  1.00  0.00    -0.744 OA
ENDBRANCH  75  79
ENDBRANCH  48  72
BRANCH  60  83
ATOM     83  C   UNL A   1      45.245  33.268  29.080  1.00  0.00     0.023 A 
ATOM     84  C   UNL A   1      45.171  34.364  28.205  1.00  0.00     0.031 A 
ATOM     85  C   UNL A   1      46.074  33.379  30.212  1.00  0.00     0.131 A 
ATOM     86  C   UNL A   1      45.959  35.501  28.442  1.00  0.00     0.055 A 
ATOM     87  C   UNL A   1      46.800  34.540  30.481  1.00  0.00     0.041 A 
ATOM     88  F   UNL A   1      46.186  32.362  31.082  1.00  0.00    -0.206 F 
ATOM     89  C   UNL A   1      46.757  35.604  29.585  1.00  0.00     0.022 A 
BRANCH  86  90
ATOM     90  S   UNL A   1      46.008  36.803  27.181  1.00  0.00     0.124 S 
ATOM     91  O   UNL A   1      46.659  36.121  26.067  1.00  0.00    -0.237 OA
ATOM     92  O   UNL A   1      44.594  37.115  26.999  1.00  0.00    -0.237 OA
ATOM     93  O   UNL A   1      46.800  37.859  27.809  1.00  0.00    -0.744 OA
ENDBRANCH  86  90
ENDBRANCH  60  83
ENDBRANCH  34  35
ENDBRANCH  27  29
ENDBRANCH  26  27
ENDBRANCH  25  26
ENDBRANCH   1  25
TORSDOF 20
ENDMDL
MODEL 2
REMARK VINA RESULT:     -11.2      4.994      8.069
REMARK SMILES Cc1cscc1C(=O)N[C@H](C(=O)OCCOCCOC(=O)c1ccc(-c2c3nc(c(-c4cc(S(=O)(=O)[O-])ccc4F)c4ccc([nH]4)c(-c4cc(S(=O)(=O)[O-])ccc4F)c4nc(c(-c5cc(S(=O)(=O)[O-])ccc5F)c5ccc2[nH]5)C=C4)C=C3)cc1)c1ccccc1
REMARK SMILES IDX 17 1 16 2 15 3 14 4 13 5 11 6 12 7 10 8 9 9 7 10 8 11 6 13
REMARK SMILES IDX 1 14 2 15 3 16 4 17 5 18 85 19 86 20 90 21 87 22 89 23 88 24
REMARK SMILES IDX 18 25 19 26 20 27 21 28 22 29 23 30 84 31 24 32 83 33 25 34
REMARK SMILES IDX 26 35 27 36 77 37 28 38 82 39 76 40 78 41 29 42 81 43 75 44
REMARK SMILES IDX 74 45 30 47 62 48 42 49 61 50 43 51 46 52 60 53 79 54 44 55
REMARK SMILES IDX 45 56 59 58 80 59 47 60 31 61 32 62 40 63 33 64 39 65 41 66
REMARK SMILES IDX 38 67 34 68 35 69 36 70 37 71 63 72 64 73 72 74 65 75 71 76
REMARK SMILES IDX 73 77 70 78 66 79 67 80 68 81 69 82 48 83 49 84 57 85 50 86
REMARK SMILES IDX 56 87 58 88 55 89 51 90 52 91 53 92 54 93
REMARK H PARENT 9 12 78 46 46 57
REMARK Flexibility Score: inf
ROOT
ATOM      1  C   UNL A   1      31.317  31.880  26.534  1.00  0.00     0.202 C 
ENDROOT
BRANCH   1   2
ATOM      2  O   UNL A   1      32.057  30.741  26.120  1.00  0.00    -0.374 OA
BRANCH   2   3
ATOM      3  C   UNL A   1      32.414  29.780  27.108  1.00  0.00     0.202 C 
BRANCH   3   4
ATOM      4  C   UNL A   1      33.636  28.890  26.870  1.00  0.00     0.261 C 
BRANCH   4   5
ATOM      5  O   UNL A   1      33.342  27.485  26.714  1.00  0.00    -0.461 OA
BRANCH   5   6
ATOM      6  C   UNL A   1      33.163  27.155  25.408  1.00  0.00     0.333 C 
ATOM      7  O   UNL A   1      33.994  27.428  24.539  1.00  0.00    -0.249 OA
BRANCH   6   8
ATOM      8  C   UNL A   1      31.856  26.436  25.055  1.00  0.00     0.223 C 
BRANCH   8   9
ATOM      9  N   UNL A   1      31.500  25.509  26.134  1.00  0.00    -0.335 N 
ATOM     10  C   UNL A   1      31.714  24.187  26.410  1.00  0.00     0.253 C 
ATOM     11  O   UNL A   1      31.311  23.837  27.526  1.00  0.00    -0.269 OA
ATOM     12  H   UNL A   1      30.973  25.950  26.839  1.00  0.00     0.165 HD
BRANCH  10  13
ATOM     13  C   UNL A   1      32.255  23.170  25.486  1.00  0.00     0.053 A 
ATOM     14  C   UNL A   1      30.997  23.313  23.146  1.00  0.00     0.046 C 
ATOM     15  C   UNL A   1      31.988  22.773  24.107  1.00  0.00    -0.028 A 
ATOM     16  C   UNL A   1      32.863  21.788  23.674  1.00  0.00     0.069 A 
ATOM     17  S   UNL A   1      34.035  21.373  24.825  1.00  0.00    -0.151 S 
ATOM     18  C   UNL A   1      33.379  22.479  25.934  1.00  0.00     0.079 A 
ENDBRANCH  10  13
ENDBRANCH   8   9
BRANCH   8  19
ATOM     19  C   UNL A   1      30.610  27.100  24.456  1.00  0.00    -0.014 A 
ATOM     20  C   UNL A   1      30.663  28.392  23.908  1.00  0.00     0.006 A 
ATOM     21  C   UNL A   1      29.406  26.388  24.272  1.00  0.00     0.006 A 
ATOM     22  C   UNL A   1      29.549  28.947  23.253  1.00  0.00     0.000 A 
ATOM     23  C   UNL A   1      28.278  26.959  23.680  1.00  0.00     0.000 A 
ATOM     24  C   UNL A   1      28.351  28.242  23.163  1.00  0.00     0.000 A 
ENDBRANCH   8  19
ENDBRANCH   6   8
ENDBRANCH   5   6
ENDBRANCH   4   5
ENDBRANCH   3   4
ENDBRANCH   2   3
ENDBRANCH   1   2
BRANCH   1  25
ATOM     25  C   UNL A   1      32.036  33.202  26.839  1.00  0.00     0.261 C 
BRANCH  25  26
ATOM     26  O   UNL A   1      32.518  33.330  28.182  1.00  0.00    -0.460 OA
BRANCH  26  27
ATOM     27  C   UNL A   1      33.602  34.143  28.294  1.00  0.00     0.338 C 
ATOM     28  O   UNL A   1      33.604  35.359  28.348  1.00  0.00    -0.246 OA
BRANCH  27  29
ATOM     29  C   UNL A   1      34.803  33.326  28.547  1.00  0.00     0.060 A 
ATOM     30  C   UNL A   1      34.609  32.046  29.083  1.00  0.00     0.016 A 
ATOM     31  C   UNL A   1      36.088  33.822  28.322  1.00  0.00     0.016 A 
ATOM     32  C   UNL A   1      35.704  31.263  29.426  1.00  0.00     0.010 A 
ATOM     33  C   UNL A   1      37.188  33.046  28.696  1.00  0.00     0.010 A 
ATOM     34  C   UNL A   1      36.995  31.780  29.279  1.00  0.00    -0.014 A 
BRANCH  34  35
ATOM     35  C   UNL A   1      38.114  31.074  29.940  1.00  0.00     0.031 A 
ATOM     36  C   UNL A   1      38.394  31.386  31.383  1.00  0.00     0.074 A 
ATOM     37  C   UNL A   1      38.812  30.127  29.288  1.00  0.00     0.049 A 
ATOM     38  N   UNL A   1      39.324  30.916  32.172  1.00  0.00    -0.248 NA
ATOM     39  C   UNL A   1      37.497  32.363  32.024  1.00  0.00     0.031 C 
ATOM     40  C   UNL A   1      38.565  29.700  27.911  1.00  0.00     0.029 A 
ATOM     41  N   UNL A   1      39.866  29.353  29.699  1.00  0.00    -0.354 N 
ATOM     42  C   UNL A   1      39.128  31.543  33.398  1.00  0.00     0.074 A 
ATOM     43  C   UNL A   1      38.014  32.451  33.239  1.00  0.00     0.031 C 
ATOM     44  C   UNL A   1      39.453  28.743  27.588  1.00  0.00     0.029 A 
ATOM     45  C   UNL A   1      40.355  28.524  28.718  1.00  0.00     0.049 A 
ATOM     46  H   UNL A   1      40.236  29.387  30.611  1.00  0.00     0.167 HD
ATOM     47  C   UNL A   1      39.818  31.368  34.552  1.00  0.00     0.034 A 
ATOM     48  C   UNL A   1      41.428  27.708  28.726  1.00  0.00     0.034 A 
ATOM     49  C   UNL A   1      40.935  30.465  34.677  1.00  0.00     0.049 A 
ATOM     50  C   UNL A   1      42.246  27.608  29.993  1.00  0.00     0.074 A 
ATOM     51  C   UNL A   1      41.711  30.201  35.791  1.00  0.00     0.029 A 
ATOM     52  N   UNL A   1      41.446  29.687  33.644  1.00  0.00    -0.354 N 
ATOM     53  N   UNL A   1      42.058  28.208  31.148  1.00  0.00    -0.248 NA
ATOM     54  C   UNL A   1      43.411  26.717  29.961  1.00  0.00     0.031 C 
ATOM     55  C   UNL A   1      42.740  29.333  35.411  1.00  0.00     0.029 A 
ATOM     56  C   UNL A   1      42.552  28.977  34.085  1.00  0.00     0.049 A 
ATOM     57  H   UNL A   1      41.077  29.646  32.732  1.00  0.00     0.167 HD
ATOM     58  C   UNL A   1      43.064  27.738  31.989  1.00  0.00     0.074 A 
ATOM     59  C   UNL A   1      43.844  26.796  31.211  1.00  0.00     0.031 C 
ATOM     60  C   UNL A   1      43.321  28.049  33.287  1.00  0.00     0.034 A 
BRANCH  47  61
ATOM     61  C   UNL A   1      39.425  32.221  35.734  1.00  0.00     0.023 A 
ATOM     62  C   UNL A   1      38.621  31.729  36.777  1.00  0.00     0.031 A 
ATOM     63  C   UNL A   1      39.833  33.565  35.799  1.00  0.00     0.131 A 
ATOM     64  C   UNL A   1      38.195  32.591  37.801  1.00  0.00     0.055 A 
ATOM     65  C   UNL A   1      39.477  34.395  36.863  1.00  0.00     0.041 A 
ATOM     66  F   UNL A   1      40.576  34.101  34.817  1.00  0.00    -0.206 F 
ATOM     67  C   UNL A   1      38.641  33.913  37.866  1.00  0.00     0.022 A 
BRANCH  64  68
ATOM     68  S   UNL A   1      36.933  32.004  38.964  1.00  0.00     0.124 S 
ATOM     69  O   UNL A   1      35.781  32.819  38.584  1.00  0.00    -0.237 OA
ATOM     70  O   UNL A   1      36.844  30.584  38.643  1.00  0.00    -0.237 OA
ATOM     71  O   UNL A   1      37.501  32.314  40.273  1.00  0.00    -0.744 OA
ENDBRANCH  64  68
ENDBRANCH  47  61
BRANCH  48  72
ATOM     72  C   UNL A   1      41.826  26.964  27.495  1.00  0.00     0.023 A 
ATOM     73  C   UNL A   1      41.648  25.576  27.390  1.00  0.00     0.031 A 
ATOM     74  C   UNL A   1      42.450  27.630  26.423  1.00  0.00     0.131 A 
ATOM     75  C   UNL A   1      42.130  24.892  26.263  1.00  0.00     0.055 A 
ATOM     76  C   UNL A   1      42.871  26.954  25.276  1.00  0.00     0.041 A 
ATOM     77  F   UNL A   1      42.653  28.956  26.472  1.00  0.00    -0.206 F 
ATOM     78  C   UNL A   1      42.726  25.572  25.199  1.00  0.00     0.022 A 
BRANCH  75  79
ATOM     79  S   UNL A   1      42.062  23.079  26.252  1.00  0.00     0.124 S 
ATOM     80  O   UNL A   1      42.621  22.770  24.940  1.00  0.00    -0.237 OA
ATOM     81  O   UNL A   1      42.894  22.738  27.400  1.00  0.00    -0.237 OA
ATOM     82  O   UNL A   1      40.638  22.791  26.408  1.00  0.00    -0.744 OA
ENDBRANCH  75  79
ENDBRANCH  48  72
BRANCH  60  83
ATOM     83  C   UNL A   1      44.464  27.323  33.955  1.00  0.00     0.023 A 
ATOM     84  C   UNL A   1      44.262  26.156  34.711  1.00  0.00     0.031 A 
ATOM     85  C   UNL A   1      45.778  27.812  33.831  1.00  0.00     0.131 A 
ATOM     86  C   UNL A   1      45.346  25.551  35.365  1.00  0.00     0.055 A 
ATOM     87  C   UNL A   1      46.862  27.165  34.424  1.00  0.00     0.041 A 
ATOM     88  F   UNL A   1      46.030  28.924  33.123  1.00  0.00    -0.206 F 
ATOM     89  C   UNL A   1      46.648  26.036  35.209  1.00  0.00     0.022 A 
BRANCH  86  90
ATOM     90  S   UNL A   1      45.018  24.182  36.507  1.00  0.00     0.124 S 
ATOM     91  O   UNL A   1      43.935  24.720  37.322  1.00  0.00    -0.237 OA
ATOM     92  O   UNL A   1      44.656  23.098  35.600  1.00  0.00    -0.237 OA
ATOM     93  O   UNL A   1      46.291  24.006  37.205  1.00  0.00    -0.744 OA
ENDBRANCH  86  90
ENDBRANCH  60  83
ENDBRANCH  34  35
ENDBRANCH  27  29
ENDBRANCH  26  27
ENDBRANCH  25  26
ENDBRANCH   1  25
TORSDOF 20
ENDMDL
MODEL 3
REMARK VINA RESULT:     -11.1      5.001      8.170
REMARK SMILES Cc1cscc1C(=O)N[C@H](C(=O)OCCOCCOC(=O)c1ccc(-c2c3nc(c(-c4cc(S(=O)(=O)[O-])ccc4F)c4ccc([nH]4)c(-c4cc(S(=O)(=O)[O-])ccc4F)c4nc(c(-c5cc(S(=O)(=O)[O-])ccc5F)c5ccc2[nH]5)C=C4)C=C3)cc1)c1ccccc1
REMARK SMILES IDX 17 1 16 2 15 3 14 4 13 5 11 6 12 7 10 8 9 9 7 10 8 11 6 13
REMARK SMILES IDX 1 14 2 15 3 16 4 17 5 18 85 19 86 20 90 21 87 22 89 23 88 24
REMARK SMILES IDX 18 25 19 26 20 27 21 28 22 29 23 30 84 31 24 32 83 33 25 34
REMARK SMILES IDX 26 35 27 36 77 37 28 38 82 39 76 40 78 41 29 42 81 43 75 44
REMARK SMILES IDX 74 45 30 47 62 48 42 49 61 50 43 51 46 52 60 53 79 54 44 55
REMARK SMILES IDX 45 56 59 58 80 59 47 60 31 61 32 62 40 63 33 64 39 65 41 66
REMARK SMILES IDX 38 67 34 68 35 69 36 70 37 71 63 72 64 73 72 74 65 75 71 76
REMARK SMILES IDX 73 77 70 78 66 79 67 80 68 81 69 82 48 83 49 84 57 85 50 86
REMARK SMILES IDX 56 87 58 88 55 89 51 90 52 91 53 92 54 93
REMARK H PARENT 9 12 78 46 46 57
REMARK Flexibility Score: inf
ROOT
ATOM      1  C   UNL A   1      31.466  31.631  26.695  1.00  0.00     0.202 C 
ENDROOT
BRANCH   1   2
ATOM      2  O   UNL A   1      32.134  30.812  25.746  1.00  0.00    -0.374 OA
BRANCH   2   3
ATOM      3  C   UNL A   1      32.536  29.509  26.152  1.00  0.00     0.202 C 
BRANCH   3   4
ATOM      4  C   UNL A   1      32.411  28.350  25.159  1.00  0.00     0.261 C 
BRANCH   4   5
ATOM      5  O   UNL A   1      33.654  27.690  24.839  1.00  0.00    -0.461 OA
BRANCH   5   6
ATOM      6  C   UNL A   1      33.455  26.388  24.504  1.00  0.00     0.333 C 
ATOM      7  O   UNL A   1      32.816  26.054  23.504  1.00  0.00    -0.249 OA
BRANCH   6   8
ATOM      8  C   UNL A   1      34.054  25.338  25.447  1.00  0.00     0.223 C 
BRANCH   8   9
ATOM      9  N   UNL A   1      33.005  24.813  26.327  1.00  0.00    -0.335 N 
ATOM     10  C   UNL A   1      32.378  23.611  26.507  1.00  0.00     0.253 C 
ATOM     11  O   UNL A   1      31.603  23.590  27.470  1.00  0.00    -0.269 OA
ATOM     12  H   UNL A   1      32.667  25.500  26.945  1.00  0.00     0.165 HD
BRANCH  10  13
ATOM     13  C   UNL A   1      32.459  22.434  25.619  1.00  0.00     0.053 A 
ATOM     14  C   UNL A   1      31.371  23.003  23.258  1.00  0.00     0.046 C 
ATOM     15  C   UNL A   1      32.055  22.137  24.248  1.00  0.00    -0.028 A 
ATOM     16  C   UNL A   1      32.453  20.867  23.856  1.00  0.00     0.069 A 
ATOM     17  S   UNL A   1      33.353  20.048  25.034  1.00  0.00    -0.151 S 
ATOM     18  C   UNL A   1      33.203  21.360  26.102  1.00  0.00     0.079 A 
ENDBRANCH  10  13
ENDBRANCH   8   9
BRANCH   8  19
ATOM     19  C   UNL A   1      35.041  24.238  25.038  1.00  0.00    -0.014 A 
ATOM     20  C   UNL A   1      35.133  23.795  23.709  1.00  0.00     0.006 A 
ATOM     21  C   UNL A   1      36.015  23.745  25.934  1.00  0.00     0.006 A 
ATOM     22  C   UNL A   1      36.122  22.875  23.318  1.00  0.00     0.000 A 
ATOM     23  C   UNL A   1      36.956  22.782  25.564  1.00  0.00     0.000 A 
ATOM     24  C   UNL A   1      37.015  22.349  24.250  1.00  0.00     0.000 A 
ENDBRANCH   8  19
ENDBRANCH   6   8
ENDBRANCH   5   6
ENDBRANCH   4   5
ENDBRANCH   3   4
ENDBRANCH   2   3
ENDBRANCH   1   2
BRANCH   1  25
ATOM     25  C   UNL A   1      31.942  33.068  26.951  1.00  0.00     0.261 C 
BRANCH  25  26
ATOM     26  O   UNL A   1      32.470  33.303  28.262  1.00  0.00    -0.460 OA
BRANCH  26  27
ATOM     27  C   UNL A   1      33.564  34.110  28.269  1.00  0.00     0.338 C 
ATOM     28  O   UNL A   1      33.579  35.327  28.239  1.00  0.00    -0.246 OA
BRANCH  27  29
ATOM     29  C   UNL A   1      34.769  33.300  28.525  1.00  0.00     0.060 A 
ATOM     30  C   UNL A   1      34.579  32.012  29.042  1.00  0.00     0.016 A 
ATOM     31  C   UNL A   1      36.052  33.808  28.319  1.00  0.00     0.016 A 
ATOM     32  C   UNL A   1      35.677  31.232  29.387  1.00  0.00     0.010 A 
ATOM     33  C   UNL A   1      37.155  33.035  28.693  1.00  0.00     0.010 A 
ATOM     34  C   UNL A   1      36.966  31.761  29.259  1.00  0.00    -0.014 A 
BRANCH  34  35
ATOM     35  C   UNL A   1      38.084  31.055  29.923  1.00  0.00     0.031 A 
ATOM     36  C   UNL A   1      38.368  31.377  31.363  1.00  0.00     0.074 A 
ATOM     37  C   UNL A   1      38.775  30.100  29.277  1.00  0.00     0.049 A 
ATOM     38  N   UNL A   1      39.298  30.909  32.153  1.00  0.00    -0.248 NA
ATOM     39  C   UNL A   1      37.477  32.362  31.998  1.00  0.00     0.031 C 
ATOM     40  C   UNL A   1      38.523  29.664  27.903  1.00  0.00     0.029 A 
ATOM     41  N   UNL A   1      39.827  29.325  29.690  1.00  0.00    -0.354 N 
ATOM     42  C   UNL A   1      39.108  31.546  33.375  1.00  0.00     0.074 A 
ATOM     43  C   UNL A   1      37.997  32.457  33.211  1.00  0.00     0.031 C 
ATOM     44  C   UNL A   1      39.406  28.701  27.586  1.00  0.00     0.029 A 
ATOM     45  C   UNL A   1      40.310  28.487  28.714  1.00  0.00     0.049 A 
ATOM     46  H   UNL A   1      40.199  29.364  30.601  1.00  0.00     0.167 HD
ATOM     47  C   UNL A   1      39.800  31.377  34.528  1.00  0.00     0.034 A 
ATOM     48  C   UNL A   1      41.380  27.666  28.727  1.00  0.00     0.034 A 
ATOM     49  C   UNL A   1      40.913  30.470  34.657  1.00  0.00     0.049 A 
ATOM     50  C   UNL A   1      42.200  27.572  29.992  1.00  0.00     0.074 A 
ATOM     51  C   UNL A   1      41.691  30.211  35.772  1.00  0.00     0.029 A 
ATOM     52  N   UNL A   1      41.419  29.682  33.629  1.00  0.00    -0.354 N 
ATOM     53  N   UNL A   1      42.018  28.181  31.143  1.00  0.00    -0.248 NA
ATOM     54  C   UNL A   1      43.362  26.676  29.964  1.00  0.00     0.031 C 
ATOM     55  C   UNL A   1      42.715  29.337  35.395  1.00  0.00     0.029 A 
ATOM     56  C   UNL A   1      42.522  28.971  34.072  1.00  0.00     0.049 A 
ATOM     57  H   UNL A   1      41.047  29.636  32.719  1.00  0.00     0.167 HD
ATOM     58  C   UNL A   1      43.024  27.713  31.985  1.00  0.00     0.074 A 
ATOM     59  C   UNL A   1      43.798  26.763  31.212  1.00  0.00     0.031 C 
ATOM     60  C   UNL A   1      43.285  28.034  33.279  1.00  0.00     0.034 A 
BRANCH  47  61
ATOM     61  C   UNL A   1      39.413  32.241  35.704  1.00  0.00     0.023 A 
ATOM     62  C   UNL A   1      38.612  31.759  36.755  1.00  0.00     0.031 A 
ATOM     63  C   UNL A   1      39.826  33.585  35.757  1.00  0.00     0.131 A 
ATOM     64  C   UNL A   1      38.193  32.631  37.773  1.00  0.00     0.055 A 
ATOM     65  C   UNL A   1      39.475  34.424  36.815  1.00  0.00     0.041 A 
ATOM     66  F   UNL A   1      40.566  34.110  34.768  1.00  0.00    -0.206 F 
ATOM     67  C   UNL A   1      38.642  33.953  37.825  1.00  0.00     0.022 A 
BRANCH  64  68
ATOM     68  S   UNL A   1      36.933  32.058  38.945  1.00  0.00     0.124 S 
ATOM     69  O   UNL A   1      35.745  32.762  38.469  1.00  0.00    -0.237 OA
ATOM     70  O   UNL A   1      36.944  30.614  38.739  1.00  0.00    -0.237 OA
ATOM     71  O   UNL A   1      37.438  32.507  40.240  1.00  0.00    -0.744 OA
ENDBRANCH  64  68
ENDBRANCH  47  61
BRANCH  48  72
ATOM     72  C   UNL A   1      41.772  26.911  27.500  1.00  0.00     0.023 A 
ATOM     73  C   UNL A   1      41.587  25.523  27.406  1.00  0.00     0.031 A 
ATOM     74  C   UNL A   1      42.395  27.565  26.422  1.00  0.00     0.131 A 
ATOM     75  C   UNL A   1      42.063  24.828  26.283  1.00  0.00     0.055 A 
ATOM     76  C   UNL A   1      42.811  26.879  25.279  1.00  0.00     0.041 A 
ATOM     77  F   UNL A   1      42.605  28.891  26.460  1.00  0.00    -0.206 F 
ATOM     78  C   UNL A   1      42.659  25.497  25.213  1.00  0.00     0.022 A 
BRANCH  75  79
ATOM     79  S   UNL A   1      41.986  23.015  26.286  1.00  0.00     0.124 S 
ATOM     80  O   UNL A   1      40.551  22.780  26.406  1.00  0.00    -0.237 OA
ATOM     81  O   UNL A   1      42.585  22.685  24.997  1.00  0.00    -0.237 OA
ATOM     82  O   UNL A   1      42.780  22.642  27.455  1.00  0.00    -0.744 OA
ENDBRANCH  75  79
ENDBRANCH  48  72
BRANCH  60  83
ATOM     83  C   UNL A   1      44.427  27.308  33.951  1.00  0.00     0.023 A 
ATOM     84  C   UNL A   1      44.246  26.071  34.592  1.00  0.00     0.031 A 
ATOM     85  C   UNL A   1      45.718  27.868  33.947  1.00  0.00     0.131 A 
ATOM     86  C   UNL A   1      45.323  25.464  35.256  1.00  0.00     0.055 A 
ATOM     87  C   UNL A   1      46.801  27.225  34.546  1.00  0.00     0.041 A 
ATOM     88  F   UNL A   1      45.949  29.049  33.351  1.00  0.00    -0.206 F 
ATOM     89  C   UNL A   1      46.604  26.023  35.218  1.00  0.00     0.022 A 
BRANCH  86  90
ATOM     90  S   UNL A   1      45.007  23.986  36.257  1.00  0.00     0.124 S 
ATOM     91  O   UNL A   1      46.213  23.199  36.025  1.00  0.00    -0.237 OA
ATOM     92  O   UNL A   1      44.857  24.543  37.597  1.00  0.00    -0.237 OA
ATOM     93  O   UNL A   1      43.784  23.434  35.676  1.00  0.00    -0.744 OA
ENDBRANCH  86  90
ENDBRANCH  60  83
ENDBRANCH  34  35
ENDBRANCH  27  29
ENDBRANCH  26  27
ENDBRANCH  25  26
ENDBRANCH   1  25
TORSDOF 20
ENDMDL
