MODEL 1
REMARK VINA RESULT:     -11.7      0.000      0.000
REMARK SMILES O=C(OCCOCCOC(=O)C1CCN(c2ccc(C(F)(F)F)cc2[N+](=O)[O-])CC1)c1ccc(-c2c3nc(c(-c4cc(S(=O)(=O)[O-])ccc4F)c4ccc([nH]4)c(-c4cc(S(=O)(=O)[O-])ccc4F)c4nc(c(-c5cc(S(=O)(=O)[O-])ccc5F)c5ccc2[nH]5)C=C4)C=C3)cc1
REMARK SMILES IDX 5 1 4 2 3 3 2 4 1 5 31 6 32 7 93 8 33 9 92 10 34 11 35 12
REMARK SMILES IDX 36 13 86 14 37 15 91 16 85 17 87 18 38 19 90 20 84 21 83 22
REMARK SMILES IDX 39 24 71 25 51 26 70 27 52 28 55 29 69 30 88 31 53 32 54 33
REMARK SMILES IDX 68 35 89 36 56 37 40 38 41 39 49 40 42 41 48 42 50 43 47 44
REMARK SMILES IDX 43 45 44 46 45 47 46 48 72 49 73 50 81 51 74 52 80 53 82 54
REMARK SMILES IDX 79 55 75 56 76 57 77 58 78 59 57 60 58 61 66 62 59 63 65 64
REMARK SMILES IDX 67 65 64 66 60 67 61 68 62 69 63 70 6 71 7 72 8 73 9 74
REMARK SMILES IDX 10 75 11 76 12 77 13 78 30 79 14 80 29 81 15 82 16 83 17 84
REMARK SMILES IDX 25 85 18 86 24 87 19 88 26 89 27 90 28 91 20 92 21 93 22 94
REMARK SMILES IDX 23 95
REMARK H PARENT 87 23 55 34
REMARK Flexibility Score: inf
ROOT
ATOM      1  C   UNL A   1      35.919  20.370  24.985  1.00  0.00     0.202 C 
ENDROOT
BRANCH   1   2
ATOM      2  C   UNL A   1      36.994  21.383  24.546  1.00  0.00     0.261 C 
BRANCH   2   3
ATOM      3  O   UNL A   1      37.624  22.078  25.650  1.00  0.00    -0.460 OA
BRANCH   3   4
ATOM      4  C   UNL A   1      38.898  21.843  26.080  1.00  0.00     0.338 C 
ATOM      5  O   UNL A   1      39.430  20.745  25.936  1.00  0.00    -0.246 OA
BRANCH   4   6
ATOM      6  C   UNL A   1      39.622  22.950  26.734  1.00  0.00     0.060 A 
ATOM      7  C   UNL A   1      39.318  24.245  26.358  1.00  0.00     0.016 A 
ATOM      8  C   UNL A   1      40.607  22.750  27.693  1.00  0.00     0.016 A 
ATOM      9  C   UNL A   1      40.162  25.286  26.606  1.00  0.00     0.010 A 
ATOM     10  C   UNL A   1      41.287  23.867  28.197  1.00  0.00     0.010 A 
ATOM     11  C   UNL A   1      41.069  25.139  27.633  1.00  0.00    -0.014 A 
BRANCH  11  12
ATOM     12  C   UNL A   1      41.707  26.379  28.100  1.00  0.00     0.031 A 
ATOM     13  C   UNL A   1      40.912  27.310  28.944  1.00  0.00     0.074 A 
ATOM     14  C   UNL A   1      43.020  26.566  27.842  1.00  0.00     0.049 A 
ATOM     15  N   UNL A   1      41.193  28.530  29.294  1.00  0.00    -0.248 NA
ATOM     16  C   UNL A   1      39.625  26.808  29.457  1.00  0.00     0.031 C 
ATOM     17  C   UNL A   1      43.904  25.604  27.157  1.00  0.00     0.029 A 
ATOM     18  N   UNL A   1      43.863  27.600  28.148  1.00  0.00    -0.354 N 
ATOM     19  C   UNL A   1      40.085  28.976  29.998  1.00  0.00     0.074 A 
ATOM     20  C   UNL A   1      39.140  27.885  30.057  1.00  0.00     0.031 C 
ATOM     21  C   UNL A   1      45.157  26.073  27.144  1.00  0.00     0.029 A 
ATOM     22  C   UNL A   1      45.138  27.431  27.651  1.00  0.00     0.049 A 
ATOM     23  H   UNL A   1      43.587  28.386  28.673  1.00  0.00     0.167 HD
ATOM     24  C   UNL A   1      39.890  30.214  30.504  1.00  0.00     0.034 A 
ATOM     25  C   UNL A   1      46.141  28.316  27.520  1.00  0.00     0.034 A 
ATOM     26  C   UNL A   1      40.896  31.242  30.418  1.00  0.00     0.049 A 
ATOM     27  C   UNL A   1      45.854  29.715  27.996  1.00  0.00     0.074 A 
ATOM     28  C   UNL A   1      40.835  32.548  30.860  1.00  0.00     0.029 A 
ATOM     29  N   UNL A   1      42.150  31.069  29.839  1.00  0.00    -0.354 N 
ATOM     30  N   UNL A   1      44.773  30.171  28.593  1.00  0.00    -0.248 NA
ATOM     31  C   UNL A   1      46.888  30.722  27.760  1.00  0.00     0.031 C 
ATOM     32  C   UNL A   1      42.019  33.185  30.475  1.00  0.00     0.029 A 
ATOM     33  C   UNL A   1      42.854  32.257  29.867  1.00  0.00     0.049 A 
ATOM     34  H   UNL A   1      42.486  30.222  29.464  1.00  0.00     0.167 HD
ATOM     35  C   UNL A   1      45.002  31.521  28.808  1.00  0.00     0.074 A 
ATOM     36  C   UNL A   1      46.338  31.794  28.311  1.00  0.00     0.031 C 
ATOM     37  C   UNL A   1      44.188  32.462  29.352  1.00  0.00     0.034 A 
BRANCH  24  38
ATOM     38  C   UNL A   1      38.526  30.536  31.047  1.00  0.00     0.023 A 
ATOM     39  C   UNL A   1      37.531  31.168  30.282  1.00  0.00     0.031 A 
ATOM     40  C   UNL A   1      38.239  30.247  32.394  1.00  0.00     0.131 A 
ATOM     41  C   UNL A   1      36.318  31.536  30.886  1.00  0.00     0.055 A 
ATOM     42  C   UNL A   1      37.005  30.549  32.969  1.00  0.00     0.041 A 
ATOM     43  F   UNL A   1      39.168  29.684  33.184  1.00  0.00    -0.206 F 
ATOM     44  C   UNL A   1      36.038  31.207  32.215  1.00  0.00     0.022 A 
BRANCH  41  45
ATOM     45  S   UNL A   1      35.149  32.557  29.946  1.00  0.00     0.124 S 
ATOM     46  O   UNL A   1      34.723  31.630  28.901  1.00  0.00    -0.237 OA
ATOM     47  O   UNL A   1      34.145  32.895  30.949  1.00  0.00    -0.237 OA
ATOM     48  O   UNL A   1      35.967  33.676  29.482  1.00  0.00    -0.744 OA
ENDBRANCH  41  45
ENDBRANCH  24  38
BRANCH  25  49
ATOM     49  C   UNL A   1      47.401  27.968  26.796  1.00  0.00     0.023 A 
ATOM     50  C   UNL A   1      47.479  28.041  25.398  1.00  0.00     0.031 A 
ATOM     51  C   UNL A   1      48.531  27.477  27.485  1.00  0.00     0.131 A 
ATOM     52  C   UNL A   1      48.626  27.575  24.733  1.00  0.00     0.055 A 
ATOM     53  C   UNL A   1      49.698  27.090  26.823  1.00  0.00     0.041 A 
ATOM     54  F   UNL A   1      48.522  27.364  28.823  1.00  0.00    -0.206 F 
ATOM     55  C   UNL A   1      49.742  27.118  25.436  1.00  0.00     0.022 A 
BRANCH  52  56
ATOM     56  S   UNL A   1      48.578  27.435  22.925  1.00  0.00     0.124 S 
ATOM     57  O   UNL A   1      48.559  25.987  22.743  1.00  0.00    -0.237 OA
ATOM     58  O   UNL A   1      47.344  28.140  22.600  1.00  0.00    -0.237 OA
ATOM     59  O   UNL A   1      49.808  28.100  22.500  1.00  0.00    -0.744 OA
ENDBRANCH  52  56
ENDBRANCH  25  49
BRANCH  37  60
ATOM     60  C   UNL A   1      44.755  33.848  29.452  1.00  0.00     0.023 A 
ATOM     61  C   UNL A   1      44.589  34.779  28.415  1.00  0.00     0.031 A 
ATOM     62  C   UNL A   1      45.452  34.242  30.606  1.00  0.00     0.131 A 
ATOM     63  C   UNL A   1      45.153  36.054  28.535  1.00  0.00     0.055 A 
ATOM     64  C   UNL A   1      45.951  35.534  30.748  1.00  0.00     0.041 A 
ATOM     65  F   UNL A   1      45.637  33.380  31.620  1.00  0.00    -0.206 F 
ATOM     66  C   UNL A   1      45.812  36.445  29.705  1.00  0.00     0.022 A 
BRANCH  63  67
ATOM     67  S   UNL A   1      45.077  37.170  27.111  1.00  0.00     0.124 S 
ATOM     68  O   UNL A   1      46.054  36.572  26.206  1.00  0.00    -0.237 OA
ATOM     69  O   UNL A   1      43.680  37.063  26.702  1.00  0.00    -0.237 OA
ATOM     70  O   UNL A   1      45.459  38.464  27.672  1.00  0.00    -0.744 OA
ENDBRANCH  63  67
ENDBRANCH  37  60
ENDBRANCH  11  12
ENDBRANCH   4   6
ENDBRANCH   3   4
ENDBRANCH   2   3
ENDBRANCH   1   2
BRANCH   1  71
ATOM     71  O   UNL A   1      34.719  20.823  25.598  1.00  0.00    -0.374 OA
BRANCH  71  72
ATOM     72  C   UNL A   1      34.255  22.125  25.239  1.00  0.00     0.202 C 
BRANCH  72  73
ATOM     73  C   UNL A   1      34.423  23.057  26.431  1.00  0.00     0.261 C 
BRANCH  73  74
ATOM     74  O   UNL A   1      33.399  24.065  26.337  1.00  0.00    -0.463 OA
BRANCH  74  75
ATOM     75  C   UNL A   1      32.149  23.667  26.705  1.00  0.00     0.309 C 
ATOM     76  O   UNL A   1      31.885  23.036  27.719  1.00  0.00    -0.252 OA
BRANCH  75  77
ATOM     77  C   UNL A   1      31.130  24.044  25.638  1.00  0.00     0.103 C 
ATOM     78  C   UNL A   1      31.724  24.524  24.299  1.00  0.00     0.037 C 
ATOM     79  C   UNL A   1      30.057  24.992  26.190  1.00  0.00     0.037 C 
ATOM     80  C   UNL A   1      31.818  26.029  24.041  1.00  0.00     0.117 C 
ATOM     81  C   UNL A   1      30.438  26.464  26.111  1.00  0.00     0.117 C 
ATOM     82  N   UNL A   1      30.787  26.796  24.735  1.00  0.00    -0.366 N 
BRANCH  82  83
ATOM     83  C   UNL A   1      30.327  27.962  24.137  1.00  0.00     0.116 A 
ATOM     84  C   UNL A   1      29.273  27.813  23.216  1.00  0.00     0.034 A 
ATOM     85  C   UNL A   1      30.747  29.286  24.385  1.00  0.00     0.293 A 
ATOM     86  C   UNL A   1      28.643  28.900  22.607  1.00  0.00     0.016 A 
ATOM     87  C   UNL A   1      30.114  30.396  23.777  1.00  0.00     0.101 A 
ATOM     88  C   UNL A   1      29.043  30.206  22.895  1.00  0.00     0.062 A 
BRANCH  85  89
ATOM     89  N   UNL A   1      31.890  29.594  25.239  1.00  0.00     0.064 N 
ATOM     90  O   UNL A   1      33.012  29.534  24.715  1.00  0.00    -0.258 OA
ATOM     91  O   UNL A   1      31.677  29.847  26.433  1.00  0.00    -0.258 OA
ENDBRANCH  85  89
BRANCH  88  92
ATOM     92  C   UNL A   1      28.302  31.361  22.270  1.00  0.00     0.416 C 
ATOM     93  F   UNL A   1      29.144  32.319  21.794  1.00  0.00    -0.166 F 
ATOM     94  F   UNL A   1      27.550  30.967  21.204  1.00  0.00    -0.166 F 
ATOM     95  F   UNL A   1      27.448  31.993  23.117  1.00  0.00    -0.166 F 
ENDBRANCH  88  92
ENDBRANCH  82  83
ENDBRANCH  75  77
ENDBRANCH  74  75
ENDBRANCH  73  74
ENDBRANCH  72  73
ENDBRANCH  71  72
ENDBRANCH   1  71
TORSDOF 20
ENDMDL
MODEL 2
REMARK VINA RESULT:     -10.8      6.108     10.769
REMARK SMILES O=C(OCCOCCOC(=O)C1CCN(c2ccc(C(F)(F)F)cc2[N+](=O)[O-])CC1)c1ccc(-c2c3nc(c(-c4cc(S(=O)(=O)[O-])ccc4F)c4ccc([nH]4)c(-c4cc(S(=O)(=O)[O-])ccc4F)c4nc(c(-c5cc(S(=O)(=O)[O-])ccc5F)c5ccc2[nH]5)C=C4)C=C3)cc1
REMARK SMILES IDX 5 1 4 2 3 3 2 4 1 5 31 6 32 7 93 8 33 9 92 10 34 11 35 12
REMARK SMILES IDX 36 13 86 14 37 15 91 16 85 17 87 18 38 19 90 20 84 21 83 22
REMARK SMILES IDX 39 24 71 25 51 26 70 27 52 28 55 29 69 30 88 31 53 32 54 33
REMARK SMILES IDX 68 35 89 36 56 37 40 38 41 39 49 40 42 41 48 42 50 43 47 44
REMARK SMILES IDX 43 45 44 46 45 47 46 48 72 49 73 50 81 51 74 52 80 53 82 54
REMARK SMILES IDX 79 55 75 56 76 57 77 58 78 59 57 60 58 61 66 62 59 63 65 64
REMARK SMILES IDX 67 65 64 66 60 67 61 68 62 69 63 70 6 71 7 72 8 73 9 74
REMARK SMILES IDX 10 75 11 76 12 77 13 78 30 79 14 80 29 81 15 82 16 83 17 84
REMARK SMILES IDX 25 85 18 86 24 87 19 88 26 89 27 90 28 91 20 92 21 93 22 94
REMARK SMILES IDX 23 95
REMARK H PARENT 87 23 55 34
REMARK Flexibility Score: inf
ROOT
ATOM      1  C   UNL A   1      33.266  31.463  27.350  1.00  0.00     0.202 C 
ENDROOT
BRANCH   1   2
ATOM      2  C   UNL A   1      32.431  32.756  27.284  1.00  0.00     0.261 C 
BRANCH   2   3
ATOM      3  O   UNL A   1      33.186  33.952  27.596  1.00  0.00    -0.460 OA
BRANCH   3   4
ATOM      4  C   UNL A   1      33.389  34.425  28.860  1.00  0.00     0.338 C 
ATOM      5  O   UNL A   1      32.660  35.287  29.347  1.00  0.00    -0.246 OA
BRANCH   4   6
ATOM      6  C   UNL A   1      34.520  33.873  29.631  1.00  0.00     0.060 A 
ATOM      7  C   UNL A   1      35.796  34.309  29.327  1.00  0.00     0.016 A 
ATOM      8  C   UNL A   1      34.364  32.924  30.633  1.00  0.00     0.016 A 
ATOM      9  C   UNL A   1      36.906  33.609  29.697  1.00  0.00     0.010 A 
ATOM     10  C   UNL A   1      35.510  32.409  31.253  1.00  0.00     0.010 A 
ATOM     11  C   UNL A   1      36.787  32.747  30.765  1.00  0.00    -0.014 A 
BRANCH  11  12
ATOM     12  C   UNL A   1      38.053  32.287  31.354  1.00  0.00     0.031 A 
ATOM     13  C   UNL A   1      38.822  31.230  30.644  1.00  0.00     0.074 A 
ATOM     14  C   UNL A   1      38.525  32.920  32.451  1.00  0.00     0.049 A 
ATOM     15  N   UNL A   1      39.839  30.541  31.068  1.00  0.00    -0.248 NA
ATOM     16  C   UNL A   1      38.386  30.897  29.276  1.00  0.00     0.031 C 
ATOM     17  C   UNL A   1      37.894  34.083  33.104  1.00  0.00     0.029 A 
ATOM     18  N   UNL A   1      39.652  32.717  33.198  1.00  0.00    -0.354 N 
ATOM     19  C   UNL A   1      40.117  29.634  30.057  1.00  0.00     0.074 A 
ATOM     20  C   UNL A   1      39.184  29.882  28.982  1.00  0.00     0.031 C 
ATOM     21  C   UNL A   1      38.666  34.509  34.110  1.00  0.00     0.029 A 
ATOM     22  C   UNL A   1      39.743  33.555  34.289  1.00  0.00     0.049 A 
ATOM     23  H   UNL A   1      40.331  32.039  32.978  1.00  0.00     0.167 HD
ATOM     24  C   UNL A   1      41.055  28.660  30.076  1.00  0.00     0.034 A 
ATOM     25  C   UNL A   1      40.540  33.486  35.370  1.00  0.00     0.034 A 
ATOM     26  C   UNL A   1      41.960  28.494  31.184  1.00  0.00     0.049 A 
ATOM     27  C   UNL A   1      41.500  32.328  35.411  1.00  0.00     0.074 A 
ATOM     28  C   UNL A   1      42.944  27.541  31.359  1.00  0.00     0.029 A 
ATOM     29  N   UNL A   1      41.980  29.308  32.313  1.00  0.00    -0.354 N 
ATOM     30  N   UNL A   1      41.716  31.411  34.491  1.00  0.00    -0.248 NA
ATOM     31  C   UNL A   1      42.297  32.168  36.628  1.00  0.00     0.031 C 
ATOM     32  C   UNL A   1      43.501  27.730  32.628  1.00  0.00     0.029 A 
ATOM     33  C   UNL A   1      42.925  28.850  33.212  1.00  0.00     0.049 A 
ATOM     34  H   UNL A   1      41.405  30.095  32.451  1.00  0.00     0.167 HD
ATOM     35  C   UNL A   1      42.680  30.566  35.021  1.00  0.00     0.074 A 
ATOM     36  C   UNL A   1      43.028  31.107  36.321  1.00  0.00     0.031 C 
ATOM     37  C   UNL A   1      43.225  29.438  34.497  1.00  0.00     0.034 A 
BRANCH  24  38
ATOM     38  C   UNL A   1      41.039  27.658  28.956  1.00  0.00     0.023 A 
ATOM     39  C   UNL A   1      41.971  27.677  27.905  1.00  0.00     0.031 A 
ATOM     40  C   UNL A   1      40.020  26.689  28.917  1.00  0.00     0.131 A 
ATOM     41  C   UNL A   1      41.831  26.777  26.835  1.00  0.00     0.055 A 
ATOM     42  C   UNL A   1      39.928  25.752  27.889  1.00  0.00     0.041 A 
ATOM     43  F   UNL A   1      39.076  26.654  29.873  1.00  0.00    -0.206 F 
ATOM     44  C   UNL A   1      40.834  25.799  26.833  1.00  0.00     0.022 A 
BRANCH  41  45
ATOM     45  S   UNL A   1      42.899  26.975  25.382  1.00  0.00     0.124 S 
ATOM     46  O   UNL A   1      42.333  28.171  24.762  1.00  0.00    -0.237 OA
ATOM     47  O   UNL A   1      44.221  27.130  25.978  1.00  0.00    -0.237 OA
ATOM     48  O   UNL A   1      42.694  25.737  24.633  1.00  0.00    -0.744 OA
ENDBRANCH  41  45
ENDBRANCH  24  38
BRANCH  25  49
ATOM     49  C   UNL A   1      40.364  34.412  36.530  1.00  0.00     0.023 A 
ATOM     50  C   UNL A   1      41.339  35.368  36.849  1.00  0.00     0.031 A 
ATOM     51  C   UNL A   1      39.253  34.305  37.393  1.00  0.00     0.131 A 
ATOM     52  C   UNL A   1      41.218  36.130  38.024  1.00  0.00     0.055 A 
ATOM     53  C   UNL A   1      39.098  35.120  38.516  1.00  0.00     0.041 A 
ATOM     54  F   UNL A   1      38.288  33.400  37.159  1.00  0.00    -0.206 F 
ATOM     55  C   UNL A   1      40.096  36.026  38.849  1.00  0.00     0.022 A 
BRANCH  52  56
ATOM     56  S   UNL A   1      42.624  37.154  38.538  1.00  0.00     0.124 S 
ATOM     57  O   UNL A   1      43.165  37.579  37.251  1.00  0.00    -0.237 OA
ATOM     58  O   UNL A   1      41.970  38.187  39.333  1.00  0.00    -0.237 OA
ATOM     59  O   UNL A   1      43.464  36.225  39.291  1.00  0.00    -0.744 OA
ENDBRANCH  52  56
ENDBRANCH  25  49
BRANCH  37  60
ATOM     60  C   UNL A   1      44.267  28.757  35.335  1.00  0.00     0.023 A 
ATOM     61  C   UNL A   1      43.933  27.699  36.194  1.00  0.00     0.031 A 
ATOM     62  C   UNL A   1      45.609  29.164  35.256  1.00  0.00     0.131 A 
ATOM     63  C   UNL A   1      44.929  27.105  36.977  1.00  0.00     0.055 A 
ATOM     64  C   UNL A   1      46.606  28.523  35.987  1.00  0.00     0.041 A 
ATOM     65  F   UNL A   1      45.970  30.176  34.451  1.00  0.00    -0.206 F 
ATOM     66  C   UNL A   1      46.267  27.494  36.861  1.00  0.00     0.022 A 
BRANCH  63  67
ATOM     67  S   UNL A   1      44.439  25.866  38.204  1.00  0.00     0.124 S 
ATOM     68  O   UNL A   1      45.700  25.174  38.455  1.00  0.00    -0.237 OA
ATOM     69  O   UNL A   1      43.934  26.689  39.299  1.00  0.00    -0.237 OA
ATOM     70  O   UNL A   1      43.426  25.077  37.505  1.00  0.00    -0.744 OA
ENDBRANCH  63  67
ENDBRANCH  37  60
ENDBRANCH  11  12
ENDBRANCH   4   6
ENDBRANCH   3   4
ENDBRANCH   2   3
ENDBRANCH   1   2
BRANCH   1  71
ATOM     71  O   UNL A   1      32.847  30.305  26.639  1.00  0.00    -0.374 OA
BRANCH  71  72
ATOM     72  C   UNL A   1      31.749  30.456  25.739  1.00  0.00     0.202 C 
BRANCH  72  73
ATOM     73  C   UNL A   1      31.713  29.261  24.796  1.00  0.00     0.261 C 
BRANCH  73  74
ATOM     74  O   UNL A   1      32.437  28.190  25.429  1.00  0.00    -0.463 OA
BRANCH  74  75
ATOM     75  C   UNL A   1      31.674  27.159  25.891  1.00  0.00     0.309 C 
ATOM     76  O   UNL A   1      31.270  27.046  27.040  1.00  0.00    -0.252 OA
BRANCH  75  77
ATOM     77  C   UNL A   1      31.459  26.120  24.798  1.00  0.00     0.103 C 
ATOM     78  C   UNL A   1      30.412  25.033  25.119  1.00  0.00     0.037 C 
ATOM     79  C   UNL A   1      32.788  25.540  24.298  1.00  0.00     0.037 C 
ATOM     80  C   UNL A   1      30.903  23.677  25.629  1.00  0.00     0.117 C 
ATOM     81  C   UNL A   1      33.282  24.347  25.107  1.00  0.00     0.117 C 
ATOM     82  N   UNL A   1      32.237  23.331  25.147  1.00  0.00    -0.366 N 
BRANCH  82  83
ATOM     83  C   UNL A   1      32.532  21.987  24.951  1.00  0.00     0.116 A 
ATOM     84  C   UNL A   1      31.999  21.399  23.788  1.00  0.00     0.034 A 
ATOM     85  C   UNL A   1      33.351  21.156  25.743  1.00  0.00     0.293 A 
ATOM     86  C   UNL A   1      32.286  20.087  23.407  1.00  0.00     0.016 A 
ATOM     87  C   UNL A   1      33.652  19.826  25.365  1.00  0.00     0.101 A 
ATOM     88  C   UNL A   1      33.132  19.290  24.180  1.00  0.00     0.062 A 
BRANCH  85  89
ATOM     89  N   UNL A   1      33.896  21.593  27.026  1.00  0.00     0.064 N 
ATOM     90  O   UNL A   1      33.084  21.780  27.943  1.00  0.00    -0.258 OA
ATOM     91  O   UNL A   1      35.115  21.794  27.105  1.00  0.00    -0.258 OA
ENDBRANCH  85  89
BRANCH  88  92
ATOM     92  C   UNL A   1      33.474  17.899  23.710  1.00  0.00     0.416 C 
ATOM     93  F   UNL A   1      32.945  16.936  24.514  1.00  0.00    -0.166 F 
ATOM     94  F   UNL A   1      32.983  17.648  22.463  1.00  0.00    -0.166 F 
ATOM     95  F   UNL A   1      34.808  17.650  23.645  1.00  0.00    -0.166 F 
ENDBRANCH  88  92
ENDBRANCH  82  83
ENDBRANCH  75  77
ENDBRANCH  74  75
ENDBRANCH  73  74
ENDBRANCH  72  73
ENDBRANCH  71  72
ENDBRANCH   1  71
TORSDOF 20
ENDMDL
MODEL 3
REMARK VINA RESULT:     -10.7      2.658      3.373
REMARK SMILES O=C(OCCOCCOC(=O)C1CCN(c2ccc(C(F)(F)F)cc2[N+](=O)[O-])CC1)c1ccc(-c2c3nc(c(-c4cc(S(=O)(=O)[O-])ccc4F)c4ccc([nH]4)c(-c4cc(S(=O)(=O)[O-])ccc4F)c4nc(c(-c5cc(S(=O)(=O)[O-])ccc5F)c5ccc2[nH]5)C=C4)C=C3)cc1
REMARK SMILES IDX 5 1 4 2 3 3 2 4 1 5 31 6 32 7 93 8 33 9 92 10 34 11 35 12
REMARK SMILES IDX 36 13 86 14 37 15 91 16 85 17 87 18 38 19 90 20 84 21 83 22
REMARK SMILES IDX 39 24 71 25 51 26 70 27 52 28 55 29 69 30 88 31 53 32 54 33
REMARK SMILES IDX 68 35 89 36 56 37 40 38 41 39 49 40 42 41 48 42 50 43 47 44
REMARK SMILES IDX 43 45 44 46 45 47 46 48 72 49 73 50 81 51 74 52 80 53 82 54
REMARK SMILES IDX 79 55 75 56 76 57 77 58 78 59 57 60 58 61 66 62 59 63 65 64
REMARK SMILES IDX 67 65 64 66 60 67 61 68 62 69 63 70 6 71 7 72 8 73 9 74
REMARK SMILES IDX 10 75 11 76 12 77 13 78 30 79 14 80 29 81 15 82 16 83 17 84
REMARK SMILES IDX 25 85 18 86 24 87 19 88 26 89 27 90 28 91 20 92 21 93 22 94
REMARK SMILES IDX 23 95
REMARK H PARENT 87 23 55 34
REMARK Flexibility Score: inf
ROOT
ATOM      1  C   UNL A   1      38.447  21.321  25.395  1.00  0.00     0.202 C 
ENDROOT
BRANCH   1   2
ATOM      2  C   UNL A   1      39.472  20.939  26.481  1.00  0.00     0.261 C 
BRANCH   2   3
ATOM      3  O   UNL A   1      40.373  19.878  26.083  1.00  0.00    -0.460 OA
BRANCH   3   4
ATOM      4  C   UNL A   1      41.733  19.952  26.162  1.00  0.00     0.338 C 
ATOM      5  O   UNL A   1      42.437  18.952  26.044  1.00  0.00    -0.246 OA
BRANCH   4   6
ATOM      6  C   UNL A   1      42.340  21.277  26.399  1.00  0.00     0.060 A 
ATOM      7  C   UNL A   1      42.687  21.617  27.693  1.00  0.00     0.016 A 
ATOM      8  C   UNL A   1      42.560  22.202  25.387  1.00  0.00     0.016 A 
ATOM      9  C   UNL A   1      42.891  22.910  28.069  1.00  0.00     0.010 A 
ATOM     10  C   UNL A   1      43.073  23.460  25.729  1.00  0.00     0.010 A 
ATOM     11  C   UNL A   1      43.222  23.815  27.084  1.00  0.00    -0.014 A 
BRANCH  11  12
ATOM     12  C   UNL A   1      43.773  25.095  27.554  1.00  0.00     0.031 A 
ATOM     13  C   UNL A   1      42.844  26.088  28.156  1.00  0.00     0.074 A 
ATOM     14  C   UNL A   1      45.113  25.270  27.529  1.00  0.00     0.049 A 
ATOM     15  N   UNL A   1      43.065  27.335  28.448  1.00  0.00    -0.248 NA
ATOM     16  C   UNL A   1      41.480  25.621  28.462  1.00  0.00     0.031 C 
ATOM     17  C   UNL A   1      46.100  24.260  27.102  1.00  0.00     0.029 A 
ATOM     18  N   UNL A   1      45.893  26.331  27.898  1.00  0.00    -0.354 N 
ATOM     19  C   UNL A   1      41.850  27.830  28.896  1.00  0.00     0.074 A 
ATOM     20  C   UNL A   1      40.901  26.740  28.870  1.00  0.00     0.031 C 
ATOM     21  C   UNL A   1      47.338  24.735  27.281  1.00  0.00     0.029 A 
ATOM     22  C   UNL A   1      47.236  26.131  27.661  1.00  0.00     0.049 A 
ATOM     23  H   UNL A   1      45.531  27.156  28.294  1.00  0.00     0.167 HD
ATOM     24  C   UNL A   1      41.575  29.105  29.251  1.00  0.00     0.034 A 
ATOM     25  C   UNL A   1      48.254  27.010  27.643  1.00  0.00     0.034 A 
ATOM     26  C   UNL A   1      42.587  30.129  29.267  1.00  0.00     0.049 A 
ATOM     27  C   UNL A   1      47.895  28.441  27.939  1.00  0.00     0.074 A 
ATOM     28  C   UNL A   1      42.457  31.467  29.578  1.00  0.00     0.029 A 
ATOM     29  N   UNL A   1      43.926  29.917  28.946  1.00  0.00    -0.354 N 
ATOM     30  N   UNL A   1      46.726  28.937  28.286  1.00  0.00    -0.248 NA
ATOM     31  C   UNL A   1      48.964  29.433  27.814  1.00  0.00     0.031 C 
ATOM     32  C   UNL A   1      43.697  32.078  29.366  1.00  0.00     0.029 A 
ATOM     33  C   UNL A   1      44.622  31.109  29.004  1.00  0.00     0.049 A 
ATOM     34  H   UNL A   1      44.319  29.045  28.712  1.00  0.00     0.167 HD
ATOM     35  C   UNL A   1      46.923  30.303  28.425  1.00  0.00     0.074 A 
ATOM     36  C   UNL A   1      48.330  30.543  28.162  1.00  0.00     0.031 C 
ATOM     37  C   UNL A   1      46.030  31.280  28.729  1.00  0.00     0.034 A 
BRANCH  24  38
ATOM     38  C   UNL A   1      40.137  29.460  29.504  1.00  0.00     0.023 A 
ATOM     39  C   UNL A   1      39.594  29.566  30.795  1.00  0.00     0.031 A 
ATOM     40  C   UNL A   1      39.273  29.645  28.408  1.00  0.00     0.131 A 
ATOM     41  C   UNL A   1      38.218  29.795  30.955  1.00  0.00     0.055 A 
ATOM     42  C   UNL A   1      37.922  29.944  28.574  1.00  0.00     0.041 A 
ATOM     43  F   UNL A   1      39.729  29.512  27.152  1.00  0.00    -0.206 F 
ATOM     44  C   UNL A   1      37.384  30.012  29.855  1.00  0.00     0.022 A 
BRANCH  41  45
ATOM     45  S   UNL A   1      37.502  29.691  32.620  1.00  0.00     0.124 S 
ATOM     46  O   UNL A   1      36.173  30.256  32.403  1.00  0.00    -0.237 OA
ATOM     47  O   UNL A   1      37.551  28.260  32.897  1.00  0.00    -0.237 OA
ATOM     48  O   UNL A   1      38.397  30.513  33.431  1.00  0.00    -0.744 OA
ENDBRANCH  41  45
ENDBRANCH  24  38
BRANCH  25  49
ATOM     49  C   UNL A   1      49.623  26.611  27.197  1.00  0.00     0.023 A 
ATOM     50  C   UNL A   1      50.699  26.581  28.096  1.00  0.00     0.031 A 
ATOM     51  C   UNL A   1      49.901  26.329  25.842  1.00  0.00     0.131 A 
ATOM     52  C   UNL A   1      52.001  26.340  27.625  1.00  0.00     0.055 A 
ATOM     53  C   UNL A   1      51.184  26.011  25.394  1.00  0.00     0.041 A 
ATOM     54  F   UNL A   1      48.922  26.355  24.923  1.00  0.00    -0.206 F 
ATOM     55  C   UNL A   1      52.248  26.037  26.285  1.00  0.00     0.022 A 
BRANCH  52  56
ATOM     56  S   UNL A   1      53.390  26.578  28.768  1.00  0.00     0.124 S 
ATOM     57  O   UNL A   1      54.421  25.749  28.154  1.00  0.00    -0.237 OA
ATOM     58  O   UNL A   1      53.597  28.020  28.695  1.00  0.00    -0.237 OA
ATOM     59  O   UNL A   1      52.871  26.086  30.041  1.00  0.00    -0.744 OA
ENDBRANCH  52  56
ENDBRANCH  25  49
BRANCH  37  60
ATOM     60  C   UNL A   1      46.580  32.674  28.815  1.00  0.00     0.023 A 
ATOM     61  C   UNL A   1      46.626  33.509  27.688  1.00  0.00     0.031 A 
ATOM     62  C   UNL A   1      47.046  33.172  30.043  1.00  0.00     0.131 A 
ATOM     63  C   UNL A   1      47.168  34.795  27.804  1.00  0.00     0.055 A 
ATOM     64  C   UNL A   1      47.520  34.475  30.166  1.00  0.00     0.041 A 
ATOM     65  F   UNL A   1      47.025  32.403  31.145  1.00  0.00    -0.206 F 
ATOM     66  C   UNL A   1      47.593  35.290  29.040  1.00  0.00     0.022 A 
BRANCH  63  67
ATOM     67  S   UNL A   1      47.377  35.782  26.300  1.00  0.00     0.124 S 
ATOM     68  O   UNL A   1      46.233  36.685  26.370  1.00  0.00    -0.237 OA
ATOM     69  O   UNL A   1      48.687  36.394  26.505  1.00  0.00    -0.237 OA
ATOM     70  O   UNL A   1      47.320  34.788  25.230  1.00  0.00    -0.744 OA
ENDBRANCH  63  67
ENDBRANCH  37  60
ENDBRANCH  11  12
ENDBRANCH   4   6
ENDBRANCH   3   4
ENDBRANCH   2   3
ENDBRANCH   1   2
BRANCH   1  71
ATOM     71  O   UNL A   1      37.617  20.324  24.814  1.00  0.00    -0.374 OA
BRANCH  71  72
ATOM     72  C   UNL A   1      36.205  20.509  24.920  1.00  0.00     0.202 C 
BRANCH  72  73
ATOM     73  C   UNL A   1      35.906  21.999  25.016  1.00  0.00     0.261 C 
BRANCH  73  74
ATOM     74  O   UNL A   1      34.477  22.158  24.943  1.00  0.00    -0.463 OA
BRANCH  74  75
ATOM     75  C   UNL A   1      33.889  22.695  26.049  1.00  0.00     0.309 C 
ATOM     76  O   UNL A   1      34.412  22.775  27.152  1.00  0.00    -0.252 OA
BRANCH  75  77
ATOM     77  C   UNL A   1      32.456  23.111  25.746  1.00  0.00     0.103 C 
ATOM     78  C   UNL A   1      32.055  23.060  24.258  1.00  0.00     0.037 C 
ATOM     79  C   UNL A   1      32.099  24.444  26.416  1.00  0.00     0.037 C 
ATOM     80  C   UNL A   1      32.082  24.361  23.452  1.00  0.00     0.117 C 
ATOM     81  C   UNL A   1      32.455  25.667  25.581  1.00  0.00     0.117 C 
ATOM     82  N   UNL A   1      31.835  25.547  24.267  1.00  0.00    -0.366 N 
BRANCH  82  83
ATOM     83  C   UNL A   1      31.196  26.627  23.672  1.00  0.00     0.116 A 
ATOM     84  C   UNL A   1      29.794  26.669  23.807  1.00  0.00     0.034 A 
ATOM     85  C   UNL A   1      31.784  27.719  23.001  1.00  0.00     0.293 A 
ATOM     86  C   UNL A   1      29.023  27.737  23.346  1.00  0.00     0.016 A 
ATOM     87  C   UNL A   1      31.013  28.810  22.533  1.00  0.00     0.101 A 
ATOM     88  C   UNL A   1      29.625  28.831  22.721  1.00  0.00     0.062 A 
BRANCH  85  89
ATOM     89  N   UNL A   1      33.211  27.772  22.699  1.00  0.00     0.064 N 
ATOM     90  O   UNL A   1      33.601  27.112  21.724  1.00  0.00    -0.258 OA
ATOM     91  O   UNL A   1      33.945  28.424  23.453  1.00  0.00    -0.258 OA
ENDBRANCH  85  89
BRANCH  88  92
ATOM     92  C   UNL A   1      28.774  29.999  22.291  1.00  0.00     0.416 C 
ATOM     93  F   UNL A   1      27.920  29.673  21.282  1.00  0.00    -0.166 F 
ATOM     94  F   UNL A   1      27.987  30.456  23.306  1.00  0.00    -0.166 F 
ATOM     95  F   UNL A   1      29.485  31.071  21.855  1.00  0.00    -0.166 F 
ENDBRANCH  88  92
ENDBRANCH  82  83
ENDBRANCH  75  77
ENDBRANCH  74  75
ENDBRANCH  73  74
ENDBRANCH  72  73
ENDBRANCH  71  72
ENDBRANCH   1  71
TORSDOF 20
ENDMDL
