MODEL 1
REMARK VINA RESULT:      -9.7      0.000      0.000
REMARK SMILES CCOC(=O)[C@@H](/C=N/c1ccnn1C1CCCCC1)C(=O)OCCOCCOC(=O)c1ccc(-c2c3nc(c(-c4cc(S(=O)(=O)[O-])ccc4F)c4ccc([nH]4)c(-c4cc(S(=O)(=O)[O-])ccc4F)c4nc(c(-c5cc(S(=O)(=O)[O-])ccc5F)c5ccc2[nH]5)C=C4)C=C3)cc1
REMARK SMILES IDX 25 1 24 2 23 3 22 4 20 5 21 6 6 7 4 8 5 9 3 10 2 11 1 12
REMARK SMILES IDX 7 13 8 14 9 15 10 16 13 17 11 18 12 19 14 20 15 21 19 22
REMARK SMILES IDX 16 23 18 24 17 25 26 26 27 27 28 28 29 29 30 30 31 31 32 32
REMARK SMILES IDX 93 33 33 34 92 35 34 36 35 37 36 38 86 39 37 40 91 41 85 42
REMARK SMILES IDX 87 43 38 44 90 45 84 46 83 47 39 49 71 50 51 51 70 52 52 53
REMARK SMILES IDX 55 54 69 55 88 56 53 57 54 58 68 60 89 61 56 62 40 63 41 64
REMARK SMILES IDX 49 65 42 66 48 67 50 68 47 69 43 70 44 71 45 72 46 73 72 74
REMARK SMILES IDX 73 75 81 76 74 77 80 78 82 79 79 80 75 81 76 82 77 83 78 84
REMARK SMILES IDX 57 85 58 86 66 87 59 88 65 89 67 90 64 91 60 92 61 93 62 94
REMARK SMILES IDX 63 95
REMARK H PARENT 87 48 55 59
REMARK Flexibility Score: inf
ROOT
ATOM      1  O   UNL A   1      35.032  31.920  27.617  1.00  0.00    -0.374 OA
ENDROOT
BRANCH   1   2
ATOM      2  C   UNL A   1      34.125  30.854  27.354  1.00  0.00     0.202 C 
BRANCH   2   3
ATOM      3  C   UNL A   1      34.618  29.426  27.558  1.00  0.00     0.261 C 
BRANCH   3   4
ATOM      4  O   UNL A   1      33.563  28.452  27.582  1.00  0.00    -0.462 OA
BRANCH   4   5
ATOM      5  C   UNL A   1      33.280  27.871  26.383  1.00  0.00     0.325 C 
ATOM      6  O   UNL A   1      34.118  27.456  25.588  1.00  0.00    -0.251 OA
BRANCH   5   7
ATOM      7  C   UNL A   1      31.813  27.857  26.078  1.00  0.00     0.250 C 
BRANCH   7   8
ATOM      8  C   UNL A   1      31.403  28.857  25.050  1.00  0.00     0.325 C 
ATOM      9  O   UNL A   1      31.295  30.052  25.298  1.00  0.00    -0.251 OA
BRANCH   8  10
ATOM     10  O   UNL A   1      31.154  28.286  23.843  1.00  0.00    -0.465 OA
BRANCH  10  11
ATOM     11  C   UNL A   1      32.093  28.576  22.796  1.00  0.00     0.229 C 
ATOM     12  C   UNL A   1      32.767  27.300  22.345  1.00  0.00     0.049 C 
ENDBRANCH  10  11
ENDBRANCH   8  10
ENDBRANCH   7   8
BRANCH   7  13
ATOM     13  C   UNL A   1      31.333  26.460  25.835  1.00  0.00     0.113 C 
ATOM     14  N   UNL A   1      31.784  25.521  26.592  1.00  0.00    -0.240 NA
BRANCH  14  15
ATOM     15  C   UNL A   1      31.276  24.281  26.493  1.00  0.00     0.150 A 
ATOM     16  C   UNL A   1      30.066  23.703  26.804  1.00  0.00     0.070 A 
ATOM     17  N   UNL A   1      32.024  23.278  25.903  1.00  0.00    -0.245 N 
ATOM     18  C   UNL A   1      30.174  22.372  26.371  1.00  0.00     0.137 A 
ATOM     19  N   UNL A   1      31.368  22.095  25.842  1.00  0.00    -0.179 NA
BRANCH  17  20
ATOM     20  C   UNL A   1      33.395  23.373  25.391  1.00  0.00     0.110 C 
ATOM     21  C   UNL A   1      34.140  22.026  25.424  1.00  0.00     0.027 C 
ATOM     22  C   UNL A   1      33.453  24.023  23.996  1.00  0.00     0.027 C 
ATOM     23  C   UNL A   1      35.563  22.139  24.875  1.00  0.00     0.002 C 
ATOM     24  C   UNL A   1      34.885  24.127  23.475  1.00  0.00     0.002 C 
ATOM     25  C   UNL A   1      35.598  22.780  23.491  1.00  0.00     0.000 C 
ENDBRANCH  17  20
ENDBRANCH  14  15
ENDBRANCH   7  13
ENDBRANCH   5   7
ENDBRANCH   4   5
ENDBRANCH   3   4
ENDBRANCH   2   3
ENDBRANCH   1   2
BRANCH   1  26
ATOM     26  C   UNL A   1      34.575  33.105  28.262  1.00  0.00     0.202 C 
BRANCH  26  27
ATOM     27  C   UNL A   1      34.375  33.088  29.769  1.00  0.00     0.261 C 
BRANCH  27  28
ATOM     28  O   UNL A   1      35.244  32.181  30.430  1.00  0.00    -0.460 OA
BRANCH  28  29
ATOM     29  C   UNL A   1      36.436  32.727  30.788  1.00  0.00     0.338 C 
ATOM     30  O   UNL A   1      36.613  33.773  31.374  1.00  0.00    -0.246 OA
BRANCH  29  31
ATOM     31  C   UNL A   1      37.508  31.918  30.195  1.00  0.00     0.060 A 
ATOM     32  C   UNL A   1      37.255  30.563  30.016  1.00  0.00     0.016 A 
ATOM     33  C   UNL A   1      38.805  32.440  30.118  1.00  0.00     0.016 A 
ATOM     34  C   UNL A   1      38.333  29.706  29.995  1.00  0.00     0.010 A 
ATOM     35  C   UNL A   1      39.881  31.591  30.101  1.00  0.00     0.010 A 
ATOM     36  C   UNL A   1      39.628  30.229  30.141  1.00  0.00    -0.014 A 
BRANCH  36  37
ATOM     37  C   UNL A   1      40.743  29.310  30.165  1.00  0.00     0.031 A 
ATOM     38  C   UNL A   1      41.140  28.999  31.550  1.00  0.00     0.074 A 
ATOM     39  C   UNL A   1      41.302  28.756  29.073  1.00  0.00     0.049 A 
ATOM     40  N   UNL A   1      42.123  29.531  32.193  1.00  0.00    -0.248 NA
ATOM     41  C   UNL A   1      40.201  28.250  32.401  1.00  0.00     0.031 C 
ATOM     42  C   UNL A   1      40.863  28.821  27.680  1.00  0.00     0.029 A 
ATOM     43  N   UNL A   1      42.389  27.940  29.006  1.00  0.00    -0.354 N 
ATOM     44  C   UNL A   1      42.097  28.942  33.445  1.00  0.00     0.074 A 
ATOM     45  C   UNL A   1      40.775  28.399  33.596  1.00  0.00     0.031 C 
ATOM     46  C   UNL A   1      41.543  27.902  26.951  1.00  0.00     0.029 A 
ATOM     47  C   UNL A   1      42.551  27.274  27.794  1.00  0.00     0.049 A 
ATOM     48  H   UNL A   1      43.014  27.829  29.758  1.00  0.00     0.167 HD
ATOM     49  C   UNL A   1      43.263  28.682  34.093  1.00  0.00     0.034 A 
ATOM     50  C   UNL A   1      43.421  26.255  27.533  1.00  0.00     0.034 A 
ATOM     51  C   UNL A   1      44.352  29.452  33.520  1.00  0.00     0.049 A 
ATOM     52  C   UNL A   1      44.520  26.372  28.531  1.00  0.00     0.074 A 
ATOM     53  C   UNL A   1      44.567  30.802  33.304  1.00  0.00     0.029 A 
ATOM     54  N   UNL A   1      45.239  28.803  32.686  1.00  0.00    -0.354 N 
ATOM     55  N   UNL A   1      45.354  27.377  28.544  1.00  0.00    -0.248 NA
ATOM     56  C   UNL A   1      44.364  25.692  29.809  1.00  0.00     0.031 C 
ATOM     57  C   UNL A   1      45.177  30.877  32.016  1.00  0.00     0.029 A 
ATOM     58  C   UNL A   1      45.402  29.577  31.559  1.00  0.00     0.049 A 
ATOM     59  H   UNL A   1      45.677  27.940  32.863  1.00  0.00     0.167 HD
ATOM     60  C   UNL A   1      45.458  27.742  29.878  1.00  0.00     0.074 A 
ATOM     61  C   UNL A   1      44.899  26.611  30.620  1.00  0.00     0.031 C 
ATOM     62  C   UNL A   1      45.703  29.038  30.243  1.00  0.00     0.034 A 
BRANCH  49  63
ATOM     63  C   UNL A   1      43.496  27.440  34.923  1.00  0.00     0.023 A 
ATOM     64  C   UNL A   1      43.860  27.644  36.264  1.00  0.00     0.031 A 
ATOM     65  C   UNL A   1      43.679  26.126  34.428  1.00  0.00     0.131 A 
ATOM     66  C   UNL A   1      44.494  26.630  36.998  1.00  0.00     0.055 A 
ATOM     67  C   UNL A   1      44.245  25.100  35.187  1.00  0.00     0.041 A 
ATOM     68  F   UNL A   1      43.415  25.771  33.167  1.00  0.00    -0.206 F 
ATOM     69  C   UNL A   1      44.693  25.359  36.468  1.00  0.00     0.022 A 
BRANCH  66  70
ATOM     70  S   UNL A   1      45.227  27.071  38.589  1.00  0.00     0.124 S 
ATOM     71  O   UNL A   1      44.811  28.463  38.721  1.00  0.00    -0.237 OA
ATOM     72  O   UNL A   1      44.584  26.118  39.487  1.00  0.00    -0.237 OA
ATOM     73  O   UNL A   1      46.656  26.860  38.373  1.00  0.00    -0.744 OA
ENDBRANCH  66  70
ENDBRANCH  49  63
BRANCH  50  74
ATOM     74  C   UNL A   1      43.151  25.010  26.748  1.00  0.00     0.023 A 
ATOM     75  C   UNL A   1      44.036  24.495  25.767  1.00  0.00     0.031 A 
ATOM     76  C   UNL A   1      42.101  24.153  27.150  1.00  0.00     0.131 A 
ATOM     77  C   UNL A   1      43.848  23.188  25.245  1.00  0.00     0.055 A 
ATOM     78  C   UNL A   1      41.925  22.867  26.636  1.00  0.00     0.041 A 
ATOM     79  F   UNL A   1      41.254  24.503  28.131  1.00  0.00    -0.206 F 
ATOM     80  C   UNL A   1      42.805  22.374  25.689  1.00  0.00     0.022 A 
BRANCH  77  81
ATOM     81  S   UNL A   1      45.014  22.473  24.032  1.00  0.00     0.124 S 
ATOM     82  O   UNL A   1      45.484  21.276  24.721  1.00  0.00    -0.237 OA
ATOM     83  O   UNL A   1      44.167  22.261  22.864  1.00  0.00    -0.237 OA
ATOM     84  O   UNL A   1      46.025  23.520  23.869  1.00  0.00    -0.744 OA
ENDBRANCH  77  81
ENDBRANCH  50  74
BRANCH  62  85
ATOM     85  C   UNL A   1      46.142  30.018  29.165  1.00  0.00     0.023 A 
ATOM     86  C   UNL A   1      45.274  30.828  28.392  1.00  0.00     0.031 A 
ATOM     87  C   UNL A   1      47.524  30.191  28.969  1.00  0.00     0.131 A 
ATOM     88  C   UNL A   1      45.799  31.735  27.448  1.00  0.00     0.055 A 
ATOM     89  C   UNL A   1      48.041  31.109  28.056  1.00  0.00     0.041 A 
ATOM     90  F   UNL A   1      48.408  29.477  29.685  1.00  0.00    -0.206 F 
ATOM     91  C   UNL A   1      47.180  31.877  27.282  1.00  0.00     0.022 A 
BRANCH  88  92
ATOM     92  S   UNL A   1      44.696  32.716  26.378  1.00  0.00     0.124 S 
ATOM     93  O   UNL A   1      45.606  33.330  25.418  1.00  0.00    -0.237 OA
ATOM     94  O   UNL A   1      43.793  31.701  25.841  1.00  0.00    -0.237 OA
ATOM     95  O   UNL A   1      44.068  33.655  27.309  1.00  0.00    -0.744 OA
ENDBRANCH  88  92
ENDBRANCH  62  85
ENDBRANCH  36  37
ENDBRANCH  29  31
ENDBRANCH  28  29
ENDBRANCH  27  28
ENDBRANCH  26  27
ENDBRANCH   1  26
TORSDOF 23
ENDMDL
MODEL 2
REMARK VINA RESULT:      -9.7      3.507      9.433
REMARK SMILES CCOC(=O)[C@@H](/C=N/c1ccnn1C1CCCCC1)C(=O)OCCOCCOC(=O)c1ccc(-c2c3nc(c(-c4cc(S(=O)(=O)[O-])ccc4F)c4ccc([nH]4)c(-c4cc(S(=O)(=O)[O-])ccc4F)c4nc(c(-c5cc(S(=O)(=O)[O-])ccc5F)c5ccc2[nH]5)C=C4)C=C3)cc1
REMARK SMILES IDX 25 1 24 2 23 3 22 4 20 5 21 6 6 7 4 8 5 9 3 10 2 11 1 12
REMARK SMILES IDX 7 13 8 14 9 15 10 16 13 17 11 18 12 19 14 20 15 21 19 22
REMARK SMILES IDX 16 23 18 24 17 25 26 26 27 27 28 28 29 29 30 30 31 31 32 32
REMARK SMILES IDX 93 33 33 34 92 35 34 36 35 37 36 38 86 39 37 40 91 41 85 42
REMARK SMILES IDX 87 43 38 44 90 45 84 46 83 47 39 49 71 50 51 51 70 52 52 53
REMARK SMILES IDX 55 54 69 55 88 56 53 57 54 58 68 60 89 61 56 62 40 63 41 64
REMARK SMILES IDX 49 65 42 66 48 67 50 68 47 69 43 70 44 71 45 72 46 73 72 74
REMARK SMILES IDX 73 75 81 76 74 77 80 78 82 79 79 80 75 81 76 82 77 83 78 84
REMARK SMILES IDX 57 85 58 86 66 87 59 88 65 89 67 90 64 91 60 92 61 93 62 94
REMARK SMILES IDX 63 95
REMARK H PARENT 87 48 55 59
REMARK Flexibility Score: inf
ROOT
ATOM      1  O   UNL A   1      36.817  22.129  25.972  1.00  0.00    -0.374 OA
ENDROOT
BRANCH   1   2
ATOM      2  C   UNL A   1      35.675  21.279  26.028  1.00  0.00     0.202 C 
BRANCH   2   3
ATOM      3  C   UNL A   1      34.596  21.596  27.058  1.00  0.00     0.261 C 
BRANCH   3   4
ATOM      4  O   UNL A   1      34.243  22.986  27.111  1.00  0.00    -0.462 OA
BRANCH   4   5
ATOM      5  C   UNL A   1      32.949  23.270  26.794  1.00  0.00     0.325 C 
ATOM      6  O   UNL A   1      32.064  23.518  27.607  1.00  0.00    -0.251 OA
BRANCH   5   7
ATOM      7  C   UNL A   1      32.677  23.170  25.324  1.00  0.00     0.250 C 
BRANCH   7   8
ATOM      8  C   UNL A   1      32.018  21.894  24.919  1.00  0.00     0.325 C 
ATOM      9  O   UNL A   1      30.917  21.558  25.338  1.00  0.00    -0.251 OA
BRANCH   8  10
ATOM     10  O   UNL A   1      32.782  21.166  24.064  1.00  0.00    -0.465 OA
BRANCH  10  11
ATOM     11  C   UNL A   1      32.524  19.754  24.025  1.00  0.00     0.229 C 
ATOM     12  C   UNL A   1      32.178  19.334  22.615  1.00  0.00     0.049 C 
ENDBRANCH  10  11
ENDBRANCH   8  10
ENDBRANCH   7   8
BRANCH   7  13
ATOM     13  C   UNL A   1      32.018  24.416  24.818  1.00  0.00     0.113 C 
ATOM     14  N   UNL A   1      32.558  25.029  23.823  1.00  0.00    -0.240 NA
BRANCH  14  15
ATOM     15  C   UNL A   1      31.924  26.070  23.257  1.00  0.00     0.150 A 
ATOM     16  C   UNL A   1      31.237  26.261  22.080  1.00  0.00     0.070 A 
ATOM     17  N   UNL A   1      31.817  27.265  23.945  1.00  0.00    -0.245 N 
ATOM     18  C   UNL A   1      30.758  27.579  22.145  1.00  0.00     0.137 A 
ATOM     19  N   UNL A   1      31.124  28.208  23.264  1.00  0.00    -0.179 NA
BRANCH  17  20
ATOM     20  C   UNL A   1      32.381  27.589  25.260  1.00  0.00     0.110 C 
ATOM     21  C   UNL A   1      33.764  28.258  25.170  1.00  0.00     0.027 C 
ATOM     22  C   UNL A   1      31.406  28.409  26.125  1.00  0.00     0.027 C 
ATOM     23  C   UNL A   1      34.332  28.602  26.547  1.00  0.00     0.002 C 
ATOM     24  C   UNL A   1      31.996  28.734  27.497  1.00  0.00     0.002 C 
ATOM     25  C   UNL A   1      33.354  29.418  27.387  1.00  0.00     0.000 C 
ENDBRANCH  17  20
ENDBRANCH  14  15
ENDBRANCH   7  13
ENDBRANCH   5   7
ENDBRANCH   4   5
ENDBRANCH   3   4
ENDBRANCH   2   3
ENDBRANCH   1   2
BRANCH   1  26
ATOM     26  C   UNL A   1      38.031  21.658  25.394  1.00  0.00     0.202 C 
BRANCH  26  27
ATOM     27  C   UNL A   1      39.322  21.801  26.182  1.00  0.00     0.261 C 
BRANCH  27  28
ATOM     28  O   UNL A   1      39.565  23.136  26.601  1.00  0.00    -0.460 OA
BRANCH  28  29
ATOM     29  C   UNL A   1      40.813  23.335  27.100  1.00  0.00     0.338 C 
ATOM     30  O   UNL A   1      41.789  22.638  26.924  1.00  0.00    -0.246 OA
BRANCH  29  31
ATOM     31  C   UNL A   1      40.756  24.458  28.044  1.00  0.00     0.060 A 
ATOM     32  C   UNL A   1      39.524  25.077  28.221  1.00  0.00     0.016 A 
ATOM     33  C   UNL A   1      41.946  25.049  28.487  1.00  0.00     0.016 A 
ATOM     34  C   UNL A   1      39.520  26.393  28.627  1.00  0.00     0.010 A 
ATOM     35  C   UNL A   1      41.948  26.360  28.887  1.00  0.00     0.010 A 
ATOM     36  C   UNL A   1      40.743  27.045  28.856  1.00  0.00    -0.014 A 
BRANCH  36  37
ATOM     37  C   UNL A   1      40.719  28.439  29.235  1.00  0.00     0.031 A 
ATOM     38  C   UNL A   1      41.768  29.195  28.528  1.00  0.00     0.074 A 
ATOM     39  C   UNL A   1      39.817  28.990  30.069  1.00  0.00     0.049 A 
ATOM     40  N   UNL A   1      42.916  29.530  29.012  1.00  0.00    -0.248 NA
ATOM     41  C   UNL A   1      41.664  29.347  27.068  1.00  0.00     0.031 C 
ATOM     42  C   UNL A   1      38.618  28.393  30.654  1.00  0.00     0.029 A 
ATOM     43  N   UNL A   1      39.767  30.271  30.525  1.00  0.00    -0.354 N 
ATOM     44  C   UNL A   1      43.555  30.207  27.989  1.00  0.00     0.074 A 
ATOM     45  C   UNL A   1      42.875  29.828  26.781  1.00  0.00     0.031 C 
ATOM     46  C   UNL A   1      37.851  29.368  31.201  1.00  0.00     0.029 A 
ATOM     47  C   UNL A   1      38.561  30.637  31.118  1.00  0.00     0.049 A 
ATOM     48  H   UNL A   1      40.526  30.893  30.443  1.00  0.00     0.167 HD
ATOM     49  C   UNL A   1      44.368  31.258  28.279  1.00  0.00     0.034 A 
ATOM     50  C   UNL A   1      38.173  31.899  31.466  1.00  0.00     0.034 A 
ATOM     51  C   UNL A   1      44.754  31.237  29.679  1.00  0.00     0.049 A 
ATOM     52  C   UNL A   1      39.422  32.690  31.645  1.00  0.00     0.074 A 
ATOM     53  C   UNL A   1      45.371  30.305  30.494  1.00  0.00     0.029 A 
ATOM     54  N   UNL A   1      44.126  32.115  30.538  1.00  0.00    -0.354 N 
ATOM     55  N   UNL A   1      40.276  32.450  32.603  1.00  0.00    -0.248 NA
ATOM     56  C   UNL A   1      39.983  33.362  30.481  1.00  0.00     0.031 C 
ATOM     57  C   UNL A   1      44.665  30.372  31.732  1.00  0.00     0.029 A 
ATOM     58  C   UNL A   1      43.731  31.407  31.651  1.00  0.00     0.049 A 
ATOM     59  H   UNL A   1      43.985  33.077  30.384  1.00  0.00     0.167 HD
ATOM     60  C   UNL A   1      41.522  32.501  31.996  1.00  0.00     0.074 A 
ATOM     61  C   UNL A   1      41.285  33.158  30.710  1.00  0.00     0.031 C 
ATOM     62  C   UNL A   1      42.566  31.743  32.453  1.00  0.00     0.034 A 
BRANCH  49  63
ATOM     63  C   UNL A   1      44.448  32.507  27.433  1.00  0.00     0.023 A 
ATOM     64  C   UNL A   1      43.813  33.651  27.945  1.00  0.00     0.031 A 
ATOM     65  C   UNL A   1      44.824  32.572  26.070  1.00  0.00     0.131 A 
ATOM     66  C   UNL A   1      43.460  34.715  27.102  1.00  0.00     0.055 A 
ATOM     67  C   UNL A   1      44.533  33.665  25.251  1.00  0.00     0.041 A 
ATOM     68  F   UNL A   1      45.406  31.561  25.418  1.00  0.00    -0.206 F 
ATOM     69  C   UNL A   1      43.812  34.730  25.756  1.00  0.00     0.022 A 
BRANCH  66  70
ATOM     70  S   UNL A   1      42.359  35.987  27.763  1.00  0.00     0.124 S 
ATOM     71  O   UNL A   1      42.953  36.228  29.073  1.00  0.00    -0.237 OA
ATOM     72  O   UNL A   1      42.512  37.053  26.779  1.00  0.00    -0.237 OA
ATOM     73  O   UNL A   1      41.054  35.330  27.775  1.00  0.00    -0.744 OA
ENDBRANCH  66  70
ENDBRANCH  49  63
BRANCH  50  74
ATOM     74  C   UNL A   1      36.825  32.520  31.272  1.00  0.00     0.023 A 
ATOM     75  C   UNL A   1      36.202  33.356  32.233  1.00  0.00     0.031 A 
ATOM     76  C   UNL A   1      36.231  32.495  29.990  1.00  0.00     0.131 A 
ATOM     77  C   UNL A   1      35.052  34.113  31.889  1.00  0.00     0.055 A 
ATOM     78  C   UNL A   1      35.102  33.246  29.656  1.00  0.00     0.041 A 
ATOM     79  F   UNL A   1      36.783  31.805  28.980  1.00  0.00    -0.206 F 
ATOM     80  C   UNL A   1      34.513  34.067  30.601  1.00  0.00     0.022 A 
BRANCH  77  81
ATOM     81  S   UNL A   1      34.270  35.252  33.085  1.00  0.00     0.124 S 
ATOM     82  O   UNL A   1      34.686  34.692  34.366  1.00  0.00    -0.237 OA
ATOM     83  O   UNL A   1      34.848  36.541  32.721  1.00  0.00    -0.237 OA
ATOM     84  O   UNL A   1      32.840  35.123  32.798  1.00  0.00    -0.744 OA
ENDBRANCH  77  81
ENDBRANCH  50  74
BRANCH  62  85
ATOM     85  C   UNL A   1      42.422  31.059  33.805  1.00  0.00     0.023 A 
ATOM     86  C   UNL A   1      42.172  29.679  34.002  1.00  0.00     0.031 A 
ATOM     87  C   UNL A   1      42.627  31.845  34.953  1.00  0.00     0.131 A 
ATOM     88  C   UNL A   1      42.101  29.148  35.306  1.00  0.00     0.055 A 
ATOM     89  C   UNL A   1      42.585  31.312  36.241  1.00  0.00     0.041 A 
ATOM     90  F   UNL A   1      42.895  33.157  34.843  1.00  0.00    -0.206 F 
ATOM     91  C   UNL A   1      42.310  29.962  36.424  1.00  0.00     0.022 A 
BRANCH  88  92
ATOM     92  S   UNL A   1      41.687  27.394  35.582  1.00  0.00     0.124 S 
ATOM     93  O   UNL A   1      42.979  26.722  35.517  1.00  0.00    -0.237 OA
ATOM     94  O   UNL A   1      41.049  27.424  36.896  1.00  0.00    -0.237 OA
ATOM     95  O   UNL A   1      40.781  27.082  34.475  1.00  0.00    -0.744 OA
ENDBRANCH  88  92
ENDBRANCH  62  85
ENDBRANCH  36  37
ENDBRANCH  29  31
ENDBRANCH  28  29
ENDBRANCH  27  28
ENDBRANCH  26  27
ENDBRANCH   1  26
TORSDOF 23
ENDMDL
MODEL 3
REMARK VINA RESULT:      -9.7      2.140      2.449
REMARK SMILES CCOC(=O)[C@@H](/C=N/c1ccnn1C1CCCCC1)C(=O)OCCOCCOC(=O)c1ccc(-c2c3nc(c(-c4cc(S(=O)(=O)[O-])ccc4F)c4ccc([nH]4)c(-c4cc(S(=O)(=O)[O-])ccc4F)c4nc(c(-c5cc(S(=O)(=O)[O-])ccc5F)c5ccc2[nH]5)C=C4)C=C3)cc1
REMARK SMILES IDX 25 1 24 2 23 3 22 4 20 5 21 6 6 7 4 8 5 9 3 10 2 11 1 12
REMARK SMILES IDX 7 13 8 14 9 15 10 16 13 17 11 18 12 19 14 20 15 21 19 22
REMARK SMILES IDX 16 23 18 24 17 25 26 26 27 27 28 28 29 29 30 30 31 31 32 32
REMARK SMILES IDX 93 33 33 34 92 35 34 36 35 37 36 38 86 39 37 40 91 41 85 42
REMARK SMILES IDX 87 43 38 44 90 45 84 46 83 47 39 49 71 50 51 51 70 52 52 53
REMARK SMILES IDX 55 54 69 55 88 56 53 57 54 58 68 60 89 61 56 62 40 63 41 64
REMARK SMILES IDX 49 65 42 66 48 67 50 68 47 69 43 70 44 71 45 72 46 73 72 74
REMARK SMILES IDX 73 75 81 76 74 77 80 78 82 79 79 80 75 81 76 82 77 83 78 84
REMARK SMILES IDX 57 85 58 86 66 87 59 88 65 89 67 90 64 91 60 92 61 93 62 94
REMARK SMILES IDX 63 95
REMARK H PARENT 87 48 55 59
REMARK Flexibility Score: inf
ROOT
ATOM      1  O   UNL A   1      34.394  31.838  27.257  1.00  0.00    -0.374 OA
ENDROOT
BRANCH   1   2
ATOM      2  C   UNL A   1      33.786  30.552  27.335  1.00  0.00     0.202 C 
BRANCH   2   3
ATOM      3  C   UNL A   1      34.650  29.331  27.036  1.00  0.00     0.261 C 
BRANCH   3   4
ATOM      4  O   UNL A   1      33.904  28.205  26.549  1.00  0.00    -0.462 OA
BRANCH   4   5
ATOM      5  C   UNL A   1      33.399  28.343  25.292  1.00  0.00     0.325 C 
ATOM      6  O   UNL A   1      34.031  28.747  24.320  1.00  0.00    -0.251 OA
BRANCH   5   7
ATOM      7  C   UNL A   1      31.938  28.021  25.216  1.00  0.00     0.250 C 
BRANCH   7   8
ATOM      8  C   UNL A   1      31.087  29.181  24.821  1.00  0.00     0.325 C 
ATOM      9  O   UNL A   1      31.311  30.324  25.201  1.00  0.00    -0.251 OA
BRANCH   8  10
ATOM     10  O   UNL A   1      30.050  28.815  24.024  1.00  0.00    -0.465 OA
BRANCH  10  11
ATOM     11  C   UNL A   1      29.480  29.849  23.207  1.00  0.00     0.229 C 
ATOM     12  C   UNL A   1      30.144  29.855  21.849  1.00  0.00     0.049 C 
ENDBRANCH  10  11
ENDBRANCH   8  10
ENDBRANCH   7   8
BRANCH   7  13
ATOM     13  C   UNL A   1      31.708  26.766  24.431  1.00  0.00     0.113 C 
ATOM     14  N   UNL A   1      32.216  25.670  24.876  1.00  0.00    -0.240 NA
BRANCH  14  15
ATOM     15  C   UNL A   1      31.919  24.505  24.275  1.00  0.00     0.150 A 
ATOM     16  C   UNL A   1      30.759  23.914  23.828  1.00  0.00     0.070 A 
ATOM     17  N   UNL A   1      32.937  23.640  23.915  1.00  0.00    -0.245 N 
ATOM     18  C   UNL A   1      31.168  22.716  23.222  1.00  0.00     0.137 A 
ATOM     19  N   UNL A   1      32.488  22.526  23.289  1.00  0.00    -0.179 NA
BRANCH  17  20
ATOM     20  C   UNL A   1      34.373  23.801  24.164  1.00  0.00     0.110 C 
ATOM     21  C   UNL A   1      34.765  23.500  25.622  1.00  0.00     0.027 C 
ATOM     22  C   UNL A   1      35.230  23.002  23.166  1.00  0.00     0.027 C 
ATOM     23  C   UNL A   1      36.267  23.659  25.862  1.00  0.00     0.002 C 
ATOM     24  C   UNL A   1      36.725  23.184  23.425  1.00  0.00     0.002 C 
ATOM     25  C   UNL A   1      37.099  22.856  24.866  1.00  0.00     0.000 C 
ENDBRANCH  17  20
ENDBRANCH  14  15
ENDBRANCH   7  13
ENDBRANCH   5   7
ENDBRANCH   4   5
ENDBRANCH   3   4
ENDBRANCH   2   3
ENDBRANCH   1   2
BRANCH   1  26
ATOM     26  C   UNL A   1      33.967  32.884  28.124  1.00  0.00     0.202 C 
BRANCH  26  27
ATOM     27  C   UNL A   1      34.580  32.983  29.511  1.00  0.00     0.261 C 
BRANCH  27  28
ATOM     28  O   UNL A   1      35.645  32.065  29.709  1.00  0.00    -0.460 OA
BRANCH  28  29
ATOM     29  C   UNL A   1      36.793  32.644  30.148  1.00  0.00     0.338 C 
ATOM     30  O   UNL A   1      36.905  33.724  30.689  1.00  0.00    -0.246 OA
BRANCH  29  31
ATOM     31  C   UNL A   1      37.922  31.816  29.709  1.00  0.00     0.060 A 
ATOM     32  C   UNL A   1      37.646  30.498  29.365  1.00  0.00     0.016 A 
ATOM     33  C   UNL A   1      39.232  32.258  29.935  1.00  0.00     0.016 A 
ATOM     34  C   UNL A   1      38.665  29.578  29.481  1.00  0.00     0.010 A 
ATOM     35  C   UNL A   1      40.248  31.345  30.056  1.00  0.00     0.010 A 
ATOM     36  C   UNL A   1      39.927  30.004  29.924  1.00  0.00    -0.014 A 
BRANCH  36  37
ATOM     37  C   UNL A   1      40.969  29.016  30.087  1.00  0.00     0.031 A 
ATOM     38  C   UNL A   1      41.152  28.670  31.507  1.00  0.00     0.074 A 
ATOM     39  C   UNL A   1      41.639  28.436  29.072  1.00  0.00     0.049 A 
ATOM     40  N   UNL A   1      42.068  29.133  32.287  1.00  0.00    -0.248 NA
ATOM     41  C   UNL A   1      40.060  27.976  32.209  1.00  0.00     0.031 C 
ATOM     42  C   UNL A   1      41.399  28.538  27.633  1.00  0.00     0.029 A 
ATOM     43  N   UNL A   1      42.671  27.553  29.142  1.00  0.00    -0.354 N 
ATOM     44  C   UNL A   1      41.834  28.539  33.514  1.00  0.00     0.074 A 
ATOM     45  C   UNL A   1      40.473  28.079  33.474  1.00  0.00     0.031 C 
ATOM     46  C   UNL A   1      42.116  27.584  26.990  1.00  0.00     0.029 A 
ATOM     47  C   UNL A   1      42.958  26.887  27.952  1.00  0.00     0.049 A 
ATOM     48  H   UNL A   1      43.179  27.397  29.970  1.00  0.00     0.167 HD
ATOM     49  C   UNL A   1      42.882  28.200  34.312  1.00  0.00     0.034 A 
ATOM     50  C   UNL A   1      43.790  25.817  27.797  1.00  0.00     0.034 A 
ATOM     51  C   UNL A   1      44.084  28.904  33.906  1.00  0.00     0.049 A 
ATOM     52  C   UNL A   1      44.747  25.857  28.937  1.00  0.00     0.074 A 
ATOM     53  C   UNL A   1      44.410  30.239  33.742  1.00  0.00     0.029 A 
ATOM     54  N   UNL A   1      45.035  28.206  33.190  1.00  0.00    -0.354 N 
ATOM     55  N   UNL A   1      45.632  26.807  29.081  1.00  0.00    -0.248 NA
ATOM     56  C   UNL A   1      44.375  25.178  30.171  1.00  0.00     0.031 C 
ATOM     57  C   UNL A   1      45.195  30.285  32.551  1.00  0.00     0.029 A 
ATOM     58  C   UNL A   1      45.400  28.977  32.108  1.00  0.00     0.049 A 
ATOM     59  H   UNL A   1      45.391  27.316  33.412  1.00  0.00     0.167 HD
ATOM     60  C   UNL A   1      45.573  27.155  30.422  1.00  0.00     0.074 A 
ATOM     61  C   UNL A   1      44.848  26.056  31.063  1.00  0.00     0.031 C 
ATOM     62  C   UNL A   1      45.845  28.430  30.837  1.00  0.00     0.034 A 
BRANCH  49  63
ATOM     63  C   UNL A   1      42.920  26.940  35.145  1.00  0.00     0.023 A 
ATOM     64  C   UNL A   1      43.702  25.885  34.646  1.00  0.00     0.031 A 
ATOM     65  C   UNL A   1      42.033  26.605  36.196  1.00  0.00     0.131 A 
ATOM     66  C   UNL A   1      43.493  24.567  35.082  1.00  0.00     0.055 A 
ATOM     67  C   UNL A   1      41.881  25.302  36.676  1.00  0.00     0.041 A 
ATOM     68  F   UNL A   1      41.196  27.480  36.761  1.00  0.00    -0.206 F 
ATOM     69  C   UNL A   1      42.585  24.267  36.092  1.00  0.00     0.022 A 
BRANCH  66  70
ATOM     70  S   UNL A   1      44.295  23.235  34.161  1.00  0.00     0.124 S 
ATOM     71  O   UNL A   1      45.535  23.880  33.744  1.00  0.00    -0.237 OA
ATOM     72  O   UNL A   1      44.417  22.200  35.182  1.00  0.00    -0.237 OA
ATOM     73  O   UNL A   1      43.345  22.947  33.089  1.00  0.00    -0.744 OA
ENDBRANCH  66  70
ENDBRANCH  49  63
BRANCH  50  74
ATOM     74  C   UNL A   1      43.555  24.597  26.962  1.00  0.00     0.023 A 
ATOM     75  C   UNL A   1      42.601  23.599  27.286  1.00  0.00     0.031 A 
ATOM     76  C   UNL A   1      44.111  24.530  25.665  1.00  0.00     0.131 A 
ATOM     77  C   UNL A   1      42.248  22.607  26.333  1.00  0.00     0.055 A 
ATOM     78  C   UNL A   1      43.755  23.555  24.731  1.00  0.00     0.041 A 
ATOM     79  F   UNL A   1      44.959  25.470  25.221  1.00  0.00    -0.206 F 
ATOM     80  C   UNL A   1      42.814  22.595  25.057  1.00  0.00     0.022 A 
BRANCH  77  81
ATOM     81  S   UNL A   1      40.971  21.351  26.698  1.00  0.00     0.124 S 
ATOM     82  O   UNL A   1      39.813  21.865  25.977  1.00  0.00    -0.237 OA
ATOM     83  O   UNL A   1      41.572  20.128  26.178  1.00  0.00    -0.237 OA
ATOM     84  O   UNL A   1      40.852  21.397  28.157  1.00  0.00    -0.744 OA
ENDBRANCH  77  81
ENDBRANCH  50  74
BRANCH  62  85
ATOM     85  C   UNL A   1      46.488  29.388  29.846  1.00  0.00     0.023 A 
ATOM     86  C   UNL A   1      45.809  30.063  28.802  1.00  0.00     0.031 A 
ATOM     87  C   UNL A   1      47.851  29.687  30.023  1.00  0.00     0.131 A 
ATOM     88  C   UNL A   1      46.502  30.965  27.968  1.00  0.00     0.055 A 
ATOM     89  C   UNL A   1      48.527  30.600  29.215  1.00  0.00     0.041 A 
ATOM     90  F   UNL A   1      48.554  29.105  31.009  1.00  0.00    -0.206 F 
ATOM     91  C   UNL A   1      47.858  31.235  28.176  1.00  0.00     0.022 A 
BRANCH  88  92
ATOM     92  S   UNL A   1      45.668  31.771  26.562  1.00  0.00     0.124 S 
ATOM     93  O   UNL A   1      44.254  31.686  26.907  1.00  0.00    -0.237 OA
ATOM     94  O   UNL A   1      46.249  33.111  26.576  1.00  0.00    -0.237 OA
ATOM     95  O   UNL A   1      46.064  30.950  25.416  1.00  0.00    -0.744 OA
ENDBRANCH  88  92
ENDBRANCH  62  85
ENDBRANCH  36  37
ENDBRANCH  29  31
ENDBRANCH  28  29
ENDBRANCH  27  28
ENDBRANCH  26  27
ENDBRANCH   1  26
TORSDOF 23
ENDMDL
