MODEL 1
REMARK VINA RESULT:     -11.3      0.000      0.000
REMARK SMILES CC1(C)C(C(=O)N2CCOC[C@H]2C(=O)OCCOCCOC(=O)c2ccc(-c3c4nc(c(-c5cc(S(=O)(=O)[O-])ccc5F)c5ccc([nH]5)c(-c5cc(S(=O)(=O)[O-])ccc5F)c5nc(c(-c6cc(S(=O)(=O)[O-])ccc6F)c6ccc3[nH]6)C=C5)C=C4)cc2)C1(C)C
REMARK SMILES IDX 19 1 18 2 17 3 16 4 15 5 13 6 14 7 12 8 7 9 8 10 9 11 11 12
REMARK SMILES IDX 10 13 5 14 6 15 4 16 1 17 2 18 3 19 87 20 88 21 89 22 20 23
REMARK SMILES IDX 21 24 22 25 23 26 24 27 25 28 86 29 26 30 85 31 27 32 28 33
REMARK SMILES IDX 29 34 79 35 30 36 84 37 78 38 80 39 31 40 83 41 77 42 76 43
REMARK SMILES IDX 32 45 64 46 44 47 63 48 45 49 48 50 62 51 81 52 46 53 47 54
REMARK SMILES IDX 61 56 82 57 49 58 33 59 34 60 42 61 35 62 41 63 43 64 40 65
REMARK SMILES IDX 36 66 37 67 38 68 39 69 65 70 66 71 74 72 67 73 73 74 75 75
REMARK SMILES IDX 72 76 68 77 69 78 70 79 71 80 50 81 51 82 59 83 52 84 58 85
REMARK SMILES IDX 60 86 57 87 53 88 54 89 55 90 56 91
REMARK H PARENT 80 44 48 55
REMARK Flexibility Score: inf
ROOT
ATOM      1  C   UNL A   1      31.648  29.241  25.152  1.00  0.00     0.202 C 
ENDROOT
BRANCH   1   2
ATOM      2  O   UNL A   1      32.931  28.810  24.697  1.00  0.00    -0.374 OA
BRANCH   2   3
ATOM      3  C   UNL A   1      33.299  29.124  23.354  1.00  0.00     0.202 C 
BRANCH   3   4
ATOM      4  C   UNL A   1      33.748  27.946  22.492  1.00  0.00     0.261 C 
BRANCH   4   5
ATOM      5  O   UNL A   1      32.658  27.038  22.263  1.00  0.00    -0.462 OA
BRANCH   5   6
ATOM      6  C   UNL A   1      32.978  25.852  21.684  1.00  0.00     0.331 C 
ATOM      7  O   UNL A   1      33.278  25.715  20.500  1.00  0.00    -0.250 OA
BRANCH   6   8
ATOM      8  C   UNL A   1      32.767  24.650  22.613  1.00  0.00     0.221 C 
ATOM      9  N   UNL A   1      33.681  24.378  23.756  1.00  0.00    -0.324 N 
ATOM     10  C   UNL A   1      33.568  25.300  24.877  1.00  0.00     0.149 C 
ATOM     11  C   UNL A   1      32.100  25.499  25.283  1.00  0.00     0.181 C 
ATOM     12  C   UNL A   1      31.337  24.785  23.150  1.00  0.00     0.197 C 
ATOM     13  O   UNL A   1      31.260  25.805  24.160  1.00  0.00    -0.377 OA
BRANCH   9  14
ATOM     14  C   UNL A   1      34.493  23.261  23.664  1.00  0.00     0.227 C 
ATOM     15  O   UNL A   1      35.518  23.298  22.983  1.00  0.00    -0.275 OA
BRANCH  14  16
ATOM     16  C   UNL A   1      34.189  21.927  24.284  1.00  0.00     0.091 C 
ATOM     17  C   UNL A   1      34.080  19.456  25.022  1.00  0.00     0.012 C 
ATOM     18  C   UNL A   1      34.890  20.753  24.971  1.00  0.00    -0.017 C 
ATOM     19  C   UNL A   1      36.357  20.422  24.928  1.00  0.00     0.012 C 
ATOM     20  C   UNL A   1      34.416  21.925  25.825  1.00  0.00    -0.017 C 
ATOM     21  C   UNL A   1      33.235  21.749  26.751  1.00  0.00     0.012 C 
ATOM     22  C   UNL A   1      35.422  22.904  26.409  1.00  0.00     0.012 C 
ENDBRANCH  14  16
ENDBRANCH   9  14
ENDBRANCH   6   8
ENDBRANCH   5   6
ENDBRANCH   4   5
ENDBRANCH   3   4
ENDBRANCH   2   3
ENDBRANCH   1   2
BRANCH   1  23
ATOM     23  C   UNL A   1      31.603  30.519  26.000  1.00  0.00     0.261 C 
BRANCH  23  24
ATOM     24  O   UNL A   1      32.487  30.493  27.135  1.00  0.00    -0.460 OA
BRANCH  24  25
ATOM     25  C   UNL A   1      33.221  31.624  27.292  1.00  0.00     0.338 C 
ATOM     26  O   UNL A   1      32.799  32.776  27.275  1.00  0.00    -0.246 OA
BRANCH  25  27
ATOM     27  C   UNL A   1      34.615  31.313  27.659  1.00  0.00     0.060 A 
ATOM     28  C   UNL A   1      34.955  29.960  27.785  1.00  0.00     0.016 A 
ATOM     29  C   UNL A   1      35.544  32.306  27.981  1.00  0.00     0.016 A 
ATOM     30  C   UNL A   1      36.198  29.596  28.293  1.00  0.00     0.010 A 
ATOM     31  C   UNL A   1      36.797  31.935  28.494  1.00  0.00     0.010 A 
ATOM     32  C   UNL A   1      37.113  30.579  28.693  1.00  0.00    -0.014 A 
BRANCH  32  33
ATOM     33  C   UNL A   1      38.328  30.155  29.440  1.00  0.00     0.031 A 
ATOM     34  C   UNL A   1      38.507  30.597  30.870  1.00  0.00     0.074 A 
ATOM     35  C   UNL A   1      39.217  29.315  28.875  1.00  0.00     0.049 A 
ATOM     36  N   UNL A   1      39.432  30.262  31.732  1.00  0.00    -0.248 NA
ATOM     37  C   UNL A   1      37.510  31.540  31.398  1.00  0.00     0.031 C 
ATOM     38  C   UNL A   1      39.142  28.807  27.504  1.00  0.00     0.029 A 
ATOM     39  N   UNL A   1      40.349  28.731  29.385  1.00  0.00    -0.354 N 
ATOM     40  C   UNL A   1      39.134  30.954  32.902  1.00  0.00     0.074 A 
ATOM     41  C   UNL A   1      37.960  31.755  32.626  1.00  0.00     0.031 C 
ATOM     42  C   UNL A   1      40.180  27.982  27.287  1.00  0.00     0.029 A 
ATOM     43  C   UNL A   1      41.006  27.918  28.490  1.00  0.00     0.049 A 
ATOM     44  H   UNL A   1      40.662  28.879  30.308  1.00  0.00     0.167 HD
ATOM     45  C   UNL A   1      39.775  30.917  34.097  1.00  0.00     0.034 A 
ATOM     46  C   UNL A   1      42.145  27.207  28.626  1.00  0.00     0.034 A 
ATOM     47  C   UNL A   1      40.938  30.106  34.362  1.00  0.00     0.049 A 
ATOM     48  C   UNL A   1      42.850  27.207  29.962  1.00  0.00     0.074 A 
ATOM     49  C   UNL A   1      41.627  29.956  35.554  1.00  0.00     0.029 A 
ATOM     50  N   UNL A   1      41.594  29.321  33.425  1.00  0.00    -0.354 N 
ATOM     51  N   UNL A   1      42.517  27.818  31.076  1.00  0.00    -0.248 NA
ATOM     52  C   UNL A   1      44.073  26.399  30.063  1.00  0.00     0.031 C 
ATOM     53  C   UNL A   1      42.741  29.141  35.318  1.00  0.00     0.029 A 
ATOM     54  C   UNL A   1      42.703  28.717  33.999  1.00  0.00     0.049 A 
ATOM     55  H   UNL A   1      41.313  29.208  32.487  1.00  0.00     0.167 HD
ATOM     56  C   UNL A   1      43.475  27.443  32.015  1.00  0.00     0.074 A 
ATOM     57  C   UNL A   1      44.376  26.530  31.345  1.00  0.00     0.031 C 
ATOM     58  C   UNL A   1      43.604  27.820  33.315  1.00  0.00     0.034 A 
BRANCH  45  59
ATOM     59  C   UNL A   1      39.264  31.817  35.196  1.00  0.00     0.023 A 
ATOM     60  C   UNL A   1      39.738  33.129  35.373  1.00  0.00     0.031 A 
ATOM     61  C   UNL A   1      38.270  31.352  36.077  1.00  0.00     0.131 A 
ATOM     62  C   UNL A   1      39.253  33.911  36.432  1.00  0.00     0.055 A 
ATOM     63  C   UNL A   1      37.744  32.158  37.087  1.00  0.00     0.041 A 
ATOM     64  F   UNL A   1      37.796  30.100  35.970  1.00  0.00    -0.206 F 
ATOM     65  C   UNL A   1      38.242  33.443  37.275  1.00  0.00     0.022 A 
BRANCH  62  66
ATOM     66  S   UNL A   1      40.032  35.517  36.762  1.00  0.00     0.124 S 
ATOM     67  O   UNL A   1      41.440  35.143  36.877  1.00  0.00    -0.237 OA
ATOM     68  O   UNL A   1      39.671  36.291  35.581  1.00  0.00    -0.237 OA
ATOM     69  O   UNL A   1      39.406  35.952  38.009  1.00  0.00    -0.744 OA
ENDBRANCH  62  66
ENDBRANCH  45  59
BRANCH  46  70
ATOM     70  C   UNL A   1      42.721  26.459  27.469  1.00  0.00     0.023 A 
ATOM     71  C   UNL A   1      42.370  25.124  27.212  1.00  0.00     0.031 A 
ATOM     72  C   UNL A   1      43.706  27.048  26.655  1.00  0.00     0.131 A 
ATOM     73  C   UNL A   1      43.046  24.401  26.216  1.00  0.00     0.055 A 
ATOM     74  C   UNL A   1      44.332  26.343  25.625  1.00  0.00     0.041 A 
ATOM     75  F   UNL A   1      44.082  28.321  26.856  1.00  0.00    -0.206 F 
ATOM     76  C   UNL A   1      44.016  25.005  25.413  1.00  0.00     0.022 A 
BRANCH  73  77
ATOM     77  S   UNL A   1      42.726  22.621  26.066  1.00  0.00     0.124 S 
ATOM     78  O   UNL A   1      41.316  22.541  26.428  1.00  0.00    -0.237 OA
ATOM     79  O   UNL A   1      43.044  22.376  24.664  1.00  0.00    -0.237 OA
ATOM     80  O   UNL A   1      43.653  22.027  27.028  1.00  0.00    -0.744 OA
ENDBRANCH  73  77
ENDBRANCH  46  70
BRANCH  58  81
ATOM     81  C   UNL A   1      44.747  27.208  34.092  1.00  0.00     0.023 A 
ATOM     82  C   UNL A   1      44.601  25.990  34.780  1.00  0.00     0.031 A 
ATOM     83  C   UNL A   1      45.982  27.874  34.186  1.00  0.00     0.131 A 
ATOM     84  C   UNL A   1      45.638  25.519  35.598  1.00  0.00     0.055 A 
ATOM     85  C   UNL A   1      47.036  27.363  34.945  1.00  0.00     0.041 A 
ATOM     86  F   UNL A   1      46.181  29.040  33.552  1.00  0.00    -0.206 F 
ATOM     87  C   UNL A   1      46.861  26.189  35.672  1.00  0.00     0.022 A 
BRANCH  84  88
ATOM     88  S   UNL A   1      45.319  24.090  36.668  1.00  0.00     0.124 S 
ATOM     89  O   UNL A   1      46.670  23.619  36.959  1.00  0.00    -0.237 OA
ATOM     90  O   UNL A   1      44.600  24.694  37.786  1.00  0.00    -0.237 OA
ATOM     91  O   UNL A   1      44.521  23.202  35.826  1.00  0.00    -0.744 OA
ENDBRANCH  84  88
ENDBRANCH  58  81
ENDBRANCH  32  33
ENDBRANCH  25  27
ENDBRANCH  24  25
ENDBRANCH  23  24
ENDBRANCH   1  23
TORSDOF 19
ENDMDL
MODEL 2
REMARK VINA RESULT:     -11.3      4.335      9.879
REMARK SMILES CC1(C)C(C(=O)N2CCOC[C@H]2C(=O)OCCOCCOC(=O)c2ccc(-c3c4nc(c(-c5cc(S(=O)(=O)[O-])ccc5F)c5ccc([nH]5)c(-c5cc(S(=O)(=O)[O-])ccc5F)c5nc(c(-c6cc(S(=O)(=O)[O-])ccc6F)c6ccc3[nH]6)C=C5)C=C4)cc2)C1(C)C
REMARK SMILES IDX 19 1 18 2 17 3 16 4 15 5 13 6 14 7 12 8 7 9 8 10 9 11 11 12
REMARK SMILES IDX 10 13 5 14 6 15 4 16 1 17 2 18 3 19 87 20 88 21 89 22 20 23
REMARK SMILES IDX 21 24 22 25 23 26 24 27 25 28 86 29 26 30 85 31 27 32 28 33
REMARK SMILES IDX 29 34 79 35 30 36 84 37 78 38 80 39 31 40 83 41 77 42 76 43
REMARK SMILES IDX 32 45 64 46 44 47 63 48 45 49 48 50 62 51 81 52 46 53 47 54
REMARK SMILES IDX 61 56 82 57 49 58 33 59 34 60 42 61 35 62 41 63 43 64 40 65
REMARK SMILES IDX 36 66 37 67 38 68 39 69 65 70 66 71 74 72 67 73 73 74 75 75
REMARK SMILES IDX 72 76 68 77 69 78 70 79 71 80 50 81 51 82 59 83 52 84 58 85
REMARK SMILES IDX 60 86 57 87 53 88 54 89 55 90 56 91
REMARK H PARENT 80 44 48 55
REMARK Flexibility Score: inf
ROOT
ATOM      1  C   UNL A   1      35.433  21.203  25.202  1.00  0.00     0.202 C 
ENDROOT
BRANCH   1   2
ATOM      2  O   UNL A   1      34.892  21.196  26.523  1.00  0.00    -0.374 OA
BRANCH   2   3
ATOM      3  C   UNL A   1      34.259  22.388  26.989  1.00  0.00     0.202 C 
BRANCH   3   4
ATOM      4  C   UNL A   1      32.973  22.193  27.789  1.00  0.00     0.261 C 
BRANCH   4   5
ATOM      5  O   UNL A   1      31.977  23.149  27.392  1.00  0.00    -0.462 OA
BRANCH   5   6
ATOM      6  C   UNL A   1      31.348  22.905  26.214  1.00  0.00     0.331 C 
ATOM      7  O   UNL A   1      31.135  21.784  25.758  1.00  0.00    -0.250 OA
BRANCH   6   8
ATOM      8  C   UNL A   1      31.067  24.177  25.404  1.00  0.00     0.221 C 
ATOM      9  N   UNL A   1      32.050  25.293  25.338  1.00  0.00    -0.324 N 
ATOM     10  C   UNL A   1      33.247  25.024  24.554  1.00  0.00     0.149 C 
ATOM     11  C   UNL A   1      32.889  24.425  23.186  1.00  0.00     0.181 C 
ATOM     12  C   UNL A   1      30.768  23.703  23.976  1.00  0.00     0.197 C 
ATOM     13  O   UNL A   1      31.975  23.322  23.295  1.00  0.00    -0.377 OA
BRANCH   9  14
ATOM     14  C   UNL A   1      31.706  26.475  25.971  1.00  0.00     0.227 C 
ATOM     15  O   UNL A   1      31.443  26.475  27.173  1.00  0.00    -0.275 OA
BRANCH  14  16
ATOM     16  C   UNL A   1      31.547  27.801  25.284  1.00  0.00     0.091 C 
ATOM     17  C   UNL A   1      30.984  30.213  24.559  1.00  0.00     0.012 C 
ATOM     18  C   UNL A   1      31.709  29.299  25.549  1.00  0.00    -0.017 C 
ATOM     19  C   UNL A   1      31.788  29.980  26.887  1.00  0.00     0.012 C 
ATOM     20  C   UNL A   1      32.913  28.511  25.042  1.00  0.00    -0.017 C 
ATOM     21  C   UNL A   1      33.404  28.717  23.628  1.00  0.00     0.012 C 
ATOM     22  C   UNL A   1      34.069  28.191  25.977  1.00  0.00     0.012 C 
ENDBRANCH  14  16
ENDBRANCH   9  14
ENDBRANCH   6   8
ENDBRANCH   5   6
ENDBRANCH   4   5
ENDBRANCH   3   4
ENDBRANCH   2   3
ENDBRANCH   1   2
BRANCH   1  23
ATOM     23  C   UNL A   1      36.797  20.527  25.004  1.00  0.00     0.261 C 
BRANCH  23  24
ATOM     24  O   UNL A   1      37.898  21.452  24.943  1.00  0.00    -0.460 OA
BRANCH  24  25
ATOM     25  C   UNL A   1      38.928  21.143  25.770  1.00  0.00     0.338 C 
ATOM     26  O   UNL A   1      39.520  20.070  25.829  1.00  0.00    -0.246 OA
BRANCH  25  27
ATOM     27  C   UNL A   1      39.391  22.327  26.516  1.00  0.00     0.060 A 
ATOM     28  C   UNL A   1      38.813  23.558  26.183  1.00  0.00     0.016 A 
ATOM     29  C   UNL A   1      40.438  22.268  27.440  1.00  0.00     0.016 A 
ATOM     30  C   UNL A   1      39.319  24.738  26.720  1.00  0.00     0.010 A 
ATOM     31  C   UNL A   1      40.947  23.459  27.980  1.00  0.00     0.010 A 
ATOM     32  C   UNL A   1      40.418  24.703  27.589  1.00  0.00    -0.014 A 
BRANCH  32  33
ATOM     33  C   UNL A   1      41.072  25.988  27.957  1.00  0.00     0.031 A 
ATOM     34  C   UNL A   1      42.470  26.271  27.471  1.00  0.00     0.074 A 
ATOM     35  C   UNL A   1      40.392  26.926  28.645  1.00  0.00     0.049 A 
ATOM     36  N   UNL A   1      43.184  27.361  27.587  1.00  0.00    -0.248 NA
ATOM     37  C   UNL A   1      43.153  25.181  26.757  1.00  0.00     0.031 C 
ATOM     38  C   UNL A   1      39.028  26.773  29.155  1.00  0.00     0.029 A 
ATOM     39  N   UNL A   1      40.749  28.196  29.022  1.00  0.00    -0.354 N 
ATOM     40  C   UNL A   1      44.400  27.089  26.967  1.00  0.00     0.074 A 
ATOM     41  C   UNL A   1      44.338  25.719  26.506  1.00  0.00     0.031 C 
ATOM     42  C   UNL A   1      38.663  27.909  29.772  1.00  0.00     0.029 A 
ATOM     43  C   UNL A   1      39.769  28.862  29.723  1.00  0.00     0.049 A 
ATOM     44  H   UNL A   1      41.624  28.594  28.811  1.00  0.00     0.167 HD
ATOM     45  C   UNL A   1      45.465  27.910  26.791  1.00  0.00     0.034 A 
ATOM     46  C   UNL A   1      39.768  30.098  30.266  1.00  0.00     0.034 A 
ATOM     47  C   UNL A   1      45.511  29.279  27.246  1.00  0.00     0.049 A 
ATOM     48  C   UNL A   1      40.979  30.980  30.074  1.00  0.00     0.074 A 
ATOM     49  C   UNL A   1      46.520  30.211  27.068  1.00  0.00     0.029 A 
ATOM     50  N   UNL A   1      44.515  29.910  27.978  1.00  0.00    -0.354 N 
ATOM     51  N   UNL A   1      42.096  30.727  29.430  1.00  0.00    -0.248 NA
ATOM     52  C   UNL A   1      40.918  32.324  30.665  1.00  0.00     0.031 C 
ATOM     53  C   UNL A   1      46.167  31.378  27.757  1.00  0.00     0.029 A 
ATOM     54  C   UNL A   1      44.903  31.204  28.297  1.00  0.00     0.049 A 
ATOM     55  H   UNL A   1      43.657  29.499  28.235  1.00  0.00     0.167 HD
ATOM     56  C   UNL A   1      42.855  31.893  29.515  1.00  0.00     0.074 A 
ATOM     57  C   UNL A   1      42.055  32.855  30.243  1.00  0.00     0.031 C 
ATOM     58  C   UNL A   1      44.102  32.148  29.039  1.00  0.00     0.034 A 
BRANCH  45  59
ATOM     59  C   UNL A   1      46.691  27.338  26.121  1.00  0.00     0.023 A 
ATOM     60  C   UNL A   1      47.722  26.718  26.848  1.00  0.00     0.031 A 
ATOM     61  C   UNL A   1      46.821  27.406  24.722  1.00  0.00     0.131 A 
ATOM     62  C   UNL A   1      48.856  26.232  26.178  1.00  0.00     0.055 A 
ATOM     63  C   UNL A   1      47.919  26.862  24.056  1.00  0.00     0.041 A 
ATOM     64  F   UNL A   1      45.877  28.007  23.978  1.00  0.00    -0.206 F 
ATOM     65  C   UNL A   1      48.950  26.278  24.785  1.00  0.00     0.022 A 
BRANCH  62  66
ATOM     66  S   UNL A   1      50.259  25.628  27.158  1.00  0.00     0.124 S 
ATOM     67  O   UNL A   1      49.750  24.348  27.644  1.00  0.00    -0.237 OA
ATOM     68  O   UNL A   1      51.328  25.558  26.168  1.00  0.00    -0.237 OA
ATOM     69  O   UNL A   1      50.428  26.655  28.184  1.00  0.00    -0.744 OA
ENDBRANCH  62  66
ENDBRANCH  45  59
BRANCH  46  70
ATOM     70  C   UNL A   1      38.605  30.578  31.070  1.00  0.00     0.023 A 
ATOM     71  C   UNL A   1      37.491  31.178  30.461  1.00  0.00     0.031 A 
ATOM     72  C   UNL A   1      38.636  30.524  32.476  1.00  0.00     0.131 A 
ATOM     73  C   UNL A   1      36.489  31.761  31.253  1.00  0.00     0.055 A 
ATOM     74  C   UNL A   1      37.607  31.050  33.258  1.00  0.00     0.041 A 
ATOM     75  F   UNL A   1      39.677  29.963  33.111  1.00  0.00    -0.206 F 
ATOM     76  C   UNL A   1      36.533  31.690  32.648  1.00  0.00     0.022 A 
BRANCH  73  77
ATOM     77  S   UNL A   1      35.185  32.723  30.436  1.00  0.00     0.124 S 
ATOM     78  O   UNL A   1      35.907  33.923  30.035  1.00  0.00    -0.237 OA
ATOM     79  O   UNL A   1      34.780  31.826  29.359  1.00  0.00    -0.237 OA
ATOM     80  O   UNL A   1      34.192  32.914  31.492  1.00  0.00    -0.744 OA
ENDBRANCH  73  77
ENDBRANCH  46  70
BRANCH  58  81
ATOM     81  C   UNL A   1      44.649  33.539  29.270  1.00  0.00     0.023 A 
ATOM     82  C   UNL A   1      45.395  33.855  30.419  1.00  0.00     0.031 A 
ATOM     83  C   UNL A   1      44.378  34.571  28.354  1.00  0.00     0.131 A 
ATOM     84  C   UNL A   1      45.772  35.183  30.664  1.00  0.00     0.055 A 
ATOM     85  C   UNL A   1      44.819  35.878  28.569  1.00  0.00     0.041 A 
ATOM     86  F   UNL A   1      43.670  34.330  27.240  1.00  0.00    -0.206 F 
ATOM     87  C   UNL A   1      45.503  36.195  29.740  1.00  0.00     0.022 A 
BRANCH  84  88
ATOM     88  S   UNL A   1      46.502  35.595  32.274  1.00  0.00     0.124 S 
ATOM     89  O   UNL A   1      45.486  35.106  33.202  1.00  0.00    -0.237 OA
ATOM     90  O   UNL A   1      47.754  34.846  32.248  1.00  0.00    -0.237 OA
ATOM     91  O   UNL A   1      46.647  37.048  32.223  1.00  0.00    -0.744 OA
ENDBRANCH  84  88
ENDBRANCH  58  81
ENDBRANCH  32  33
ENDBRANCH  25  27
ENDBRANCH  24  25
ENDBRANCH  23  24
ENDBRANCH   1  23
TORSDOF 19
ENDMDL
MODEL 3
REMARK VINA RESULT:     -11.1      4.525     10.100
REMARK SMILES CC1(C)C(C(=O)N2CCOC[C@H]2C(=O)OCCOCCOC(=O)c2ccc(-c3c4nc(c(-c5cc(S(=O)(=O)[O-])ccc5F)c5ccc([nH]5)c(-c5cc(S(=O)(=O)[O-])ccc5F)c5nc(c(-c6cc(S(=O)(=O)[O-])ccc6F)c6ccc3[nH]6)C=C5)C=C4)cc2)C1(C)C
REMARK SMILES IDX 19 1 18 2 17 3 16 4 15 5 13 6 14 7 12 8 7 9 8 10 9 11 11 12
REMARK SMILES IDX 10 13 5 14 6 15 4 16 1 17 2 18 3 19 87 20 88 21 89 22 20 23
REMARK SMILES IDX 21 24 22 25 23 26 24 27 25 28 86 29 26 30 85 31 27 32 28 33
REMARK SMILES IDX 29 34 79 35 30 36 84 37 78 38 80 39 31 40 83 41 77 42 76 43
REMARK SMILES IDX 32 45 64 46 44 47 63 48 45 49 48 50 62 51 81 52 46 53 47 54
REMARK SMILES IDX 61 56 82 57 49 58 33 59 34 60 42 61 35 62 41 63 43 64 40 65
REMARK SMILES IDX 36 66 37 67 38 68 39 69 65 70 66 71 74 72 67 73 73 74 75 75
REMARK SMILES IDX 72 76 68 77 69 78 70 79 71 80 50 81 51 82 59 83 52 84 58 85
REMARK SMILES IDX 60 86 57 87 53 88 54 89 55 90 56 91
REMARK H PARENT 80 44 48 55
REMARK Flexibility Score: inf
ROOT
ATOM      1  C   UNL A   1      35.986  21.025  24.872  1.00  0.00     0.202 C 
ENDROOT
BRANCH   1   2
ATOM      2  O   UNL A   1      35.313  21.441  26.060  1.00  0.00    -0.374 OA
BRANCH   2   3
ATOM      3  C   UNL A   1      33.895  21.283  26.110  1.00  0.00     0.202 C 
BRANCH   3   4
ATOM      4  C   UNL A   1      33.250  20.648  24.881  1.00  0.00     0.261 C 
BRANCH   4   5
ATOM      5  O   UNL A   1      32.534  21.632  24.116  1.00  0.00    -0.462 OA
BRANCH   5   6
ATOM      6  C   UNL A   1      31.819  22.541  24.829  1.00  0.00     0.331 C 
ATOM      7  O   UNL A   1      31.023  22.255  25.720  1.00  0.00    -0.250 OA
BRANCH   6   8
ATOM      8  C   UNL A   1      31.969  23.974  24.304  1.00  0.00     0.221 C 
ATOM      9  N   UNL A   1      32.060  25.138  25.228  1.00  0.00    -0.324 N 
ATOM     10  C   UNL A   1      33.308  25.248  25.971  1.00  0.00     0.149 C 
ATOM     11  C   UNL A   1      34.520  25.092  25.041  1.00  0.00     0.181 C 
ATOM     12  C   UNL A   1      33.215  23.961  23.410  1.00  0.00     0.197 C 
ATOM     13  O   UNL A   1      34.417  23.934  24.198  1.00  0.00    -0.377 OA
BRANCH   9  14
ATOM     14  C   UNL A   1      30.990  26.015  25.246  1.00  0.00     0.227 C 
ATOM     15  O   UNL A   1      29.838  25.582  25.208  1.00  0.00    -0.275 OA
BRANCH  14  16
ATOM     16  C   UNL A   1      31.108  27.512  25.233  1.00  0.00     0.091 C 
ATOM     17  C   UNL A   1      31.820  29.986  25.417  1.00  0.00     0.012 C 
ATOM     18  C   UNL A   1      32.053  28.621  24.765  1.00  0.00    -0.017 C 
ATOM     19  C   UNL A   1      33.507  28.484  24.407  1.00  0.00     0.012 C 
ATOM     20  C   UNL A   1      30.994  28.104  23.796  1.00  0.00    -0.017 C 
ATOM     21  C   UNL A   1      29.811  28.974  23.442  1.00  0.00     0.012 C 
ATOM     22  C   UNL A   1      31.395  27.228  22.620  1.00  0.00     0.012 C 
ENDBRANCH  14  16
ENDBRANCH   9  14
ENDBRANCH   6   8
ENDBRANCH   5   6
ENDBRANCH   4   5
ENDBRANCH   3   4
ENDBRANCH   2   3
ENDBRANCH   1   2
BRANCH   1  23
ATOM     23  C   UNL A   1      37.390  20.428  25.040  1.00  0.00     0.261 C 
BRANCH  23  24
ATOM     24  O   UNL A   1      38.436  21.415  25.103  1.00  0.00    -0.460 OA
BRANCH  24  25
ATOM     25  C   UNL A   1      39.391  21.152  26.029  1.00  0.00     0.338 C 
ATOM     26  O   UNL A   1      39.957  20.078  26.210  1.00  0.00    -0.246 OA
BRANCH  25  27
ATOM     27  C   UNL A   1      39.814  22.380  26.727  1.00  0.00     0.060 A 
ATOM     28  C   UNL A   1      39.214  23.580  26.328  1.00  0.00     0.016 A 
ATOM     29  C   UNL A   1      40.846  22.388  27.670  1.00  0.00     0.016 A 
ATOM     30  C   UNL A   1      39.685  24.795  26.818  1.00  0.00     0.010 A 
ATOM     31  C   UNL A   1      41.320  23.614  28.162  1.00  0.00     0.010 A 
ATOM     32  C   UNL A   1      40.769  24.826  27.705  1.00  0.00    -0.014 A 
BRANCH  32  33
ATOM     33  C   UNL A   1      41.388  26.141  28.023  1.00  0.00     0.031 A 
ATOM     34  C   UNL A   1      42.738  26.481  27.446  1.00  0.00     0.074 A 
ATOM     35  C   UNL A   1      40.712  27.054  28.749  1.00  0.00     0.049 A 
ATOM     36  N   UNL A   1      43.409  27.603  27.510  1.00  0.00    -0.248 NA
ATOM     37  C   UNL A   1      43.421  25.417  26.696  1.00  0.00     0.031 C 
ATOM     38  C   UNL A   1      39.392  26.846  29.346  1.00  0.00     0.029 A 
ATOM     39  N   UNL A   1      41.036  28.341  29.095  1.00  0.00    -0.354 N 
ATOM     40  C   UNL A   1      44.594  27.379  26.815  1.00  0.00     0.074 A 
ATOM     41  C   UNL A   1      44.563  26.004  26.367  1.00  0.00     0.031 C 
ATOM     42  C   UNL A   1      39.017  27.969  29.980  1.00  0.00     0.029 A 
ATOM     43  C   UNL A   1      40.075  28.970  29.854  1.00  0.00     0.049 A 
ATOM     44  H   UNL A   1      41.877  28.776  28.826  1.00  0.00     0.167 HD
ATOM     45  C   UNL A   1      45.607  28.246  26.566  1.00  0.00     0.034 A 
ATOM     46  C   UNL A   1      40.053  30.209  30.389  1.00  0.00     0.034 A 
ATOM     47  C   UNL A   1      45.621  29.619  27.010  1.00  0.00     0.049 A 
ATOM     48  C   UNL A   1      41.210  31.141  30.115  1.00  0.00     0.074 A 
ATOM     49  C   UNL A   1      46.574  30.593  26.763  1.00  0.00     0.029 A 
ATOM     50  N   UNL A   1      44.647  30.211  27.802  1.00  0.00    -0.354 N 
ATOM     51  N   UNL A   1      42.293  30.933  29.401  1.00  0.00    -0.248 NA
ATOM     52  C   UNL A   1      41.127  32.486  30.702  1.00  0.00     0.031 C 
ATOM     53  C   UNL A   1      46.215  31.748  27.466  1.00  0.00     0.029 A 
ATOM     54  C   UNL A   1      44.997  31.523  28.087  1.00  0.00     0.049 A 
ATOM     55  H   UNL A   1      43.827  29.765  28.116  1.00  0.00     0.167 HD
ATOM     56  C   UNL A   1      43.003  32.132  29.431  1.00  0.00     0.074 A 
ATOM     57  C   UNL A   1      42.209  33.063  30.205  1.00  0.00     0.031 C 
ATOM     58  C   UNL A   1      44.204  32.438  28.875  1.00  0.00     0.034 A 
BRANCH  45  59
ATOM     59  C   UNL A   1      46.812  27.722  25.822  1.00  0.00     0.023 A 
ATOM     60  C   UNL A   1      47.031  27.999  24.461  1.00  0.00     0.031 A 
ATOM     61  C   UNL A   1      47.767  26.939  26.496  1.00  0.00     0.131 A 
ATOM     62  C   UNL A   1      48.151  27.460  23.809  1.00  0.00     0.055 A 
ATOM     63  C   UNL A   1      48.912  26.461  25.859  1.00  0.00     0.041 A 
ATOM     64  F   UNL A   1      47.598  26.624  27.791  1.00  0.00    -0.206 F 
ATOM     65  C   UNL A   1      49.105  26.713  24.505  1.00  0.00     0.022 A 
BRANCH  62  66
ATOM     66  S   UNL A   1      48.296  27.659  22.011  1.00  0.00     0.124 S 
ATOM     67  O   UNL A   1      49.442  28.559  21.906  1.00  0.00    -0.237 OA
ATOM     68  O   UNL A   1      48.515  26.289  21.559  1.00  0.00    -0.237 OA
ATOM     69  O   UNL A   1      47.014  28.244  21.626  1.00  0.00    -0.744 OA
ENDBRANCH  62  66
ENDBRANCH  45  59
BRANCH  46  70
ATOM     70  C   UNL A   1      38.924  30.644  31.264  1.00  0.00     0.023 A 
ATOM     71  C   UNL A   1      37.889  31.457  30.775  1.00  0.00     0.031 A 
ATOM     72  C   UNL A   1      38.916  30.323  32.634  1.00  0.00     0.131 A 
ATOM     73  C   UNL A   1      36.931  31.978  31.658  1.00  0.00     0.055 A 
ATOM     74  C   UNL A   1      37.925  30.793  33.497  1.00  0.00     0.041 A 
ATOM     75  F   UNL A   1      39.881  29.550  33.157  1.00  0.00    -0.206 F 
ATOM     76  C   UNL A   1      36.934  31.642  33.014  1.00  0.00     0.022 A 
BRANCH  73  77
ATOM     77  S   UNL A   1      35.747  33.203  31.031  1.00  0.00     0.124 S 
ATOM     78  O   UNL A   1      36.261  33.455  29.691  1.00  0.00    -0.237 OA
ATOM     79  O   UNL A   1      34.487  32.471  31.110  1.00  0.00    -0.237 OA
ATOM     80  O   UNL A   1      35.880  34.315  31.971  1.00  0.00    -0.744 OA
ENDBRANCH  73  77
ENDBRANCH  46  70
BRANCH  58  81
ATOM     81  C   UNL A   1      44.702  33.853  29.062  1.00  0.00     0.023 A 
ATOM     82  C   UNL A   1      45.525  34.206  30.147  1.00  0.00     0.031 A 
ATOM     83  C   UNL A   1      44.310  34.869  28.174  1.00  0.00     0.131 A 
ATOM     84  C   UNL A   1      45.858  35.551  30.363  1.00  0.00     0.055 A 
ATOM     85  C   UNL A   1      44.706  36.196  28.355  1.00  0.00     0.041 A 
ATOM     86  F   UNL A   1      43.525  34.593  27.121  1.00  0.00    -0.206 F 
ATOM     87  C   UNL A   1      45.467  36.546  29.466  1.00  0.00     0.022 A 
BRANCH  84  88
ATOM     88  S   UNL A   1      46.697  35.999  31.909  1.00  0.00     0.124 S 
ATOM     89  O   UNL A   1      45.958  35.215  32.894  1.00  0.00    -0.237 OA
ATOM     90  O   UNL A   1      48.069  35.572  31.653  1.00  0.00    -0.237 OA
ATOM     91  O   UNL A   1      46.504  37.445  31.996  1.00  0.00    -0.744 OA
ENDBRANCH  84  88
ENDBRANCH  58  81
ENDBRANCH  32  33
ENDBRANCH  25  27
ENDBRANCH  24  25
ENDBRANCH  23  24
ENDBRANCH   1  23
TORSDOF 19
ENDMDL
