MODEL 1
REMARK VINA RESULT:     -11.6      0.000      0.000
REMARK SMILES COc1cc(-c2ccc(F)c(C(F)(F)F)c2)ccc1C(=O)OCCOCCOC(=O)c1ccc(-c2c3nc(c(-c4cc(S(=O)(=O)[O-])ccc4F)c4ccc([nH]4)c(-c4cc(S(=O)(=O)[O-])ccc4F)c4nc(c(-c5cc(S(=O)(=O)[O-])ccc5F)c5ccc2[nH]5)C=C4)C=C3)cc1
REMARK SMILES IDX 26 1 25 2 24 3 23 4 22 5 20 6 21 7 19 8 3 9 4 10 5 11 18 12
REMARK SMILES IDX 17 13 2 14 1 15 6 16 7 17 16 18 8 19 11 20 9 21 10 22 12 23
REMARK SMILES IDX 13 24 14 25 15 26 27 27 28 28 29 29 30 30 31 31 32 32 93 33
REMARK SMILES IDX 33 34 92 35 34 36 35 37 36 38 86 39 37 40 91 41 85 42 87 43
REMARK SMILES IDX 38 44 90 45 84 46 83 47 39 49 71 50 51 51 70 52 52 53 55 54
REMARK SMILES IDX 69 55 88 56 53 57 54 58 68 60 89 61 56 62 40 63 41 64 49 65
REMARK SMILES IDX 42 66 48 67 50 68 47 69 43 70 44 71 45 72 46 73 72 74 73 75
REMARK SMILES IDX 81 76 74 77 80 78 82 79 79 80 75 81 76 82 77 83 78 84 57 85
REMARK SMILES IDX 58 86 66 87 59 88 65 89 67 90 64 91 60 92 61 93 62 94 63 95
REMARK H PARENT 87 48 55 59
REMARK Flexibility Score: inf
ROOT
ATOM      1  C   UNL A   1      37.006  19.585  24.988  1.00  0.00     0.202 C 
ENDROOT
BRANCH   1   2
ATOM      2  O   UNL A   1      36.257  20.704  25.463  1.00  0.00    -0.374 OA
BRANCH   2   3
ATOM      3  C   UNL A   1      35.779  21.634  24.485  1.00  0.00     0.202 C 
BRANCH   3   4
ATOM      4  C   UNL A   1      34.277  21.552  24.213  1.00  0.00     0.261 C 
BRANCH   4   5
ATOM      5  O   UNL A   1      33.923  22.590  23.283  1.00  0.00    -0.460 OA
BRANCH   5   6
ATOM      6  C   UNL A   1      32.674  22.553  22.786  1.00  0.00     0.342 C 
ATOM      7  O   UNL A   1      32.072  21.561  22.399  1.00  0.00    -0.246 OA
BRANCH   6   8
ATOM      8  C   UNL A   1      32.013  23.858  23.005  1.00  0.00     0.102 A 
ATOM      9  C   UNL A   1      31.052  24.174  23.971  1.00  0.00     0.134 A 
ATOM     10  C   UNL A   1      30.621  25.514  24.055  1.00  0.00     0.056 A 
ATOM     11  C   UNL A   1      31.111  26.537  23.226  1.00  0.00    -0.015 A 
ATOM     12  C   UNL A   1      32.479  24.871  22.135  1.00  0.00     0.020 A 
ATOM     13  C   UNL A   1      32.032  26.191  22.238  1.00  0.00     0.010 A 
BRANCH   9  14
ATOM     14  O   UNL A   1      30.456  23.434  24.947  1.00  0.00    -0.496 OA
ATOM     15  C   UNL A   1      31.191  22.614  25.833  1.00  0.00     0.278 C 
ENDBRANCH   9  14
BRANCH  11  16
ATOM     16  C   UNL A   1      30.711  27.930  23.461  1.00  0.00    -0.017 A 
ATOM     17  C   UNL A   1      31.290  28.651  24.521  1.00  0.00     0.012 A 
ATOM     18  C   UNL A   1      29.742  28.569  22.669  1.00  0.00     0.025 A 
ATOM     19  C   UNL A   1      30.903  29.963  24.793  1.00  0.00     0.040 A 
ATOM     20  C   UNL A   1      29.342  29.890  22.942  1.00  0.00     0.092 A 
ATOM     21  C   UNL A   1      29.931  30.566  24.006  1.00  0.00     0.135 A 
ATOM     22  F   UNL A   1      29.561  31.822  24.292  1.00  0.00    -0.206 F 
BRANCH  20  23
ATOM     23  C   UNL A   1      28.285  30.586  22.140  1.00  0.00     0.419 C 
ATOM     24  F   UNL A   1      27.849  29.847  21.082  1.00  0.00    -0.166 F 
ATOM     25  F   UNL A   1      27.176  30.893  22.871  1.00  0.00    -0.166 F 
ATOM     26  F   UNL A   1      28.707  31.770  21.609  1.00  0.00    -0.166 F 
ENDBRANCH  20  23
ENDBRANCH  11  16
ENDBRANCH   6   8
ENDBRANCH   5   6
ENDBRANCH   4   5
ENDBRANCH   3   4
ENDBRANCH   2   3
ENDBRANCH   1   2
BRANCH   1  27
ATOM     27  C   UNL A   1      38.521  19.634  25.217  1.00  0.00     0.261 C 
BRANCH  27  28
ATOM     28  O   UNL A   1      38.979  20.921  25.670  1.00  0.00    -0.460 OA
BRANCH  28  29
ATOM     29  C   UNL A   1      40.037  20.877  26.516  1.00  0.00     0.338 C 
ATOM     30  O   UNL A   1      40.772  19.921  26.721  1.00  0.00    -0.246 OA
BRANCH  29  31
ATOM     31  C   UNL A   1      40.310  22.219  27.062  1.00  0.00     0.060 A 
ATOM     32  C   UNL A   1      39.622  23.301  26.497  1.00  0.00     0.016 A 
ATOM     33  C   UNL A   1      41.276  22.431  28.048  1.00  0.00     0.016 A 
ATOM     34  C   UNL A   1      39.932  24.603  26.884  1.00  0.00     0.010 A 
ATOM     35  C   UNL A   1      41.589  23.740  28.429  1.00  0.00     0.010 A 
ATOM     36  C   UNL A   1      40.941  24.834  27.827  1.00  0.00    -0.014 A 
BRANCH  36  37
ATOM     37  C   UNL A   1      41.410  26.221  28.077  1.00  0.00     0.031 A 
ATOM     38  C   UNL A   1      42.803  26.609  27.658  1.00  0.00     0.074 A 
ATOM     39  C   UNL A   1      40.597  27.128  28.648  1.00  0.00     0.049 A 
ATOM     40  N   UNL A   1      43.433  27.744  27.818  1.00  0.00    -0.248 NA
ATOM     41  C   UNL A   1      43.589  25.574  26.969  1.00  0.00     0.031 C 
ATOM     42  C   UNL A   1      39.215  26.882  29.056  1.00  0.00     0.029 A 
ATOM     43  N   UNL A   1      40.819  28.439  28.989  1.00  0.00    -0.354 N 
ATOM     44  C   UNL A   1      44.693  27.561  27.257  1.00  0.00     0.074 A 
ATOM     45  C   UNL A   1      44.746  26.192  26.786  1.00  0.00     0.031 C 
ATOM     46  C   UNL A   1      38.716  28.003  29.605  1.00  0.00     0.029 A 
ATOM     47  C   UNL A   1      39.753  29.032  29.623  1.00  0.00     0.049 A 
ATOM     48  H   UNL A   1      41.663  28.910  28.797  1.00  0.00     0.167 HD
ATOM     49  C   UNL A   1      45.707  28.454  27.140  1.00  0.00     0.034 A 
ATOM     50  C   UNL A   1      39.638  30.255  30.180  1.00  0.00     0.034 A 
ATOM     51  C   UNL A   1      45.641  29.812  27.623  1.00  0.00     0.049 A 
ATOM     52  C   UNL A   1      40.809  31.206  30.112  1.00  0.00     0.074 A 
ATOM     53  C   UNL A   1      46.600  30.806  27.535  1.00  0.00     0.029 A 
ATOM     54  N   UNL A   1      44.560  30.365  28.298  1.00  0.00    -0.354 N 
ATOM     55  N   UNL A   1      41.990  31.025  29.566  1.00  0.00    -0.248 NA
ATOM     56  C   UNL A   1      40.628  32.527  30.729  1.00  0.00     0.031 C 
ATOM     57  C   UNL A   1      46.130  31.932  28.220  1.00  0.00     0.029 A 
ATOM     58  C   UNL A   1      44.845  31.673  28.665  1.00  0.00     0.049 A 
ATOM     59  H   UNL A   1      43.715  29.898  28.489  1.00  0.00     0.167 HD
ATOM     60  C   UNL A   1      42.679  32.223  29.747  1.00  0.00     0.074 A 
ATOM     61  C   UNL A   1      41.778  33.119  30.440  1.00  0.00     0.031 C 
ATOM     62  C   UNL A   1      43.941  32.554  29.368  1.00  0.00     0.034 A 
BRANCH  49  63
ATOM     63  C   UNL A   1      46.993  27.967  26.515  1.00  0.00     0.023 A 
ATOM     64  C   UNL A   1      47.229  28.060  25.132  1.00  0.00     0.031 A 
ATOM     65  C   UNL A   1      47.990  27.379  27.315  1.00  0.00     0.131 A 
ATOM     66  C   UNL A   1      48.400  27.514  24.584  1.00  0.00     0.055 A 
ATOM     67  C   UNL A   1      49.186  26.907  26.773  1.00  0.00     0.041 A 
ATOM     68  F   UNL A   1      47.811  27.241  28.638  1.00  0.00    -0.206 F 
ATOM     69  C   UNL A   1      49.391  26.959  25.397  1.00  0.00     0.022 A 
BRANCH  66  70
ATOM     70  S   UNL A   1      48.546  27.410  22.779  1.00  0.00     0.124 S 
ATOM     71  O   UNL A   1      49.891  27.937  22.560  1.00  0.00    -0.237 OA
ATOM     72  O   UNL A   1      48.370  25.984  22.530  1.00  0.00    -0.237 OA
ATOM     73  O   UNL A   1      47.464  28.266  22.297  1.00  0.00    -0.744 OA
ENDBRANCH  66  70
ENDBRANCH  49  63
BRANCH  50  74
ATOM     74  C   UNL A   1      38.387  30.643  30.896  1.00  0.00     0.023 A 
ATOM     75  C   UNL A   1      37.375  31.371  30.252  1.00  0.00     0.031 A 
ATOM     76  C   UNL A   1      38.215  30.338  32.258  1.00  0.00     0.131 A 
ATOM     77  C   UNL A   1      36.258  31.809  30.981  1.00  0.00     0.055 A 
ATOM     78  C   UNL A   1      37.077  30.729  32.966  1.00  0.00     0.041 A 
ATOM     79  F   UNL A   1      39.153  29.645  32.924  1.00  0.00    -0.206 F 
ATOM     80  C   UNL A   1      36.096  31.481  32.329  1.00  0.00     0.022 A 
BRANCH  77  81
ATOM     81  S   UNL A   1      35.055  32.892  30.161  1.00  0.00     0.124 S 
ATOM     82  O   UNL A   1      34.403  31.967  29.241  1.00  0.00    -0.237 OA
ATOM     83  O   UNL A   1      34.249  33.355  31.286  1.00  0.00    -0.237 OA
ATOM     84  O   UNL A   1      35.891  33.914  29.534  1.00  0.00    -0.744 OA
ENDBRANCH  77  81
ENDBRANCH  50  74
BRANCH  62  85
ATOM     85  C   UNL A   1      44.399  33.964  29.655  1.00  0.00     0.023 A 
ATOM     86  C   UNL A   1      44.108  35.032  28.788  1.00  0.00     0.031 A 
ATOM     87  C   UNL A   1      45.148  34.240  30.814  1.00  0.00     0.131 A 
ATOM     88  C   UNL A   1      44.607  36.313  29.065  1.00  0.00     0.055 A 
ATOM     89  C   UNL A   1      45.589  35.529  31.116  1.00  0.00     0.041 A 
ATOM     90  F   UNL A   1      45.458  33.260  31.677  1.00  0.00    -0.206 F 
ATOM     91  C   UNL A   1      45.331  36.573  30.232  1.00  0.00     0.022 A 
BRANCH  88  92
ATOM     92  S   UNL A   1      44.376  37.625  27.833  1.00  0.00     0.124 S 
ATOM     93  O   UNL A   1      43.764  38.684  28.629  1.00  0.00    -0.237 OA
ATOM     94  O   UNL A   1      45.742  37.875  27.383  1.00  0.00    -0.237 OA
ATOM     95  O   UNL A   1      43.499  37.012  26.838  1.00  0.00    -0.744 OA
ENDBRANCH  88  92
ENDBRANCH  62  85
ENDBRANCH  36  37
ENDBRANCH  29  31
ENDBRANCH  28  29
ENDBRANCH  27  28
ENDBRANCH   1  27
TORSDOF 20
ENDMDL
MODEL 2
REMARK VINA RESULT:     -11.6      1.135      7.498
REMARK SMILES COc1cc(-c2ccc(F)c(C(F)(F)F)c2)ccc1C(=O)OCCOCCOC(=O)c1ccc(-c2c3nc(c(-c4cc(S(=O)(=O)[O-])ccc4F)c4ccc([nH]4)c(-c4cc(S(=O)(=O)[O-])ccc4F)c4nc(c(-c5cc(S(=O)(=O)[O-])ccc5F)c5ccc2[nH]5)C=C4)C=C3)cc1
REMARK SMILES IDX 26 1 25 2 24 3 23 4 22 5 20 6 21 7 19 8 3 9 4 10 5 11 18 12
REMARK SMILES IDX 17 13 2 14 1 15 6 16 7 17 16 18 8 19 11 20 9 21 10 22 12 23
REMARK SMILES IDX 13 24 14 25 15 26 27 27 28 28 29 29 30 30 31 31 32 32 93 33
REMARK SMILES IDX 33 34 92 35 34 36 35 37 36 38 86 39 37 40 91 41 85 42 87 43
REMARK SMILES IDX 38 44 90 45 84 46 83 47 39 49 71 50 51 51 70 52 52 53 55 54
REMARK SMILES IDX 69 55 88 56 53 57 54 58 68 60 89 61 56 62 40 63 41 64 49 65
REMARK SMILES IDX 42 66 48 67 50 68 47 69 43 70 44 71 45 72 46 73 72 74 73 75
REMARK SMILES IDX 81 76 74 77 80 78 82 79 79 80 75 81 76 82 77 83 78 84 57 85
REMARK SMILES IDX 58 86 66 87 59 88 65 89 67 90 64 91 60 92 61 93 62 94 63 95
REMARK H PARENT 87 48 55 59
REMARK Flexibility Score: inf
ROOT
ATOM      1  C   UNL A   1      35.650  19.911  25.004  1.00  0.00     0.202 C 
ENDROOT
BRANCH   1   2
ATOM      2  O   UNL A   1      34.808  21.063  25.058  1.00  0.00    -0.374 OA
BRANCH   2   3
ATOM      3  C   UNL A   1      33.532  20.972  24.418  1.00  0.00     0.202 C 
BRANCH   3   4
ATOM      4  C   UNL A   1      32.864  22.318  24.137  1.00  0.00     0.261 C 
BRANCH   4   5
ATOM      5  O   UNL A   1      33.684  23.360  24.689  1.00  0.00    -0.460 OA
BRANCH   5   6
ATOM      6  C   UNL A   1      34.329  24.150  23.809  1.00  0.00     0.342 C 
ATOM      7  O   UNL A   1      35.196  23.804  23.020  1.00  0.00    -0.246 OA
BRANCH   6   8
ATOM      8  C   UNL A   1      33.660  25.467  23.743  1.00  0.00     0.102 A 
ATOM      9  C   UNL A   1      33.377  26.222  22.600  1.00  0.00     0.134 A 
ATOM     10  C   UNL A   1      32.648  27.418  22.766  1.00  0.00     0.056 A 
ATOM     11  C   UNL A   1      32.196  27.880  24.014  1.00  0.00    -0.015 A 
ATOM     12  C   UNL A   1      33.249  25.947  25.009  1.00  0.00     0.020 A 
ATOM     13  C   UNL A   1      32.532  27.139  25.144  1.00  0.00     0.010 A 
BRANCH   9  14
ATOM     14  O   UNL A   1      33.610  26.002  21.276  1.00  0.00    -0.496 OA
ATOM     15  C   UNL A   1      32.777  25.179  20.485  1.00  0.00     0.278 C 
ENDBRANCH   9  14
BRANCH  11  16
ATOM     16  C   UNL A   1      31.333  29.066  24.090  1.00  0.00    -0.017 A 
ATOM     17  C   UNL A   1      31.589  30.053  25.059  1.00  0.00     0.012 A 
ATOM     18  C   UNL A   1      30.232  29.239  23.234  1.00  0.00     0.025 A 
ATOM     19  C   UNL A   1      30.766  31.171  25.181  1.00  0.00     0.040 A 
ATOM     20  C   UNL A   1      29.392  30.362  23.355  1.00  0.00     0.092 A 
ATOM     21  C   UNL A   1      29.674  31.311  24.334  1.00  0.00     0.135 A 
ATOM     22  F   UNL A   1      28.885  32.385  24.475  1.00  0.00    -0.206 F 
BRANCH  20  23
ATOM     23  C   UNL A   1      28.190  30.558  22.483  1.00  0.00     0.419 C 
ATOM     24  F   UNL A   1      27.039  30.715  23.194  1.00  0.00    -0.166 F 
ATOM     25  F   UNL A   1      28.290  31.651  21.675  1.00  0.00    -0.166 F 
ATOM     26  F   UNL A   1      27.960  29.508  21.643  1.00  0.00    -0.166 F 
ENDBRANCH  20  23
ENDBRANCH  11  16
ENDBRANCH   6   8
ENDBRANCH   5   6
ENDBRANCH   4   5
ENDBRANCH   3   4
ENDBRANCH   2   3
ENDBRANCH   1   2
BRANCH   1  27
ATOM     27  C   UNL A   1      37.142  20.169  24.765  1.00  0.00     0.261 C 
BRANCH  27  28
ATOM     28  O   UNL A   1      37.671  21.214  25.598  1.00  0.00    -0.460 OA
BRANCH  28  29
ATOM     29  C   UNL A   1      38.937  21.000  26.036  1.00  0.00     0.338 C 
ATOM     30  O   UNL A   1      39.618  20.002  25.847  1.00  0.00    -0.246 OA
BRANCH  29  31
ATOM     31  C   UNL A   1      39.478  22.225  26.651  1.00  0.00     0.060 A 
ATOM     32  C   UNL A   1      38.949  23.451  26.229  1.00  0.00     0.016 A 
ATOM     33  C   UNL A   1      40.537  22.186  27.562  1.00  0.00     0.016 A 
ATOM     34  C   UNL A   1      39.508  24.645  26.681  1.00  0.00     0.010 A 
ATOM     35  C   UNL A   1      41.100  23.387  28.008  1.00  0.00     0.010 A 
ATOM     36  C   UNL A   1      40.609  24.622  27.546  1.00  0.00    -0.014 A 
BRANCH  36  37
ATOM     37  C   UNL A   1      41.329  25.884  27.854  1.00  0.00     0.031 A 
ATOM     38  C   UNL A   1      40.607  26.975  28.599  1.00  0.00     0.074 A 
ATOM     39  C   UNL A   1      42.616  26.044  27.497  1.00  0.00     0.049 A 
ATOM     40  N   UNL A   1      41.024  28.169  28.931  1.00  0.00    -0.248 NA
ATOM     41  C   UNL A   1      39.230  26.677  29.018  1.00  0.00     0.031 C 
ATOM     42  C   UNL A   1      43.431  25.043  26.812  1.00  0.00     0.029 A 
ATOM     43  N   UNL A   1      43.461  27.114  27.654  1.00  0.00    -0.354 N 
ATOM     44  C   UNL A   1      39.958  28.771  29.594  1.00  0.00     0.074 A 
ATOM     45  C   UNL A   1      38.867  27.819  29.583  1.00  0.00     0.031 C 
ATOM     46  C   UNL A   1      44.657  25.551  26.596  1.00  0.00     0.029 A 
ATOM     47  C   UNL A   1      44.701  26.925  27.091  1.00  0.00     0.049 A 
ATOM     48  H   UNL A   1      43.203  27.939  28.126  1.00  0.00     0.167 HD
ATOM     49  C   UNL A   1      39.900  30.000  30.165  1.00  0.00     0.034 A 
ATOM     50  C   UNL A   1      45.742  27.774  26.965  1.00  0.00     0.034 A 
ATOM     51  C   UNL A   1      40.995  30.940  30.162  1.00  0.00     0.049 A 
ATOM     52  C   UNL A   1      45.626  29.167  27.536  1.00  0.00     0.074 A 
ATOM     53  C   UNL A   1      41.052  32.200  30.731  1.00  0.00     0.029 A 
ATOM     54  N   UNL A   1      42.223  30.730  29.545  1.00  0.00    -0.354 N 
ATOM     55  N   UNL A   1      44.619  29.719  28.173  1.00  0.00    -0.248 NA
ATOM     56  C   UNL A   1      46.791  30.048  27.376  1.00  0.00     0.031 C 
ATOM     57  C   UNL A   1      42.281  32.780  30.396  1.00  0.00     0.029 A 
ATOM     58  C   UNL A   1      43.026  31.852  29.688  1.00  0.00     0.049 A 
ATOM     59  H   UNL A   1      42.484  29.906  29.075  1.00  0.00     0.167 HD
ATOM     60  C   UNL A   1      45.044  31.001  28.517  1.00  0.00     0.074 A 
ATOM     61  C   UNL A   1      46.399  31.134  28.028  1.00  0.00     0.031 C 
ATOM     62  C   UNL A   1      44.374  31.977  29.184  1.00  0.00     0.034 A 
BRANCH  49  63
ATOM     63  C   UNL A   1      38.590  30.415  30.791  1.00  0.00     0.023 A 
ATOM     64  C   UNL A   1      37.618  31.134  30.074  1.00  0.00     0.031 A 
ATOM     65  C   UNL A   1      38.320  30.105  32.137  1.00  0.00     0.131 A 
ATOM     66  C   UNL A   1      36.455  31.576  30.722  1.00  0.00     0.055 A 
ATOM     67  C   UNL A   1      37.125  30.482  32.753  1.00  0.00     0.041 A 
ATOM     68  F   UNL A   1      39.219  29.441  32.879  1.00  0.00    -0.206 F 
ATOM     69  C   UNL A   1      36.190  31.234  32.050  1.00  0.00     0.022 A 
BRANCH  66  70
ATOM     70  S   UNL A   1      35.357  32.724  29.846  1.00  0.00     0.124 S 
ATOM     71  O   UNL A   1      35.013  31.955  28.653  1.00  0.00    -0.237 OA
ATOM     72  O   UNL A   1      34.280  32.926  30.809  1.00  0.00    -0.237 OA
ATOM     73  O   UNL A   1      36.203  33.891  29.603  1.00  0.00    -0.744 OA
ENDBRANCH  66  70
ENDBRANCH  49  63
BRANCH  50  74
ATOM     74  C   UNL A   1      46.971  27.356  26.228  1.00  0.00     0.023 A 
ATOM     75  C   UNL A   1      47.184  27.735  24.894  1.00  0.00     0.031 A 
ATOM     76  C   UNL A   1      47.925  26.521  26.837  1.00  0.00     0.131 A 
ATOM     77  C   UNL A   1      48.300  27.240  24.198  1.00  0.00     0.055 A 
ATOM     78  C   UNL A   1      49.060  26.076  26.158  1.00  0.00     0.041 A 
ATOM     79  F   UNL A   1      47.769  26.128  28.112  1.00  0.00    -0.206 F 
ATOM     80  C   UNL A   1      49.244  26.425  24.825  1.00  0.00     0.022 A 
BRANCH  77  81
ATOM     81  S   UNL A   1      48.452  27.609  22.427  1.00  0.00     0.124 S 
ATOM     82  O   UNL A   1      47.185  28.278  22.155  1.00  0.00    -0.237 OA
ATOM     83  O   UNL A   1      49.643  28.452  22.397  1.00  0.00    -0.237 OA
ATOM     84  O   UNL A   1      48.608  26.290  21.818  1.00  0.00    -0.744 OA
ENDBRANCH  77  81
ENDBRANCH  50  74
BRANCH  62  85
ATOM     85  C   UNL A   1      45.124  33.259  29.463  1.00  0.00     0.023 A 
ATOM     86  C   UNL A   1      45.051  34.365  28.599  1.00  0.00     0.031 A 
ATOM     87  C   UNL A   1      45.932  33.367  30.610  1.00  0.00     0.131 A 
ATOM     88  C   UNL A   1      45.814  35.512  28.867  1.00  0.00     0.055 A 
ATOM     89  C   UNL A   1      46.640  34.534  30.904  1.00  0.00     0.041 A 
ATOM     90  F   UNL A   1      46.041  32.342  31.469  1.00  0.00    -0.206 F 
ATOM     91  C   UNL A   1      46.594  35.610  30.022  1.00  0.00     0.022 A 
BRANCH  88  92
ATOM     92  S   UNL A   1      45.846  36.846  27.637  1.00  0.00     0.124 S 
ATOM     93  O   UNL A   1      46.246  36.134  26.428  1.00  0.00    -0.237 OA
ATOM     94  O   UNL A   1      44.470  37.331  27.666  1.00  0.00    -0.237 OA
ATOM     95  O   UNL A   1      46.840  37.778  28.167  1.00  0.00    -0.744 OA
ENDBRANCH  88  92
ENDBRANCH  62  85
ENDBRANCH  36  37
ENDBRANCH  29  31
ENDBRANCH  28  29
ENDBRANCH  27  28
ENDBRANCH   1  27
TORSDOF 20
ENDMDL
MODEL 3
REMARK VINA RESULT:     -11.4      1.859      7.673
REMARK SMILES COc1cc(-c2ccc(F)c(C(F)(F)F)c2)ccc1C(=O)OCCOCCOC(=O)c1ccc(-c2c3nc(c(-c4cc(S(=O)(=O)[O-])ccc4F)c4ccc([nH]4)c(-c4cc(S(=O)(=O)[O-])ccc4F)c4nc(c(-c5cc(S(=O)(=O)[O-])ccc5F)c5ccc2[nH]5)C=C4)C=C3)cc1
REMARK SMILES IDX 26 1 25 2 24 3 23 4 22 5 20 6 21 7 19 8 3 9 4 10 5 11 18 12
REMARK SMILES IDX 17 13 2 14 1 15 6 16 7 17 16 18 8 19 11 20 9 21 10 22 12 23
REMARK SMILES IDX 13 24 14 25 15 26 27 27 28 28 29 29 30 30 31 31 32 32 93 33
REMARK SMILES IDX 33 34 92 35 34 36 35 37 36 38 86 39 37 40 91 41 85 42 87 43
REMARK SMILES IDX 38 44 90 45 84 46 83 47 39 49 71 50 51 51 70 52 52 53 55 54
REMARK SMILES IDX 69 55 88 56 53 57 54 58 68 60 89 61 56 62 40 63 41 64 49 65
REMARK SMILES IDX 42 66 48 67 50 68 47 69 43 70 44 71 45 72 46 73 72 74 73 75
REMARK SMILES IDX 81 76 74 77 80 78 82 79 79 80 75 81 76 82 77 83 78 84 57 85
REMARK SMILES IDX 58 86 66 87 59 88 65 89 67 90 64 91 60 92 61 93 62 94 63 95
REMARK H PARENT 87 48 55 59
REMARK Flexibility Score: inf
ROOT
ATOM      1  C   UNL A   1      36.751  19.095  25.011  1.00  0.00     0.202 C 
ENDROOT
BRANCH   1   2
ATOM      2  O   UNL A   1      35.372  19.219  24.661  1.00  0.00    -0.374 OA
BRANCH   2   3
ATOM      3  C   UNL A   1      34.655  18.011  24.387  1.00  0.00     0.202 C 
BRANCH   3   4
ATOM      4  C   UNL A   1      33.144  18.108  24.596  1.00  0.00     0.261 C 
BRANCH   4   5
ATOM      5  O   UNL A   1      32.805  19.479  24.857  1.00  0.00    -0.460 OA
BRANCH   5   6
ATOM      6  C   UNL A   1      32.476  20.232  23.791  1.00  0.00     0.342 C 
ATOM      7  O   UNL A   1      32.033  19.830  22.724  1.00  0.00    -0.246 OA
BRANCH   6   8
ATOM      8  C   UNL A   1      32.479  21.661  24.172  1.00  0.00     0.102 A 
ATOM      9  C   UNL A   1      32.859  22.214  25.399  1.00  0.00     0.134 A 
ATOM     10  C   UNL A   1      32.866  23.620  25.512  1.00  0.00     0.056 A 
ATOM     11  C   UNL A   1      32.517  24.482  24.458  1.00  0.00    -0.015 A 
ATOM     12  C   UNL A   1      32.082  22.519  23.119  1.00  0.00     0.020 A 
ATOM     13  C   UNL A   1      32.095  23.909  23.260  1.00  0.00     0.010 A 
BRANCH   9  14
ATOM     14  O   UNL A   1      33.313  21.655  26.556  1.00  0.00    -0.496 OA
ATOM     15  C   UNL A   1      34.677  21.679  26.926  1.00  0.00     0.278 C 
ENDBRANCH   9  14
BRANCH  11  16
ATOM     16  C   UNL A   1      32.675  25.934  24.612  1.00  0.00    -0.017 A 
ATOM     17  C   UNL A   1      33.166  26.698  23.538  1.00  0.00     0.012 A 
ATOM     18  C   UNL A   1      32.372  26.591  25.816  1.00  0.00     0.025 A 
ATOM     19  C   UNL A   1      33.362  28.073  23.665  1.00  0.00     0.040 A 
ATOM     20  C   UNL A   1      32.573  27.976  25.954  1.00  0.00     0.092 A 
ATOM     21  C   UNL A   1      33.070  28.696  24.871  1.00  0.00     0.135 A 
ATOM     22  F   UNL A   1      33.279  30.015  24.980  1.00  0.00    -0.206 F 
BRANCH  20  23
ATOM     23  C   UNL A   1      32.295  28.700  27.236  1.00  0.00     0.419 C 
ATOM     24  F   UNL A   1      31.662  27.922  28.158  1.00  0.00    -0.166 F 
ATOM     25  F   UNL A   1      33.423  29.165  27.842  1.00  0.00    -0.166 F 
ATOM     26  F   UNL A   1      31.496  29.794  27.072  1.00  0.00    -0.166 F 
ENDBRANCH  20  23
ENDBRANCH  11  16
ENDBRANCH   6   8
ENDBRANCH   5   6
ENDBRANCH   4   5
ENDBRANCH   3   4
ENDBRANCH   2   3
ENDBRANCH   1   2
BRANCH   1  27
ATOM     27  C   UNL A   1      37.657  20.272  24.635  1.00  0.00     0.261 C 
BRANCH  27  28
ATOM     28  O   UNL A   1      38.027  21.080  25.766  1.00  0.00    -0.460 OA
BRANCH  28  29
ATOM     29  C   UNL A   1      39.329  20.979  26.129  1.00  0.00     0.338 C 
ATOM     30  O   UNL A   1      40.088  20.053  25.883  1.00  0.00    -0.246 OA
BRANCH  29  31
ATOM     31  C   UNL A   1      39.787  22.241  26.739  1.00  0.00     0.060 A 
ATOM     32  C   UNL A   1      39.313  23.437  26.188  1.00  0.00     0.016 A 
ATOM     33  C   UNL A   1      40.724  22.260  27.776  1.00  0.00     0.016 A 
ATOM     34  C   UNL A   1      39.809  24.659  26.640  1.00  0.00     0.010 A 
ATOM     35  C   UNL A   1      41.225  23.488  28.222  1.00  0.00     0.010 A 
ATOM     36  C   UNL A   1      40.794  24.692  27.636  1.00  0.00    -0.014 A 
BRANCH  36  37
ATOM     37  C   UNL A   1      41.468  25.974  27.962  1.00  0.00     0.031 A 
ATOM     38  C   UNL A   1      40.699  27.038  28.700  1.00  0.00     0.074 A 
ATOM     39  C   UNL A   1      42.754  26.178  27.626  1.00  0.00     0.049 A 
ATOM     40  N   UNL A   1      41.071  28.243  29.046  1.00  0.00    -0.248 NA
ATOM     41  C   UNL A   1      39.325  26.693  29.096  1.00  0.00     0.031 C 
ATOM     42  C   UNL A   1      43.612  25.207  26.950  1.00  0.00     0.029 A 
ATOM     43  N   UNL A   1      43.562  27.274  27.803  1.00  0.00    -0.354 N 
ATOM     44  C   UNL A   1      39.977  28.806  29.694  1.00  0.00     0.074 A 
ATOM     45  C   UNL A   1      38.917  27.820  29.660  1.00  0.00     0.031 C 
ATOM     46  C   UNL A   1      44.825  25.755  26.757  1.00  0.00     0.029 A 
ATOM     47  C   UNL A   1      44.816  27.128  27.259  1.00  0.00     0.049 A 
ATOM     48  H   UNL A   1      43.270  28.087  28.275  1.00  0.00     0.167 HD
ATOM     49  C   UNL A   1      39.870  30.029  30.270  1.00  0.00     0.034 A 
ATOM     50  C   UNL A   1      45.831  28.010  27.154  1.00  0.00     0.034 A 
ATOM     51  C   UNL A   1      40.934  31.005  30.289  1.00  0.00     0.049 A 
ATOM     52  C   UNL A   1      45.661  29.396  27.730  1.00  0.00     0.074 A 
ATOM     53  C   UNL A   1      40.941  32.263  30.866  1.00  0.00     0.029 A 
ATOM     54  N   UNL A   1      42.177  30.837  29.692  1.00  0.00    -0.354 N 
ATOM     55  N   UNL A   1      44.627  29.911  28.354  1.00  0.00    -0.248 NA
ATOM     56  C   UNL A   1      46.799  30.315  27.594  1.00  0.00     0.031 C 
ATOM     57  C   UNL A   1      42.155  32.883  30.553  1.00  0.00     0.029 A 
ATOM     58  C   UNL A   1      42.942  31.984  29.853  1.00  0.00     0.049 A 
ATOM     59  H   UNL A   1      42.472  30.025  29.222  1.00  0.00     0.167 HD
ATOM     60  C   UNL A   1      45.004  31.204  28.711  1.00  0.00     0.074 A 
ATOM     61  C   UNL A   1      46.362  31.383  28.244  1.00  0.00     0.031 C 
ATOM     62  C   UNL A   1      44.293  32.155  29.372  1.00  0.00     0.034 A 
BRANCH  49  63
ATOM     63  C   UNL A   1      38.537  30.398  30.877  1.00  0.00     0.023 A 
ATOM     64  C   UNL A   1      37.554  31.091  30.148  1.00  0.00     0.031 A 
ATOM     65  C   UNL A   1      38.255  30.072  32.216  1.00  0.00     0.131 A 
ATOM     66  C   UNL A   1      36.367  31.492  30.779  1.00  0.00     0.055 A 
ATOM     67  C   UNL A   1      37.039  30.406  32.815  1.00  0.00     0.041 A 
ATOM     68  F   UNL A   1      39.163  29.432  32.969  1.00  0.00    -0.206 F 
ATOM     69  C   UNL A   1      36.092  31.133  32.101  1.00  0.00     0.022 A 
BRANCH  66  70
ATOM     70  S   UNL A   1      35.248  32.610  29.892  1.00  0.00     0.124 S 
ATOM     71  O   UNL A   1      34.283  32.952  30.934  1.00  0.00    -0.237 OA
ATOM     72  O   UNL A   1      36.142  33.683  29.471  1.00  0.00    -0.237 OA
ATOM     73  O   UNL A   1      34.718  31.781  28.812  1.00  0.00    -0.744 OA
ENDBRANCH  66  70
ENDBRANCH  49  63
BRANCH  50  74
ATOM     74  C   UNL A   1      47.084  27.636  26.435  1.00  0.00     0.023 A 
ATOM     75  C   UNL A   1      47.230  27.863  25.058  1.00  0.00     0.031 A 
ATOM     76  C   UNL A   1      48.136  26.992  27.112  1.00  0.00     0.131 A 
ATOM     77  C   UNL A   1      48.380  27.407  24.393  1.00  0.00     0.055 A 
ATOM     78  C   UNL A   1      49.300  26.588  26.456  1.00  0.00     0.041 A 
ATOM     79  F   UNL A   1      48.048  26.749  28.430  1.00  0.00    -0.206 F 
ATOM     80  C   UNL A   1      49.420  26.784  25.085  1.00  0.00     0.022 A 
BRANCH  77  81
ATOM     81  S   UNL A   1      48.457  27.562  22.586  1.00  0.00     0.124 S 
ATOM     82  O   UNL A   1      47.232  28.300  22.300  1.00  0.00    -0.237 OA
ATOM     83  O   UNL A   1      49.706  28.294  22.401  1.00  0.00    -0.237 OA
ATOM     84  O   UNL A   1      48.475  26.176  22.127  1.00  0.00    -0.744 OA
ENDBRANCH  77  81
ENDBRANCH  50  74
BRANCH  62  85
ATOM     85  C   UNL A   1      44.997  33.458  29.669  1.00  0.00     0.023 A 
ATOM     86  C   UNL A   1      44.969  34.540  28.771  1.00  0.00     0.031 A 
ATOM     87  C   UNL A   1      45.713  33.614  30.870  1.00  0.00     0.131 A 
ATOM     88  C   UNL A   1      45.689  35.708  29.062  1.00  0.00     0.055 A 
ATOM     89  C   UNL A   1      46.376  34.802  31.182  1.00  0.00     0.041 A 
ATOM     90  F   UNL A   1      45.776  32.615  31.763  1.00  0.00    -0.206 F 
ATOM     91  C   UNL A   1      46.378  35.853  30.270  1.00  0.00     0.022 A 
BRANCH  88  92
ATOM     92  S   UNL A   1      45.789  37.009  27.801  1.00  0.00     0.124 S 
ATOM     93  O   UNL A   1      45.035  38.093  28.422  1.00  0.00    -0.237 OA
ATOM     94  O   UNL A   1      47.229  37.220  27.684  1.00  0.00    -0.237 OA
ATOM     95  O   UNL A   1      45.157  36.403  26.631  1.00  0.00    -0.744 OA
ENDBRANCH  88  92
ENDBRANCH  62  85
ENDBRANCH  36  37
ENDBRANCH  29  31
ENDBRANCH  28  29
ENDBRANCH  27  28
ENDBRANCH   1  27
TORSDOF 20
ENDMDL
