MODEL 1
REMARK VINA RESULT:     -11.3      0.000      0.000
REMARK SMILES Cc1nsc(NC(=O)c2ccc(N)cc2)c1C(=O)OCCOCCOC(=O)c1ccc(-c2c3nc(c(-c4cc(S(=O)(=O)[O-])ccc4F)c4ccc([nH]4)c(-c4cc(S(=O)(=O)[O-])ccc4F)c4nc(c(-c5cc(S(=O)(=O)[O-])ccc5F)c5ccc2[nH]5)C=C4)C=C3)cc1
REMARK SMILES IDX 22 1 21 2 20 3 19 4 17 5 18 6 16 7 1 8 2 9 3 10 4 11 5 12
REMARK SMILES IDX 6 13 7 14 8 16 9 17 10 18 15 19 11 20 14 21 12 22 13 23
REMARK SMILES IDX 23 26 24 27 25 28 26 29 27 30 28 31 29 32 90 33 30 34 89 35
REMARK SMILES IDX 31 36 32 37 33 38 83 39 34 40 88 41 82 42 84 43 35 44 87 45
REMARK SMILES IDX 81 46 80 47 36 49 68 50 48 51 67 52 49 53 52 54 66 55 85 56
REMARK SMILES IDX 50 57 51 58 65 60 86 61 53 62 37 63 38 64 46 65 39 66 45 67
REMARK SMILES IDX 47 68 44 69 40 70 41 71 42 72 43 73 69 74 70 75 78 76 71 77
REMARK SMILES IDX 77 78 79 79 76 80 72 81 73 82 74 83 75 84 54 85 55 86 63 87
REMARK SMILES IDX 56 88 62 89 64 90 61 91 57 92 58 93 59 94 60 95
REMARK H PARENT 6 15 13 24 13 25 84 48 52 59
REMARK Flexibility Score: inf
ROOT
ATOM      1  O   UNL A   1      31.304  29.358  25.029  1.00  0.00    -0.374 OA
ENDROOT
BRANCH   1   2
ATOM      2  C   UNL A   1      32.237  28.301  25.250  1.00  0.00     0.202 C 
BRANCH   2   3
ATOM      3  C   UNL A   1      32.100  27.030  24.407  1.00  0.00     0.261 C 
BRANCH   3   4
ATOM      4  O   UNL A   1      31.936  25.862  25.228  1.00  0.00    -0.460 OA
BRANCH   4   5
ATOM      5  C   UNL A   1      30.835  25.107  24.960  1.00  0.00     0.343 C 
ATOM      6  O   UNL A   1      29.758  25.554  24.585  1.00  0.00    -0.246 OA
BRANCH   5   7
ATOM      7  C   UNL A   1      31.137  23.687  24.942  1.00  0.00     0.117 A 
ATOM      8  C   UNL A   1      29.847  22.860  27.073  1.00  0.00     0.069 C 
ATOM      9  C   UNL A   1      30.731  22.679  25.889  1.00  0.00     0.068 A 
ATOM     10  N   UNL A   1      31.214  21.455  25.671  1.00  0.00    -0.195 NA
ATOM     11  S   UNL A   1      32.254  21.504  24.393  1.00  0.00    -0.017 S 
ATOM     12  C   UNL A   1      31.982  23.132  23.987  1.00  0.00     0.131 A 
BRANCH  12  13
ATOM     13  N   UNL A   1      32.655  23.799  22.972  1.00  0.00    -0.312 N 
ATOM     14  C   UNL A   1      33.923  24.330  22.917  1.00  0.00     0.256 C 
ATOM     15  H   UNL A   1      32.132  23.912  22.147  1.00  0.00     0.171 HD
ATOM     16  O   UNL A   1      34.183  25.211  22.098  1.00  0.00    -0.269 OA
BRANCH  14  17
ATOM     17  C   UNL A   1      35.020  23.797  23.745  1.00  0.00     0.040 A 
ATOM     18  C   UNL A   1      35.883  22.824  23.234  1.00  0.00     0.016 A 
ATOM     19  C   UNL A   1      35.225  24.313  25.026  1.00  0.00     0.016 A 
ATOM     20  C   UNL A   1      36.866  22.273  24.057  1.00  0.00     0.026 A 
ATOM     21  C   UNL A   1      36.229  23.771  25.832  1.00  0.00     0.026 A 
ATOM     22  C   UNL A   1      37.009  22.702  25.379  1.00  0.00     0.031 A 
BRANCH  22  23
ATOM     23  N   UNL A   1      38.012  22.172  26.178  1.00  0.00    -0.399 N 
ATOM     24  H   UNL A   1      37.779  21.642  26.974  1.00  0.00     0.156 HD
ATOM     25  H   UNL A   1      38.956  22.327  25.949  1.00  0.00     0.156 HD
ENDBRANCH  22  23
ENDBRANCH  14  17
ENDBRANCH  12  13
ENDBRANCH   5   7
ENDBRANCH   4   5
ENDBRANCH   3   4
ENDBRANCH   2   3
ENDBRANCH   1   2
BRANCH   1  26
ATOM     26  C   UNL A   1      31.492  30.633  25.637  1.00  0.00     0.202 C 
BRANCH  26  27
ATOM     27  C   UNL A   1      31.972  30.723  27.078  1.00  0.00     0.261 C 
BRANCH  27  28
ATOM     28  O   UNL A   1      33.182  31.452  27.170  1.00  0.00    -0.460 OA
BRANCH  28  29
ATOM     29  C   UNL A   1      33.015  32.712  27.641  1.00  0.00     0.338 C 
ATOM     30  O   UNL A   1      32.097  33.467  27.408  1.00  0.00    -0.246 OA
BRANCH  29  31
ATOM     31  C   UNL A   1      34.193  33.055  28.445  1.00  0.00     0.060 A 
ATOM     32  C   UNL A   1      35.211  33.718  27.761  1.00  0.00     0.016 A 
ATOM     33  C   UNL A   1      34.397  32.423  29.681  1.00  0.00     0.016 A 
ATOM     34  C   UNL A   1      36.503  33.465  28.150  1.00  0.00     0.010 A 
ATOM     35  C   UNL A   1      35.685  32.175  30.068  1.00  0.00     0.010 A 
ATOM     36  C   UNL A   1      36.706  32.587  29.217  1.00  0.00    -0.014 A 
BRANCH  36  37
ATOM     37  C   UNL A   1      38.043  32.104  29.462  1.00  0.00     0.031 A 
ATOM     38  C   UNL A   1      38.179  30.677  29.120  1.00  0.00     0.074 A 
ATOM     39  C   UNL A   1      39.033  32.933  29.844  1.00  0.00     0.049 A 
ATOM     40  N   UNL A   1      38.263  29.680  29.934  1.00  0.00    -0.248 NA
ATOM     41  C   UNL A   1      37.929  30.291  27.720  1.00  0.00     0.031 C 
ATOM     42  C   UNL A   1      39.024  34.395  29.959  1.00  0.00     0.029 A 
ATOM     43  N   UNL A   1      40.323  32.625  30.124  1.00  0.00    -0.354 N 
ATOM     44  C   UNL A   1      38.347  28.559  29.121  1.00  0.00     0.074 A 
ATOM     45  C   UNL A   1      37.865  28.964  27.829  1.00  0.00     0.031 C 
ATOM     46  C   UNL A   1      40.299  34.847  30.040  1.00  0.00     0.029 A 
ATOM     47  C   UNL A   1      41.199  33.707  30.120  1.00  0.00     0.049 A 
ATOM     48  H   UNL A   1      40.618  31.706  30.316  1.00  0.00     0.167 HD
ATOM     49  C   UNL A   1      39.091  27.483  29.489  1.00  0.00     0.034 A 
ATOM     50  C   UNL A   1      42.561  33.627  30.082  1.00  0.00     0.034 A 
ATOM     51  C   UNL A   1      39.384  27.517  30.904  1.00  0.00     0.049 A 
ATOM     52  C   UNL A   1      42.904  32.257  30.561  1.00  0.00     0.074 A 
ATOM     53  C   UNL A   1      38.607  27.523  32.046  1.00  0.00     0.029 A 
ATOM     54  N   UNL A   1      40.620  27.987  31.294  1.00  0.00    -0.354 N 
ATOM     55  N   UNL A   1      42.658  31.853  31.782  1.00  0.00    -0.248 NA
ATOM     56  C   UNL A   1      42.994  31.191  29.570  1.00  0.00     0.031 C 
ATOM     57  C   UNL A   1      39.242  28.457  32.917  1.00  0.00     0.029 A 
ATOM     58  C   UNL A   1      40.419  28.897  32.305  1.00  0.00     0.049 A 
ATOM     59  H   UNL A   1      41.490  27.718  30.917  1.00  0.00     0.167 HD
ATOM     60  C   UNL A   1      42.153  30.566  31.649  1.00  0.00     0.074 A 
ATOM     61  C   UNL A   1      42.445  30.188  30.264  1.00  0.00     0.031 C 
ATOM     62  C   UNL A   1      41.280  30.041  32.559  1.00  0.00     0.034 A 
BRANCH  49  63
ATOM     63  C   UNL A   1      39.865  26.626  28.519  1.00  0.00     0.023 A 
ATOM     64  C   UNL A   1      40.954  27.225  27.864  1.00  0.00     0.031 A 
ATOM     65  C   UNL A   1      39.442  25.378  27.999  1.00  0.00     0.131 A 
ATOM     66  C   UNL A   1      41.507  26.643  26.712  1.00  0.00     0.055 A 
ATOM     67  C   UNL A   1      40.043  24.769  26.896  1.00  0.00     0.041 A 
ATOM     68  F   UNL A   1      38.369  24.721  28.452  1.00  0.00    -0.206 F 
ATOM     69  C   UNL A   1      41.062  25.417  26.225  1.00  0.00     0.022 A 
BRANCH  66  70
ATOM     70  S   UNL A   1      42.702  27.607  25.755  1.00  0.00     0.124 S 
ATOM     71  O   UNL A   1      43.474  28.254  26.811  1.00  0.00    -0.237 OA
ATOM     72  O   UNL A   1      43.388  26.566  25.000  1.00  0.00    -0.237 OA
ATOM     73  O   UNL A   1      41.859  28.499  24.965  1.00  0.00    -0.744 OA
ENDBRANCH  66  70
ENDBRANCH  49  63
BRANCH  50  74
ATOM     74  C   UNL A   1      43.460  34.463  29.222  1.00  0.00     0.023 A 
ATOM     75  C   UNL A   1      44.026  34.019  28.005  1.00  0.00     0.031 A 
ATOM     76  C   UNL A   1      43.594  35.843  29.508  1.00  0.00     0.131 A 
ATOM     77  C   UNL A   1      44.699  34.933  27.152  1.00  0.00     0.055 A 
ATOM     78  C   UNL A   1      44.257  36.737  28.664  1.00  0.00     0.041 A 
ATOM     79  F   UNL A   1      43.014  36.389  30.588  1.00  0.00    -0.206 F 
ATOM     80  C   UNL A   1      44.808  36.287  27.478  1.00  0.00     0.022 A 
BRANCH  77  81
ATOM     81  S   UNL A   1      45.406  34.391  25.557  1.00  0.00     0.124 S 
ATOM     82  O   UNL A   1      44.392  34.821  24.602  1.00  0.00    -0.237 OA
ATOM     83  O   UNL A   1      46.678  35.103  25.518  1.00  0.00    -0.237 OA
ATOM     84  O   UNL A   1      45.525  32.939  25.709  1.00  0.00    -0.744 OA
ENDBRANCH  77  81
ENDBRANCH  50  74
BRANCH  62  85
ATOM     85  C   UNL A   1      41.038  30.792  33.858  1.00  0.00     0.023 A 
ATOM     86  C   UNL A   1      39.934  31.638  34.124  1.00  0.00     0.031 A 
ATOM     87  C   UNL A   1      41.903  30.497  34.926  1.00  0.00     0.131 A 
ATOM     88  C   UNL A   1      39.736  32.150  35.425  1.00  0.00     0.055 A 
ATOM     89  C   UNL A   1      41.690  30.986  36.213  1.00  0.00     0.041 A 
ATOM     90  F   UNL A   1      42.953  29.680  34.743  1.00  0.00    -0.206 F 
ATOM     91  C   UNL A   1      40.607  31.816  36.469  1.00  0.00     0.022 A 
BRANCH  88  92
ATOM     92  S   UNL A   1      38.344  33.271  35.794  1.00  0.00     0.124 S 
ATOM     93  O   UNL A   1      37.850  33.640  34.473  1.00  0.00    -0.237 OA
ATOM     94  O   UNL A   1      37.462  32.426  36.595  1.00  0.00    -0.237 OA
ATOM     95  O   UNL A   1      38.975  34.365  36.536  1.00  0.00    -0.744 OA
ENDBRANCH  88  92
ENDBRANCH  62  85
ENDBRANCH  36  37
ENDBRANCH  29  31
ENDBRANCH  28  29
ENDBRANCH  27  28
ENDBRANCH  26  27
ENDBRANCH   1  26
TORSDOF 20
ENDMDL
MODEL 2
REMARK VINA RESULT:     -11.3      4.499      9.274
REMARK SMILES Cc1nsc(NC(=O)c2ccc(N)cc2)c1C(=O)OCCOCCOC(=O)c1ccc(-c2c3nc(c(-c4cc(S(=O)(=O)[O-])ccc4F)c4ccc([nH]4)c(-c4cc(S(=O)(=O)[O-])ccc4F)c4nc(c(-c5cc(S(=O)(=O)[O-])ccc5F)c5ccc2[nH]5)C=C4)C=C3)cc1
REMARK SMILES IDX 22 1 21 2 20 3 19 4 17 5 18 6 16 7 1 8 2 9 3 10 4 11 5 12
REMARK SMILES IDX 6 13 7 14 8 16 9 17 10 18 15 19 11 20 14 21 12 22 13 23
REMARK SMILES IDX 23 26 24 27 25 28 26 29 27 30 28 31 29 32 90 33 30 34 89 35
REMARK SMILES IDX 31 36 32 37 33 38 83 39 34 40 88 41 82 42 84 43 35 44 87 45
REMARK SMILES IDX 81 46 80 47 36 49 68 50 48 51 67 52 49 53 52 54 66 55 85 56
REMARK SMILES IDX 50 57 51 58 65 60 86 61 53 62 37 63 38 64 46 65 39 66 45 67
REMARK SMILES IDX 47 68 44 69 40 70 41 71 42 72 43 73 69 74 70 75 78 76 71 77
REMARK SMILES IDX 77 78 79 79 76 80 72 81 73 82 74 83 75 84 54 85 55 86 63 87
REMARK SMILES IDX 56 88 62 89 64 90 61 91 57 92 58 93 59 94 60 95
REMARK H PARENT 6 15 13 24 13 25 84 48 52 59
REMARK Flexibility Score: inf
ROOT
ATOM      1  O   UNL A   1      35.878  20.507  25.336  1.00  0.00    -0.374 OA
ENDROOT
BRANCH   1   2
ATOM      2  C   UNL A   1      34.503  20.341  24.991  1.00  0.00     0.202 C 
BRANCH   2   3
ATOM      3  C   UNL A   1      33.448  20.727  26.031  1.00  0.00     0.261 C 
BRANCH   3   4
ATOM      4  O   UNL A   1      33.229  22.148  26.065  1.00  0.00    -0.460 OA
BRANCH   4   5
ATOM      5  C   UNL A   1      32.543  22.609  27.147  1.00  0.00     0.343 C 
ATOM      6  O   UNL A   1      32.726  22.237  28.299  1.00  0.00    -0.246 OA
BRANCH   5   7
ATOM      7  C   UNL A   1      31.725  23.765  26.824  1.00  0.00     0.117 A 
ATOM      8  C   UNL A   1      29.310  22.795  27.161  1.00  0.00     0.069 C 
ATOM      9  C   UNL A   1      30.288  23.856  26.797  1.00  0.00     0.068 A 
ATOM     10  N   UNL A   1      29.792  25.027  26.390  1.00  0.00    -0.195 NA
ATOM     11  S   UNL A   1      31.033  26.007  25.926  1.00  0.00    -0.017 S 
ATOM     12  C   UNL A   1      32.289  24.961  26.392  1.00  0.00     0.131 A 
BRANCH  12  13
ATOM     13  N   UNL A   1      33.636  25.229  26.188  1.00  0.00    -0.312 N 
ATOM     14  C   UNL A   1      34.422  25.135  25.062  1.00  0.00     0.256 C 
ATOM     15  H   UNL A   1      34.112  25.541  26.990  1.00  0.00     0.171 HD
ATOM     16  O   UNL A   1      35.642  25.032  25.174  1.00  0.00    -0.269 OA
BRANCH  14  17
ATOM     17  C   UNL A   1      33.851  25.263  23.709  1.00  0.00     0.040 A 
ATOM     18  C   UNL A   1      33.646  26.524  23.144  1.00  0.00     0.016 A 
ATOM     19  C   UNL A   1      33.566  24.111  22.974  1.00  0.00     0.016 A 
ATOM     20  C   UNL A   1      33.032  26.630  21.896  1.00  0.00     0.026 A 
ATOM     21  C   UNL A   1      32.974  24.230  21.714  1.00  0.00     0.026 A 
ATOM     22  C   UNL A   1      32.640  25.485  21.197  1.00  0.00     0.031 A 
BRANCH  22  23
ATOM     23  N   UNL A   1      32.061  25.601  19.942  1.00  0.00    -0.399 N 
ATOM     24  H   UNL A   1      31.321  26.233  19.797  1.00  0.00     0.156 HD
ATOM     25  H   UNL A   1      32.389  25.049  19.196  1.00  0.00     0.156 HD
ENDBRANCH  22  23
ENDBRANCH  14  17
ENDBRANCH  12  13
ENDBRANCH   5   7
ENDBRANCH   4   5
ENDBRANCH   3   4
ENDBRANCH   2   3
ENDBRANCH   1   2
BRANCH   1  26
ATOM     26  C   UNL A   1      36.540  21.748  25.110  1.00  0.00     0.202 C 
BRANCH  26  27
ATOM     27  C   UNL A   1      38.060  21.810  25.121  1.00  0.00     0.261 C 
BRANCH  27  28
ATOM     28  O   UNL A   1      38.592  21.135  26.246  1.00  0.00    -0.460 OA
BRANCH  28  29
ATOM     29  C   UNL A   1      39.704  20.412  25.962  1.00  0.00     0.338 C 
ATOM     30  O   UNL A   1      39.758  19.336  25.408  1.00  0.00    -0.246 OA
BRANCH  29  31
ATOM     31  C   UNL A   1      40.861  21.127  26.510  1.00  0.00     0.060 A 
ATOM     32  C   UNL A   1      41.044  21.000  27.887  1.00  0.00     0.016 A 
ATOM     33  C   UNL A   1      41.476  22.135  25.754  1.00  0.00     0.016 A 
ATOM     34  C   UNL A   1      41.572  22.076  28.557  1.00  0.00     0.010 A 
ATOM     35  C   UNL A   1      42.005  23.205  26.424  1.00  0.00     0.010 A 
ATOM     36  C   UNL A   1      41.915  23.207  27.812  1.00  0.00    -0.014 A 
BRANCH  36  37
ATOM     37  C   UNL A   1      42.213  24.428  28.519  1.00  0.00     0.031 A 
ATOM     38  C   UNL A   1      41.240  25.490  28.208  1.00  0.00     0.074 A 
ATOM     39  C   UNL A   1      43.203  24.492  29.430  1.00  0.00     0.049 A 
ATOM     40  N   UNL A   1      41.422  26.527  27.463  1.00  0.00    -0.248 NA
ATOM     41  C   UNL A   1      39.829  25.236  28.550  1.00  0.00     0.031 C 
ATOM     42  C   UNL A   1      44.040  23.412  29.964  1.00  0.00     0.029 A 
ATOM     43  N   UNL A   1      43.608  25.562  30.156  1.00  0.00    -0.354 N 
ATOM     44  C   UNL A   1      40.206  27.192  27.470  1.00  0.00     0.074 A 
ATOM     45  C   UNL A   1      39.227  26.234  27.904  1.00  0.00     0.031 C 
ATOM     46  C   UNL A   1      44.664  23.843  31.088  1.00  0.00     0.029 A 
ATOM     47  C   UNL A   1      44.380  25.258  31.273  1.00  0.00     0.049 A 
ATOM     48  H   UNL A   1      43.373  26.487  29.910  1.00  0.00     0.167 HD
ATOM     49  C   UNL A   1      40.151  28.549  27.419  1.00  0.00     0.034 A 
ATOM     50  C   UNL A   1      44.658  26.107  32.304  1.00  0.00     0.034 A 
ATOM     51  C   UNL A   1      41.405  29.100  26.959  1.00  0.00     0.049 A 
ATOM     52  C   UNL A   1      44.442  27.483  31.770  1.00  0.00     0.074 A 
ATOM     53  C   UNL A   1      42.147  28.966  25.801  1.00  0.00     0.029 A 
ATOM     54  N   UNL A   1      42.282  29.583  27.907  1.00  0.00    -0.354 N 
ATOM     55  N   UNL A   1      45.175  27.993  30.813  1.00  0.00    -0.248 NA
ATOM     56  C   UNL A   1      43.107  28.060  31.892  1.00  0.00     0.031 C 
ATOM     57  C   UNL A   1      43.501  28.881  26.241  1.00  0.00     0.029 A 
ATOM     58  C   UNL A   1      43.525  29.064  27.627  1.00  0.00     0.049 A 
ATOM     59  H   UNL A   1      42.059  30.189  28.651  1.00  0.00     0.167 HD
ATOM     60  C   UNL A   1      44.281  28.633  29.964  1.00  0.00     0.074 A 
ATOM     61  C   UNL A   1      43.026  28.694  30.717  1.00  0.00     0.031 C 
ATOM     62  C   UNL A   1      44.537  28.777  28.630  1.00  0.00     0.034 A 
BRANCH  49  63
ATOM     63  C   UNL A   1      39.116  29.376  28.141  1.00  0.00     0.023 A 
ATOM     64  C   UNL A   1      39.236  29.474  29.537  1.00  0.00     0.031 A 
ATOM     65  C   UNL A   1      37.890  29.827  27.593  1.00  0.00     0.131 A 
ATOM     66  C   UNL A   1      38.157  29.912  30.321  1.00  0.00     0.055 A 
ATOM     67  C   UNL A   1      36.846  30.329  28.373  1.00  0.00     0.041 A 
ATOM     68  F   UNL A   1      37.583  29.721  26.296  1.00  0.00    -0.206 F 
ATOM     69  C   UNL A   1      36.963  30.343  29.749  1.00  0.00     0.022 A 
BRANCH  66  70
ATOM     70  S   UNL A   1      38.278  29.736  32.117  1.00  0.00     0.124 S 
ATOM     71  O   UNL A   1      37.130  28.884  32.410  1.00  0.00    -0.237 OA
ATOM     72  O   UNL A   1      39.592  29.123  32.270  1.00  0.00    -0.237 OA
ATOM     73  O   UNL A   1      38.171  31.111  32.598  1.00  0.00    -0.744 OA
ENDBRANCH  66  70
ENDBRANCH  49  63
BRANCH  50  74
ATOM     74  C   UNL A   1      44.609  25.757  33.760  1.00  0.00     0.023 A 
ATOM     75  C   UNL A   1      43.524  26.071  34.612  1.00  0.00     0.031 A 
ATOM     76  C   UNL A   1      45.585  24.880  34.289  1.00  0.00     0.131 A 
ATOM     77  C   UNL A   1      43.463  25.530  35.924  1.00  0.00     0.055 A 
ATOM     78  C   UNL A   1      45.520  24.351  35.580  1.00  0.00     0.041 A 
ATOM     79  F   UNL A   1      46.606  24.442  33.536  1.00  0.00    -0.206 F 
ATOM     80  C   UNL A   1      44.454  24.669  36.402  1.00  0.00     0.022 A 
BRANCH  77  81
ATOM     81  S   UNL A   1      42.053  25.890  37.029  1.00  0.00     0.124 S 
ATOM     82  O   UNL A   1      41.370  24.604  37.093  1.00  0.00    -0.237 OA
ATOM     83  O   UNL A   1      42.717  26.336  38.249  1.00  0.00    -0.237 OA
ATOM     84  O   UNL A   1      41.318  26.938  36.318  1.00  0.00    -0.744 OA
ENDBRANCH  77  81
ENDBRANCH  50  74
BRANCH  62  85
ATOM     85  C   UNL A   1      45.924  28.437  28.111  1.00  0.00     0.023 A 
ATOM     86  C   UNL A   1      46.320  27.184  27.584  1.00  0.00     0.031 A 
ATOM     87  C   UNL A   1      46.836  29.503  28.008  1.00  0.00     0.131 A 
ATOM     88  C   UNL A   1      47.590  27.042  26.983  1.00  0.00     0.055 A 
ATOM     89  C   UNL A   1      48.079  29.363  27.393  1.00  0.00     0.041 A 
ATOM     90  F   UNL A   1      46.508  30.722  28.466  1.00  0.00    -0.206 F 
ATOM     91  C   UNL A   1      48.463  28.131  26.880  1.00  0.00     0.022 A 
BRANCH  88  92
ATOM     92  S   UNL A   1      48.145  25.432  26.326  1.00  0.00     0.124 S 
ATOM     93  O   UNL A   1      49.267  25.788  25.465  1.00  0.00    -0.237 OA
ATOM     94  O   UNL A   1      48.479  24.693  27.542  1.00  0.00    -0.237 OA
ATOM     95  O   UNL A   1      46.967  24.930  25.616  1.00  0.00    -0.744 OA
ENDBRANCH  88  92
ENDBRANCH  62  85
ENDBRANCH  36  37
ENDBRANCH  29  31
ENDBRANCH  28  29
ENDBRANCH  27  28
ENDBRANCH  26  27
ENDBRANCH   1  26
TORSDOF 20
ENDMDL
MODEL 3
REMARK VINA RESULT:     -11.3      4.398      5.956
REMARK SMILES Cc1nsc(NC(=O)c2ccc(N)cc2)c1C(=O)OCCOCCOC(=O)c1ccc(-c2c3nc(c(-c4cc(S(=O)(=O)[O-])ccc4F)c4ccc([nH]4)c(-c4cc(S(=O)(=O)[O-])ccc4F)c4nc(c(-c5cc(S(=O)(=O)[O-])ccc5F)c5ccc2[nH]5)C=C4)C=C3)cc1
REMARK SMILES IDX 22 1 21 2 20 3 19 4 17 5 18 6 16 7 1 8 2 9 3 10 4 11 5 12
REMARK SMILES IDX 6 13 7 14 8 16 9 17 10 18 15 19 11 20 14 21 12 22 13 23
REMARK SMILES IDX 23 26 24 27 25 28 26 29 27 30 28 31 29 32 90 33 30 34 89 35
REMARK SMILES IDX 31 36 32 37 33 38 83 39 34 40 88 41 82 42 84 43 35 44 87 45
REMARK SMILES IDX 81 46 80 47 36 49 68 50 48 51 67 52 49 53 52 54 66 55 85 56
REMARK SMILES IDX 50 57 51 58 65 60 86 61 53 62 37 63 38 64 46 65 39 66 45 67
REMARK SMILES IDX 47 68 44 69 40 70 41 71 42 72 43 73 69 74 70 75 78 76 71 77
REMARK SMILES IDX 77 78 79 79 76 80 72 81 73 82 74 83 75 84 54 85 55 86 63 87
REMARK SMILES IDX 56 88 62 89 64 90 61 91 57 92 58 93 59 94 60 95
REMARK H PARENT 6 15 13 24 13 25 84 48 52 59
REMARK Flexibility Score: inf
ROOT
ATOM      1  O   UNL A   1      33.005  30.824  27.232  1.00  0.00    -0.374 OA
ENDROOT
BRANCH   1   2
ATOM      2  C   UNL A   1      32.932  29.408  27.071  1.00  0.00     0.202 C 
BRANCH   2   3
ATOM      3  C   UNL A   1      31.652  28.696  27.518  1.00  0.00     0.261 C 
BRANCH   3   4
ATOM      4  O   UNL A   1      31.777  27.267  27.423  1.00  0.00    -0.460 OA
BRANCH   4   5
ATOM      5  C   UNL A   1      32.263  26.799  26.240  1.00  0.00     0.343 C 
ATOM      6  O   UNL A   1      33.368  26.292  26.093  1.00  0.00    -0.246 OA
BRANCH   5   7
ATOM      7  C   UNL A   1      31.241  26.750  25.210  1.00  0.00     0.117 A 
ATOM      8  C   UNL A   1      32.127  28.553  23.521  1.00  0.00     0.069 C 
ATOM      9  C   UNL A   1      31.149  27.542  24.010  1.00  0.00     0.068 A 
ATOM     10  N   UNL A   1      30.058  27.343  23.269  1.00  0.00    -0.195 NA
ATOM     11  S   UNL A   1      29.063  26.283  24.047  1.00  0.00    -0.017 S 
ATOM     12  C   UNL A   1      30.121  25.934  25.331  1.00  0.00     0.131 A 
BRANCH  12  13
ATOM     13  N   UNL A   1      29.798  25.103  26.395  1.00  0.00    -0.312 N 
ATOM     14  C   UNL A   1      30.161  23.807  26.680  1.00  0.00     0.256 C 
ATOM     15  H   UNL A   1      29.204  25.514  27.064  1.00  0.00     0.171 HD
ATOM     16  O   UNL A   1      29.470  23.129  27.438  1.00  0.00    -0.269 OA
BRANCH  14  17
ATOM     17  C   UNL A   1      31.426  23.233  26.184  1.00  0.00     0.040 A 
ATOM     18  C   UNL A   1      32.517  23.076  27.042  1.00  0.00     0.016 A 
ATOM     19  C   UNL A   1      31.506  22.795  24.860  1.00  0.00     0.016 A 
ATOM     20  C   UNL A   1      33.729  22.606  26.538  1.00  0.00     0.026 A 
ATOM     21  C   UNL A   1      32.719  22.302  24.374  1.00  0.00     0.026 A 
ATOM     22  C   UNL A   1      33.855  22.269  25.188  1.00  0.00     0.031 A 
BRANCH  22  23
ATOM     23  N   UNL A   1      35.056  21.770  24.705  1.00  0.00    -0.399 N 
ATOM     24  H   UNL A   1      35.180  20.799  24.601  1.00  0.00     0.156 HD
ATOM     25  H   UNL A   1      35.786  22.387  24.469  1.00  0.00     0.156 HD
ENDBRANCH  22  23
ENDBRANCH  14  17
ENDBRANCH  12  13
ENDBRANCH   5   7
ENDBRANCH   4   5
ENDBRANCH   3   4
ENDBRANCH   2   3
ENDBRANCH   1   2
BRANCH   1  26
ATOM     26  C   UNL A   1      34.098  31.422  27.923  1.00  0.00     0.202 C 
BRANCH  26  27
ATOM     27  C   UNL A   1      35.514  30.921  27.680  1.00  0.00     0.261 C 
BRANCH  27  28
ATOM     28  O   UNL A   1      35.857  29.893  28.590  1.00  0.00    -0.460 OA
BRANCH  28  29
ATOM     29  C   UNL A   1      37.074  30.065  29.161  1.00  0.00     0.338 C 
ATOM     30  O   UNL A   1      37.393  30.909  29.969  1.00  0.00    -0.246 OA
BRANCH  29  31
ATOM     31  C   UNL A   1      37.992  29.081  28.577  1.00  0.00     0.060 A 
ATOM     32  C   UNL A   1      38.360  28.032  29.420  1.00  0.00     0.016 A 
ATOM     33  C   UNL A   1      38.706  29.403  27.413  1.00  0.00     0.016 A 
ATOM     34  C   UNL A   1      39.626  27.522  29.279  1.00  0.00     0.010 A 
ATOM     35  C   UNL A   1      39.966  28.890  27.273  1.00  0.00     0.010 A 
ATOM     36  C   UNL A   1      40.445  28.065  28.286  1.00  0.00    -0.014 A 
BRANCH  36  37
ATOM     37  C   UNL A   1      41.848  27.735  28.299  1.00  0.00     0.031 A 
ATOM     38  C   UNL A   1      42.114  26.456  27.615  1.00  0.00     0.074 A 
ATOM     39  C   UNL A   1      42.770  28.587  28.787  1.00  0.00     0.049 A 
ATOM     40  N   UNL A   1      42.407  25.323  28.157  1.00  0.00    -0.248 NA
ATOM     41  C   UNL A   1      41.758  26.367  26.188  1.00  0.00     0.031 C 
ATOM     42  C   UNL A   1      42.599  29.968  29.251  1.00  0.00     0.029 A 
ATOM     43  N   UNL A   1      44.110  28.411  28.881  1.00  0.00    -0.354 N 
ATOM     44  C   UNL A   1      42.533  24.440  27.095  1.00  0.00     0.074 A 
ATOM     45  C   UNL A   1      41.865  25.055  25.981  1.00  0.00     0.031 C 
ATOM     46  C   UNL A   1      43.812  30.566  29.335  1.00  0.00     0.029 A 
ATOM     47  C   UNL A   1      44.845  29.578  29.066  1.00  0.00     0.049 A 
ATOM     48  H   UNL A   1      44.532  27.523  28.823  1.00  0.00     0.167 HD
ATOM     49  C   UNL A   1      43.436  23.425  27.133  1.00  0.00     0.034 A 
ATOM     50  C   UNL A   1      46.194  29.704  28.900  1.00  0.00     0.034 A 
ATOM     51  C   UNL A   1      43.879  23.178  28.486  1.00  0.00     0.049 A 
ATOM     52  C   UNL A   1      46.749  28.324  29.008  1.00  0.00     0.074 A 
ATOM     53  C   UNL A   1      43.240  22.814  29.656  1.00  0.00     0.029 A 
ATOM     54  N   UNL A   1      45.086  23.718  28.876  1.00  0.00    -0.354 N 
ATOM     55  N   UNL A   1      46.691  27.622  30.112  1.00  0.00    -0.248 NA
ATOM     56  C   UNL A   1      46.854  27.534  27.785  1.00  0.00     0.031 C 
ATOM     57  C   UNL A   1      43.852  23.607  30.670  1.00  0.00     0.029 A 
ATOM     58  C   UNL A   1      44.893  24.337  30.089  1.00  0.00     0.049 A 
ATOM     59  H   UNL A   1      45.934  23.669  28.377  1.00  0.00     0.167 HD
ATOM     60  C   UNL A   1      46.332  26.341  29.715  1.00  0.00     0.074 A 
ATOM     61  C   UNL A   1      46.509  26.332  28.261  1.00  0.00     0.031 C 
ATOM     62  C   UNL A   1      45.634  25.504  30.540  1.00  0.00     0.034 A 
BRANCH  49  63
ATOM     63  C   UNL A   1      44.194  22.930  25.926  1.00  0.00     0.023 A 
ATOM     64  C   UNL A   1      44.246  21.540  25.729  1.00  0.00     0.031 A 
ATOM     65  C   UNL A   1      45.083  23.700  25.136  1.00  0.00     0.131 A 
ATOM     66  C   UNL A   1      45.194  20.973  24.863  1.00  0.00     0.055 A 
ATOM     67  C   UNL A   1      45.975  23.135  24.224  1.00  0.00     0.041 A 
ATOM     68  F   UNL A   1      45.221  25.024  25.266  1.00  0.00    -0.206 F 
ATOM     69  C   UNL A   1      46.058  21.761  24.106  1.00  0.00     0.022 A 
BRANCH  66  70
ATOM     70  S   UNL A   1      45.401  19.177  24.878  1.00  0.00     0.124 S 
ATOM     71  O   UNL A   1      44.108  18.734  25.389  1.00  0.00    -0.237 OA
ATOM     72  O   UNL A   1      45.671  18.895  23.473  1.00  0.00    -0.237 OA
ATOM     73  O   UNL A   1      46.529  18.975  25.784  1.00  0.00    -0.744 OA
ENDBRANCH  66  70
ENDBRANCH  49  63
BRANCH  50  74
ATOM     74  C   UNL A   1      46.885  30.832  28.197  1.00  0.00     0.023 A 
ATOM     75  C   UNL A   1      46.226  31.764  27.362  1.00  0.00     0.031 A 
ATOM     76  C   UNL A   1      48.225  31.134  28.536  1.00  0.00     0.131 A 
ATOM     77  C   UNL A   1      46.912  32.918  26.896  1.00  0.00     0.055 A 
ATOM     78  C   UNL A   1      48.893  32.271  28.076  1.00  0.00     0.041 A 
ATOM     79  F   UNL A   1      48.913  30.368  29.397  1.00  0.00    -0.206 F 
ATOM     80  C   UNL A   1      48.237  33.173  27.258  1.00  0.00     0.022 A 
BRANCH  77  81
ATOM     81  S   UNL A   1      46.071  34.156  25.848  1.00  0.00     0.124 S 
ATOM     82  O   UNL A   1      45.512  35.073  26.833  1.00  0.00    -0.237 OA
ATOM     83  O   UNL A   1      47.164  34.669  25.030  1.00  0.00    -0.237 OA
ATOM     84  O   UNL A   1      45.078  33.368  25.113  1.00  0.00    -0.744 OA
ENDBRANCH  77  81
ENDBRANCH  50  74
BRANCH  62  85
ATOM     85  C   UNL A   1      45.451  25.899  31.996  1.00  0.00     0.023 A 
ATOM     86  C   UNL A   1      44.263  26.419  32.563  1.00  0.00     0.031 A 
ATOM     87  C   UNL A   1      46.501  25.574  32.873  1.00  0.00     0.131 A 
ATOM     88  C   UNL A   1      44.166  26.594  33.961  1.00  0.00     0.055 A 
ATOM     89  C   UNL A   1      46.392  25.726  34.254  1.00  0.00     0.041 A 
ATOM     90  F   UNL A   1      47.644  25.052  32.398  1.00  0.00    -0.206 F 
ATOM     91  C   UNL A   1      45.225  26.239  34.804  1.00  0.00     0.022 A 
BRANCH  88  92
ATOM     92  S   UNL A   1      42.662  27.296  34.720  1.00  0.00     0.124 S 
ATOM     93  O   UNL A   1      42.120  26.180  35.487  1.00  0.00    -0.237 OA
ATOM     94  O   UNL A   1      43.193  28.411  35.500  1.00  0.00    -0.237 OA
ATOM     95  O   UNL A   1      41.852  27.692  33.567  1.00  0.00    -0.744 OA
ENDBRANCH  88  92
ENDBRANCH  62  85
ENDBRANCH  36  37
ENDBRANCH  29  31
ENDBRANCH  28  29
ENDBRANCH  27  28
ENDBRANCH  26  27
ENDBRANCH   1  26
TORSDOF 20
ENDMDL
