MODEL 1
REMARK VINA RESULT:     -10.3      0.000      0.000
REMARK SMILES CN(C(=O)CC(=O)OCCOCCOC(=O)c1ccc(-c2c3nc(c(-c4cc(S(=O)(=O)[O-])ccc4F)c4ccc([nH]4)c(-c4cc(S(=O)(=O)[O-])ccc4F)c4nc(c(-c5cc(S(=O)(=O)[O-])ccc5F)c5ccc2[nH]5)C=C4)C=C3)cc1)C1CCC(C)(C)CC1
REMARK SMILES IDX 11 1 10 2 9 3 8 4 6 5 7 6 5 7 3 8 4 9 2 10 1 11 80 12 81 13
REMARK SMILES IDX 87 14 82 15 86 16 83 17 84 18 85 19 12 20 13 21 14 22 15 23
REMARK SMILES IDX 16 24 17 25 18 26 79 27 19 28 78 29 20 30 21 31 22 32 72 33
REMARK SMILES IDX 23 34 77 35 71 36 73 37 24 38 76 39 70 40 69 41 25 43 57 44
REMARK SMILES IDX 37 45 56 46 38 47 41 48 55 49 74 50 39 51 40 52 54 54 75 55
REMARK SMILES IDX 42 56 26 57 27 58 35 59 28 60 34 61 36 62 33 63 29 64 30 65
REMARK SMILES IDX 31 66 32 67 58 68 59 69 67 70 60 71 66 72 68 73 65 74 61 75
REMARK SMILES IDX 62 76 63 77 64 78 43 79 44 80 52 81 45 82 51 83 53 84 50 85
REMARK SMILES IDX 46 86 47 87 48 88 49 89
REMARK H PARENT 73 42 41 53
REMARK Flexibility Score: inf
ROOT
ATOM      1  O   UNL A   1      35.804  21.176  25.872  1.00  0.00    -0.374 OA
ENDROOT
BRANCH   1   2
ATOM      2  C   UNL A   1      35.461  22.495  25.469  1.00  0.00     0.202 C 
BRANCH   2   3
ATOM      3  C   UNL A   1      35.471  22.879  23.976  1.00  0.00     0.261 C 
BRANCH   3   4
ATOM      4  O   UNL A   1      34.209  22.811  23.282  1.00  0.00    -0.463 OA
BRANCH   4   5
ATOM      5  C   UNL A   1      33.630  24.015  23.029  1.00  0.00     0.315 C 
ATOM      6  O   UNL A   1      34.241  25.000  22.618  1.00  0.00    -0.252 OA
BRANCH   5   7
ATOM      7  C   UNL A   1      32.144  24.077  23.223  1.00  0.00     0.222 C 
BRANCH   7   8
ATOM      8  C   UNL A   1      31.559  23.648  24.546  1.00  0.00     0.233 C 
ATOM      9  O   UNL A   1      30.930  22.590  24.537  1.00  0.00    -0.274 OA
BRANCH   8  10
ATOM     10  N   UNL A   1      31.826  24.371  25.715  1.00  0.00    -0.342 N 
ATOM     11  C   UNL A   1      32.640  23.812  26.795  1.00  0.00     0.147 C 
BRANCH  10  12
ATOM     12  C   UNL A   1      31.153  25.669  26.066  1.00  0.00     0.084 C 
ATOM     13  C   UNL A   1      32.147  26.777  26.449  1.00  0.00     0.025 C 
ATOM     14  C   UNL A   1      30.103  26.276  25.116  1.00  0.00     0.025 C 
ATOM     15  C   UNL A   1      32.808  27.391  25.221  1.00  0.00     0.008 C 
ATOM     16  C   UNL A   1      30.662  27.047  23.916  1.00  0.00     0.008 C 
ATOM     17  C   UNL A   1      31.815  28.018  24.223  1.00  0.00    -0.035 C 
ATOM     18  C   UNL A   1      32.531  28.314  22.888  1.00  0.00     0.011 C 
ATOM     19  C   UNL A   1      31.274  29.350  24.773  1.00  0.00     0.011 C 
ENDBRANCH  10  12
ENDBRANCH   8  10
ENDBRANCH   7   8
ENDBRANCH   5   7
ENDBRANCH   4   5
ENDBRANCH   3   4
ENDBRANCH   2   3
ENDBRANCH   1   2
BRANCH   1  20
ATOM     20  C   UNL A   1      36.560  20.373  24.982  1.00  0.00     0.202 C 
BRANCH  20  21
ATOM     21  C   UNL A   1      38.076  20.225  25.166  1.00  0.00     0.261 C 
BRANCH  21  22
ATOM     22  O   UNL A   1      38.788  21.434  25.433  1.00  0.00    -0.460 OA
BRANCH  22  23
ATOM     23  C   UNL A   1      39.698  21.363  26.432  1.00  0.00     0.338 C 
ATOM     24  O   UNL A   1      40.189  20.359  26.924  1.00  0.00    -0.246 OA
BRANCH  23  25
ATOM     25  C   UNL A   1      39.963  22.726  26.906  1.00  0.00     0.060 A 
ATOM     26  C   UNL A   1      39.221  23.815  26.445  1.00  0.00     0.016 A 
ATOM     27  C   UNL A   1      41.010  22.914  27.801  1.00  0.00     0.016 A 
ATOM     28  C   UNL A   1      39.551  25.107  26.872  1.00  0.00     0.010 A 
ATOM     29  C   UNL A   1      41.279  24.191  28.284  1.00  0.00     0.010 A 
ATOM     30  C   UNL A   1      40.592  25.311  27.791  1.00  0.00    -0.014 A 
BRANCH  30  31
ATOM     31  C   UNL A   1      41.097  26.671  28.139  1.00  0.00     0.031 A 
ATOM     32  C   UNL A   1      42.519  27.032  27.764  1.00  0.00     0.074 A 
ATOM     33  C   UNL A   1      40.336  27.559  28.810  1.00  0.00     0.049 A 
ATOM     34  N   UNL A   1      43.231  28.079  28.091  1.00  0.00    -0.248 NA
ATOM     35  C   UNL A   1      43.256  26.041  26.960  1.00  0.00     0.031 C 
ATOM     36  C   UNL A   1      38.962  27.334  29.257  1.00  0.00     0.029 A 
ATOM     37  N   UNL A   1      40.617  28.835  29.237  1.00  0.00    -0.354 N 
ATOM     38  C   UNL A   1      44.505  27.842  27.579  1.00  0.00     0.074 A 
ATOM     39  C   UNL A   1      44.488  26.516  27.007  1.00  0.00     0.031 C 
ATOM     40  C   UNL A   1      38.507  28.446  29.860  1.00  0.00     0.029 A 
ATOM     41  C   UNL A   1      39.571  29.446  29.894  1.00  0.00     0.049 A 
ATOM     42  H   UNL A   1      41.485  29.273  29.087  1.00  0.00     0.167 HD
ATOM     43  C   UNL A   1      45.579  28.668  27.544  1.00  0.00     0.034 A 
ATOM     44  C   UNL A   1      39.488  30.665  30.467  1.00  0.00     0.034 A 
ATOM     45  C   UNL A   1      45.560  30.013  28.060  1.00  0.00     0.049 A 
ATOM     46  C   UNL A   1      40.697  31.574  30.421  1.00  0.00     0.074 A 
ATOM     47  C   UNL A   1      46.561  30.965  28.025  1.00  0.00     0.029 A 
ATOM     48  N   UNL A   1      44.473  30.598  28.698  1.00  0.00    -0.354 N 
ATOM     49  N   UNL A   1      41.885  31.347  29.906  1.00  0.00    -0.248 NA
ATOM     50  C   UNL A   1      40.550  32.906  31.023  1.00  0.00     0.031 C 
ATOM     51  C   UNL A   1      46.108  32.099  28.703  1.00  0.00     0.029 A 
ATOM     52  C   UNL A   1      44.790  31.890  29.081  1.00  0.00     0.049 A 
ATOM     53  H   UNL A   1      43.607  30.159  28.856  1.00  0.00     0.167 HD
ATOM     54  C   UNL A   1      42.609  32.525  30.086  1.00  0.00     0.074 A 
ATOM     55  C   UNL A   1      41.722  33.458  30.748  1.00  0.00     0.031 C 
ATOM     56  C   UNL A   1      43.887  32.812  29.730  1.00  0.00     0.034 A 
BRANCH  43  57
ATOM     57  C   UNL A   1      46.858  28.129  26.939  1.00  0.00     0.023 A 
ATOM     58  C   UNL A   1      47.126  28.228  25.561  1.00  0.00     0.031 A 
ATOM     59  C   UNL A   1      47.798  27.458  27.740  1.00  0.00     0.131 A 
ATOM     60  C   UNL A   1      48.241  27.579  25.013  1.00  0.00     0.055 A 
ATOM     61  C   UNL A   1      48.962  26.903  27.203  1.00  0.00     0.041 A 
ATOM     62  F   UNL A   1      47.593  27.310  29.058  1.00  0.00    -0.206 F 
ATOM     63  C   UNL A   1      49.178  26.942  25.829  1.00  0.00     0.022 A 
BRANCH  60  64
ATOM     64  S   UNL A   1      48.349  27.421  23.210  1.00  0.00     0.124 S 
ATOM     65  O   UNL A   1      47.161  28.159  22.781  1.00  0.00    -0.237 OA
ATOM     66  O   UNL A   1      49.631  28.048  22.914  1.00  0.00    -0.237 OA
ATOM     67  O   UNL A   1      48.291  25.979  22.987  1.00  0.00    -0.744 OA
ENDBRANCH  60  64
ENDBRANCH  43  57
BRANCH  44  68
ATOM     68  C   UNL A   1      38.229  31.112  31.135  1.00  0.00     0.023 A 
ATOM     69  C   UNL A   1      37.195  31.718  30.402  1.00  0.00     0.031 A 
ATOM     70  C   UNL A   1      38.061  30.991  32.527  1.00  0.00     0.131 A 
ATOM     71  C   UNL A   1      36.066  32.226  31.066  1.00  0.00     0.055 A 
ATOM     72  C   UNL A   1      36.909  31.444  33.175  1.00  0.00     0.041 A 
ATOM     73  F   UNL A   1      39.017  30.423  33.280  1.00  0.00    -0.206 F 
ATOM     74  C   UNL A   1      35.909  32.078  32.446  1.00  0.00     0.022 A 
BRANCH  71  75
ATOM     75  S   UNL A   1      34.849  33.175  30.112  1.00  0.00     0.124 S 
ATOM     76  O   UNL A   1      34.325  32.159  29.207  1.00  0.00    -0.237 OA
ATOM     77  O   UNL A   1      33.940  33.638  31.155  1.00  0.00    -0.237 OA
ATOM     78  O   UNL A   1      35.652  34.220  29.479  1.00  0.00    -0.744 OA
ENDBRANCH  71  75
ENDBRANCH  44  68
BRANCH  56  79
ATOM     79  C   UNL A   1      44.382  34.216  29.979  1.00  0.00     0.023 A 
ATOM     80  C   UNL A   1      44.152  35.262  29.069  1.00  0.00     0.031 A 
ATOM     81  C   UNL A   1      45.078  34.512  31.166  1.00  0.00     0.131 A 
ATOM     82  C   UNL A   1      44.657  36.543  29.338  1.00  0.00     0.055 A 
ATOM     83  C   UNL A   1      45.518  35.802  31.459  1.00  0.00     0.041 A 
ATOM     84  F   UNL A   1      45.328  33.550  32.069  1.00  0.00    -0.206 F 
ATOM     85  C   UNL A   1      45.320  36.824  30.537  1.00  0.00     0.022 A 
BRANCH  82  86
ATOM     86  S   UNL A   1      44.519  37.820  28.057  1.00  0.00     0.124 S 
ATOM     87  O   UNL A   1      43.358  38.578  28.511  1.00  0.00    -0.237 OA
ATOM     88  O   UNL A   1      45.806  38.501  28.157  1.00  0.00    -0.237 OA
ATOM     89  O   UNL A   1      44.318  37.054  26.829  1.00  0.00    -0.744 OA
ENDBRANCH  82  86
ENDBRANCH  56  79
ENDBRANCH  30  31
ENDBRANCH  23  25
ENDBRANCH  22  23
ENDBRANCH  21  22
ENDBRANCH  20  21
ENDBRANCH   1  20
TORSDOF 20
ENDMDL
MODEL 2
REMARK VINA RESULT:     -10.2      4.687     10.167
REMARK SMILES CN(C(=O)CC(=O)OCCOCCOC(=O)c1ccc(-c2c3nc(c(-c4cc(S(=O)(=O)[O-])ccc4F)c4ccc([nH]4)c(-c4cc(S(=O)(=O)[O-])ccc4F)c4nc(c(-c5cc(S(=O)(=O)[O-])ccc5F)c5ccc2[nH]5)C=C4)C=C3)cc1)C1CCC(C)(C)CC1
REMARK SMILES IDX 11 1 10 2 9 3 8 4 6 5 7 6 5 7 3 8 4 9 2 10 1 11 80 12 81 13
REMARK SMILES IDX 87 14 82 15 86 16 83 17 84 18 85 19 12 20 13 21 14 22 15 23
REMARK SMILES IDX 16 24 17 25 18 26 79 27 19 28 78 29 20 30 21 31 22 32 72 33
REMARK SMILES IDX 23 34 77 35 71 36 73 37 24 38 76 39 70 40 69 41 25 43 57 44
REMARK SMILES IDX 37 45 56 46 38 47 41 48 55 49 74 50 39 51 40 52 54 54 75 55
REMARK SMILES IDX 42 56 26 57 27 58 35 59 28 60 34 61 36 62 33 63 29 64 30 65
REMARK SMILES IDX 31 66 32 67 58 68 59 69 67 70 60 71 66 72 68 73 65 74 61 75
REMARK SMILES IDX 62 76 63 77 64 78 43 79 44 80 52 81 45 82 51 83 53 84 50 85
REMARK SMILES IDX 46 86 47 87 48 88 49 89
REMARK H PARENT 73 42 41 53
REMARK Flexibility Score: inf
ROOT
ATOM      1  O   UNL A   1      31.561  29.964  25.209  1.00  0.00    -0.374 OA
ENDROOT
BRANCH   1   2
ATOM      2  C   UNL A   1      32.854  29.483  24.870  1.00  0.00     0.202 C 
BRANCH   2   3
ATOM      3  C   UNL A   1      33.093  27.975  24.660  1.00  0.00     0.261 C 
BRANCH   3   4
ATOM      4  O   UNL A   1      31.950  27.110  24.816  1.00  0.00    -0.463 OA
BRANCH   4   5
ATOM      5  C   UNL A   1      31.881  26.463  26.010  1.00  0.00     0.315 C 
ATOM      6  O   UNL A   1      31.208  26.849  26.964  1.00  0.00    -0.252 OA
BRANCH   5   7
ATOM      7  C   UNL A   1      32.645  25.175  26.098  1.00  0.00     0.222 C 
BRANCH   7   8
ATOM      8  C   UNL A   1      31.919  23.920  26.515  1.00  0.00     0.233 C 
ATOM      9  O   UNL A   1      30.948  24.083  27.254  1.00  0.00    -0.274 OA
BRANCH   8  10
ATOM     10  N   UNL A   1      32.284  22.674  25.992  1.00  0.00    -0.342 N 
ATOM     11  C   UNL A   1      31.395  21.925  25.102  1.00  0.00     0.147 C 
BRANCH  10  12
ATOM     12  C   UNL A   1      33.494  21.902  26.439  1.00  0.00     0.084 C 
ATOM     13  C   UNL A   1      33.910  20.807  25.443  1.00  0.00     0.025 C 
ATOM     14  C   UNL A   1      34.765  22.649  26.887  1.00  0.00     0.025 C 
ATOM     15  C   UNL A   1      34.656  21.386  24.248  1.00  0.00     0.008 C 
ATOM     16  C   UNL A   1      35.671  23.151  25.759  1.00  0.00     0.008 C 
ATOM     17  C   UNL A   1      35.941  22.150  24.622  1.00  0.00    -0.035 C 
ATOM     18  C   UNL A   1      36.440  22.962  23.408  1.00  0.00     0.011 C 
ATOM     19  C   UNL A   1      37.054  21.164  25.020  1.00  0.00     0.011 C 
ENDBRANCH  10  12
ENDBRANCH   8  10
ENDBRANCH   7   8
ENDBRANCH   5   7
ENDBRANCH   4   5
ENDBRANCH   3   4
ENDBRANCH   2   3
ENDBRANCH   1   2
BRANCH   1  20
ATOM     20  C   UNL A   1      31.391  30.627  26.450  1.00  0.00     0.202 C 
BRANCH  20  21
ATOM     21  C   UNL A   1      32.362  31.734  26.879  1.00  0.00     0.261 C 
BRANCH  21  22
ATOM     22  O   UNL A   1      33.385  31.341  27.795  1.00  0.00    -0.460 OA
BRANCH  22  23
ATOM     23  C   UNL A   1      34.439  32.185  27.884  1.00  0.00     0.338 C 
ATOM     24  O   UNL A   1      34.456  33.385  27.657  1.00  0.00    -0.246 OA
BRANCH  23  25
ATOM     25  C   UNL A   1      35.626  31.397  28.236  1.00  0.00     0.060 A 
ATOM     26  C   UNL A   1      35.556  30.014  28.414  1.00  0.00     0.016 A 
ATOM     27  C   UNL A   1      36.825  32.074  28.433  1.00  0.00     0.016 A 
ATOM     28  C   UNL A   1      36.698  29.310  28.817  1.00  0.00     0.010 A 
ATOM     29  C   UNL A   1      37.973  31.356  28.752  1.00  0.00     0.010 A 
ATOM     30  C   UNL A   1      37.919  29.976  28.999  1.00  0.00    -0.014 A 
BRANCH  30  31
ATOM     31  C   UNL A   1      39.113  29.308  29.595  1.00  0.00     0.031 A 
ATOM     32  C   UNL A   1      39.612  29.787  30.942  1.00  0.00     0.074 A 
ATOM     33  C   UNL A   1      39.775  28.328  28.946  1.00  0.00     0.049 A 
ATOM     34  N   UNL A   1      40.707  29.479  31.587  1.00  0.00    -0.248 NA
ATOM     35  C   UNL A   1      38.788  30.800  31.623  1.00  0.00     0.031 C 
ATOM     36  C   UNL A   1      39.421  27.790  27.632  1.00  0.00     0.029 A 
ATOM     37  N   UNL A   1      40.890  27.611  29.307  1.00  0.00    -0.354 N 
ATOM     38  C   UNL A   1      40.723  30.298  32.714  1.00  0.00     0.074 A 
ATOM     39  C   UNL A   1      39.582  31.176  32.610  1.00  0.00     0.031 C 
ATOM     40  C   UNL A   1      40.277  26.804  27.316  1.00  0.00     0.029 A 
ATOM     41  C   UNL A   1      41.275  26.673  28.374  1.00  0.00     0.049 A 
ATOM     42  H   UNL A   1      41.370  27.754  30.154  1.00  0.00     0.167 HD
ATOM     43  C   UNL A   1      41.580  30.290  33.764  1.00  0.00     0.034 A 
ATOM     44  C   UNL A   1      42.319  25.817  28.372  1.00  0.00     0.034 A 
ATOM     45  C   UNL A   1      42.675  29.363  33.884  1.00  0.00     0.049 A 
ATOM     46  C   UNL A   1      43.267  25.823  29.550  1.00  0.00     0.074 A 
ATOM     47  C   UNL A   1      43.571  29.215  34.927  1.00  0.00     0.029 A 
ATOM     48  N   UNL A   1      43.017  28.415  32.926  1.00  0.00    -0.354 N 
ATOM     49  N   UNL A   1      43.252  26.583  30.622  1.00  0.00    -0.248 NA
ATOM     50  C   UNL A   1      44.367  24.850  29.523  1.00  0.00     0.031 C 
ATOM     51  C   UNL A   1      44.495  28.229  34.571  1.00  0.00     0.029 A 
ATOM     52  C   UNL A   1      44.122  27.696  33.346  1.00  0.00     0.049 A 
ATOM     53  H   UNL A   1      42.543  28.276  32.076  1.00  0.00     0.167 HD
ATOM     54  C   UNL A   1      44.313  26.147  31.414  1.00  0.00     0.074 A 
ATOM     55  C   UNL A   1      44.941  25.055  30.699  1.00  0.00     0.031 C 
ATOM     56  C   UNL A   1      44.727  26.601  32.624  1.00  0.00     0.034 A 
BRANCH  43  57
ATOM     57  C   UNL A   1      41.367  31.324  34.849  1.00  0.00     0.023 A 
ATOM     58  C   UNL A   1      40.288  31.242  35.749  1.00  0.00     0.031 A 
ATOM     59  C   UNL A   1      42.221  32.435  34.953  1.00  0.00     0.131 A 
ATOM     60  C   UNL A   1      40.032  32.298  36.635  1.00  0.00     0.055 A 
ATOM     61  C   UNL A   1      42.020  33.433  35.910  1.00  0.00     0.041 A 
ATOM     62  F   UNL A   1      43.256  32.584  34.112  1.00  0.00    -0.206 F 
ATOM     63  C   UNL A   1      40.907  33.380  36.743  1.00  0.00     0.022 A 
BRANCH  60  64
ATOM     64  S   UNL A   1      38.442  32.324  37.508  1.00  0.00     0.124 S 
ATOM     65  O   UNL A   1      38.875  32.309  38.905  1.00  0.00    -0.237 OA
ATOM     66  O   UNL A   1      37.844  33.568  37.039  1.00  0.00    -0.237 OA
ATOM     67  O   UNL A   1      37.782  31.102  37.056  1.00  0.00    -0.744 OA
ENDBRANCH  60  64
ENDBRANCH  43  57
BRANCH  44  68
ATOM     68  C   UNL A   1      42.537  24.881  27.228  1.00  0.00     0.023 A 
ATOM     69  C   UNL A   1      42.041  23.566  27.262  1.00  0.00     0.031 A 
ATOM     70  C   UNL A   1      43.292  25.266  26.105  1.00  0.00     0.131 A 
ATOM     71  C   UNL A   1      42.349  22.671  26.224  1.00  0.00     0.055 A 
ATOM     72  C   UNL A   1      43.543  24.391  25.046  1.00  0.00     0.041 A 
ATOM     73  F   UNL A   1      43.793  26.509  26.018  1.00  0.00    -0.206 F 
ATOM     74  C   UNL A   1      43.083  23.080  25.108  1.00  0.00     0.022 A 
BRANCH  71  75
ATOM     75  S   UNL A   1      41.860  20.933  26.401  1.00  0.00     0.124 S 
ATOM     76  O   UNL A   1      42.679  20.290  25.380  1.00  0.00    -0.237 OA
ATOM     77  O   UNL A   1      42.223  20.655  27.786  1.00  0.00    -0.237 OA
ATOM     78  O   UNL A   1      40.424  20.953  26.128  1.00  0.00    -0.744 OA
ENDBRANCH  71  75
ENDBRANCH  44  68
BRANCH  56  79
ATOM     79  C   UNL A   1      45.868  25.870  33.290  1.00  0.00     0.023 A 
ATOM     80  C   UNL A   1      45.655  24.794  34.169  1.00  0.00     0.031 A 
ATOM     81  C   UNL A   1      47.195  26.250  33.018  1.00  0.00     0.131 A 
ATOM     82  C   UNL A   1      46.750  24.167  34.781  1.00  0.00     0.055 A 
ATOM     83  C   UNL A   1      48.282  25.578  33.577  1.00  0.00     0.041 A 
ATOM     84  F   UNL A   1      47.457  27.273  32.189  1.00  0.00    -0.206 F 
ATOM     85  C   UNL A   1      48.063  24.538  34.474  1.00  0.00     0.022 A 
BRANCH  82  86
ATOM     86  S   UNL A   1      46.437  22.918  36.059  1.00  0.00     0.124 S 
ATOM     87  O   UNL A   1      47.183  21.772  35.549  1.00  0.00    -0.237 OA
ATOM     88  O   UNL A   1      46.979  23.553  37.255  1.00  0.00    -0.237 OA
ATOM     89  O   UNL A   1      44.983  22.768  36.042  1.00  0.00    -0.744 OA
ENDBRANCH  82  86
ENDBRANCH  56  79
ENDBRANCH  30  31
ENDBRANCH  23  25
ENDBRANCH  22  23
ENDBRANCH  21  22
ENDBRANCH  20  21
ENDBRANCH   1  20
TORSDOF 20
ENDMDL
MODEL 3
REMARK VINA RESULT:     -10.2      1.053      1.909
REMARK SMILES CN(C(=O)CC(=O)OCCOCCOC(=O)c1ccc(-c2c3nc(c(-c4cc(S(=O)(=O)[O-])ccc4F)c4ccc([nH]4)c(-c4cc(S(=O)(=O)[O-])ccc4F)c4nc(c(-c5cc(S(=O)(=O)[O-])ccc5F)c5ccc2[nH]5)C=C4)C=C3)cc1)C1CCC(C)(C)CC1
REMARK SMILES IDX 11 1 10 2 9 3 8 4 6 5 7 6 5 7 3 8 4 9 2 10 1 11 80 12 81 13
REMARK SMILES IDX 87 14 82 15 86 16 83 17 84 18 85 19 12 20 13 21 14 22 15 23
REMARK SMILES IDX 16 24 17 25 18 26 79 27 19 28 78 29 20 30 21 31 22 32 72 33
REMARK SMILES IDX 23 34 77 35 71 36 73 37 24 38 76 39 70 40 69 41 25 43 57 44
REMARK SMILES IDX 37 45 56 46 38 47 41 48 55 49 74 50 39 51 40 52 54 54 75 55
REMARK SMILES IDX 42 56 26 57 27 58 35 59 28 60 34 61 36 62 33 63 29 64 30 65
REMARK SMILES IDX 31 66 32 67 58 68 59 69 67 70 60 71 66 72 68 73 65 74 61 75
REMARK SMILES IDX 62 76 63 77 64 78 43 79 44 80 52 81 45 82 51 83 53 84 50 85
REMARK SMILES IDX 46 86 47 87 48 88 49 89
REMARK H PARENT 73 42 41 53
REMARK Flexibility Score: inf
ROOT
ATOM      1  O   UNL A   1      35.438  21.163  24.601  1.00  0.00    -0.374 OA
ENDROOT
BRANCH   1   2
ATOM      2  C   UNL A   1      34.111  21.212  25.108  1.00  0.00     0.202 C 
BRANCH   2   3
ATOM      3  C   UNL A   1      33.214  22.432  24.822  1.00  0.00     0.261 C 
BRANCH   3   4
ATOM      4  O   UNL A   1      32.005  22.544  25.600  1.00  0.00    -0.463 OA
BRANCH   4   5
ATOM      5  C   UNL A   1      32.043  23.480  26.585  1.00  0.00     0.315 C 
ATOM      6  O   UNL A   1      31.605  23.302  27.721  1.00  0.00    -0.252 OA
BRANCH   5   7
ATOM      7  C   UNL A   1      32.722  24.770  26.233  1.00  0.00     0.222 C 
BRANCH   7   8
ATOM      8  C   UNL A   1      31.884  26.009  26.037  1.00  0.00     0.233 C 
ATOM      9  O   UNL A   1      30.825  26.045  26.664  1.00  0.00    -0.274 OA
BRANCH   8  10
ATOM     10  N   UNL A   1      32.358  27.080  25.270  1.00  0.00    -0.342 N 
ATOM     11  C   UNL A   1      33.152  28.157  25.862  1.00  0.00     0.147 C 
BRANCH  10  12
ATOM     12  C   UNL A   1      31.937  27.340  23.849  1.00  0.00     0.084 C 
ATOM     13  C   UNL A   1      33.127  27.460  22.883  1.00  0.00     0.025 C 
ATOM     14  C   UNL A   1      30.869  26.451  23.185  1.00  0.00     0.025 C 
ATOM     15  C   UNL A   1      33.698  26.095  22.520  1.00  0.00     0.008 C 
ATOM     16  C   UNL A   1      31.367  25.105  22.647  1.00  0.00     0.008 C 
ATOM     17  C   UNL A   1      32.682  25.149  21.850  1.00  0.00    -0.035 C 
ATOM     18  C   UNL A   1      33.246  23.713  21.818  1.00  0.00     0.011 C 
ATOM     19  C   UNL A   1      32.423  25.586  20.397  1.00  0.00     0.011 C 
ENDBRANCH  10  12
ENDBRANCH   8  10
ENDBRANCH   7   8
ENDBRANCH   5   7
ENDBRANCH   4   5
ENDBRANCH   3   4
ENDBRANCH   2   3
ENDBRANCH   1   2
BRANCH   1  20
ATOM     20  C   UNL A   1      36.268  20.081  24.986  1.00  0.00     0.202 C 
BRANCH  20  21
ATOM     21  C   UNL A   1      37.795  20.220  24.944  1.00  0.00     0.261 C 
BRANCH  21  22
ATOM     22  O   UNL A   1      38.321  21.441  25.464  1.00  0.00    -0.460 OA
BRANCH  22  23
ATOM     23  C   UNL A   1      39.467  21.324  26.174  1.00  0.00     0.338 C 
ATOM     24  O   UNL A   1      40.098  20.305  26.409  1.00  0.00    -0.246 OA
BRANCH  23  25
ATOM     25  C   UNL A   1      39.814  22.648  26.703  1.00  0.00     0.060 A 
ATOM     26  C   UNL A   1      39.042  23.774  26.412  1.00  0.00     0.016 A 
ATOM     27  C   UNL A   1      40.967  22.762  27.473  1.00  0.00     0.016 A 
ATOM     28  C   UNL A   1      39.447  25.030  26.882  1.00  0.00     0.010 A 
ATOM     29  C   UNL A   1      41.317  24.000  28.004  1.00  0.00     0.010 A 
ATOM     30  C   UNL A   1      40.596  25.158  27.677  1.00  0.00    -0.014 A 
BRANCH  30  31
ATOM     31  C   UNL A   1      41.166  26.485  28.051  1.00  0.00     0.031 A 
ATOM     32  C   UNL A   1      42.584  26.807  27.632  1.00  0.00     0.074 A 
ATOM     33  C   UNL A   1      40.466  27.375  28.784  1.00  0.00     0.049 A 
ATOM     34  N   UNL A   1      43.348  27.815  27.966  1.00  0.00    -0.248 NA
ATOM     35  C   UNL A   1      43.250  25.821  26.763  1.00  0.00     0.031 C 
ATOM     36  C   UNL A   1      39.103  27.184  29.279  1.00  0.00     0.029 A 
ATOM     37  N   UNL A   1      40.812  28.624  29.244  1.00  0.00    -0.354 N 
ATOM     38  C   UNL A   1      44.591  27.551  27.394  1.00  0.00     0.074 A 
ATOM     39  C   UNL A   1      44.500  26.248  26.777  1.00  0.00     0.031 C 
ATOM     40  C   UNL A   1      38.715  28.289  29.939  1.00  0.00     0.029 A 
ATOM     41  C   UNL A   1      39.817  29.247  29.965  1.00  0.00     0.049 A 
ATOM     42  H   UNL A   1      41.690  29.034  29.074  1.00  0.00     0.167 HD
ATOM     43  C   UNL A   1      45.693  28.338  27.344  1.00  0.00     0.034 A 
ATOM     44  C   UNL A   1      39.803  30.447  30.582  1.00  0.00     0.034 A 
ATOM     45  C   UNL A   1      45.745  29.662  27.907  1.00  0.00     0.049 A 
ATOM     46  C   UNL A   1      41.043  31.312  30.519  1.00  0.00     0.074 A 
ATOM     47  C   UNL A   1      46.780  30.578  27.864  1.00  0.00     0.029 A 
ATOM     48  N   UNL A   1      44.708  30.263  28.610  1.00  0.00    -0.354 N 
ATOM     49  N   UNL A   1      42.199  31.061  29.949  1.00  0.00    -0.248 NA
ATOM     50  C   UNL A   1      40.971  32.626  31.173  1.00  0.00     0.031 C 
ATOM     51  C   UNL A   1      46.397  31.703  28.600  1.00  0.00     0.029 A 
ATOM     52  C   UNL A   1      45.088  31.528  29.024  1.00  0.00     0.049 A 
ATOM     53  H   UNL A   1      43.833  29.851  28.787  1.00  0.00     0.167 HD
ATOM     54  C   UNL A   1      42.974  32.204  30.140  1.00  0.00     0.074 A 
ATOM     55  C   UNL A   1      42.151  33.145  30.870  1.00  0.00     0.031 C 
ATOM     56  C   UNL A   1      44.248  32.457  29.742  1.00  0.00     0.034 A 
BRANCH  43  57
ATOM     57  C   UNL A   1      46.925  27.775  26.668  1.00  0.00     0.023 A 
ATOM     58  C   UNL A   1      47.216  28.039  25.317  1.00  0.00     0.031 A 
ATOM     59  C   UNL A   1      47.793  26.919  27.368  1.00  0.00     0.131 A 
ATOM     60  C   UNL A   1      48.275  27.373  24.683  1.00  0.00     0.055 A 
ATOM     61  C   UNL A   1      48.910  26.341  26.758  1.00  0.00     0.041 A 
ATOM     62  F   UNL A   1      47.562  26.610  28.653  1.00  0.00    -0.206 F 
ATOM     63  C   UNL A   1      49.143  26.549  25.402  1.00  0.00     0.022 A 
BRANCH  60  64
ATOM     64  S   UNL A   1      48.388  27.456  22.875  1.00  0.00     0.124 S 
ATOM     65  O   UNL A   1      49.680  28.116  22.692  1.00  0.00    -0.237 OA
ATOM     66  O   UNL A   1      48.330  26.051  22.490  1.00  0.00    -0.237 OA
ATOM     67  O   UNL A   1      47.228  28.258  22.495  1.00  0.00    -0.744 OA
ENDBRANCH  60  64
ENDBRANCH  43  57
BRANCH  44  68
ATOM     68  C   UNL A   1      38.589  30.915  31.317  1.00  0.00     0.023 A 
ATOM     69  C   UNL A   1      37.633  31.733  30.692  1.00  0.00     0.031 A 
ATOM     70  C   UNL A   1      38.392  30.598  32.673  1.00  0.00     0.131 A 
ATOM     71  C   UNL A   1      36.556  32.247  31.431  1.00  0.00     0.055 A 
ATOM     72  C   UNL A   1      37.286  31.063  33.389  1.00  0.00     0.041 A 
ATOM     73  F   UNL A   1      39.274  29.822  33.325  1.00  0.00    -0.206 F 
ATOM     74  C   UNL A   1      36.367  31.904  32.772  1.00  0.00     0.022 A 
BRANCH  71  75
ATOM     75  S   UNL A   1      35.457  33.456  30.641  1.00  0.00     0.124 S 
ATOM     76  O   UNL A   1      36.203  33.791  29.434  1.00  0.00    -0.237 OA
ATOM     77  O   UNL A   1      34.238  32.677  30.448  1.00  0.00    -0.237 OA
ATOM     78  O   UNL A   1      35.359  34.527  31.632  1.00  0.00    -0.744 OA
ENDBRANCH  71  75
ENDBRANCH  44  68
BRANCH  56  79
ATOM     79  C   UNL A   1      44.804  33.833  30.019  1.00  0.00     0.023 A 
ATOM     80  C   UNL A   1      44.592  34.915  29.148  1.00  0.00     0.031 A 
ATOM     81  C   UNL A   1      45.543  34.063  31.195  1.00  0.00     0.131 A 
ATOM     82  C   UNL A   1      45.156  36.166  29.442  1.00  0.00     0.055 A 
ATOM     83  C   UNL A   1      46.042  35.326  31.515  1.00  0.00     0.041 A 
ATOM     84  F   UNL A   1      45.778  33.065  32.062  1.00  0.00    -0.206 F 
ATOM     85  C   UNL A   1      45.861  36.383  30.630  1.00  0.00     0.022 A 
BRANCH  82  86
ATOM     86  S   UNL A   1      45.036  37.487  28.205  1.00  0.00     0.124 S 
ATOM     87  O   UNL A   1      46.432  37.882  28.048  1.00  0.00    -0.237 OA
ATOM     88  O   UNL A   1      44.435  36.797  27.069  1.00  0.00    -0.237 OA
ATOM     89  O   UNL A   1      44.179  38.482  28.849  1.00  0.00    -0.744 OA
ENDBRANCH  82  86
ENDBRANCH  56  79
ENDBRANCH  30  31
ENDBRANCH  23  25
ENDBRANCH  22  23
ENDBRANCH  21  22
ENDBRANCH  20  21
ENDBRANCH   1  20
TORSDOF 20
ENDMDL
