MODEL 1
REMARK VINA RESULT:     -10.9      0.000      0.000
REMARK SMILES C[C@H]1[C@H](C(=O)OCCOCCOC(=O)c2ccc(-c3c4nc(c(-c5cc(S(=O)(=O)[O-])ccc5F)c5ccc([nH]5)c(-c5cc(S(=O)(=O)[O-])ccc5F)c5nc(c(-c6cc(S(=O)(=O)[O-])ccc6F)c6ccc3[nH]6)C=C5)C=C4)cc2)CC[N@@H+]1Cc1cscn1
REMARK SMILES IDX 10 1 9 2 8 3 7 4 6 5 4 6 5 7 3 8 1 9 2 10 80 11 78 12 79 13
REMARK SMILES IDX 81 15 82 16 83 17 86 18 84 19 85 20 11 21 12 22 13 23 14 24
REMARK SMILES IDX 15 25 16 26 77 27 17 28 76 29 18 30 19 31 20 32 70 33 21 34
REMARK SMILES IDX 75 35 69 36 71 37 22 38 74 39 68 40 67 41 23 43 55 44 35 45
REMARK SMILES IDX 54 46 36 47 39 48 53 49 72 50 37 51 38 52 52 54 73 55 40 56
REMARK SMILES IDX 24 57 25 58 33 59 26 60 32 61 34 62 31 63 27 64 28 65 29 66
REMARK SMILES IDX 30 67 56 68 57 69 65 70 58 71 64 72 66 73 63 74 59 75 60 76
REMARK SMILES IDX 61 77 62 78 41 79 42 80 50 81 43 82 49 83 51 84 48 85 44 86
REMARK SMILES IDX 45 87 46 88 47 89
REMARK H PARENT 80 14 71 42 39 53
REMARK Flexibility Score: inf
ROOT
ATOM      1  C   UNL A   1      35.906  21.017  25.166  1.00  0.00     0.202 C 
ENDROOT
BRANCH   1   2
ATOM      2  O   UNL A   1      35.829  22.034  26.163  1.00  0.00    -0.374 OA
BRANCH   2   3
ATOM      3  C   UNL A   1      34.757  22.973  26.046  1.00  0.00     0.202 C 
BRANCH   3   4
ATOM      4  C   UNL A   1      34.942  24.048  24.971  1.00  0.00     0.261 C 
BRANCH   4   5
ATOM      5  O   UNL A   1      33.667  24.442  24.433  1.00  0.00    -0.463 OA
BRANCH   5   6
ATOM      6  C   UNL A   1      33.673  25.389  23.466  1.00  0.00     0.315 C 
ATOM      7  O   UNL A   1      33.948  25.189  22.288  1.00  0.00    -0.252 OA
BRANCH   6   8
ATOM      8  C   UNL A   1      33.338  26.774  23.985  1.00  0.00     0.162 C 
ATOM      9  C   UNL A   1      33.790  28.930  22.732  1.00  0.00     0.076 C 
ATOM     10  C   UNL A   1      32.784  27.795  22.975  1.00  0.00     0.195 C 
ATOM     11  N   UNL A   1      31.596  28.397  23.599  1.00  0.00    -0.327 N 
ATOM     12  C   UNL A   1      32.288  26.666  25.076  1.00  0.00     0.083 C 
ATOM     13  C   UNL A   1      31.519  27.966  24.987  1.00  0.00     0.263 C 
ATOM     14  H   UNL A   1      31.708  29.411  23.602  1.00  0.00     0.348 HD
BRANCH  11  15
ATOM     15  C   UNL A   1      30.356  28.279  22.817  1.00  0.00     0.320 C 
BRANCH  15  16
ATOM     16  C   UNL A   1      29.597  29.561  22.605  1.00  0.00     0.105 A 
ATOM     17  C   UNL A   1      29.222  30.485  23.564  1.00  0.00     0.096 A 
ATOM     18  N   UNL A   1      29.274  29.930  21.302  1.00  0.00    -0.244 NA
ATOM     19  S   UNL A   1      28.425  31.817  22.837  1.00  0.00    -0.130 S 
ATOM     20  C   UNL A   1      28.679  31.103  21.302  1.00  0.00     0.176 A 
ENDBRANCH  15  16
ENDBRANCH  11  15
ENDBRANCH   6   8
ENDBRANCH   5   6
ENDBRANCH   4   5
ENDBRANCH   3   4
ENDBRANCH   2   3
ENDBRANCH   1   2
BRANCH   1  21
ATOM     21  C   UNL A   1      37.261  20.323  24.990  1.00  0.00     0.261 C 
BRANCH  21  22
ATOM     22  O   UNL A   1      38.365  21.245  25.016  1.00  0.00    -0.460 OA
BRANCH  22  23
ATOM     23  C   UNL A   1      39.317  20.939  25.927  1.00  0.00     0.338 C 
ATOM     24  O   UNL A   1      39.902  19.864  26.034  1.00  0.00    -0.246 OA
BRANCH  23  25
ATOM     25  C   UNL A   1      39.717  22.122  26.711  1.00  0.00     0.060 A 
ATOM     26  C   UNL A   1      39.073  23.327  26.405  1.00  0.00     0.016 A 
ATOM     27  C   UNL A   1      40.757  22.098  27.646  1.00  0.00     0.016 A 
ATOM     28  C   UNL A   1      39.522  24.522  26.960  1.00  0.00     0.010 A 
ATOM     29  C   UNL A   1      41.207  23.303  28.204  1.00  0.00     0.010 A 
ATOM     30  C   UNL A   1      40.627  24.525  27.821  1.00  0.00    -0.014 A 
BRANCH  30  31
ATOM     31  C   UNL A   1      41.264  25.828  28.143  1.00  0.00     0.031 A 
ATOM     32  C   UNL A   1      42.662  26.096  27.645  1.00  0.00     0.074 A 
ATOM     33  C   UNL A   1      40.577  26.794  28.780  1.00  0.00     0.049 A 
ATOM     34  N   UNL A   1      43.383  27.185  27.732  1.00  0.00    -0.248 NA
ATOM     35  C   UNL A   1      43.333  24.984  26.955  1.00  0.00     0.031 C 
ATOM     36  C   UNL A   1      39.207  26.669  29.271  1.00  0.00     0.029 A 
ATOM     37  N   UNL A   1      40.936  28.077  29.108  1.00  0.00    -0.354 N 
ATOM     38  C   UNL A   1      44.588  26.893  27.100  1.00  0.00     0.074 A 
ATOM     39  C   UNL A   1      44.519  25.509  26.683  1.00  0.00     0.031 C 
ATOM     40  C   UNL A   1      38.838  27.831  29.836  1.00  0.00     0.029 A 
ATOM     41  C   UNL A   1      39.952  28.776  29.766  1.00  0.00     0.049 A 
ATOM     42  H   UNL A   1      41.815  28.463  28.890  1.00  0.00     0.167 HD
ATOM     43  C   UNL A   1      45.649  27.707  26.873  1.00  0.00     0.034 A 
ATOM     44  C   UNL A   1      39.951  30.031  30.259  1.00  0.00     0.034 A 
ATOM     45  C   UNL A   1      45.713  29.083  27.306  1.00  0.00     0.049 A 
ATOM     46  C   UNL A   1      41.170  30.898  30.055  1.00  0.00     0.074 A 
ATOM     47  C   UNL A   1      46.735  29.998  27.126  1.00  0.00     0.029 A 
ATOM     48  N   UNL A   1      44.716  29.740  28.016  1.00  0.00    -0.354 N 
ATOM     49  N   UNL A   1      42.295  30.615  29.441  1.00  0.00    -0.248 NA
ATOM     50  C   UNL A   1      41.107  32.262  30.596  1.00  0.00     0.031 C 
ATOM     51  C   UNL A   1      46.387  31.183  27.785  1.00  0.00     0.029 A 
ATOM     52  C   UNL A   1      45.112  31.037  28.310  1.00  0.00     0.049 A 
ATOM     53  H   UNL A   1      43.853  29.342  28.275  1.00  0.00     0.167 HD
ATOM     54  C   UNL A   1      43.060  31.779  29.494  1.00  0.00     0.074 A 
ATOM     55  C   UNL A   1      42.259  32.768  30.184  1.00  0.00     0.031 C 
ATOM     56  C   UNL A   1      44.309  32.011  29.012  1.00  0.00     0.034 A 
BRANCH  43  57
ATOM     57  C   UNL A   1      46.843  27.107  26.167  1.00  0.00     0.023 A 
ATOM     58  C   UNL A   1      47.852  26.422  26.869  1.00  0.00     0.031 A 
ATOM     59  C   UNL A   1      46.994  27.254  24.778  1.00  0.00     0.131 A 
ATOM     60  C   UNL A   1      48.998  25.977  26.191  1.00  0.00     0.055 A 
ATOM     61  C   UNL A   1      48.099  26.739  24.097  1.00  0.00     0.041 A 
ATOM     62  F   UNL A   1      46.076  27.918  24.057  1.00  0.00    -0.206 F 
ATOM     63  C   UNL A   1      49.117  26.108  24.807  1.00  0.00     0.022 A 
BRANCH  60  64
ATOM     64  S   UNL A   1      50.396  25.351  27.165  1.00  0.00     0.124 S 
ATOM     65  O   UNL A   1      50.741  26.521  27.969  1.00  0.00    -0.237 OA
ATOM     66  O   UNL A   1      49.803  24.232  27.886  1.00  0.00    -0.237 OA
ATOM     67  O   UNL A   1      51.384  24.989  26.151  1.00  0.00    -0.744 OA
ENDBRANCH  60  64
ENDBRANCH  43  57
BRANCH  44  68
ATOM     68  C   UNL A   1      38.773  30.545  31.014  1.00  0.00     0.023 A 
ATOM     69  C   UNL A   1      37.680  31.132  30.356  1.00  0.00     0.031 A 
ATOM     70  C   UNL A   1      38.751  30.505  32.420  1.00  0.00     0.131 A 
ATOM     71  C   UNL A   1      36.635  31.700  31.104  1.00  0.00     0.055 A 
ATOM     72  C   UNL A   1      37.687  31.025  33.157  1.00  0.00     0.041 A 
ATOM     73  F   UNL A   1      39.769  29.953  33.099  1.00  0.00    -0.206 F 
ATOM     74  C   UNL A   1      36.627  31.639  32.499  1.00  0.00     0.022 A 
BRANCH  71  75
ATOM     75  S   UNL A   1      35.324  32.595  30.227  1.00  0.00     0.124 S 
ATOM     76  O   UNL A   1      34.285  32.673  31.246  1.00  0.00    -0.237 OA
ATOM     77  O   UNL A   1      35.990  33.849  29.890  1.00  0.00    -0.237 OA
ATOM     78  O   UNL A   1      35.023  31.727  29.090  1.00  0.00    -0.744 OA
ENDBRANCH  71  75
ENDBRANCH  44  68
BRANCH  56  79
ATOM     79  C   UNL A   1      44.860  33.407  29.183  1.00  0.00     0.023 A 
ATOM     80  C   UNL A   1      45.616  33.774  30.310  1.00  0.00     0.031 A 
ATOM     81  C   UNL A   1      44.597  34.395  28.216  1.00  0.00     0.131 A 
ATOM     82  C   UNL A   1      46.021  35.107  30.478  1.00  0.00     0.055 A 
ATOM     83  C   UNL A   1      45.060  35.704  28.355  1.00  0.00     0.041 A 
ATOM     84  F   UNL A   1      43.880  34.103  27.118  1.00  0.00    -0.206 F 
ATOM     85  C   UNL A   1      45.762  36.071  29.499  1.00  0.00     0.022 A 
BRANCH  82  86
ATOM     86  S   UNL A   1      46.792  35.592  32.047  1.00  0.00     0.124 S 
ATOM     87  O   UNL A   1      47.912  34.659  32.136  1.00  0.00    -0.237 OA
ATOM     88  O   UNL A   1      47.144  36.987  31.803  1.00  0.00    -0.237 OA
ATOM     89  O   UNL A   1      45.732  35.383  33.030  1.00  0.00    -0.744 OA
ENDBRANCH  82  86
ENDBRANCH  56  79
ENDBRANCH  30  31
ENDBRANCH  23  25
ENDBRANCH  22  23
ENDBRANCH  21  22
ENDBRANCH   1  21
TORSDOF 19
ENDMDL
MODEL 2
REMARK VINA RESULT:     -10.9      4.977     10.417
REMARK SMILES C[C@H]1[C@H](C(=O)OCCOCCOC(=O)c2ccc(-c3c4nc(c(-c5cc(S(=O)(=O)[O-])ccc5F)c5ccc([nH]5)c(-c5cc(S(=O)(=O)[O-])ccc5F)c5nc(c(-c6cc(S(=O)(=O)[O-])ccc6F)c6ccc3[nH]6)C=C5)C=C4)cc2)CC[N@@H+]1Cc1cscn1
REMARK SMILES IDX 10 1 9 2 8 3 7 4 6 5 4 6 5 7 3 8 1 9 2 10 80 11 78 12 79 13
REMARK SMILES IDX 81 15 82 16 83 17 86 18 84 19 85 20 11 21 12 22 13 23 14 24
REMARK SMILES IDX 15 25 16 26 77 27 17 28 76 29 18 30 19 31 20 32 70 33 21 34
REMARK SMILES IDX 75 35 69 36 71 37 22 38 74 39 68 40 67 41 23 43 55 44 35 45
REMARK SMILES IDX 54 46 36 47 39 48 53 49 72 50 37 51 38 52 52 54 73 55 40 56
REMARK SMILES IDX 24 57 25 58 33 59 26 60 32 61 34 62 31 63 27 64 28 65 29 66
REMARK SMILES IDX 30 67 56 68 57 69 65 70 58 71 64 72 66 73 63 74 59 75 60 76
REMARK SMILES IDX 61 77 62 78 41 79 42 80 50 81 43 82 49 83 51 84 48 85 44 86
REMARK SMILES IDX 45 87 46 88 47 89
REMARK H PARENT 80 14 71 42 39 53
REMARK Flexibility Score: inf
ROOT
ATOM      1  C   UNL A   1      31.735  29.750  25.765  1.00  0.00     0.202 C 
ENDROOT
BRANCH   1   2
ATOM      2  O   UNL A   1      32.663  29.302  24.780  1.00  0.00    -0.374 OA
BRANCH   2   3
ATOM      3  C   UNL A   1      33.738  28.475  25.234  1.00  0.00     0.202 C 
BRANCH   3   4
ATOM      4  C   UNL A   1      33.380  27.494  26.354  1.00  0.00     0.261 C 
BRANCH   4   5
ATOM      5  O   UNL A   1      33.623  26.141  25.930  1.00  0.00    -0.463 OA
BRANCH   5   6
ATOM      6  C   UNL A   1      32.549  25.323  25.835  1.00  0.00     0.315 C 
ATOM      7  O   UNL A   1      31.576  25.351  26.582  1.00  0.00    -0.252 OA
BRANCH   6   8
ATOM      8  C   UNL A   1      32.668  24.309  24.715  1.00  0.00     0.162 C 
ATOM      9  C   UNL A   1      34.844  23.268  23.939  1.00  0.00     0.076 C 
ATOM     10  C   UNL A   1      33.661  23.149  24.911  1.00  0.00     0.195 C 
ATOM     11  N   UNL A   1      32.938  21.916  24.562  1.00  0.00    -0.327 N 
ATOM     12  C   UNL A   1      31.318  23.655  24.477  1.00  0.00     0.083 C 
ATOM     13  C   UNL A   1      31.655  22.269  23.973  1.00  0.00     0.263 C 
ATOM     14  H   UNL A   1      33.471  21.416  23.851  1.00  0.00     0.348 HD
BRANCH  11  15
ATOM     15  C   UNL A   1      32.904  20.895  25.621  1.00  0.00     0.320 C 
BRANCH  15  16
ATOM     16  C   UNL A   1      33.184  19.486  25.174  1.00  0.00     0.105 A 
ATOM     17  C   UNL A   1      34.355  18.994  24.626  1.00  0.00     0.096 A 
ATOM     18  N   UNL A   1      32.202  18.521  25.379  1.00  0.00    -0.244 NA
ATOM     19  S   UNL A   1      34.221  17.312  24.329  1.00  0.00    -0.130 S 
ATOM     20  C   UNL A   1      32.644  17.343  24.994  1.00  0.00     0.176 A 
ENDBRANCH  15  16
ENDBRANCH  11  15
ENDBRANCH   6   8
ENDBRANCH   5   6
ENDBRANCH   4   5
ENDBRANCH   3   4
ENDBRANCH   2   3
ENDBRANCH   1   2
BRANCH   1  21
ATOM     21  C   UNL A   1      31.842  31.217  26.198  1.00  0.00     0.261 C 
BRANCH  21  22
ATOM     22  O   UNL A   1      32.412  31.369  27.509  1.00  0.00    -0.460 OA
BRANCH  22  23
ATOM     23  C   UNL A   1      33.254  32.423  27.625  1.00  0.00     0.338 C 
ATOM     24  O   UNL A   1      32.934  33.607  27.664  1.00  0.00    -0.246 OA
BRANCH  23  25
ATOM     25  C   UNL A   1      34.640  31.984  27.872  1.00  0.00     0.060 A 
ATOM     26  C   UNL A   1      34.843  30.610  28.048  1.00  0.00     0.016 A 
ATOM     27  C   UNL A   1      35.702  32.879  28.034  1.00  0.00     0.016 A 
ATOM     28  C   UNL A   1      36.080  30.133  28.472  1.00  0.00     0.010 A 
ATOM     29  C   UNL A   1      36.948  32.396  28.461  1.00  0.00     0.010 A 
ATOM     30  C   UNL A   1      37.125  31.028  28.735  1.00  0.00    -0.014 A 
BRANCH  30  31
ATOM     31  C   UNL A   1      38.314  30.527  29.473  1.00  0.00     0.031 A 
ATOM     32  C   UNL A   1      38.498  30.931  30.913  1.00  0.00     0.074 A 
ATOM     33  C   UNL A   1      39.159  29.647  28.904  1.00  0.00     0.049 A 
ATOM     34  N   UNL A   1      39.407  30.552  31.775  1.00  0.00    -0.248 NA
ATOM     35  C   UNL A   1      37.523  31.892  31.451  1.00  0.00     0.031 C 
ATOM     36  C   UNL A   1      39.060  29.149  27.534  1.00  0.00     0.029 A 
ATOM     37  N   UNL A   1      40.258  29.006  29.416  1.00  0.00    -0.354 N 
ATOM     38  C   UNL A   1      39.109  31.220  32.959  1.00  0.00     0.074 A 
ATOM     39  C   UNL A   1      37.967  32.066  32.687  1.00  0.00     0.031 C 
ATOM     40  C   UNL A   1      40.057  28.275  27.315  1.00  0.00     0.029 A 
ATOM     41  C   UNL A   1      40.877  28.168  28.520  1.00  0.00     0.049 A 
ATOM     42  H   UNL A   1      40.574  29.133  30.340  1.00  0.00     0.167 HD
ATOM     43  C   UNL A   1      39.719  31.124  34.167  1.00  0.00     0.034 A 
ATOM     44  C   UNL A   1      41.981  27.405  28.655  1.00  0.00     0.034 A 
ATOM     45  C   UNL A   1      40.866  30.286  34.423  1.00  0.00     0.049 A 
ATOM     46  C   UNL A   1      42.686  27.367  29.989  1.00  0.00     0.074 A 
ATOM     47  C   UNL A   1      41.559  30.110  35.608  1.00  0.00     0.029 A 
ATOM     48  N   UNL A   1      41.498  29.490  33.475  1.00  0.00    -0.354 N 
ATOM     49  N   UNL A   1      42.383  27.989  31.105  1.00  0.00    -0.248 NA
ATOM     50  C   UNL A   1      43.872  26.506  30.085  1.00  0.00     0.031 C 
ATOM     51  C   UNL A   1      42.648  29.265  35.360  1.00  0.00     0.029 A 
ATOM     52  C   UNL A   1      42.589  28.848  34.040  1.00  0.00     0.049 A 
ATOM     53  H   UNL A   1      41.211  29.397  32.538  1.00  0.00     0.167 HD
ATOM     54  C   UNL A   1      43.322  27.567  32.043  1.00  0.00     0.074 A 
ATOM     55  C   UNL A   1      44.189  26.625  31.365  1.00  0.00     0.031 C 
ATOM     56  C   UNL A   1      43.455  27.921  33.349  1.00  0.00     0.034 A 
BRANCH  43  57
ATOM     57  C   UNL A   1      39.182  31.990  35.284  1.00  0.00     0.023 A 
ATOM     58  C   UNL A   1      39.625  33.311  35.475  1.00  0.00     0.031 A 
ATOM     59  C   UNL A   1      38.242  31.473  36.192  1.00  0.00     0.131 A 
ATOM     60  C   UNL A   1      39.184  34.042  36.590  1.00  0.00     0.055 A 
ATOM     61  C   UNL A   1      37.747  32.235  37.253  1.00  0.00     0.041 A 
ATOM     62  F   UNL A   1      37.799  30.212  36.074  1.00  0.00    -0.206 F 
ATOM     63  C   UNL A   1      38.228  33.522  37.465  1.00  0.00     0.022 A 
BRANCH  60  64
ATOM     64  S   UNL A   1      39.982  35.629  36.959  1.00  0.00     0.124 S 
ATOM     65  O   UNL A   1      39.311  36.015  38.198  1.00  0.00    -0.237 OA
ATOM     66  O   UNL A   1      41.386  35.256  37.082  1.00  0.00    -0.237 OA
ATOM     67  O   UNL A   1      39.654  36.456  35.799  1.00  0.00    -0.744 OA
ENDBRANCH  60  64
ENDBRANCH  43  57
BRANCH  44  68
ATOM     68  C   UNL A   1      42.511  26.631  27.495  1.00  0.00     0.023 A 
ATOM     69  C   UNL A   1      42.184  25.278  27.308  1.00  0.00     0.031 A 
ATOM     70  C   UNL A   1      43.402  27.226  26.584  1.00  0.00     0.131 A 
ATOM     71  C   UNL A   1      42.783  24.552  26.266  1.00  0.00     0.055 A 
ATOM     72  C   UNL A   1      43.955  26.514  25.520  1.00  0.00     0.041 A 
ATOM     73  F   UNL A   1      43.746  28.517  26.717  1.00  0.00    -0.206 F 
ATOM     74  C   UNL A   1      43.657  25.164  25.364  1.00  0.00     0.022 A 
BRANCH  71  75
ATOM     75  S   UNL A   1      42.468  22.769  26.154  1.00  0.00     0.124 S 
ATOM     76  O   UNL A   1      41.035  22.704  26.415  1.00  0.00    -0.237 OA
ATOM     77  O   UNL A   1      42.887  22.474  24.789  1.00  0.00    -0.237 OA
ATOM     78  O   UNL A   1      43.321  22.208  27.200  1.00  0.00    -0.744 OA
ENDBRANCH  71  75
ENDBRANCH  44  68
BRANCH  56  79
ATOM     79  C   UNL A   1      44.558  27.247  34.132  1.00  0.00     0.023 A 
ATOM     80  C   UNL A   1      44.379  25.987  34.730  1.00  0.00     0.031 A 
ATOM     81  C   UNL A   1      45.796  27.891  34.309  1.00  0.00     0.131 A 
ATOM     82  C   UNL A   1      45.394  25.443  35.534  1.00  0.00     0.055 A 
ATOM     83  C   UNL A   1      46.825  27.316  35.054  1.00  0.00     0.041 A 
ATOM     84  F   UNL A   1      46.024  29.096  33.761  1.00  0.00    -0.206 F 
ATOM     85  C   UNL A   1      46.622  26.092  35.686  1.00  0.00     0.022 A 
BRANCH  82  86
ATOM     86  S   UNL A   1      45.045  23.931  36.472  1.00  0.00     0.124 S 
ATOM     87  O   UNL A   1      43.807  23.467  35.852  1.00  0.00    -0.237 OA
ATOM     88  O   UNL A   1      46.230  23.121  36.210  1.00  0.00    -0.237 OA
ATOM     89  O   UNL A   1      44.908  24.404  37.848  1.00  0.00    -0.744 OA
ENDBRANCH  82  86
ENDBRANCH  56  79
ENDBRANCH  30  31
ENDBRANCH  23  25
ENDBRANCH  22  23
ENDBRANCH  21  22
ENDBRANCH   1  21
TORSDOF 19
ENDMDL
MODEL 3
REMARK VINA RESULT:     -10.8      4.736      9.827
REMARK SMILES C[C@H]1[C@H](C(=O)OCCOCCOC(=O)c2ccc(-c3c4nc(c(-c5cc(S(=O)(=O)[O-])ccc5F)c5ccc([nH]5)c(-c5cc(S(=O)(=O)[O-])ccc5F)c5nc(c(-c6cc(S(=O)(=O)[O-])ccc6F)c6ccc3[nH]6)C=C5)C=C4)cc2)CC[N@@H+]1Cc1cscn1
REMARK SMILES IDX 10 1 9 2 8 3 7 4 6 5 4 6 5 7 3 8 1 9 2 10 80 11 78 12 79 13
REMARK SMILES IDX 81 15 82 16 83 17 86 18 84 19 85 20 11 21 12 22 13 23 14 24
REMARK SMILES IDX 15 25 16 26 77 27 17 28 76 29 18 30 19 31 20 32 70 33 21 34
REMARK SMILES IDX 75 35 69 36 71 37 22 38 74 39 68 40 67 41 23 43 55 44 35 45
REMARK SMILES IDX 54 46 36 47 39 48 53 49 72 50 37 51 38 52 52 54 73 55 40 56
REMARK SMILES IDX 24 57 25 58 33 59 26 60 32 61 34 62 31 63 27 64 28 65 29 66
REMARK SMILES IDX 30 67 56 68 57 69 65 70 58 71 64 72 66 73 63 74 59 75 60 76
REMARK SMILES IDX 61 77 62 78 41 79 42 80 50 81 43 82 49 83 51 84 48 85 44 86
REMARK SMILES IDX 45 87 46 88 47 89
REMARK H PARENT 80 14 71 42 39 53
REMARK Flexibility Score: inf
ROOT
ATOM      1  C   UNL A   1      32.013  30.401  25.825  1.00  0.00     0.202 C 
ENDROOT
BRANCH   1   2
ATOM      2  O   UNL A   1      33.257  29.711  25.723  1.00  0.00    -0.374 OA
BRANCH   2   3
ATOM      3  C   UNL A   1      33.215  28.378  25.208  1.00  0.00     0.202 C 
BRANCH   3   4
ATOM      4  C   UNL A   1      33.055  27.275  26.258  1.00  0.00     0.261 C 
BRANCH   4   5
ATOM      5  O   UNL A   1      32.758  26.018  25.623  1.00  0.00    -0.463 OA
BRANCH   5   6
ATOM      6  C   UNL A   1      31.471  25.601  25.655  1.00  0.00     0.315 C 
ATOM      7  O   UNL A   1      30.893  25.180  26.652  1.00  0.00    -0.252 OA
BRANCH   6   8
ATOM      8  C   UNL A   1      30.790  25.660  24.302  1.00  0.00     0.162 C 
ATOM      9  C   UNL A   1      28.445  26.534  23.906  1.00  0.00     0.076 C 
ATOM     10  C   UNL A   1      29.933  26.901  23.993  1.00  0.00     0.195 C 
ATOM     11  N   UNL A   1      30.341  27.369  22.659  1.00  0.00    -0.327 N 
ATOM     12  C   UNL A   1      31.838  25.603  23.205  1.00  0.00     0.083 C 
ATOM     13  C   UNL A   1      31.227  26.381  22.060  1.00  0.00     0.263 C 
ATOM     14  H   UNL A   1      29.512  27.431  22.068  1.00  0.00     0.348 HD
BRANCH  11  15
ATOM     15  C   UNL A   1      30.799  28.765  22.603  1.00  0.00     0.320 C 
BRANCH  15  16
ATOM     16  C   UNL A   1      29.714  29.801  22.491  1.00  0.00     0.105 A 
ATOM     17  C   UNL A   1      29.173  30.568  23.508  1.00  0.00     0.096 A 
ATOM     18  N   UNL A   1      29.215  30.100  21.226  1.00  0.00    -0.244 NA
ATOM     19  S   UNL A   1      28.002  31.653  22.886  1.00  0.00    -0.130 S 
ATOM     20  C   UNL A   1      28.331  31.070  21.310  1.00  0.00     0.176 A 
ENDBRANCH  15  16
ENDBRANCH  11  15
ENDBRANCH   6   8
ENDBRANCH   5   6
ENDBRANCH   4   5
ENDBRANCH   3   4
ENDBRANCH   2   3
ENDBRANCH   1   2
BRANCH   1  21
ATOM     21  C   UNL A   1      31.969  31.607  26.770  1.00  0.00     0.261 C 
BRANCH  21  22
ATOM     22  O   UNL A   1      32.928  31.513  27.836  1.00  0.00    -0.460 OA
BRANCH  22  23
ATOM     23  C   UNL A   1      33.802  32.545  27.885  1.00  0.00     0.338 C 
ATOM     24  O   UNL A   1      33.516  33.739  27.902  1.00  0.00    -0.246 OA
BRANCH  23  25
ATOM     25  C   UNL A   1      35.185  32.074  28.085  1.00  0.00     0.060 A 
ATOM     26  C   UNL A   1      35.365  30.694  28.242  1.00  0.00     0.016 A 
ATOM     27  C   UNL A   1      36.271  32.945  28.224  1.00  0.00     0.016 A 
ATOM     28  C   UNL A   1      36.603  30.187  28.623  1.00  0.00     0.010 A 
ATOM     29  C   UNL A   1      37.518  32.432  28.609  1.00  0.00     0.010 A 
ATOM     30  C   UNL A   1      37.675  31.057  28.863  1.00  0.00    -0.014 A 
BRANCH  30  31
ATOM     31  C   UNL A   1      38.873  30.523  29.559  1.00  0.00     0.031 A 
ATOM     32  C   UNL A   1      39.129  30.936  30.986  1.00  0.00     0.074 A 
ATOM     33  C   UNL A   1      39.665  29.608  28.969  1.00  0.00     0.049 A 
ATOM     34  N   UNL A   1      40.058  30.535  31.816  1.00  0.00    -0.248 NA
ATOM     35  C   UNL A   1      38.209  31.936  31.551  1.00  0.00     0.031 C 
ATOM     36  C   UNL A   1      39.494  29.099  27.610  1.00  0.00     0.029 A 
ATOM     37  N   UNL A   1      40.761  28.935  29.445  1.00  0.00    -0.354 N 
ATOM     38  C   UNL A   1      39.830  31.225  33.003  1.00  0.00     0.074 A 
ATOM     39  C   UNL A   1      38.708  32.108  32.766  1.00  0.00     0.031 C 
ATOM     40  C   UNL A   1      40.452  28.189  27.362  1.00  0.00     0.029 A 
ATOM     41  C   UNL A   1      41.315  28.066  28.535  1.00  0.00     0.049 A 
ATOM     42  H   UNL A   1      41.117  29.061  30.354  1.00  0.00     0.167 HD
ATOM     43  C   UNL A   1      40.484  31.122  34.187  1.00  0.00     0.034 A 
ATOM     44  C   UNL A   1      42.397  27.268  28.636  1.00  0.00     0.034 A 
ATOM     45  C   UNL A   1      41.611  30.248  34.408  1.00  0.00     0.049 A 
ATOM     46  C   UNL A   1      43.152  27.219  29.942  1.00  0.00     0.074 A 
ATOM     47  C   UNL A   1      42.345  30.060  35.567  1.00  0.00     0.029 A 
ATOM     48  N   UNL A   1      42.177  29.420  33.445  1.00  0.00    -0.354 N 
ATOM     49  N   UNL A   1      42.915  27.864  31.061  1.00  0.00    -0.248 NA
ATOM     50  C   UNL A   1      44.311  26.319  30.001  1.00  0.00     0.031 C 
ATOM     51  C   UNL A   1      43.393  29.176  35.286  1.00  0.00     0.029 A 
ATOM     52  C   UNL A   1      43.268  28.746  33.974  1.00  0.00     0.049 A 
ATOM     53  H   UNL A   1      41.850  29.327  32.521  1.00  0.00     0.167 HD
ATOM     54  C   UNL A   1      43.877  27.419  31.967  1.00  0.00     0.074 A 
ATOM     55  C   UNL A   1      44.682  26.441  31.267  1.00  0.00     0.031 C 
ATOM     56  C   UNL A   1      44.073  27.783  33.261  1.00  0.00     0.034 A 
BRANCH  43  57
ATOM     57  C   UNL A   1      40.022  32.018  35.313  1.00  0.00     0.023 A 
ATOM     58  C   UNL A   1      39.166  31.551  36.328  1.00  0.00     0.031 A 
ATOM     59  C   UNL A   1      40.412  33.367  35.351  1.00  0.00     0.131 A 
ATOM     60  C   UNL A   1      38.671  32.444  37.292  1.00  0.00     0.055 A 
ATOM     61  C   UNL A   1      39.979  34.231  36.360  1.00  0.00     0.041 A 
ATOM     62  F   UNL A   1      41.208  33.876  34.399  1.00  0.00    -0.206 F 
ATOM     63  C   UNL A   1      39.092  33.775  37.330  1.00  0.00     0.022 A 
BRANCH  60  64
ATOM     64  S   UNL A   1      37.360  31.877  38.410  1.00  0.00     0.124 S 
ATOM     65  O   UNL A   1      36.285  32.817  38.104  1.00  0.00    -0.237 OA
ATOM     66  O   UNL A   1      37.149  30.501  37.978  1.00  0.00    -0.237 OA
ATOM     67  O   UNL A   1      37.952  32.031  39.738  1.00  0.00    -0.744 OA
ENDBRANCH  60  64
ENDBRANCH  43  57
BRANCH  44  68
ATOM     68  C   UNL A   1      42.853  26.463  27.466  1.00  0.00     0.023 A 
ATOM     69  C   UNL A   1      42.665  25.073  27.416  1.00  0.00     0.031 A 
ATOM     70  C   UNL A   1      43.539  27.074  26.400  1.00  0.00     0.131 A 
ATOM     71  C   UNL A   1      43.199  24.332  26.349  1.00  0.00     0.055 A 
ATOM     72  C   UNL A   1      44.024  26.341  25.317  1.00  0.00     0.041 A 
ATOM     73  F   UNL A   1      43.744  28.401  26.398  1.00  0.00    -0.206 F 
ATOM     74  C   UNL A   1      43.867  24.959  25.294  1.00  0.00     0.022 A 
BRANCH  71  75
ATOM     75  S   UNL A   1      43.083  22.523  26.400  1.00  0.00     0.124 S 
ATOM     76  O   UNL A   1      42.210  22.249  25.264  1.00  0.00    -0.237 OA
ATOM     77  O   UNL A   1      44.478  22.127  26.248  1.00  0.00    -0.237 OA
ATOM     78  O   UNL A   1      42.501  22.258  27.714  1.00  0.00    -0.744 OA
ENDBRANCH  71  75
ENDBRANCH  44  68
BRANCH  56  79
ATOM     79  C   UNL A   1      45.182  27.079  34.009  1.00  0.00     0.023 A 
ATOM     80  C   UNL A   1      44.941  25.934  34.788  1.00  0.00     0.031 A 
ATOM     81  C   UNL A   1      46.495  27.583  33.965  1.00  0.00     0.131 A 
ATOM     82  C   UNL A   1      45.980  25.373  35.547  1.00  0.00     0.055 A 
ATOM     83  C   UNL A   1      47.539  26.981  34.668  1.00  0.00     0.041 A 
ATOM     84  F   UNL A   1      46.785  28.674  33.237  1.00  0.00    -0.206 F 
ATOM     85  C   UNL A   1      47.281  25.879  35.479  1.00  0.00     0.022 A 
BRANCH  82  86
ATOM     86  S   UNL A   1      45.585  24.042  36.714  1.00  0.00     0.124 S 
ATOM     87  O   UNL A   1      45.454  22.889  35.828  1.00  0.00    -0.237 OA
ATOM     88  O   UNL A   1      46.750  24.040  37.592  1.00  0.00    -0.237 OA
ATOM     89  O   UNL A   1      44.340  24.489  37.336  1.00  0.00    -0.744 OA
ENDBRANCH  82  86
ENDBRANCH  56  79
ENDBRANCH  30  31
ENDBRANCH  23  25
ENDBRANCH  22  23
ENDBRANCH  21  22
ENDBRANCH   1  21
TORSDOF 19
ENDMDL
