MODEL 1
REMARK VINA RESULT:     -10.2      0.000      0.000
REMARK SMILES N#Cc1ccn2cc(C(=O)OCCOCCOC(=O)c3ccc(-c4c5nc(c(-c6cc(S(=O)(=O)[O-])ccc6F)c6ccc([nH]6)c(-c6cc(S(=O)(=O)[O-])ccc6F)c6nc(c(-c7cc(S(=O)(=O)[O-])ccc7F)c7ccc4[nH]7)C=C6)C=C5)cc3)nc2c1
REMARK SMILES IDX 15 1 14 2 13 3 12 4 11 5 9 6 10 7 8 8 3 9 4 10 85 11 5 12
REMARK SMILES IDX 84 13 6 14 83 15 7 16 2 17 1 18 16 19 17 20 18 21 19 22
REMARK SMILES IDX 20 23 21 24 82 25 22 26 81 27 23 28 24 29 25 30 75 31 26 32
REMARK SMILES IDX 80 33 74 34 76 35 27 36 79 37 73 38 72 39 28 41 60 42 40 43
REMARK SMILES IDX 59 44 41 45 44 46 58 47 77 48 42 49 43 50 57 52 78 53 45 54
REMARK SMILES IDX 29 55 30 56 38 57 31 58 37 59 39 60 36 61 32 62 33 63 34 64
REMARK SMILES IDX 35 65 61 66 62 67 70 68 63 69 69 70 71 71 68 72 64 73 65 74
REMARK SMILES IDX 66 75 67 76 46 77 47 78 55 79 48 80 54 81 56 82 53 83 49 84
REMARK SMILES IDX 50 85 51 86 52 87
REMARK H PARENT 76 40 44 51
REMARK Flexibility Score: inf
ROOT
ATOM      1  C   UNL A   1      41.218  19.954  26.783  1.00  0.00     0.202 C 
ENDROOT
BRANCH   1   2
ATOM      2  O   UNL A   1      42.360  19.103  26.918  1.00  0.00    -0.374 OA
BRANCH   2   3
ATOM      3  C   UNL A   1      42.918  18.506  25.749  1.00  0.00     0.202 C 
BRANCH   3   4
ATOM      4  C   UNL A   1      44.322  18.915  25.273  1.00  0.00     0.261 C 
BRANCH   4   5
ATOM      5  O   UNL A   1      44.390  20.233  24.730  1.00  0.00    -0.458 OA
BRANCH   5   6
ATOM      6  C   UNL A   1      45.547  20.880  25.047  1.00  0.00     0.358 C 
ATOM      7  O   UNL A   1      46.677  20.424  24.885  1.00  0.00    -0.244 OA
BRANCH   6   8
ATOM      8  C   UNL A   1      45.337  22.263  25.458  1.00  0.00     0.167 A 
ATOM      9  C   UNL A   1      45.416  26.550  26.714  1.00  0.00     0.057 A 
ATOM     10  C   UNL A   1      44.302  26.623  25.772  1.00  0.00     0.038 A 
ATOM     11  C   UNL A   1      46.000  25.377  27.040  1.00  0.00     0.067 A 
ATOM     12  C   UNL A   1      43.895  25.496  25.167  1.00  0.00     0.094 A 
ATOM     13  C   UNL A   1      45.571  24.183  26.393  1.00  0.00     0.139 A 
ATOM     14  N   UNL A   1      44.547  24.304  25.459  1.00  0.00    -0.306 N 
ATOM     15  N   UNL A   1      46.016  22.945  26.455  1.00  0.00    -0.221 NA
ATOM     16  C   UNL A   1      44.379  23.081  24.891  1.00  0.00     0.128 A 
BRANCH   9  17
ATOM     17  C   UNL A   1      45.970  27.856  27.258  1.00  0.00     0.099 C 
ATOM     18  N   UNL A   1      46.431  28.940  27.709  1.00  0.00    -0.192 NA
ENDBRANCH   9  17
ENDBRANCH   6   8
ENDBRANCH   5   6
ENDBRANCH   4   5
ENDBRANCH   3   4
ENDBRANCH   2   3
ENDBRANCH   1   2
BRANCH   1  19
ATOM     19  C   UNL A   1      41.357  21.323  26.099  1.00  0.00     0.261 C 
BRANCH  19  20
ATOM     20  O   UNL A   1      41.064  22.391  27.006  1.00  0.00    -0.460 OA
BRANCH  20  21
ATOM     21  C   UNL A   1      42.086  22.732  27.837  1.00  0.00     0.338 C 
ATOM     22  O   UNL A   1      43.075  22.068  28.094  1.00  0.00    -0.246 OA
BRANCH  21  23
ATOM     23  C   UNL A   1      41.961  24.188  28.053  1.00  0.00     0.060 A 
ATOM     24  C   UNL A   1      42.910  24.883  28.806  1.00  0.00     0.016 A 
ATOM     25  C   UNL A   1      40.717  24.765  27.747  1.00  0.00     0.016 A 
ATOM     26  C   UNL A   1      42.577  26.136  29.311  1.00  0.00     0.010 A 
ATOM     27  C   UNL A   1      40.381  26.009  28.276  1.00  0.00     0.010 A 
ATOM     28  C   UNL A   1      41.298  26.681  29.084  1.00  0.00    -0.014 A 
BRANCH  28  29
ATOM     29  C   UNL A   1      41.049  28.047  29.557  1.00  0.00     0.031 A 
ATOM     30  C   UNL A   1      41.915  29.063  28.889  1.00  0.00     0.074 A 
ATOM     31  C   UNL A   1      40.066  28.451  30.390  1.00  0.00     0.049 A 
ATOM     32  N   UNL A   1      42.813  29.830  29.416  1.00  0.00    -0.248 NA
ATOM     33  C   UNL A   1      41.857  29.127  27.421  1.00  0.00     0.031 C 
ATOM     34  C   UNL A   1      38.913  27.699  30.894  1.00  0.00     0.029 A 
ATOM     35  N   UNL A   1      39.858  29.701  30.902  1.00  0.00    -0.354 N 
ATOM     36  C   UNL A   1      43.344  30.584  28.368  1.00  0.00     0.074 A 
ATOM     37  C   UNL A   1      42.807  30.022  27.154  1.00  0.00     0.031 C 
ATOM     38  C   UNL A   1      38.023  28.562  31.445  1.00  0.00     0.029 A 
ATOM     39  C   UNL A   1      38.608  29.893  31.475  1.00  0.00     0.049 A 
ATOM     40  H   UNL A   1      40.540  30.408  30.867  1.00  0.00     0.167 HD
ATOM     41  C   UNL A   1      44.088  31.708  28.572  1.00  0.00     0.034 A 
ATOM     42  C   UNL A   1      38.074  31.073  31.890  1.00  0.00     0.034 A 
ATOM     43  C   UNL A   1      44.529  31.807  29.933  1.00  0.00     0.049 A 
ATOM     44  C   UNL A   1      39.178  32.043  32.066  1.00  0.00     0.074 A 
ATOM     45  C   UNL A   1      45.401  31.092  30.727  1.00  0.00     0.029 A 
ATOM     46  N   UNL A   1      43.788  32.583  30.789  1.00  0.00    -0.354 N 
ATOM     47  N   UNL A   1      40.080  31.968  33.002  1.00  0.00    -0.248 NA
ATOM     48  C   UNL A   1      39.516  32.886  30.930  1.00  0.00     0.031 C 
ATOM     49  C   UNL A   1      44.818  31.115  32.024  1.00  0.00     0.029 A 
ATOM     50  C   UNL A   1      43.651  31.880  31.957  1.00  0.00     0.049 A 
ATOM     51  H   UNL A   1      43.424  33.478  30.598  1.00  0.00     0.167 HD
ATOM     52  C   UNL A   1      41.252  32.370  32.382  1.00  0.00     0.074 A 
ATOM     53  C   UNL A   1      40.827  33.012  31.140  1.00  0.00     0.031 C 
ATOM     54  C   UNL A   1      42.467  31.907  32.792  1.00  0.00     0.034 A 
BRANCH  41  55
ATOM     55  C   UNL A   1      44.198  32.858  27.604  1.00  0.00     0.023 A 
ATOM     56  C   UNL A   1      43.720  34.148  27.897  1.00  0.00     0.031 A 
ATOM     57  C   UNL A   1      44.989  32.744  26.441  1.00  0.00     0.131 A 
ATOM     58  C   UNL A   1      44.003  35.241  27.066  1.00  0.00     0.055 A 
ATOM     59  C   UNL A   1      45.329  33.847  25.649  1.00  0.00     0.041 A 
ATOM     60  F   UNL A   1      45.506  31.562  26.067  1.00  0.00    -0.206 F 
ATOM     61  C   UNL A   1      44.833  35.107  25.959  1.00  0.00     0.022 A 
BRANCH  58  62
ATOM     62  S   UNL A   1      43.295  36.872  27.426  1.00  0.00     0.124 S 
ATOM     63  O   UNL A   1      43.305  36.888  28.885  1.00  0.00    -0.237 OA
ATOM     64  O   UNL A   1      44.254  37.761  26.776  1.00  0.00    -0.237 OA
ATOM     65  O   UNL A   1      41.979  36.818  26.797  1.00  0.00    -0.744 OA
ENDBRANCH  58  62
ENDBRANCH  41  55
BRANCH  42  66
ATOM     66  C   UNL A   1      36.689  31.557  31.661  1.00  0.00     0.023 A 
ATOM     67  C   UNL A   1      36.196  31.618  30.345  1.00  0.00     0.031 A 
ATOM     68  C   UNL A   1      35.997  32.288  32.646  1.00  0.00     0.131 A 
ATOM     69  C   UNL A   1      35.095  32.429  30.035  1.00  0.00     0.055 A 
ATOM     70  C   UNL A   1      34.881  33.078  32.337  1.00  0.00     0.041 A 
ATOM     71  F   UNL A   1      36.441  32.312  33.912  1.00  0.00    -0.206 F 
ATOM     72  C   UNL A   1      34.436  33.164  31.023  1.00  0.00     0.022 A 
BRANCH  69  73
ATOM     73  S   UNL A   1      34.566  32.633  28.313  1.00  0.00     0.124 S 
ATOM     74  O   UNL A   1      33.586  33.712  28.419  1.00  0.00    -0.237 OA
ATOM     75  O   UNL A   1      35.821  32.985  27.658  1.00  0.00    -0.237 OA
ATOM     76  O   UNL A   1      34.012  31.326  27.970  1.00  0.00    -0.744 OA
ENDBRANCH  69  73
ENDBRANCH  42  66
BRANCH  54  77
ATOM     77  C   UNL A   1      42.565  31.132  34.085  1.00  0.00     0.023 A 
ATOM     78  C   UNL A   1      42.436  29.735  33.990  1.00  0.00     0.031 A 
ATOM     79  C   UNL A   1      42.499  31.708  35.367  1.00  0.00     0.131 A 
ATOM     80  C   UNL A   1      42.168  28.972  35.130  1.00  0.00     0.055 A 
ATOM     81  C   UNL A   1      42.314  30.931  36.516  1.00  0.00     0.041 A 
ATOM     82  F   UNL A   1      42.512  33.037  35.542  1.00  0.00    -0.206 F 
ATOM     83  C   UNL A   1      42.121  29.558  36.397  1.00  0.00     0.022 A 
BRANCH  80  84
ATOM     84  S   UNL A   1      41.682  27.236  34.962  1.00  0.00     0.124 S 
ATOM     85  O   UNL A   1      41.261  26.899  36.319  1.00  0.00    -0.237 OA
ATOM     86  O   UNL A   1      40.608  27.312  33.973  1.00  0.00    -0.237 OA
ATOM     87  O   UNL A   1      42.897  26.570  34.502  1.00  0.00    -0.744 OA
ENDBRANCH  80  84
ENDBRANCH  54  77
ENDBRANCH  28  29
ENDBRANCH  21  23
ENDBRANCH  20  21
ENDBRANCH  19  20
ENDBRANCH   1  19
TORSDOF 18
ENDMDL
MODEL 2
REMARK VINA RESULT:     -10.1      3.042     11.359
REMARK SMILES N#Cc1ccn2cc(C(=O)OCCOCCOC(=O)c3ccc(-c4c5nc(c(-c6cc(S(=O)(=O)[O-])ccc6F)c6ccc([nH]6)c(-c6cc(S(=O)(=O)[O-])ccc6F)c6nc(c(-c7cc(S(=O)(=O)[O-])ccc7F)c7ccc4[nH]7)C=C6)C=C5)cc3)nc2c1
REMARK SMILES IDX 15 1 14 2 13 3 12 4 11 5 9 6 10 7 8 8 3 9 4 10 85 11 5 12
REMARK SMILES IDX 84 13 6 14 83 15 7 16 2 17 1 18 16 19 17 20 18 21 19 22
REMARK SMILES IDX 20 23 21 24 82 25 22 26 81 27 23 28 24 29 25 30 75 31 26 32
REMARK SMILES IDX 80 33 74 34 76 35 27 36 79 37 73 38 72 39 28 41 60 42 40 43
REMARK SMILES IDX 59 44 41 45 44 46 58 47 77 48 42 49 43 50 57 52 78 53 45 54
REMARK SMILES IDX 29 55 30 56 38 57 31 58 37 59 39 60 36 61 32 62 33 63 34 64
REMARK SMILES IDX 35 65 61 66 62 67 70 68 63 69 69 70 71 71 68 72 64 73 65 74
REMARK SMILES IDX 66 75 67 76 46 77 47 78 55 79 48 80 54 81 56 82 53 83 49 84
REMARK SMILES IDX 50 85 51 86 52 87
REMARK H PARENT 76 40 44 51
REMARK Flexibility Score: inf
ROOT
ATOM      1  C   UNL A   1      33.590  35.366  28.819  1.00  0.00     0.202 C 
ENDROOT
BRANCH   1   2
ATOM      2  O   UNL A   1      32.845  34.989  29.981  1.00  0.00    -0.374 OA
BRANCH   2   3
ATOM      3  C   UNL A   1      32.560  35.978  30.968  1.00  0.00     0.202 C 
BRANCH   3   4
ATOM      4  C   UNL A   1      32.457  35.576  32.449  1.00  0.00     0.261 C 
BRANCH   4   5
ATOM      5  O   UNL A   1      33.715  35.319  33.070  1.00  0.00    -0.458 OA
BRANCH   5   6
ATOM      6  C   UNL A   1      34.037  33.996  33.091  1.00  0.00     0.358 C 
ATOM      7  O   UNL A   1      33.236  33.077  33.251  1.00  0.00    -0.244 OA
BRANCH   6   8
ATOM      8  C   UNL A   1      35.428  33.738  32.737  1.00  0.00     0.167 A 
ATOM      9  C   UNL A   1      39.800  33.641  31.820  1.00  0.00     0.057 A 
ATOM     10  C   UNL A   1      39.693  32.348  32.489  1.00  0.00     0.038 A 
ATOM     11  C   UNL A   1      38.716  34.402  31.557  1.00  0.00     0.067 A 
ATOM     12  C   UNL A   1      38.486  31.938  32.910  1.00  0.00     0.094 A 
ATOM     13  C   UNL A   1      37.437  33.969  32.009  1.00  0.00     0.139 A 
ATOM     14  N   UNL A   1      37.385  32.759  32.693  1.00  0.00    -0.306 N 
ATOM     15  N   UNL A   1      36.252  34.543  31.966  1.00  0.00    -0.221 NA
ATOM     16  C   UNL A   1      36.107  32.598  33.126  1.00  0.00     0.128 A 
BRANCH   9  17
ATOM     17  C   UNL A   1      41.192  34.162  31.504  1.00  0.00     0.099 C 
ATOM     18  N   UNL A   1      42.348  34.594  31.242  1.00  0.00    -0.192 NA
ENDBRANCH   9  17
ENDBRANCH   6   8
ENDBRANCH   5   6
ENDBRANCH   4   5
ENDBRANCH   3   4
ENDBRANCH   2   3
ENDBRANCH   1   2
BRANCH   1  19
ATOM     19  C   UNL A   1      34.340  34.298  28.007  1.00  0.00     0.261 C 
BRANCH  19  20
ATOM     20  O   UNL A   1      34.948  33.325  28.862  1.00  0.00    -0.460 OA
BRANCH  20  21
ATOM     21  C   UNL A   1      34.718  32.031  28.509  1.00  0.00     0.338 C 
ATOM     22  O   UNL A   1      33.677  31.560  28.086  1.00  0.00    -0.246 OA
BRANCH  21  23
ATOM     23  C   UNL A   1      36.051  31.408  28.368  1.00  0.00     0.060 A 
ATOM     24  C   UNL A   1      36.177  30.068  27.993  1.00  0.00     0.016 A 
ATOM     25  C   UNL A   1      37.134  32.111  28.919  1.00  0.00     0.016 A 
ATOM     26  C   UNL A   1      37.381  29.416  28.240  1.00  0.00     0.010 A 
ATOM     27  C   UNL A   1      38.328  31.446  29.186  1.00  0.00     0.010 A 
ATOM     28  C   UNL A   1      38.442  30.090  28.876  1.00  0.00    -0.014 A 
BRANCH  28  29
ATOM     29  C   UNL A   1      39.715  29.375  29.014  1.00  0.00     0.031 A 
ATOM     30  C   UNL A   1      40.033  29.018  30.429  1.00  0.00     0.074 A 
ATOM     31  C   UNL A   1      40.502  28.917  28.017  1.00  0.00     0.049 A 
ATOM     32  N   UNL A   1      41.022  29.419  31.159  1.00  0.00    -0.248 NA
ATOM     33  C   UNL A   1      39.037  28.215  31.154  1.00  0.00     0.031 C 
ATOM     34  C   UNL A   1      40.229  28.853  26.578  1.00  0.00     0.029 A 
ATOM     35  N   UNL A   1      41.724  28.314  28.119  1.00  0.00    -0.354 N 
ATOM     36  C   UNL A   1      40.858  28.808  32.404  1.00  0.00     0.074 A 
ATOM     37  C   UNL A   1      39.560  28.182  32.379  1.00  0.00     0.031 C 
ATOM     38  C   UNL A   1      41.148  28.051  25.984  1.00  0.00     0.029 A 
ATOM     39  C   UNL A   1      42.156  27.676  26.963  1.00  0.00     0.049 A 
ATOM     40  H   UNL A   1      42.256  28.331  28.946  1.00  0.00     0.167 HD
ATOM     41  C   UNL A   1      41.857  28.743  33.329  1.00  0.00     0.034 A 
ATOM     42  C   UNL A   1      43.232  26.855  26.839  1.00  0.00     0.034 A 
ATOM     43  C   UNL A   1      42.925  29.647  33.015  1.00  0.00     0.049 A 
ATOM     44  C   UNL A   1      44.134  27.098  27.987  1.00  0.00     0.074 A 
ATOM     45  C   UNL A   1      43.059  31.019  32.977  1.00  0.00     0.029 A 
ATOM     46  N   UNL A   1      44.011  29.142  32.344  1.00  0.00    -0.354 N 
ATOM     47  N   UNL A   1      44.820  28.190  28.164  1.00  0.00    -0.248 NA
ATOM     48  C   UNL A   1      43.954  26.267  29.167  1.00  0.00     0.031 C 
ATOM     49  C   UNL A   1      43.939  31.271  31.889  1.00  0.00     0.029 A 
ATOM     50  C   UNL A   1      44.329  30.039  31.358  1.00  0.00     0.049 A 
ATOM     51  H   UNL A   1      44.474  28.295  32.536  1.00  0.00     0.167 HD
ATOM     52  C   UNL A   1      44.766  28.411  29.531  1.00  0.00     0.074 A 
ATOM     53  C   UNL A   1      44.305  27.149  30.105  1.00  0.00     0.031 C 
ATOM     54  C   UNL A   1      44.835  29.669  30.051  1.00  0.00     0.034 A 
BRANCH  41  55
ATOM     55  C   UNL A   1      41.992  27.669  34.379  1.00  0.00     0.023 A 
ATOM     56  C   UNL A   1      42.756  26.505  34.184  1.00  0.00     0.031 A 
ATOM     57  C   UNL A   1      41.534  27.892  35.696  1.00  0.00     0.131 A 
ATOM     58  C   UNL A   1      43.024  25.618  35.236  1.00  0.00     0.055 A 
ATOM     59  C   UNL A   1      41.858  27.042  36.760  1.00  0.00     0.041 A 
ATOM     60  F   UNL A   1      40.802  28.975  36.001  1.00  0.00    -0.206 F 
ATOM     61  C   UNL A   1      42.608  25.895  36.533  1.00  0.00     0.022 A 
BRANCH  58  62
ATOM     62  S   UNL A   1      43.936  24.081  34.928  1.00  0.00     0.124 S 
ATOM     63  O   UNL A   1      42.897  23.223  34.366  1.00  0.00    -0.237 OA
ATOM     64  O   UNL A   1      44.963  24.528  33.991  1.00  0.00    -0.237 OA
ATOM     65  O   UNL A   1      44.427  23.706  36.249  1.00  0.00    -0.744 OA
ENDBRANCH  58  62
ENDBRANCH  41  55
BRANCH  42  66
ATOM     66  C   UNL A   1      43.291  25.564  26.108  1.00  0.00     0.023 A 
ATOM     67  C   UNL A   1      42.401  24.535  26.466  1.00  0.00     0.031 A 
ATOM     68  C   UNL A   1      44.418  25.207  25.343  1.00  0.00     0.131 A 
ATOM     69  C   UNL A   1      42.675  23.205  26.118  1.00  0.00     0.055 A 
ATOM     70  C   UNL A   1      44.675  23.880  24.974  1.00  0.00     0.041 A 
ATOM     71  F   UNL A   1      45.332  26.131  25.007  1.00  0.00    -0.206 F 
ATOM     72  C   UNL A   1      43.810  22.869  25.378  1.00  0.00     0.022 A 
BRANCH  69  73
ATOM     73  S   UNL A   1      41.614  21.864  26.723  1.00  0.00     0.124 S 
ATOM     74  O   UNL A   1      41.663  20.911  25.617  1.00  0.00    -0.237 OA
ATOM     75  O   UNL A   1      42.313  21.458  27.936  1.00  0.00    -0.237 OA
ATOM     76  O   UNL A   1      40.322  22.516  26.920  1.00  0.00    -0.744 OA
ENDBRANCH  69  73
ENDBRANCH  42  66
BRANCH  54  77
ATOM     77  C   UNL A   1      45.210  30.822  29.149  1.00  0.00     0.023 A 
ATOM     78  C   UNL A   1      46.517  31.321  29.280  1.00  0.00     0.031 A 
ATOM     79  C   UNL A   1      44.290  31.587  28.407  1.00  0.00     0.131 A 
ATOM     80  C   UNL A   1      46.850  32.575  28.760  1.00  0.00     0.055 A 
ATOM     81  C   UNL A   1      44.651  32.803  27.816  1.00  0.00     0.041 A 
ATOM     82  F   UNL A   1      43.000  31.238  28.314  1.00  0.00    -0.206 F 
ATOM     83  C   UNL A   1      45.930  33.314  28.013  1.00  0.00     0.022 A 
BRANCH  80  84
ATOM     84  S   UNL A   1      48.422  33.352  29.209  1.00  0.00     0.124 S 
ATOM     85  O   UNL A   1      48.066  34.767  29.255  1.00  0.00    -0.237 OA
ATOM     86  O   UNL A   1      48.711  32.736  30.503  1.00  0.00    -0.237 OA
ATOM     87  O   UNL A   1      49.328  32.972  28.129  1.00  0.00    -0.744 OA
ENDBRANCH  80  84
ENDBRANCH  54  77
ENDBRANCH  28  29
ENDBRANCH  21  23
ENDBRANCH  20  21
ENDBRANCH  19  20
ENDBRANCH   1  19
TORSDOF 18
ENDMDL
MODEL 3
REMARK VINA RESULT:      -9.3      3.193     11.327
REMARK SMILES N#Cc1ccn2cc(C(=O)OCCOCCOC(=O)c3ccc(-c4c5nc(c(-c6cc(S(=O)(=O)[O-])ccc6F)c6ccc([nH]6)c(-c6cc(S(=O)(=O)[O-])ccc6F)c6nc(c(-c7cc(S(=O)(=O)[O-])ccc7F)c7ccc4[nH]7)C=C6)C=C5)cc3)nc2c1
REMARK SMILES IDX 15 1 14 2 13 3 12 4 11 5 9 6 10 7 8 8 3 9 4 10 85 11 5 12
REMARK SMILES IDX 84 13 6 14 83 15 7 16 2 17 1 18 16 19 17 20 18 21 19 22
REMARK SMILES IDX 20 23 21 24 82 25 22 26 81 27 23 28 24 29 25 30 75 31 26 32
REMARK SMILES IDX 80 33 74 34 76 35 27 36 79 37 73 38 72 39 28 41 60 42 40 43
REMARK SMILES IDX 59 44 41 45 44 46 58 47 77 48 42 49 43 50 57 52 78 53 45 54
REMARK SMILES IDX 29 55 30 56 38 57 31 58 37 59 39 60 36 61 32 62 33 63 34 64
REMARK SMILES IDX 35 65 61 66 62 67 70 68 63 69 69 70 71 71 68 72 64 73 65 74
REMARK SMILES IDX 66 75 67 76 46 77 47 78 55 79 48 80 54 81 56 82 53 83 49 84
REMARK SMILES IDX 50 85 51 86 52 87
REMARK H PARENT 76 40 44 51
REMARK Flexibility Score: inf
ROOT
ATOM      1  C   UNL A   1      34.012  35.082  29.073  1.00  0.00     0.202 C 
ENDROOT
BRANCH   1   2
ATOM      2  O   UNL A   1      33.076  34.759  30.106  1.00  0.00    -0.374 OA
BRANCH   2   3
ATOM      3  C   UNL A   1      33.155  35.452  31.350  1.00  0.00     0.202 C 
BRANCH   3   4
ATOM      4  C   UNL A   1      33.162  34.662  32.670  1.00  0.00     0.261 C 
BRANCH   4   5
ATOM      5  O   UNL A   1      34.316  33.841  32.849  1.00  0.00    -0.458 OA
BRANCH   5   6
ATOM      6  C   UNL A   1      35.394  34.533  33.311  1.00  0.00     0.358 C 
ATOM      7  O   UNL A   1      35.373  35.330  34.247  1.00  0.00    -0.244 OA
BRANCH   6   8
ATOM      8  C   UNL A   1      36.648  34.121  32.693  1.00  0.00     0.167 A 
ATOM      9  C   UNL A   1      40.656  33.563  30.797  1.00  0.00     0.057 A 
ATOM     10  C   UNL A   1      40.690  32.423  31.710  1.00  0.00     0.038 A 
ATOM     11  C   UNL A   1      39.557  34.334  30.659  1.00  0.00     0.067 A 
ATOM     12  C   UNL A   1      39.615  32.179  32.476  1.00  0.00     0.094 A 
ATOM     13  C   UNL A   1      38.420  34.079  31.477  1.00  0.00     0.139 A 
ATOM     14  N   UNL A   1      38.513  33.020  32.374  1.00  0.00    -0.306 N 
ATOM     15  N   UNL A   1      37.274  34.715  31.607  1.00  0.00    -0.221 NA
ATOM     16  C   UNL A   1      37.378  33.028  33.121  1.00  0.00     0.128 A 
BRANCH   9  17
ATOM     17  C   UNL A   1      41.938  33.921  30.065  1.00  0.00     0.099 C 
ATOM     18  N   UNL A   1      43.002  34.219  29.457  1.00  0.00    -0.192 NA
ENDBRANCH   9  17
ENDBRANCH   6   8
ENDBRANCH   5   6
ENDBRANCH   4   5
ENDBRANCH   3   4
ENDBRANCH   2   3
ENDBRANCH   1   2
BRANCH   1  19
ATOM     19  C   UNL A   1      34.976  34.008  28.548  1.00  0.00     0.261 C 
BRANCH  19  20
ATOM     20  O   UNL A   1      35.186  32.976  29.517  1.00  0.00    -0.460 OA
BRANCH  20  21
ATOM     21  C   UNL A   1      35.133  31.709  29.023  1.00  0.00     0.338 C 
ATOM     22  O   UNL A   1      34.365  31.282  28.178  1.00  0.00    -0.246 OA
BRANCH  21  23
ATOM     23  C   UNL A   1      36.408  31.071  29.412  1.00  0.00     0.060 A 
ATOM     24  C   UNL A   1      37.631  31.629  29.031  1.00  0.00     0.016 A 
ATOM     25  C   UNL A   1      36.332  29.752  29.889  1.00  0.00     0.016 A 
ATOM     26  C   UNL A   1      38.770  30.832  29.067  1.00  0.00     0.010 A 
ATOM     27  C   UNL A   1      37.471  28.952  29.899  1.00  0.00     0.010 A 
ATOM     28  C   UNL A   1      38.685  29.481  29.459  1.00  0.00    -0.014 A 
BRANCH  28  29
ATOM     29  C   UNL A   1      39.938  28.727  29.571  1.00  0.00     0.031 A 
ATOM     30  C   UNL A   1      40.508  28.745  30.951  1.00  0.00     0.074 A 
ATOM     31  C   UNL A   1      40.507  27.951  28.624  1.00  0.00     0.049 A 
ATOM     32  N   UNL A   1      41.629  29.247  31.354  1.00  0.00    -0.248 NA
ATOM     33  C   UNL A   1      39.644  28.258  32.037  1.00  0.00     0.031 C 
ATOM     34  C   UNL A   1      39.963  27.519  27.334  1.00  0.00     0.029 A 
ATOM     35  N   UNL A   1      41.707  27.299  28.680  1.00  0.00    -0.354 N 
ATOM     36  C   UNL A   1      41.686  29.016  32.730  1.00  0.00     0.074 A 
ATOM     37  C   UNL A   1      40.388  28.517  33.110  1.00  0.00     0.031 C 
ATOM     38  C   UNL A   1      40.727  26.511  26.841  1.00  0.00     0.029 A 
ATOM     39  C   UNL A   1      41.891  26.336  27.696  1.00  0.00     0.049 A 
ATOM     40  H   UNL A   1      42.386  27.497  29.363  1.00  0.00     0.167 HD
ATOM     41  C   UNL A   1      42.841  29.123  33.447  1.00  0.00     0.034 A 
ATOM     42  C   UNL A   1      42.897  25.425  27.626  1.00  0.00     0.034 A 
ATOM     43  C   UNL A   1      43.857  29.814  32.709  1.00  0.00     0.049 A 
ATOM     44  C   UNL A   1      44.009  25.897  28.483  1.00  0.00     0.074 A 
ATOM     45  C   UNL A   1      44.024  31.107  32.260  1.00  0.00     0.029 A 
ATOM     46  N   UNL A   1      44.780  29.057  32.032  1.00  0.00    -0.354 N 
ATOM     47  N   UNL A   1      44.749  26.935  28.220  1.00  0.00    -0.248 NA
ATOM     48  C   UNL A   1      44.030  25.438  29.863  1.00  0.00     0.031 C 
ATOM     49  C   UNL A   1      44.689  30.978  31.010  1.00  0.00     0.029 A 
ATOM     50  C   UNL A   1      44.932  29.620  30.792  1.00  0.00     0.049 A 
ATOM     51  H   UNL A   1      45.244  28.259  32.373  1.00  0.00     0.167 HD
ATOM     52  C   UNL A   1      44.963  27.524  29.456  1.00  0.00     0.074 A 
ATOM     53  C   UNL A   1      44.580  26.510  30.436  1.00  0.00     0.031 C 
ATOM     54  C   UNL A   1      45.168  28.866  29.577  1.00  0.00     0.034 A 
BRANCH  41  55
ATOM     55  C   UNL A   1      43.139  28.370  34.720  1.00  0.00     0.023 A 
ATOM     56  C   UNL A   1      43.320  26.976  34.754  1.00  0.00     0.031 A 
ATOM     57  C   UNL A   1      43.471  29.064  35.903  1.00  0.00     0.131 A 
ATOM     58  C   UNL A   1      43.784  26.325  35.906  1.00  0.00     0.055 A 
ATOM     59  C   UNL A   1      43.999  28.422  37.030  1.00  0.00     0.041 A 
ATOM     60  F   UNL A   1      43.346  30.398  35.983  1.00  0.00    -0.206 F 
ATOM     61  C   UNL A   1      44.158  27.042  37.036  1.00  0.00     0.022 A 
BRANCH  58  62
ATOM     62  S   UNL A   1      43.919  24.517  35.943  1.00  0.00     0.124 S 
ATOM     63  O   UNL A   1      44.751  24.253  34.774  1.00  0.00    -0.237 OA
ATOM     64  O   UNL A   1      44.558  24.294  37.238  1.00  0.00    -0.237 OA
ATOM     65  O   UNL A   1      42.533  24.069  35.854  1.00  0.00    -0.744 OA
ENDBRANCH  58  62
ENDBRANCH  41  55
BRANCH  42  66
ATOM     66  C   UNL A   1      42.776  23.983  27.293  1.00  0.00     0.023 A 
ATOM     67  C   UNL A   1      43.756  23.385  26.482  1.00  0.00     0.031 A 
ATOM     68  C   UNL A   1      41.556  23.297  27.446  1.00  0.00     0.131 A 
ATOM     69  C   UNL A   1      43.488  22.183  25.811  1.00  0.00     0.055 A 
ATOM     70  C   UNL A   1      41.300  22.083  26.794  1.00  0.00     0.041 A 
ATOM     71  F   UNL A   1      40.560  23.834  28.169  1.00  0.00    -0.206 F 
ATOM     72  C   UNL A   1      42.263  21.530  25.958  1.00  0.00     0.022 A 
BRANCH  69  73
ATOM     73  S   UNL A   1      44.691  21.502  24.637  1.00  0.00     0.124 S 
ATOM     74  O   UNL A   1      44.518  22.375  23.479  1.00  0.00    -0.237 OA
ATOM     75  O   UNL A   1      45.943  21.666  25.368  1.00  0.00    -0.237 OA
ATOM     76  O   UNL A   1      44.239  20.126  24.448  1.00  0.00    -0.744 OA
ENDBRANCH  69  73
ENDBRANCH  42  66
BRANCH  54  77
ATOM     77  C   UNL A   1      45.401  29.693  28.333  1.00  0.00     0.023 A 
ATOM     78  C   UNL A   1      46.728  30.079  28.076  1.00  0.00     0.031 A 
ATOM     79  C   UNL A   1      44.383  30.317  27.588  1.00  0.00     0.131 A 
ATOM     80  C   UNL A   1      47.001  31.109  27.172  1.00  0.00     0.055 A 
ATOM     81  C   UNL A   1      44.667  31.289  26.622  1.00  0.00     0.041 A 
ATOM     82  F   UNL A   1      43.087  30.084  27.836  1.00  0.00    -0.206 F 
ATOM     83  C   UNL A   1      45.980  31.708  26.429  1.00  0.00     0.022 A 
BRANCH  80  84
ATOM     84  S   UNL A   1      48.663  31.821  27.087  1.00  0.00     0.124 S 
ATOM     85  O   UNL A   1      48.488  32.902  26.121  1.00  0.00    -0.237 OA
ATOM     86  O   UNL A   1      48.887  32.245  28.468  1.00  0.00    -0.237 OA
ATOM     87  O   UNL A   1      49.502  30.713  26.639  1.00  0.00    -0.744 OA
ENDBRANCH  80  84
ENDBRANCH  54  77
ENDBRANCH  28  29
ENDBRANCH  21  23
ENDBRANCH  20  21
ENDBRANCH  19  20
ENDBRANCH   1  19
TORSDOF 18
ENDMDL
