MODEL 1
REMARK VINA RESULT:     -11.2      0.000      0.000
REMARK SMILES C[C@@H](C(=O)OCCOCCOC(=O)c1ccc(-c2c3nc(c(-c4cc(S(=O)(=O)[O-])ccc4F)c4ccc([nH]4)c(-c4cc(S(=O)(=O)[O-])ccc4F)c4nc(c(-c5cc(S(=O)(=O)[O-])ccc5F)c5ccc2[nH]5)C=C4)C=C3)cc1)c1ccc(O[C@H]2CCCC2=O)cc1F
REMARK SMILES IDX 8 1 7 2 6 3 5 4 3 5 4 6 2 7 1 8 77 9 78 10 89 11 79 12 88 13
REMARK SMILES IDX 90 14 80 15 81 16 82 17 83 18 86 19 84 20 85 21 87 22 9 23
REMARK SMILES IDX 10 24 11 25 12 26 13 27 14 28 15 29 76 30 16 31 75 32 17 33
REMARK SMILES IDX 18 34 19 35 69 36 20 37 74 38 68 39 70 40 21 41 73 42 67 43
REMARK SMILES IDX 66 44 22 46 54 47 34 48 53 49 35 50 38 51 52 52 71 53 36 54
REMARK SMILES IDX 37 55 51 57 72 58 39 59 23 60 24 61 32 62 25 63 31 64 33 65
REMARK SMILES IDX 30 66 26 67 27 68 28 69 29 70 55 71 56 72 64 73 57 74 63 75
REMARK SMILES IDX 65 76 62 77 58 78 59 79 60 80 61 81 40 82 41 83 49 84 42 85
REMARK SMILES IDX 48 86 50 87 47 88 43 89 44 90 45 91 46 92
REMARK H PARENT 70 45 38 56
REMARK Flexibility Score: inf
ROOT
ATOM      1  O   UNL A   1      32.807  30.438  26.370  1.00  0.00    -0.374 OA
ENDROOT
BRANCH   1   2
ATOM      2  C   UNL A   1      32.821  29.114  25.825  1.00  0.00     0.202 C 
BRANCH   2   3
ATOM      3  C   UNL A   1      33.684  28.084  26.563  1.00  0.00     0.261 C 
BRANCH   3   4
ATOM      4  O   UNL A   1      33.362  26.741  26.139  1.00  0.00    -0.463 OA
BRANCH   4   5
ATOM      5  C   UNL A   1      32.063  26.358  26.268  1.00  0.00     0.313 C 
ATOM      6  O   UNL A   1      31.366  26.605  27.248  1.00  0.00    -0.252 OA
BRANCH   5   7
ATOM      7  C   UNL A   1      31.550  25.563  25.057  1.00  0.00     0.129 C 
ATOM      8  C   UNL A   1      32.608  24.727  24.329  1.00  0.00     0.025 C 
BRANCH   7   9
ATOM      9  C   UNL A   1      30.775  26.484  24.118  1.00  0.00     0.002 A 
ATOM     10  C   UNL A   1      29.380  26.559  24.201  1.00  0.00     0.011 A 
ATOM     11  C   UNL A   1      31.411  27.353  23.225  1.00  0.00     0.130 A 
ATOM     12  C   UNL A   1      28.674  27.495  23.435  1.00  0.00     0.047 A 
ATOM     13  C   UNL A   1      30.714  28.304  22.479  1.00  0.00     0.086 A 
ATOM     14  F   UNL A   1      32.736  27.297  23.050  1.00  0.00    -0.207 F 
ATOM     15  C   UNL A   1      29.337  28.395  22.595  1.00  0.00     0.123 A 
BRANCH  15  16
ATOM     16  O   UNL A   1      28.525  29.260  21.926  1.00  0.00    -0.483 OA
BRANCH  16  17
ATOM     17  C   UNL A   1      28.886  30.610  21.744  1.00  0.00     0.239 C 
ATOM     18  C   UNL A   1      28.322  31.244  20.462  1.00  0.00     0.054 C 
ATOM     19  C   UNL A   1      28.724  31.709  22.791  1.00  0.00     0.173 C 
ATOM     20  C   UNL A   1      27.715  32.590  20.850  1.00  0.00     0.012 C 
ATOM     21  C   UNL A   1      28.356  33.021  22.159  1.00  0.00     0.080 C 
ATOM     22  O   UNL A   1      28.927  31.571  23.991  1.00  0.00    -0.296 OA
ENDBRANCH  16  17
ENDBRANCH  15  16
ENDBRANCH   7   9
ENDBRANCH   5   7
ENDBRANCH   4   5
ENDBRANCH   3   4
ENDBRANCH   2   3
ENDBRANCH   1   2
BRANCH   1  23
ATOM     23  C   UNL A   1      31.576  31.147  26.284  1.00  0.00     0.202 C 
BRANCH  23  24
ATOM     24  C   UNL A   1      31.500  32.513  26.976  1.00  0.00     0.261 C 
BRANCH  24  25
ATOM     25  O   UNL A   1      32.691  33.291  26.796  1.00  0.00    -0.460 OA
BRANCH  25  26
ATOM     26  C   UNL A   1      33.211  33.768  27.951  1.00  0.00     0.338 C 
ATOM     27  O   UNL A   1      32.680  34.554  28.728  1.00  0.00    -0.246 OA
BRANCH  26  28
ATOM     28  C   UNL A   1      34.463  33.063  28.269  1.00  0.00     0.060 A 
ATOM     29  C   UNL A   1      34.353  31.742  28.718  1.00  0.00     0.016 A 
ATOM     30  C   UNL A   1      35.711  33.686  28.185  1.00  0.00     0.016 A 
ATOM     31  C   UNL A   1      35.485  31.053  29.139  1.00  0.00     0.010 A 
ATOM     32  C   UNL A   1      36.848  32.994  28.615  1.00  0.00     0.010 A 
ATOM     33  C   UNL A   1      36.733  31.689  29.130  1.00  0.00    -0.014 A 
BRANCH  33  34
ATOM     34  C   UNL A   1      37.875  31.039  29.817  1.00  0.00     0.031 A 
ATOM     35  C   UNL A   1      38.157  31.401  31.249  1.00  0.00     0.074 A 
ATOM     36  C   UNL A   1      38.607  30.099  29.191  1.00  0.00     0.049 A 
ATOM     37  N   UNL A   1      39.096  30.964  32.049  1.00  0.00    -0.248 NA
ATOM     38  C   UNL A   1      37.257  32.392  31.861  1.00  0.00     0.031 C 
ATOM     39  C   UNL A   1      38.387  29.632  27.824  1.00  0.00     0.029 A 
ATOM     40  N   UNL A   1      39.681  29.367  29.629  1.00  0.00    -0.354 N 
ATOM     41  C   UNL A   1      38.904  31.628  33.256  1.00  0.00     0.074 A 
ATOM     42  C   UNL A   1      37.784  32.525  33.070  1.00  0.00     0.031 C 
ATOM     43  C   UNL A   1      39.300  28.689  27.533  1.00  0.00     0.029 A 
ATOM     44  C   UNL A   1      40.192  28.515  28.678  1.00  0.00     0.049 A 
ATOM     45  H   UNL A   1      40.051  29.443  30.537  1.00  0.00     0.167 HD
ATOM     46  C   UNL A   1      39.595  31.492  34.414  1.00  0.00     0.034 A 
ATOM     47  C   UNL A   1      41.268  27.704  28.722  1.00  0.00     0.034 A 
ATOM     48  C   UNL A   1      40.715  30.598  34.577  1.00  0.00     0.049 A 
ATOM     49  C   UNL A   1      42.078  27.640  29.995  1.00  0.00     0.074 A 
ATOM     50  C   UNL A   1      41.477  30.367  35.709  1.00  0.00     0.029 A 
ATOM     51  N   UNL A   1      41.245  29.796  33.573  1.00  0.00    -0.354 N 
ATOM     52  N   UNL A   1      41.883  28.264  31.134  1.00  0.00    -0.248 NA
ATOM     53  C   UNL A   1      43.250  26.755  29.990  1.00  0.00     0.031 C 
ATOM     54  C   UNL A   1      42.513  29.489  35.369  1.00  0.00     0.029 A 
ATOM     55  C   UNL A   1      42.347  29.102  34.048  1.00  0.00     0.049 A 
ATOM     56  H   UNL A   1      40.888  29.730  32.657  1.00  0.00     0.167 HD
ATOM     57  C   UNL A   1      42.888  27.820  31.990  1.00  0.00     0.074 A 
ATOM     58  C   UNL A   1      43.678  26.867  31.238  1.00  0.00     0.031 C 
ATOM     59  C   UNL A   1      43.133  28.162  33.281  1.00  0.00     0.034 A 
BRANCH  46  60
ATOM     60  C   UNL A   1      39.192  32.378  35.570  1.00  0.00     0.023 A 
ATOM     61  C   UNL A   1      39.659  33.699  35.695  1.00  0.00     0.031 A 
ATOM     62  C   UNL A   1      38.351  31.880  36.581  1.00  0.00     0.131 A 
ATOM     63  C   UNL A   1      39.340  34.450  36.838  1.00  0.00     0.055 A 
ATOM     64  C   UNL A   1      37.972  32.659  37.676  1.00  0.00     0.041 A 
ATOM     65  F   UNL A   1      37.893  30.619  36.530  1.00  0.00    -0.206 F 
ATOM     66  C   UNL A   1      38.479  33.948  37.817  1.00  0.00     0.022 A 
BRANCH  63  67
ATOM     67  S   UNL A   1      40.180  36.037  37.098  1.00  0.00     0.124 S 
ATOM     68  O   UNL A   1      39.781  36.780  35.904  1.00  0.00    -0.237 OA
ATOM     69  O   UNL A   1      39.608  36.494  38.357  1.00  0.00    -0.237 OA
ATOM     70  O   UNL A   1      41.593  35.670  37.150  1.00  0.00    -0.744 OA
ENDBRANCH  63  67
ENDBRANCH  46  60
BRANCH  47  71
ATOM     71  C   UNL A   1      41.673  26.916  27.522  1.00  0.00     0.023 A 
ATOM     72  C   UNL A   1      41.455  25.531  27.452  1.00  0.00     0.031 A 
ATOM     73  C   UNL A   1      42.339  27.533  26.447  1.00  0.00     0.131 A 
ATOM     74  C   UNL A   1      41.939  24.800  26.355  1.00  0.00     0.055 A 
ATOM     75  C   UNL A   1      42.770  26.810  25.333  1.00  0.00     0.041 A 
ATOM     76  F   UNL A   1      42.577  28.854  26.463  1.00  0.00    -0.206 F 
ATOM     77  C   UNL A   1      42.582  25.433  25.289  1.00  0.00     0.022 A 
BRANCH  74  78
ATOM     78  S   UNL A   1      41.793  22.993  26.382  1.00  0.00     0.124 S 
ATOM     79  O   UNL A   1      40.351  22.809  26.274  1.00  0.00    -0.237 OA
ATOM     80  O   UNL A   1      42.580  22.608  25.215  1.00  0.00    -0.237 OA
ATOM     81  O   UNL A   1      42.374  22.626  27.672  1.00  0.00    -0.744 OA
ENDBRANCH  74  78
ENDBRANCH  47  71
BRANCH  59  82
ATOM     82  C   UNL A   1      44.277  27.461  33.973  1.00  0.00     0.023 A 
ATOM     83  C   UNL A   1      44.090  26.268  34.694  1.00  0.00     0.031 A 
ATOM     84  C   UNL A   1      45.574  28.003  33.918  1.00  0.00     0.131 A 
ATOM     85  C   UNL A   1      45.170  25.688  35.377  1.00  0.00     0.055 A 
ATOM     86  C   UNL A   1      46.657  27.386  34.546  1.00  0.00     0.041 A 
ATOM     87  F   UNL A   1      45.811  29.141  33.247  1.00  0.00    -0.206 F 
ATOM     88  C   UNL A   1      46.455  26.229  35.292  1.00  0.00     0.022 A 
BRANCH  85  89
ATOM     89  S   UNL A   1      44.854  24.266  36.458  1.00  0.00     0.124 S 
ATOM     90  O   UNL A   1      44.238  24.900  37.620  1.00  0.00    -0.237 OA
ATOM     91  O   UNL A   1      43.973  23.440  35.640  1.00  0.00    -0.237 OA
ATOM     92  O   UNL A   1      46.186  23.709  36.690  1.00  0.00    -0.744 OA
ENDBRANCH  85  89
ENDBRANCH  59  82
ENDBRANCH  33  34
ENDBRANCH  26  28
ENDBRANCH  25  26
ENDBRANCH  24  25
ENDBRANCH  23  24
ENDBRANCH   1  23
TORSDOF 20
ENDMDL
MODEL 2
REMARK VINA RESULT:     -11.0      4.854     10.309
REMARK SMILES C[C@@H](C(=O)OCCOCCOC(=O)c1ccc(-c2c3nc(c(-c4cc(S(=O)(=O)[O-])ccc4F)c4ccc([nH]4)c(-c4cc(S(=O)(=O)[O-])ccc4F)c4nc(c(-c5cc(S(=O)(=O)[O-])ccc5F)c5ccc2[nH]5)C=C4)C=C3)cc1)c1ccc(O[C@H]2CCCC2=O)cc1F
REMARK SMILES IDX 8 1 7 2 6 3 5 4 3 5 4 6 2 7 1 8 77 9 78 10 89 11 79 12 88 13
REMARK SMILES IDX 90 14 80 15 81 16 82 17 83 18 86 19 84 20 85 21 87 22 9 23
REMARK SMILES IDX 10 24 11 25 12 26 13 27 14 28 15 29 76 30 16 31 75 32 17 33
REMARK SMILES IDX 18 34 19 35 69 36 20 37 74 38 68 39 70 40 21 41 73 42 67 43
REMARK SMILES IDX 66 44 22 46 54 47 34 48 53 49 35 50 38 51 52 52 71 53 36 54
REMARK SMILES IDX 37 55 51 57 72 58 39 59 23 60 24 61 32 62 25 63 31 64 33 65
REMARK SMILES IDX 30 66 26 67 27 68 28 69 29 70 55 71 56 72 64 73 57 74 63 75
REMARK SMILES IDX 65 76 62 77 58 78 59 79 60 80 61 81 40 82 41 83 49 84 42 85
REMARK SMILES IDX 48 86 50 87 47 88 43 89 44 90 45 91 46 92
REMARK H PARENT 70 45 38 56
REMARK Flexibility Score: inf
ROOT
ATOM      1  O   UNL A   1      36.446  20.730  25.214  1.00  0.00    -0.374 OA
ENDROOT
BRANCH   1   2
ATOM      2  C   UNL A   1      35.015  20.726  25.273  1.00  0.00     0.202 C 
BRANCH   2   3
ATOM      3  C   UNL A   1      34.355  21.981  25.855  1.00  0.00     0.261 C 
BRANCH   3   4
ATOM      4  O   UNL A   1      34.641  23.139  25.041  1.00  0.00    -0.463 OA
BRANCH   4   5
ATOM      5  C   UNL A   1      34.106  23.150  23.791  1.00  0.00     0.313 C 
ATOM      6  O   UNL A   1      34.721  23.480  22.780  1.00  0.00    -0.252 OA
BRANCH   5   7
ATOM      7  C   UNL A   1      32.632  22.715  23.767  1.00  0.00     0.129 C 
ATOM      8  C   UNL A   1      32.221  21.862  22.562  1.00  0.00     0.025 C 
BRANCH   7   9
ATOM      9  C   UNL A   1      31.727  23.927  23.970  1.00  0.00     0.002 A 
ATOM     10  C   UNL A   1      31.334  24.701  22.872  1.00  0.00     0.011 A 
ATOM     11  C   UNL A   1      31.175  24.253  25.213  1.00  0.00     0.130 A 
ATOM     12  C   UNL A   1      30.401  25.734  23.030  1.00  0.00     0.047 A 
ATOM     13  C   UNL A   1      30.227  25.265  25.372  1.00  0.00     0.086 A 
ATOM     14  F   UNL A   1      31.550  23.595  26.316  1.00  0.00    -0.207 F 
ATOM     15  C   UNL A   1      29.817  26.001  24.273  1.00  0.00     0.123 A 
BRANCH  15  16
ATOM     16  O   UNL A   1      28.913  27.020  24.275  1.00  0.00    -0.483 OA
BRANCH  16  17
ATOM     17  C   UNL A   1      28.951  28.035  23.299  1.00  0.00     0.239 C 
ATOM     18  C   UNL A   1      27.572  28.606  22.933  1.00  0.00     0.054 C 
ATOM     19  C   UNL A   1      29.850  29.268  23.351  1.00  0.00     0.173 C 
ATOM     20  C   UNL A   1      27.690  30.128  22.956  1.00  0.00     0.012 C 
ATOM     21  C   UNL A   1      29.159  30.476  22.784  1.00  0.00     0.080 C 
ATOM     22  O   UNL A   1      31.010  29.275  23.743  1.00  0.00    -0.296 OA
ENDBRANCH  16  17
ENDBRANCH  15  16
ENDBRANCH   7   9
ENDBRANCH   5   7
ENDBRANCH   4   5
ENDBRANCH   3   4
ENDBRANCH   2   3
ENDBRANCH   1   2
BRANCH   1  23
ATOM     23  C   UNL A   1      37.075  19.476  24.968  1.00  0.00     0.202 C 
BRANCH  23  24
ATOM     24  C   UNL A   1      38.563  19.354  25.321  1.00  0.00     0.261 C 
BRANCH  24  25
ATOM     25  O   UNL A   1      39.169  20.622  25.606  1.00  0.00    -0.460 OA
BRANCH  25  26
ATOM     26  C   UNL A   1      40.207  20.547  26.472  1.00  0.00     0.338 C 
ATOM     27  O   UNL A   1      40.929  19.578  26.675  1.00  0.00    -0.246 OA
BRANCH  26  28
ATOM     28  C   UNL A   1      40.491  21.878  27.033  1.00  0.00     0.060 A 
ATOM     29  C   UNL A   1      39.788  22.960  26.490  1.00  0.00     0.016 A 
ATOM     30  C   UNL A   1      41.456  22.079  28.024  1.00  0.00     0.016 A 
ATOM     31  C   UNL A   1      40.085  24.257  26.896  1.00  0.00     0.010 A 
ATOM     32  C   UNL A   1      41.758  23.384  28.426  1.00  0.00     0.010 A 
ATOM     33  C   UNL A   1      41.100  24.479  27.835  1.00  0.00    -0.014 A 
BRANCH  33  34
ATOM     34  C   UNL A   1      41.577  25.865  28.062  1.00  0.00     0.031 A 
ATOM     35  C   UNL A   1      42.919  26.266  27.513  1.00  0.00     0.074 A 
ATOM     36  C   UNL A   1      40.799  26.763  28.693  1.00  0.00     0.049 A 
ATOM     37  N   UNL A   1      43.538  27.416  27.587  1.00  0.00    -0.248 NA
ATOM     38  C   UNL A   1      43.662  25.227  26.782  1.00  0.00     0.031 C 
ATOM     39  C   UNL A   1      39.460  26.498  29.216  1.00  0.00     0.029 A 
ATOM     40  N   UNL A   1      41.024  28.082  28.995  1.00  0.00    -0.354 N 
ATOM     41  C   UNL A   1      44.744  27.240  26.917  1.00  0.00     0.074 A 
ATOM     42  C   UNL A   1      44.784  25.861  26.478  1.00  0.00     0.031 C 
ATOM     43  C   UNL A   1      38.981  27.622  29.777  1.00  0.00     0.029 A 
ATOM     44  C   UNL A   1      39.992  28.673  29.687  1.00  0.00     0.049 A 
ATOM     45  H   UNL A   1      41.845  28.561  28.741  1.00  0.00     0.167 HD
ATOM     46  C   UNL A   1      45.722  28.149  26.682  1.00  0.00     0.034 A 
ATOM     47  C   UNL A   1      39.888  29.913  30.205  1.00  0.00     0.034 A 
ATOM     48  C   UNL A   1      45.667  29.517  27.136  1.00  0.00     0.049 A 
ATOM     49  C   UNL A   1      41.032  30.881  30.012  1.00  0.00     0.074 A 
ATOM     50  C   UNL A   1      46.591  30.528  26.942  1.00  0.00     0.029 A 
ATOM     51  N   UNL A   1      44.634  30.064  27.889  1.00  0.00    -0.354 N 
ATOM     52  N   UNL A   1      42.164  30.707  29.369  1.00  0.00    -0.248 NA
ATOM     53  C   UNL A   1      40.880  32.214  30.608  1.00  0.00     0.031 C 
ATOM     54  C   UNL A   1      46.157  31.660  27.642  1.00  0.00     0.029 A 
ATOM     55  C   UNL A   1      44.919  31.384  28.202  1.00  0.00     0.049 A 
ATOM     56  H   UNL A   1      43.819  29.583  28.161  1.00  0.00     0.167 HD
ATOM     57  C   UNL A   1      42.842  31.920  29.455  1.00  0.00     0.074 A 
ATOM     58  C   UNL A   1      41.985  32.819  30.201  1.00  0.00     0.031 C 
ATOM     59  C   UNL A   1      44.058  32.265  28.958  1.00  0.00     0.034 A 
BRANCH  46  60
ATOM     60  C   UNL A   1      46.957  27.668  25.956  1.00  0.00     0.023 A 
ATOM     61  C   UNL A   1      47.188  27.966  24.602  1.00  0.00     0.031 A 
ATOM     62  C   UNL A   1      47.903  26.871  26.625  1.00  0.00     0.131 A 
ATOM     63  C   UNL A   1      48.298  27.414  23.942  1.00  0.00     0.055 A 
ATOM     64  C   UNL A   1      49.047  26.390  25.985  1.00  0.00     0.041 A 
ATOM     65  F   UNL A   1      47.725  26.532  27.911  1.00  0.00    -0.206 F 
ATOM     66  C   UNL A   1      49.242  26.649  24.631  1.00  0.00     0.022 A 
BRANCH  63  67
ATOM     67  S   UNL A   1      48.414  27.590  22.140  1.00  0.00     0.124 S 
ATOM     68  O   UNL A   1      49.543  28.507  22.006  1.00  0.00    -0.237 OA
ATOM     69  O   UNL A   1      48.648  26.219  21.705  1.00  0.00    -0.237 OA
ATOM     70  O   UNL A   1      47.118  28.151  21.768  1.00  0.00    -0.744 OA
ENDBRANCH  63  67
ENDBRANCH  46  60
BRANCH  47  71
ATOM     71  C   UNL A   1      38.683  30.308  30.990  1.00  0.00     0.023 A 
ATOM     72  C   UNL A   1      37.627  31.018  30.396  1.00  0.00     0.031 A 
ATOM     73  C   UNL A   1      38.596  30.029  32.367  1.00  0.00     0.131 A 
ATOM     74  C   UNL A   1      36.553  31.464  31.183  1.00  0.00     0.055 A 
ATOM     75  C   UNL A   1      37.500  30.427  33.133  1.00  0.00     0.041 A 
ATOM     76  F   UNL A   1      39.578  29.355  32.986  1.00  0.00    -0.206 F 
ATOM     77  C   UNL A   1      36.477  31.162  32.544  1.00  0.00     0.022 A 
BRANCH  74  78
ATOM     78  S   UNL A   1      35.298  32.526  30.417  1.00  0.00     0.124 S 
ATOM     79  O   UNL A   1      34.321  32.653  31.492  1.00  0.00    -0.237 OA
ATOM     80  O   UNL A   1      36.068  33.726  30.103  1.00  0.00    -0.237 OA
ATOM     81  O   UNL A   1      34.857  31.750  29.260  1.00  0.00    -0.744 OA
ENDBRANCH  74  78
ENDBRANCH  47  71
BRANCH  59  82
ATOM     82  C   UNL A   1      44.508  33.691  29.167  1.00  0.00     0.023 A 
ATOM     83  C   UNL A   1      43.919  34.765  28.476  1.00  0.00     0.031 A 
ATOM     84  C   UNL A   1      45.551  33.978  30.067  1.00  0.00     0.131 A 
ATOM     85  C   UNL A   1      44.415  36.066  28.653  1.00  0.00     0.055 A 
ATOM     86  C   UNL A   1      45.996  35.282  30.287  1.00  0.00     0.041 A 
ATOM     87  F   UNL A   1      46.152  32.992  30.753  1.00  0.00    -0.206 F 
ATOM     88  C   UNL A   1      45.437  36.333  29.568  1.00  0.00     0.022 A 
BRANCH  85  89
ATOM     89  S   UNL A   1      43.770  37.394  27.600  1.00  0.00     0.124 S 
ATOM     90  O   UNL A   1      43.192  36.646  26.489  1.00  0.00    -0.237 OA
ATOM     91  O   UNL A   1      42.820  38.061  28.484  1.00  0.00    -0.237 OA
ATOM     92  O   UNL A   1      44.960  38.176  27.268  1.00  0.00    -0.744 OA
ENDBRANCH  85  89
ENDBRANCH  59  82
ENDBRANCH  33  34
ENDBRANCH  26  28
ENDBRANCH  25  26
ENDBRANCH  24  25
ENDBRANCH  23  24
ENDBRANCH   1  23
TORSDOF 20
ENDMDL
MODEL 3
REMARK VINA RESULT:     -10.9      4.904     10.196
REMARK SMILES C[C@@H](C(=O)OCCOCCOC(=O)c1ccc(-c2c3nc(c(-c4cc(S(=O)(=O)[O-])ccc4F)c4ccc([nH]4)c(-c4cc(S(=O)(=O)[O-])ccc4F)c4nc(c(-c5cc(S(=O)(=O)[O-])ccc5F)c5ccc2[nH]5)C=C4)C=C3)cc1)c1ccc(O[C@H]2CCCC2=O)cc1F
REMARK SMILES IDX 8 1 7 2 6 3 5 4 3 5 4 6 2 7 1 8 77 9 78 10 89 11 79 12 88 13
REMARK SMILES IDX 90 14 80 15 81 16 82 17 83 18 86 19 84 20 85 21 87 22 9 23
REMARK SMILES IDX 10 24 11 25 12 26 13 27 14 28 15 29 76 30 16 31 75 32 17 33
REMARK SMILES IDX 18 34 19 35 69 36 20 37 74 38 68 39 70 40 21 41 73 42 67 43
REMARK SMILES IDX 66 44 22 46 54 47 34 48 53 49 35 50 38 51 52 52 71 53 36 54
REMARK SMILES IDX 37 55 51 57 72 58 39 59 23 60 24 61 32 62 25 63 31 64 33 65
REMARK SMILES IDX 30 66 26 67 27 68 28 69 29 70 55 71 56 72 64 73 57 74 63 75
REMARK SMILES IDX 65 76 62 77 58 78 59 79 60 80 61 81 40 82 41 83 49 84 42 85
REMARK SMILES IDX 48 86 50 87 47 88 43 89 44 90 45 91 46 92
REMARK H PARENT 70 45 38 56
REMARK Flexibility Score: inf
ROOT
ATOM      1  O   UNL A   1      36.206  20.550  25.169  1.00  0.00    -0.374 OA
ENDROOT
BRANCH   1   2
ATOM      2  C   UNL A   1      34.781  20.438  25.094  1.00  0.00     0.202 C 
BRANCH   2   3
ATOM      3  C   UNL A   1      33.977  21.328  26.050  1.00  0.00     0.261 C 
BRANCH   3   4
ATOM      4  O   UNL A   1      34.161  22.725  25.732  1.00  0.00    -0.463 OA
BRANCH   4   5
ATOM      5  C   UNL A   1      33.778  23.120  24.488  1.00  0.00     0.313 C 
ATOM      6  O   UNL A   1      34.504  23.720  23.701  1.00  0.00    -0.252 OA
BRANCH   5   7
ATOM      7  C   UNL A   1      32.322  22.750  24.165  1.00  0.00     0.129 C 
ATOM      8  C   UNL A   1      32.120  21.954  22.871  1.00  0.00     0.025 C 
BRANCH   7   9
ATOM      9  C   UNL A   1      31.439  23.994  24.237  1.00  0.00     0.002 A 
ATOM     10  C   UNL A   1      31.002  24.614  23.061  1.00  0.00     0.011 A 
ATOM     11  C   UNL A   1      30.949  24.497  25.447  1.00  0.00     0.130 A 
ATOM     12  C   UNL A   1      30.088  25.674  23.116  1.00  0.00     0.047 A 
ATOM     13  C   UNL A   1      30.019  25.536  25.506  1.00  0.00     0.086 A 
ATOM     14  F   UNL A   1      31.368  23.992  26.613  1.00  0.00    -0.207 F 
ATOM     15  C   UNL A   1      29.565  26.120  24.335  1.00  0.00     0.123 A 
BRANCH  15  16
ATOM     16  O   UNL A   1      28.673  27.144  24.236  1.00  0.00    -0.483 OA
BRANCH  16  17
ATOM     17  C   UNL A   1      28.819  28.151  23.262  1.00  0.00     0.239 C 
ATOM     18  C   UNL A   1      27.496  28.811  22.838  1.00  0.00     0.054 C 
ATOM     19  C   UNL A   1      29.794  29.322  23.351  1.00  0.00     0.173 C 
ATOM     20  C   UNL A   1      27.714  30.322  22.865  1.00  0.00     0.012 C 
ATOM     21  C   UNL A   1      29.209  30.572  22.755  1.00  0.00     0.080 C 
ATOM     22  O   UNL A   1      30.935  29.254  23.791  1.00  0.00    -0.296 OA
ENDBRANCH  16  17
ENDBRANCH  15  16
ENDBRANCH   7   9
ENDBRANCH   5   7
ENDBRANCH   4   5
ENDBRANCH   3   4
ENDBRANCH   2   3
ENDBRANCH   1   2
BRANCH   1  23
ATOM     23  C   UNL A   1      36.956  19.413  24.754  1.00  0.00     0.202 C 
BRANCH  23  24
ATOM     24  C   UNL A   1      38.435  19.359  25.154  1.00  0.00     0.261 C 
BRANCH  24  25
ATOM     25  O   UNL A   1      38.928  20.624  25.616  1.00  0.00    -0.460 OA
BRANCH  25  26
ATOM     26  C   UNL A   1      40.052  20.530  26.364  1.00  0.00     0.338 C 
ATOM     27  O   UNL A   1      40.800  19.563  26.452  1.00  0.00    -0.246 OA
BRANCH  26  28
ATOM     28  C   UNL A   1      40.383  21.843  26.943  1.00  0.00     0.060 A 
ATOM     29  C   UNL A   1      39.735  22.959  26.400  1.00  0.00     0.016 A 
ATOM     30  C   UNL A   1      41.339  21.994  27.951  1.00  0.00     0.016 A 
ATOM     31  C   UNL A   1      40.079  24.238  26.824  1.00  0.00     0.010 A 
ATOM     32  C   UNL A   1      41.689  23.281  28.371  1.00  0.00     0.010 A 
ATOM     33  C   UNL A   1      41.087  24.409  27.781  1.00  0.00    -0.014 A 
BRANCH  33  34
ATOM     34  C   UNL A   1      41.617  25.771  28.029  1.00  0.00     0.031 A 
ATOM     35  C   UNL A   1      42.998  26.109  27.536  1.00  0.00     0.074 A 
ATOM     36  C   UNL A   1      40.857  26.704  28.629  1.00  0.00     0.049 A 
ATOM     37  N   UNL A   1      43.666  27.230  27.637  1.00  0.00    -0.248 NA
ATOM     38  C   UNL A   1      43.721  25.037  26.834  1.00  0.00     0.031 C 
ATOM     39  C   UNL A   1      39.487  26.501  29.097  1.00  0.00     0.029 A 
ATOM     40  N   UNL A   1      41.130  28.011  28.943  1.00  0.00    -0.354 N 
ATOM     41  C   UNL A   1      44.889  26.998  27.016  1.00  0.00     0.074 A 
ATOM     42  C   UNL A   1      44.884  25.618  26.578  1.00  0.00     0.031 C 
ATOM     43  C   UNL A   1      39.038  27.646  29.640  1.00  0.00     0.029 A 
ATOM     44  C   UNL A   1      40.099  28.650  29.594  1.00  0.00     0.049 A 
ATOM     45  H   UNL A   1      41.982  28.452  28.723  1.00  0.00     0.167 HD
ATOM     46  C   UNL A   1      45.916  27.861  26.824  1.00  0.00     0.034 A 
ATOM     47  C   UNL A   1      40.032  29.893  30.109  1.00  0.00     0.034 A 
ATOM     48  C   UNL A   1      45.906  29.230  27.277  1.00  0.00     0.049 A 
ATOM     49  C   UNL A   1      41.226  30.807  29.964  1.00  0.00     0.074 A 
ATOM     50  C   UNL A   1      46.883  30.198  27.122  1.00  0.00     0.029 A 
ATOM     51  N   UNL A   1      44.870  29.824  27.988  1.00  0.00    -0.354 N 
ATOM     52  N   UNL A   1      42.374  30.581  29.367  1.00  0.00    -0.248 NA
ATOM     53  C   UNL A   1      41.111  32.146  30.555  1.00  0.00     0.031 C 
ATOM     54  C   UNL A   1      46.474  31.348  27.806  1.00  0.00     0.029 A 
ATOM     55  C   UNL A   1      45.202  31.130  28.314  1.00  0.00     0.049 A 
ATOM     56  H   UNL A   1      44.023  29.382  28.226  1.00  0.00     0.167 HD
ATOM     57  C   UNL A   1      43.103  31.762  29.483  1.00  0.00     0.074 A 
ATOM     58  C   UNL A   1      42.259  32.699  30.195  1.00  0.00     0.031 C 
ATOM     59  C   UNL A   1      44.353  32.050  29.037  1.00  0.00     0.034 A 
BRANCH  46  60
ATOM     60  C   UNL A   1      47.157  27.323  26.148  1.00  0.00     0.023 A 
ATOM     61  C   UNL A   1      48.101  26.541  26.836  1.00  0.00     0.031 A 
ATOM     62  C   UNL A   1      47.413  27.628  24.799  1.00  0.00     0.131 A 
ATOM     63  C   UNL A   1      49.287  26.149  26.194  1.00  0.00     0.055 A 
ATOM     64  C   UNL A   1      48.557  27.169  24.143  1.00  0.00     0.041 A 
ATOM     65  F   UNL A   1      46.562  28.393  24.097  1.00  0.00    -0.206 F 
ATOM     66  C   UNL A   1      49.509  26.436  24.845  1.00  0.00     0.022 A 
BRANCH  63  67
ATOM     67  S   UNL A   1      50.599  25.383  27.186  1.00  0.00     0.124 S 
ATOM     68  O   UNL A   1      49.862  24.339  27.894  1.00  0.00    -0.237 OA
ATOM     69  O   UNL A   1      51.537  24.927  26.169  1.00  0.00    -0.237 OA
ATOM     70  O   UNL A   1      51.074  26.479  28.027  1.00  0.00    -0.744 OA
ENDBRANCH  63  67
ENDBRANCH  46  60
BRANCH  47  71
ATOM     71  C   UNL A   1      38.815  30.343  30.845  1.00  0.00     0.023 A 
ATOM     72  C   UNL A   1      37.749  30.967  30.177  1.00  0.00     0.031 A 
ATOM     73  C   UNL A   1      38.726  30.206  32.242  1.00  0.00     0.131 A 
ATOM     74  C   UNL A   1      36.663  31.472  30.910  1.00  0.00     0.055 A 
ATOM     75  C   UNL A   1      37.618  30.660  32.959  1.00  0.00     0.041 A 
ATOM     76  F   UNL A   1      39.717  29.619  32.931  1.00  0.00    -0.206 F 
ATOM     77  C   UNL A   1      36.584  31.310  32.294  1.00  0.00     0.022 A 
BRANCH  74  78
ATOM     78  S   UNL A   1      35.392  32.425  30.034  1.00  0.00     0.124 S 
ATOM     79  O   UNL A   1      35.026  31.513  28.957  1.00  0.00    -0.237 OA
ATOM     80  O   UNL A   1      34.391  32.623  31.077  1.00  0.00    -0.237 OA
ATOM     81  O   UNL A   1      36.101  33.632  29.616  1.00  0.00    -0.744 OA
ENDBRANCH  74  78
ENDBRANCH  47  71
BRANCH  59  82
ATOM     82  C   UNL A   1      44.859  33.454  29.266  1.00  0.00     0.023 A 
ATOM     83  C   UNL A   1      44.717  34.463  28.297  1.00  0.00     0.031 A 
ATOM     84  C   UNL A   1      45.504  33.783  30.473  1.00  0.00     0.131 A 
ATOM     85  C   UNL A   1      45.262  35.735  28.528  1.00  0.00     0.055 A 
ATOM     86  C   UNL A   1      45.987  35.068  30.722  1.00  0.00     0.041 A 
ATOM     87  F   UNL A   1      45.670  32.860  31.433  1.00  0.00    -0.206 F 
ATOM     88  C   UNL A   1      45.880  36.049  29.741  1.00  0.00     0.022 A 
BRANCH  85  89
ATOM     89  S   UNL A   1      45.238  36.950  27.181  1.00  0.00     0.124 S 
ATOM     90  O   UNL A   1      43.812  37.057  26.895  1.00  0.00    -0.237 OA
ATOM     91  O   UNL A   1      45.854  38.118  27.802  1.00  0.00    -0.237 OA
ATOM     92  O   UNL A   1      46.034  36.314  26.133  1.00  0.00    -0.744 OA
ENDBRANCH  85  89
ENDBRANCH  59  82
ENDBRANCH  33  34
ENDBRANCH  26  28
ENDBRANCH  25  26
ENDBRANCH  24  25
ENDBRANCH  23  24
ENDBRANCH   1  23
TORSDOF 20
ENDMDL
