MODEL 1
REMARK VINA RESULT:     -11.4      0.000      0.000
REMARK SMILES O=C(OCCOCCOC(=O)c1ccc2nc(C3CCCCC3)[nH]c2c1)c1ccc(-c2c3nc(c(-c4cc(S(=O)(=O)[O-])ccc4F)c4ccc([nH]4)c(-c4cc(S(=O)(=O)[O-])ccc4F)c4nc(c(-c5cc(S(=O)(=O)[O-])ccc5F)c5ccc2[nH]5)C=C4)C=C3)cc1
REMARK SMILES IDX 5 1 4 2 3 3 2 4 1 5 27 6 28 7 89 8 29 9 88 10 30 11 31 12
REMARK SMILES IDX 32 13 82 14 33 15 87 16 81 17 83 18 34 19 86 20 80 21 79 22
REMARK SMILES IDX 35 24 67 25 47 26 66 27 48 28 51 29 65 30 84 31 49 32 50 33
REMARK SMILES IDX 64 35 85 36 52 37 36 38 37 39 45 40 38 41 44 42 46 43 43 44
REMARK SMILES IDX 39 45 40 46 41 47 42 48 68 49 69 50 77 51 70 52 76 53 78 54
REMARK SMILES IDX 75 55 71 56 72 57 73 58 74 59 53 60 54 61 62 62 55 63 61 64
REMARK SMILES IDX 63 65 60 66 56 67 57 68 58 69 59 70 6 71 7 72 8 73 9 74
REMARK SMILES IDX 10 75 11 76 12 77 13 78 26 79 14 80 25 81 15 82 24 83 16 84
REMARK SMILES IDX 17 85 18 87 19 88 23 89 20 90 22 91 21 92
REMARK H PARENT 83 23 51 34 24 86
REMARK Flexibility Score: inf
ROOT
ATOM      1  C   UNL A   1      32.654  28.528  24.160  1.00  0.00     0.202 C 
ENDROOT
BRANCH   1   2
ATOM      2  C   UNL A   1      33.508  29.268  25.191  1.00  0.00     0.261 C 
BRANCH   2   3
ATOM      3  O   UNL A   1      32.742  30.318  25.805  1.00  0.00    -0.460 OA
BRANCH   3   4
ATOM      4  C   UNL A   1      33.118  31.129  26.821  1.00  0.00     0.338 C 
ATOM      5  O   UNL A   1      32.449  32.134  27.056  1.00  0.00    -0.246 OA
BRANCH   4   6
ATOM      6  C   UNL A   1      34.320  30.867  27.667  1.00  0.00     0.060 A 
ATOM      7  C   UNL A   1      34.598  29.640  28.273  1.00  0.00     0.016 A 
ATOM      8  C   UNL A   1      35.283  31.884  27.756  1.00  0.00     0.016 A 
ATOM      9  C   UNL A   1      35.762  29.432  28.995  1.00  0.00     0.010 A 
ATOM     10  C   UNL A   1      36.486  31.666  28.434  1.00  0.00     0.010 A 
ATOM     11  C   UNL A   1      36.726  30.434  29.054  1.00  0.00    -0.014 A 
BRANCH  11  12
ATOM     12  C   UNL A   1      37.971  30.157  29.790  1.00  0.00     0.031 A 
ATOM     13  C   UNL A   1      38.991  29.263  29.164  1.00  0.00     0.074 A 
ATOM     14  C   UNL A   1      38.188  30.784  30.962  1.00  0.00     0.049 A 
ATOM     15  N   UNL A   1      40.102  28.803  29.665  1.00  0.00    -0.248 NA
ATOM     16  C   UNL A   1      38.725  28.836  27.780  1.00  0.00     0.031 C 
ATOM     17  C   UNL A   1      37.284  31.766  31.570  1.00  0.00     0.029 A 
ATOM     18  N   UNL A   1      39.232  30.706  31.844  1.00  0.00    -0.354 N 
ATOM     19  C   UNL A   1      40.654  28.000  28.675  1.00  0.00     0.074 A 
ATOM     20  C   UNL A   1      39.758  28.044  27.540  1.00  0.00     0.031 C 
ATOM     21  C   UNL A   1      37.817  32.201  32.721  1.00  0.00     0.029 A 
ATOM     22  C   UNL A   1      39.048  31.466  32.978  1.00  0.00     0.049 A 
ATOM     23  H   UNL A   1      40.035  30.160  31.684  1.00  0.00     0.167 HD
ATOM     24  C   UNL A   1      41.798  27.278  28.736  1.00  0.00     0.034 A 
ATOM     25  C   UNL A   1      39.767  31.506  34.118  1.00  0.00     0.034 A 
ATOM     26  C   UNL A   1      42.647  27.265  29.899  1.00  0.00     0.049 A 
ATOM     27  C   UNL A   1      40.979  30.608  34.198  1.00  0.00     0.074 A 
ATOM     28  C   UNL A   1      43.815  26.558  30.111  1.00  0.00     0.029 A 
ATOM     29  N   UNL A   1      42.403  27.991  31.062  1.00  0.00    -0.354 N 
ATOM     30  N   UNL A   1      41.478  29.815  33.274  1.00  0.00    -0.248 NA
ATOM     31  C   UNL A   1      41.711  30.592  35.468  1.00  0.00     0.031 C 
ATOM     32  C   UNL A   1      44.236  26.800  31.424  1.00  0.00     0.029 A 
ATOM     33  C   UNL A   1      43.372  27.716  32.009  1.00  0.00     0.049 A 
ATOM     34  H   UNL A   1      41.649  28.611  31.190  1.00  0.00     0.167 HD
ATOM     35  C   UNL A   1      42.587  29.209  33.852  1.00  0.00     0.074 A 
ATOM     36  C   UNL A   1      42.701  29.755  35.191  1.00  0.00     0.031 C 
ATOM     37  C   UNL A   1      43.434  28.282  33.336  1.00  0.00     0.034 A 
BRANCH  24  38
ATOM     38  C   UNL A   1      42.108  26.377  27.569  1.00  0.00     0.023 A 
ATOM     39  C   UNL A   1      41.674  25.041  27.512  1.00  0.00     0.031 A 
ATOM     40  C   UNL A   1      42.919  26.851  26.523  1.00  0.00     0.131 A 
ATOM     41  C   UNL A   1      42.108  24.209  26.468  1.00  0.00     0.055 A 
ATOM     42  C   UNL A   1      43.289  26.039  25.450  1.00  0.00     0.041 A 
ATOM     43  F   UNL A   1      43.390  28.107  26.541  1.00  0.00    -0.206 F 
ATOM     44  C   UNL A   1      42.895  24.705  25.425  1.00  0.00     0.022 A 
BRANCH  41  45
ATOM     45  S   UNL A   1      41.747  22.433  26.560  1.00  0.00     0.124 S 
ATOM     46  O   UNL A   1      40.290  22.432  26.659  1.00  0.00    -0.237 OA
ATOM     47  O   UNL A   1      42.302  21.932  25.308  1.00  0.00    -0.237 OA
ATOM     48  O   UNL A   1      42.447  22.001  27.768  1.00  0.00    -0.744 OA
ENDBRANCH  41  45
ENDBRANCH  24  38
BRANCH  25  49
ATOM     49  C   UNL A   1      39.315  32.315  35.290  1.00  0.00     0.023 A 
ATOM     50  C   UNL A   1      39.711  33.651  35.457  1.00  0.00     0.031 A 
ATOM     51  C   UNL A   1      38.525  31.737  36.304  1.00  0.00     0.131 A 
ATOM     52  C   UNL A   1      39.360  34.346  36.628  1.00  0.00     0.055 A 
ATOM     53  C   UNL A   1      38.125  32.452  37.434  1.00  0.00     0.041 A 
ATOM     54  F   UNL A   1      38.125  30.458  36.212  1.00  0.00    -0.206 F 
ATOM     55  C   UNL A   1      38.557  33.761  37.609  1.00  0.00     0.022 A 
BRANCH  52  56
ATOM     56  S   UNL A   1      40.072  35.991  36.911  1.00  0.00     0.124 S 
ATOM     57  O   UNL A   1      41.457  35.664  37.235  1.00  0.00    -0.237 OA
ATOM     58  O   UNL A   1      39.851  36.642  35.624  1.00  0.00    -0.237 OA
ATOM     59  O   UNL A   1      39.280  36.519  38.020  1.00  0.00    -0.744 OA
ENDBRANCH  52  56
ENDBRANCH  25  49
BRANCH  37  60
ATOM     60  C   UNL A   1      44.559  27.832  34.229  1.00  0.00     0.023 A 
ATOM     61  C   UNL A   1      44.419  26.715  35.070  1.00  0.00     0.031 A 
ATOM     62  C   UNL A   1      45.785  28.517  34.222  1.00  0.00     0.131 A 
ATOM     63  C   UNL A   1      45.479  26.340  35.904  1.00  0.00     0.055 A 
ATOM     64  C   UNL A   1      46.856  28.104  35.012  1.00  0.00     0.041 A 
ATOM     65  F   UNL A   1      45.964  29.590  33.434  1.00  0.00    -0.206 F 
ATOM     66  C   UNL A   1      46.703  27.014  35.866  1.00  0.00     0.022 A 
BRANCH  63  67
ATOM     67  S   UNL A   1      45.219  24.991  37.086  1.00  0.00     0.124 S 
ATOM     68  O   UNL A   1      45.303  23.815  36.226  1.00  0.00    -0.237 OA
ATOM     69  O   UNL A   1      46.322  25.176  38.022  1.00  0.00    -0.237 OA
ATOM     70  O   UNL A   1      43.891  25.267  37.632  1.00  0.00    -0.744 OA
ENDBRANCH  63  67
ENDBRANCH  37  60
ENDBRANCH  11  12
ENDBRANCH   4   6
ENDBRANCH   3   4
ENDBRANCH   2   3
ENDBRANCH   1   2
BRANCH   1  71
ATOM     71  O   UNL A   1      31.289  28.940  24.107  1.00  0.00    -0.374 OA
BRANCH  71  72
ATOM     72  C   UNL A   1      30.345  27.940  23.703  1.00  0.00     0.202 C 
BRANCH  72  73
ATOM     73  C   UNL A   1      31.011  26.562  23.780  1.00  0.00     0.261 C 
BRANCH  73  74
ATOM     74  O   UNL A   1      30.493  25.880  24.935  1.00  0.00    -0.460 OA
BRANCH  74  75
ATOM     75  C   UNL A   1      31.373  25.779  25.970  1.00  0.00     0.338 C 
ATOM     76  O   UNL A   1      31.389  26.416  26.996  1.00  0.00    -0.246 OA
BRANCH  75  77
ATOM     77  C   UNL A   1      32.176  24.553  25.735  1.00  0.00     0.062 A 
ATOM     78  C   UNL A   1      33.554  24.629  25.497  1.00  0.00     0.018 A 
ATOM     79  C   UNL A   1      31.481  23.334  25.659  1.00  0.00     0.044 A 
ATOM     80  C   UNL A   1      34.278  23.482  25.158  1.00  0.00     0.031 A 
ATOM     81  C   UNL A   1      32.228  22.217  25.281  1.00  0.00     0.066 A 
ATOM     82  C   UNL A   1      33.595  22.262  25.041  1.00  0.00     0.089 A 
ATOM     83  N   UNL A   1      31.886  20.908  25.051  1.00  0.00    -0.342 N 
ATOM     84  N   UNL A   1      34.075  21.021  24.717  1.00  0.00    -0.233 NA
ATOM     85  C   UNL A   1      33.037  20.209  24.766  1.00  0.00     0.110 A 
ATOM     86  H   UNL A   1      30.976  20.534  25.084  1.00  0.00     0.168 HD
BRANCH  85  87
ATOM     87  C   UNL A   1      33.093  18.723  24.592  1.00  0.00     0.055 C 
ATOM     88  C   UNL A   1      34.509  18.229  24.262  1.00  0.00     0.011 C 
ATOM     89  C   UNL A   1      32.519  17.974  25.800  1.00  0.00     0.011 C 
ATOM     90  C   UNL A   1      34.522  16.722  24.017  1.00  0.00     0.001 C 
ATOM     91  C   UNL A   1      32.532  16.464  25.559  1.00  0.00     0.001 C 
ATOM     92  C   UNL A   1      33.926  15.957  25.195  1.00  0.00     0.000 C 
ENDBRANCH  85  87
ENDBRANCH  75  77
ENDBRANCH  74  75
ENDBRANCH  73  74
ENDBRANCH  72  73
ENDBRANCH  71  72
ENDBRANCH   1  71
TORSDOF 18
ENDMDL
MODEL 2
REMARK VINA RESULT:     -11.4      5.191     10.622
REMARK SMILES O=C(OCCOCCOC(=O)c1ccc2nc(C3CCCCC3)[nH]c2c1)c1ccc(-c2c3nc(c(-c4cc(S(=O)(=O)[O-])ccc4F)c4ccc([nH]4)c(-c4cc(S(=O)(=O)[O-])ccc4F)c4nc(c(-c5cc(S(=O)(=O)[O-])ccc5F)c5ccc2[nH]5)C=C4)C=C3)cc1
REMARK SMILES IDX 5 1 4 2 3 3 2 4 1 5 27 6 28 7 89 8 29 9 88 10 30 11 31 12
REMARK SMILES IDX 32 13 82 14 33 15 87 16 81 17 83 18 34 19 86 20 80 21 79 22
REMARK SMILES IDX 35 24 67 25 47 26 66 27 48 28 51 29 65 30 84 31 49 32 50 33
REMARK SMILES IDX 64 35 85 36 52 37 36 38 37 39 45 40 38 41 44 42 46 43 43 44
REMARK SMILES IDX 39 45 40 46 41 47 42 48 68 49 69 50 77 51 70 52 76 53 78 54
REMARK SMILES IDX 75 55 71 56 72 57 73 58 74 59 53 60 54 61 62 62 55 63 61 64
REMARK SMILES IDX 63 65 60 66 56 67 57 68 58 69 59 70 6 71 7 72 8 73 9 74
REMARK SMILES IDX 10 75 11 76 12 77 13 78 26 79 14 80 25 81 15 82 24 83 16 84
REMARK SMILES IDX 17 85 18 87 19 88 23 89 20 90 22 91 21 92
REMARK H PARENT 83 23 51 34 24 86
REMARK Flexibility Score: inf
ROOT
ATOM      1  C   UNL A   1      34.563  20.559  25.507  1.00  0.00     0.202 C 
ENDROOT
BRANCH   1   2
ATOM      2  C   UNL A   1      36.003  20.445  25.004  1.00  0.00     0.261 C 
BRANCH   2   3
ATOM      3  O   UNL A   1      36.856  21.338  25.740  1.00  0.00    -0.460 OA
BRANCH   3   4
ATOM      4  C   UNL A   1      38.207  21.322  25.806  1.00  0.00     0.338 C 
ATOM      5  O   UNL A   1      38.798  20.262  25.610  1.00  0.00    -0.246 OA
BRANCH   4   6
ATOM      6  C   UNL A   1      39.019  22.535  26.121  1.00  0.00     0.060 A 
ATOM      7  C   UNL A   1      38.658  23.834  25.757  1.00  0.00     0.016 A 
ATOM      8  C   UNL A   1      40.150  22.365  26.934  1.00  0.00     0.016 A 
ATOM      9  C   UNL A   1      39.416  24.932  26.131  1.00  0.00     0.010 A 
ATOM     10  C   UNL A   1      40.890  23.470  27.363  1.00  0.00     0.010 A 
ATOM     11  C   UNL A   1      40.519  24.758  26.961  1.00  0.00    -0.014 A 
BRANCH  11  12
ATOM     12  C   UNL A   1      41.270  25.955  27.377  1.00  0.00     0.031 A 
ATOM     13  C   UNL A   1      40.608  26.939  28.284  1.00  0.00     0.074 A 
ATOM     14  C   UNL A   1      42.556  26.082  26.996  1.00  0.00     0.049 A 
ATOM     15  N   UNL A   1      41.034  28.100  28.693  1.00  0.00    -0.248 NA
ATOM     16  C   UNL A   1      39.286  26.557  28.810  1.00  0.00     0.031 C 
ATOM     17  C   UNL A   1      43.300  25.093  26.208  1.00  0.00     0.029 A 
ATOM     18  N   UNL A   1      43.467  27.077  27.224  1.00  0.00    -0.354 N 
ATOM     19  C   UNL A   1      40.021  28.610  29.494  1.00  0.00     0.074 A 
ATOM     20  C   UNL A   1      38.961  27.625  29.521  1.00  0.00     0.031 C 
ATOM     21  C   UNL A   1      44.555  25.531  26.026  1.00  0.00     0.029 A 
ATOM     22  C   UNL A   1      44.677  26.865  26.601  1.00  0.00     0.049 A 
ATOM     23  H   UNL A   1      43.278  27.867  27.779  1.00  0.00     0.167 HD
ATOM     24  C   UNL A   1      39.985  29.807  30.125  1.00  0.00     0.034 A 
ATOM     25  C   UNL A   1      45.734  27.689  26.461  1.00  0.00     0.034 A 
ATOM     26  C   UNL A   1      41.068  30.754  30.055  1.00  0.00     0.049 A 
ATOM     27  C   UNL A   1      45.624  29.060  27.084  1.00  0.00     0.074 A 
ATOM     28  C   UNL A   1      41.157  32.014  30.616  1.00  0.00     0.029 A 
ATOM     29  N   UNL A   1      42.256  30.543  29.359  1.00  0.00    -0.354 N 
ATOM     30  N   UNL A   1      44.645  29.558  27.808  1.00  0.00    -0.248 NA
ATOM     31  C   UNL A   1      46.740  29.984  26.860  1.00  0.00     0.031 C 
ATOM     32  C   UNL A   1      42.363  32.590  30.201  1.00  0.00     0.029 A 
ATOM     33  C   UNL A   1      43.063  31.663  29.441  1.00  0.00     0.049 A 
ATOM     34  H   UNL A   1      42.488  29.714  28.880  1.00  0.00     0.167 HD
ATOM     35  C   UNL A   1      45.031  30.854  28.130  1.00  0.00     0.074 A 
ATOM     36  C   UNL A   1      46.346  31.046  27.550  1.00  0.00     0.031 C 
ATOM     37  C   UNL A   1      44.365  31.806  28.833  1.00  0.00     0.034 A 
BRANCH  24  38
ATOM     38  C   UNL A   1      38.705  30.180  30.826  1.00  0.00     0.023 A 
ATOM     39  C   UNL A   1      37.682  30.907  30.191  1.00  0.00     0.031 A 
ATOM     40  C   UNL A   1      38.541  29.862  32.186  1.00  0.00     0.131 A 
ATOM     41  C   UNL A   1      36.574  31.346  30.932  1.00  0.00     0.055 A 
ATOM     42  C   UNL A   1      37.403  30.240  32.899  1.00  0.00     0.041 A 
ATOM     43  F   UNL A   1      39.499  29.200  32.852  1.00  0.00    -0.206 F 
ATOM     44  C   UNL A   1      36.417  30.998  32.276  1.00  0.00     0.022 A 
BRANCH  41  45
ATOM     45  S   UNL A   1      35.404  32.495  30.155  1.00  0.00     0.124 S 
ATOM     46  O   UNL A   1      36.260  33.645  29.876  1.00  0.00    -0.237 OA
ATOM     47  O   UNL A   1      34.947  31.743  28.992  1.00  0.00    -0.237 OA
ATOM     48  O   UNL A   1      34.396  32.714  31.190  1.00  0.00    -0.744 OA
ENDBRANCH  41  45
ENDBRANCH  24  38
BRANCH  25  49
ATOM     49  C   UNL A   1      46.911  27.303  25.625  1.00  0.00     0.023 A 
ATOM     50  C   UNL A   1      47.084  27.802  24.325  1.00  0.00     0.031 A 
ATOM     51  C   UNL A   1      47.856  26.369  26.096  1.00  0.00     0.131 A 
ATOM     52  C   UNL A   1      48.140  27.329  23.526  1.00  0.00     0.055 A 
ATOM     53  C   UNL A   1      48.940  25.953  25.322  1.00  0.00     0.041 A 
ATOM     54  F   UNL A   1      47.740  25.843  27.326  1.00  0.00    -0.206 F 
ATOM     55  C   UNL A   1      49.078  26.422  24.021  1.00  0.00     0.022 A 
BRANCH  52  56
ATOM     56  S   UNL A   1      48.203  27.826  21.781  1.00  0.00     0.124 S 
ATOM     57  O   UNL A   1      46.946  28.551  21.633  1.00  0.00    -0.237 OA
ATOM     58  O   UNL A   1      49.417  28.634  21.741  1.00  0.00    -0.237 OA
ATOM     59  O   UNL A   1      48.278  26.553  21.067  1.00  0.00    -0.744 OA
ENDBRANCH  52  56
ENDBRANCH  25  49
BRANCH  37  60
ATOM     60  C   UNL A   1      45.075  33.121  29.017  1.00  0.00     0.023 A 
ATOM     61  C   UNL A   1      44.858  34.195  28.139  1.00  0.00     0.031 A 
ATOM     62  C   UNL A   1      45.959  33.302  30.093  1.00  0.00     0.131 A 
ATOM     63  C   UNL A   1      45.553  35.395  28.328  1.00  0.00     0.055 A 
ATOM     64  C   UNL A   1      46.605  34.518  30.309  1.00  0.00     0.041 A 
ATOM     65  F   UNL A   1      46.197  32.303  30.958  1.00  0.00    -0.206 F 
ATOM     66  C   UNL A   1      46.410  35.571  29.419  1.00  0.00     0.022 A 
BRANCH  63  67
ATOM     67  S   UNL A   1      45.369  36.710  27.093  1.00  0.00     0.124 S 
ATOM     68  O   UNL A   1      43.927  36.713  26.869  1.00  0.00    -0.237 OA
ATOM     69  O   UNL A   1      45.908  37.872  27.790  1.00  0.00    -0.237 OA
ATOM     70  O   UNL A   1      46.172  36.236  25.967  1.00  0.00    -0.744 OA
ENDBRANCH  63  67
ENDBRANCH  37  60
ENDBRANCH  11  12
ENDBRANCH   4   6
ENDBRANCH   3   4
ENDBRANCH   2   3
ENDBRANCH   1   2
BRANCH   1  71
ATOM     71  O   UNL A   1      33.572  20.072  24.604  1.00  0.00    -0.374 OA
BRANCH  71  72
ATOM     72  C   UNL A   1      32.246  20.585  24.788  1.00  0.00     0.202 C 
BRANCH  72  73
ATOM     73  C   UNL A   1      32.284  21.710  25.828  1.00  0.00     0.261 C 
BRANCH  73  74
ATOM     74  O   UNL A   1      31.712  22.886  25.231  1.00  0.00    -0.460 OA
BRANCH  74  75
ATOM     75  C   UNL A   1      32.540  23.968  25.215  1.00  0.00     0.338 C 
ATOM     76  O   UNL A   1      33.647  24.063  25.691  1.00  0.00    -0.246 OA
BRANCH  75  77
ATOM     77  C   UNL A   1      31.948  24.952  24.274  1.00  0.00     0.062 A 
ATOM     78  C   UNL A   1      32.289  24.945  22.916  1.00  0.00     0.018 A 
ATOM     79  C   UNL A   1      31.118  25.945  24.821  1.00  0.00     0.044 A 
ATOM     80  C   UNL A   1      31.820  25.949  22.063  1.00  0.00     0.031 A 
ATOM     81  C   UNL A   1      30.699  26.952  23.950  1.00  0.00     0.066 A 
ATOM     82  C   UNL A   1      31.021  26.970  22.598  1.00  0.00     0.089 A 
ATOM     83  N   UNL A   1      29.951  28.087  24.136  1.00  0.00    -0.342 N 
ATOM     84  N   UNL A   1      30.455  28.052  21.977  1.00  0.00    -0.233 NA
ATOM     85  C   UNL A   1      29.781  28.693  22.912  1.00  0.00     0.110 A 
ATOM     86  H   UNL A   1      29.597  28.411  24.995  1.00  0.00     0.168 HD
BRANCH  85  87
ATOM     87  C   UNL A   1      28.906  29.886  22.682  1.00  0.00     0.055 C 
ATOM     88  C   UNL A   1      29.156  30.998  23.710  1.00  0.00     0.011 C 
ATOM     89  C   UNL A   1      29.023  30.425  21.252  1.00  0.00     0.011 C 
ATOM     90  C   UNL A   1      28.199  32.169  23.497  1.00  0.00     0.001 C 
ATOM     91  C   UNL A   1      28.067  31.600  21.034  1.00  0.00     0.001 C 
ATOM     92  C   UNL A   1      28.277  32.703  22.069  1.00  0.00     0.000 C 
ENDBRANCH  85  87
ENDBRANCH  75  77
ENDBRANCH  74  75
ENDBRANCH  73  74
ENDBRANCH  72  73
ENDBRANCH  71  72
ENDBRANCH   1  71
TORSDOF 18
ENDMDL
MODEL 3
REMARK VINA RESULT:     -11.4      4.459      9.310
REMARK SMILES O=C(OCCOCCOC(=O)c1ccc2nc(C3CCCCC3)[nH]c2c1)c1ccc(-c2c3nc(c(-c4cc(S(=O)(=O)[O-])ccc4F)c4ccc([nH]4)c(-c4cc(S(=O)(=O)[O-])ccc4F)c4nc(c(-c5cc(S(=O)(=O)[O-])ccc5F)c5ccc2[nH]5)C=C4)C=C3)cc1
REMARK SMILES IDX 5 1 4 2 3 3 2 4 1 5 27 6 28 7 89 8 29 9 88 10 30 11 31 12
REMARK SMILES IDX 32 13 82 14 33 15 87 16 81 17 83 18 34 19 86 20 80 21 79 22
REMARK SMILES IDX 35 24 67 25 47 26 66 27 48 28 51 29 65 30 84 31 49 32 50 33
REMARK SMILES IDX 64 35 85 36 52 37 36 38 37 39 45 40 38 41 44 42 46 43 43 44
REMARK SMILES IDX 39 45 40 46 41 47 42 48 68 49 69 50 77 51 70 52 76 53 78 54
REMARK SMILES IDX 75 55 71 56 72 57 73 58 74 59 53 60 54 61 62 62 55 63 61 64
REMARK SMILES IDX 63 65 60 66 56 67 57 68 58 69 59 70 6 71 7 72 8 73 9 74
REMARK SMILES IDX 10 75 11 76 12 77 13 78 26 79 14 80 25 81 15 82 24 83 16 84
REMARK SMILES IDX 17 85 18 87 19 88 23 89 20 90 22 91 21 92
REMARK H PARENT 83 23 51 34 24 86
REMARK Flexibility Score: inf
ROOT
ATOM      1  C   UNL A   1      35.423  23.128  24.295  1.00  0.00     0.202 C 
ENDROOT
BRANCH   1   2
ATOM      2  C   UNL A   1      35.711  21.683  24.708  1.00  0.00     0.261 C 
BRANCH   2   3
ATOM      3  O   UNL A   1      36.594  21.661  25.841  1.00  0.00    -0.460 OA
BRANCH   3   4
ATOM      4  C   UNL A   1      37.946  21.601  25.834  1.00  0.00     0.338 C 
ATOM      5  O   UNL A   1      38.490  20.550  25.497  1.00  0.00    -0.246 OA
BRANCH   4   6
ATOM      6  C   UNL A   1      38.813  22.750  26.229  1.00  0.00     0.060 A 
ATOM      7  C   UNL A   1      38.519  24.085  25.947  1.00  0.00     0.016 A 
ATOM      8  C   UNL A   1      39.927  22.473  27.037  1.00  0.00     0.016 A 
ATOM      9  C   UNL A   1      39.326  25.119  26.394  1.00  0.00     0.010 A 
ATOM     10  C   UNL A   1      40.715  23.512  27.540  1.00  0.00     0.010 A 
ATOM     11  C   UNL A   1      40.411  24.840  27.218  1.00  0.00    -0.014 A 
BRANCH  11  12
ATOM     12  C   UNL A   1      41.216  25.969  27.714  1.00  0.00     0.031 A 
ATOM     13  C   UNL A   1      40.569  26.971  28.613  1.00  0.00     0.074 A 
ATOM     14  C   UNL A   1      42.527  26.018  27.412  1.00  0.00     0.049 A 
ATOM     15  N   UNL A   1      41.047  28.089  29.082  1.00  0.00    -0.248 NA
ATOM     16  C   UNL A   1      39.195  26.668  29.049  1.00  0.00     0.031 C 
ATOM     17  C   UNL A   1      43.249  25.001  26.638  1.00  0.00     0.029 A 
ATOM     18  N   UNL A   1      43.489  26.939  27.723  1.00  0.00    -0.354 N 
ATOM     19  C   UNL A   1      40.025  28.646  29.839  1.00  0.00     0.074 A 
ATOM     20  C   UNL A   1      38.902  27.736  29.774  1.00  0.00     0.031 C 
ATOM     21  C   UNL A   1      44.539  25.356  26.542  1.00  0.00     0.029 A 
ATOM     22  C   UNL A   1      44.716  26.661  27.164  1.00  0.00     0.049 A 
ATOM     23  H   UNL A   1      43.321  27.726  28.291  1.00  0.00     0.167 HD
ATOM     24  C   UNL A   1      40.034  29.825  30.504  1.00  0.00     0.034 A 
ATOM     25  C   UNL A   1      45.834  27.414  27.111  1.00  0.00     0.034 A 
ATOM     26  C   UNL A   1      41.181  30.695  30.525  1.00  0.00     0.049 A 
ATOM     27  C   UNL A   1      45.779  28.771  27.769  1.00  0.00     0.074 A 
ATOM     28  C   UNL A   1      41.321  31.930  31.130  1.00  0.00     0.029 A 
ATOM     29  N   UNL A   1      42.391  30.422  29.893  1.00  0.00    -0.354 N 
ATOM     30  N   UNL A   1      44.795  29.317  28.451  1.00  0.00    -0.248 NA
ATOM     31  C   UNL A   1      46.966  29.622  27.639  1.00  0.00     0.031 C 
ATOM     32  C   UNL A   1      42.585  32.433  30.803  1.00  0.00     0.029 A 
ATOM     33  C   UNL A   1      43.265  31.481  30.056  1.00  0.00     0.049 A 
ATOM     34  H   UNL A   1      42.594  29.593  29.402  1.00  0.00     0.167 HD
ATOM     35  C   UNL A   1      45.248  30.573  28.836  1.00  0.00     0.074 A 
ATOM     36  C   UNL A   1      46.605  30.689  28.338  1.00  0.00     0.031 C 
ATOM     37  C   UNL A   1      44.608  31.549  29.528  1.00  0.00     0.034 A 
BRANCH  24  38
ATOM     38  C   UNL A   1      38.743  30.267  31.142  1.00  0.00     0.023 A 
ATOM     39  C   UNL A   1      37.726  30.913  30.416  1.00  0.00     0.031 A 
ATOM     40  C   UNL A   1      38.560  30.100  32.526  1.00  0.00     0.131 A 
ATOM     41  C   UNL A   1      36.606  31.426  31.089  1.00  0.00     0.055 A 
ATOM     42  C   UNL A   1      37.411  30.548  33.178  1.00  0.00     0.041 A 
ATOM     43  F   UNL A   1      39.511  29.521  33.274  1.00  0.00    -0.206 F 
ATOM     44  C   UNL A   1      36.431  31.228  32.461  1.00  0.00     0.022 A 
BRANCH  41  45
ATOM     45  S   UNL A   1      35.443  32.475  30.173  1.00  0.00     0.124 S 
ATOM     46  O   UNL A   1      36.280  33.626  29.843  1.00  0.00    -0.237 OA
ATOM     47  O   UNL A   1      35.060  31.623  29.054  1.00  0.00    -0.237 OA
ATOM     48  O   UNL A   1      34.383  32.743  31.143  1.00  0.00    -0.744 OA
ENDBRANCH  41  45
ENDBRANCH  24  38
BRANCH  25  49
ATOM     49  C   UNL A   1      47.029  26.970  26.332  1.00  0.00     0.023 A 
ATOM     50  C   UNL A   1      48.093  26.289  26.945  1.00  0.00     0.031 A 
ATOM     51  C   UNL A   1      47.157  27.282  24.964  1.00  0.00     0.131 A 
ATOM     52  C   UNL A   1      49.252  25.988  26.207  1.00  0.00     0.055 A 
ATOM     53  C   UNL A   1      48.282  26.922  24.220  1.00  0.00     0.041 A 
ATOM     54  F   UNL A   1      46.181  27.944  24.322  1.00  0.00    -0.206 F 
ATOM     55  C   UNL A   1      49.346  26.284  24.846  1.00  0.00     0.022 A 
BRANCH  52  56
ATOM     56  S   UNL A   1      50.690  25.308  27.082  1.00  0.00     0.124 S 
ATOM     57  O   UNL A   1      51.143  26.463  27.850  1.00  0.00    -0.237 OA
ATOM     58  O   UNL A   1      50.091  24.223  27.850  1.00  0.00    -0.237 OA
ATOM     59  O   UNL A   1      51.579  24.890  26.001  1.00  0.00    -0.744 OA
ENDBRANCH  52  56
ENDBRANCH  25  49
BRANCH  37  60
ATOM     60  C   UNL A   1      45.393  32.806  29.794  1.00  0.00     0.023 A 
ATOM     61  C   UNL A   1      45.332  33.902  28.918  1.00  0.00     0.031 A 
ATOM     62  C   UNL A   1      46.192  32.910  30.944  1.00  0.00     0.131 A 
ATOM     63  C   UNL A   1      46.093  35.046  29.186  1.00  0.00     0.055 A 
ATOM     64  C   UNL A   1      46.903  34.073  31.235  1.00  0.00     0.041 A 
ATOM     65  F   UNL A   1      46.282  31.888  31.810  1.00  0.00    -0.206 F 
ATOM     66  C   UNL A   1      46.863  35.146  30.348  1.00  0.00     0.022 A 
BRANCH  63  67
ATOM     67  S   UNL A   1      46.112  36.383  27.962  1.00  0.00     0.124 S 
ATOM     68  O   UNL A   1      47.542  36.590  27.763  1.00  0.00    -0.237 OA
ATOM     69  O   UNL A   1      45.390  35.793  26.840  1.00  0.00    -0.237 OA
ATOM     70  O   UNL A   1      45.415  37.476  28.640  1.00  0.00    -0.744 OA
ENDBRANCH  63  67
ENDBRANCH  37  60
ENDBRANCH  11  12
ENDBRANCH   4   6
ENDBRANCH   3   4
ENDBRANCH   2   3
ENDBRANCH   1   2
BRANCH   1  71
ATOM     71  O   UNL A   1      35.072  24.000  25.368  1.00  0.00    -0.374 OA
BRANCH  71  72
ATOM     72  C   UNL A   1      34.549  25.281  24.994  1.00  0.00     0.202 C 
BRANCH  72  73
ATOM     73  C   UNL A   1      33.550  25.746  26.059  1.00  0.00     0.261 C 
BRANCH  73  74
ATOM     74  O   UNL A   1      32.290  25.989  25.411  1.00  0.00    -0.460 OA
BRANCH  74  75
ATOM     75  C   UNL A   1      31.317  25.084  25.718  1.00  0.00     0.338 C 
ATOM     76  O   UNL A   1      30.275  25.283  26.296  1.00  0.00    -0.246 OA
BRANCH  75  77
ATOM     77  C   UNL A   1      31.641  23.836  24.983  1.00  0.00     0.062 A 
ATOM     78  C   UNL A   1      31.601  23.793  23.584  1.00  0.00     0.018 A 
ATOM     79  C   UNL A   1      31.885  22.684  25.750  1.00  0.00     0.044 A 
ATOM     80  C   UNL A   1      31.790  22.583  22.908  1.00  0.00     0.031 A 
ATOM     81  C   UNL A   1      32.031  21.489  25.045  1.00  0.00     0.066 A 
ATOM     82  C   UNL A   1      31.998  21.416  23.658  1.00  0.00     0.089 A 
ATOM     83  N   UNL A   1      32.215  20.191  25.448  1.00  0.00    -0.342 N 
ATOM     84  N   UNL A   1      32.197  20.130  23.232  1.00  0.00    -0.233 NA
ATOM     85  C   UNL A   1      32.365  19.410  24.324  1.00  0.00     0.110 A 
ATOM     86  H   UNL A   1      32.238  19.873  26.380  1.00  0.00     0.168 HD
BRANCH  85  87
ATOM     87  C   UNL A   1      32.722  17.956  24.356  1.00  0.00     0.055 C 
ATOM     88  C   UNL A   1      34.132  17.692  23.810  1.00  0.00     0.011 C 
ATOM     89  C   UNL A   1      32.552  17.346  25.752  1.00  0.00     0.011 C 
ATOM     90  C   UNL A   1      34.440  16.196  23.785  1.00  0.00     0.001 C 
ATOM     91  C   UNL A   1      32.861  15.848  25.732  1.00  0.00     0.001 C 
ATOM     92  C   UNL A   1      34.248  15.561  25.159  1.00  0.00     0.000 C 
ENDBRANCH  85  87
ENDBRANCH  75  77
ENDBRANCH  74  75
ENDBRANCH  73  74
ENDBRANCH  72  73
ENDBRANCH  71  72
ENDBRANCH   1  71
TORSDOF 18
ENDMDL
