MODEL 1
REMARK VINA RESULT:      -9.7      0.000      0.000
REMARK SMILES CC[C@](C)(NC(=O)CNC(=O)c1cccc(Cl)c1)C(=O)OCCOCCOC(=O)c1ccc(-c2c3nc(c(-c4cc(S(=O)(=O)[O-])ccc4F)c4ccc([nH]4)c(-c4cc(S(=O)(=O)[O-])ccc4F)c4nc(c(-c5cc(S(=O)(=O)[O-])ccc5F)c5ccc2[nH]5)C=C4)C=C3)cc1
REMARK SMILES IDX 23 1 22 2 21 3 19 4 20 5 3 6 4 7 2 8 1 9 5 10 6 11 7 13 8 14
REMARK SMILES IDX 9 15 10 16 11 18 12 19 13 20 18 21 14 22 16 23 15 24 17 25
REMARK SMILES IDX 24 26 25 27 26 28 27 29 28 30 29 31 30 32 31 33 92 34 32 35
REMARK SMILES IDX 91 36 33 37 34 38 35 39 85 40 36 41 90 42 84 43 86 44 37 45
REMARK SMILES IDX 89 46 83 47 82 48 38 50 70 51 50 52 69 53 51 54 54 55 68 56
REMARK SMILES IDX 87 57 52 58 53 59 67 61 88 62 55 63 39 64 40 65 48 66 41 67
REMARK SMILES IDX 47 68 49 69 46 70 42 71 43 72 44 73 45 74 71 75 72 76 80 77
REMARK SMILES IDX 73 78 79 79 81 80 78 81 74 82 75 83 76 84 77 85 56 86 57 87
REMARK SMILES IDX 65 88 58 89 64 90 66 91 63 92 59 93 60 94 61 95 62 96
REMARK H PARENT 5 12 9 17 86 49 54 60
REMARK Flexibility Score: inf
ROOT
ATOM      1  C   UNL A   1      38.086  23.563  26.458  1.00  0.00     0.202 C 
ENDROOT
BRANCH   1   2
ATOM      2  C   UNL A   1      36.851  24.044  25.550  1.00  0.00     0.261 C 
BRANCH   2   3
ATOM      3  O   UNL A   1      35.777  23.001  25.325  1.00  0.00    -0.462 OA
BRANCH   3   4
ATOM      4  C   UNL A   1      34.482  22.623  25.540  1.00  0.00     0.331 C 
ATOM      5  O   UNL A   1      33.965  23.054  26.579  1.00  0.00    -0.249 OA
BRANCH   4   6
ATOM      6  C   UNL A   1      33.490  21.922  24.489  1.00  0.00     0.135 C 
ATOM      7  C   UNL A   1      31.948  21.933  24.740  1.00  0.00     0.047 C 
BRANCH   6   8
ATOM      8  C   UNL A   1      33.810  20.368  24.539  1.00  0.00     0.037 C 
ATOM      9  C   UNL A   1      32.877  19.521  25.441  1.00  0.00     0.007 C 
ENDBRANCH   6   8
BRANCH   6  10
ATOM     10  N   UNL A   1      33.686  22.421  23.143  1.00  0.00    -0.339 N 
ATOM     11  C   UNL A   1      33.355  23.676  22.730  1.00  0.00     0.240 C 
ATOM     12  H   UNL A   1      34.087  21.811  22.481  1.00  0.00     0.164 HD
ATOM     13  O   UNL A   1      33.459  23.922  21.525  1.00  0.00    -0.273 OA
BRANCH  11  14
ATOM     14  C   UNL A   1      33.160  24.809  23.778  1.00  0.00     0.216 C 
BRANCH  14  15
ATOM     15  N   UNL A   1      31.930  25.343  24.485  1.00  0.00    -0.343 N 
ATOM     16  C   UNL A   1      30.733  25.865  23.971  1.00  0.00     0.251 C 
ATOM     17  H   UNL A   1      31.978  25.320  25.467  1.00  0.00     0.164 HD
ATOM     18  O   UNL A   1      29.751  25.124  23.898  1.00  0.00    -0.269 OA
BRANCH  16  19
ATOM     19  C   UNL A   1      30.452  27.345  23.885  1.00  0.00     0.041 A 
ATOM     20  C   UNL A   1      31.261  28.293  24.539  1.00  0.00     0.014 A 
ATOM     21  C   UNL A   1      29.475  27.839  23.018  1.00  0.00     0.034 A 
ATOM     22  C   UNL A   1      30.972  29.665  24.518  1.00  0.00     0.002 A 
ATOM     23  C   UNL A   1      29.230  29.222  22.938  1.00  0.00     0.041 A 
ATOM     24  C   UNL A   1      29.943  30.132  23.715  1.00  0.00     0.020 A 
ATOM     25  Cl  UNL A   1      28.032  29.811  21.849  1.00  0.00    -0.084 Cl
ENDBRANCH  16  19
ENDBRANCH  14  15
ENDBRANCH  11  14
ENDBRANCH   6  10
ENDBRANCH   4   6
ENDBRANCH   3   4
ENDBRANCH   2   3
ENDBRANCH   1   2
BRANCH   1  26
ATOM     26  O   UNL A   1      38.741  22.349  26.087  1.00  0.00    -0.374 OA
BRANCH  26  27
ATOM     27  C   UNL A   1      39.946  21.958  26.746  1.00  0.00     0.202 C 
BRANCH  27  28
ATOM     28  C   UNL A   1      40.400  20.539  26.358  1.00  0.00     0.261 C 
BRANCH  28  29
ATOM     29  O   UNL A   1      41.720  20.266  26.840  1.00  0.00    -0.460 OA
BRANCH  29  30
ATOM     30  C   UNL A   1      42.662  20.329  25.858  1.00  0.00     0.338 C 
ATOM     31  O   UNL A   1      42.765  19.590  24.912  1.00  0.00    -0.246 OA
BRANCH  30  32
ATOM     32  C   UNL A   1      43.320  21.649  25.969  1.00  0.00     0.060 A 
ATOM     33  C   UNL A   1      44.131  21.857  27.095  1.00  0.00     0.016 A 
ATOM     34  C   UNL A   1      43.207  22.626  24.975  1.00  0.00     0.016 A 
ATOM     35  C   UNL A   1      44.745  23.085  27.287  1.00  0.00     0.010 A 
ATOM     36  C   UNL A   1      43.797  23.873  25.181  1.00  0.00     0.010 A 
ATOM     37  C   UNL A   1      44.495  24.119  26.377  1.00  0.00    -0.014 A 
BRANCH  37  38
ATOM     38  C   UNL A   1      44.594  25.500  26.895  1.00  0.00     0.031 A 
ATOM     39  C   UNL A   1      45.949  26.155  26.804  1.00  0.00     0.074 A 
ATOM     40  C   UNL A   1      43.524  26.176  27.334  1.00  0.00     0.049 A 
ATOM     41  N   UNL A   1      46.309  27.376  27.096  1.00  0.00    -0.248 NA
ATOM     42  C   UNL A   1      47.047  25.308  26.305  1.00  0.00     0.031 C 
ATOM     43  C   UNL A   1      42.160  25.655  27.410  1.00  0.00     0.029 A 
ATOM     44  N   UNL A   1      43.424  27.464  27.788  1.00  0.00    -0.354 N 
ATOM     45  C   UNL A   1      47.665  27.446  26.796  1.00  0.00     0.074 A 
ATOM     46  C   UNL A   1      48.076  26.133  26.357  1.00  0.00     0.031 C 
ATOM     47  C   UNL A   1      41.356  26.622  27.888  1.00  0.00     0.029 A 
ATOM     48  C   UNL A   1      42.153  27.817  28.165  1.00  0.00     0.049 A 
ATOM     49  H   UNL A   1      44.191  28.077  27.840  1.00  0.00     0.167 HD
ATOM     50  C   UNL A   1      48.495  28.514  26.861  1.00  0.00     0.034 A 
ATOM     51  C   UNL A   1      41.698  28.976  28.681  1.00  0.00     0.034 A 
ATOM     52  C   UNL A   1      48.082  29.803  27.345  1.00  0.00     0.049 A 
ATOM     53  C   UNL A   1      42.666  30.122  28.865  1.00  0.00     0.074 A 
ATOM     54  C   UNL A   1      48.833  30.955  27.486  1.00  0.00     0.029 A 
ATOM     55  N   UNL A   1      46.800  30.101  27.793  1.00  0.00    -0.354 N 
ATOM     56  N   UNL A   1      43.944  30.186  28.565  1.00  0.00    -0.248 NA
ATOM     57  C   UNL A   1      42.122  31.355  29.444  1.00  0.00     0.031 C 
ATOM     58  C   UNL A   1      48.024  31.929  28.084  1.00  0.00     0.029 A 
ATOM     59  C   UNL A   1      46.747  31.409  28.242  1.00  0.00     0.049 A 
ATOM     60  H   UNL A   1      46.042  29.475  27.790  1.00  0.00     0.167 HD
ATOM     61  C   UNL A   1      44.345  31.481  28.885  1.00  0.00     0.074 A 
ATOM     62  C   UNL A   1      43.173  32.162  29.397  1.00  0.00     0.031 C 
ATOM     63  C   UNL A   1      45.566  32.064  28.757  1.00  0.00     0.034 A 
BRANCH  50  64
ATOM     64  C   UNL A   1      49.931  28.278  26.465  1.00  0.00     0.023 A 
ATOM     65  C   UNL A   1      50.387  28.535  25.159  1.00  0.00     0.031 A 
ATOM     66  C   UNL A   1      50.827  27.689  27.372  1.00  0.00     0.131 A 
ATOM     67  C   UNL A   1      51.669  28.117  24.771  1.00  0.00     0.055 A 
ATOM     68  C   UNL A   1      52.132  27.356  27.004  1.00  0.00     0.041 A 
ATOM     69  F   UNL A   1      50.438  27.389  28.621  1.00  0.00    -0.206 F 
ATOM     70  C   UNL A   1      52.553  27.551  25.691  1.00  0.00     0.022 A 
BRANCH  67  71
ATOM     71  S   UNL A   1      52.093  28.148  23.006  1.00  0.00     0.124 S 
ATOM     72  O   UNL A   1      50.902  28.767  22.427  1.00  0.00    -0.237 OA
ATOM     73  O   UNL A   1      53.307  28.957  22.989  1.00  0.00    -0.237 OA
ATOM     74  O   UNL A   1      52.276  26.737  22.673  1.00  0.00    -0.744 OA
ENDBRANCH  67  71
ENDBRANCH  50  64
BRANCH  51  75
ATOM     75  C   UNL A   1      40.273  29.113  29.086  1.00  0.00     0.023 A 
ATOM     76  C   UNL A   1      39.887  29.019  30.432  1.00  0.00     0.031 A 
ATOM     77  C   UNL A   1      39.267  29.287  28.119  1.00  0.00     0.131 A 
ATOM     78  C   UNL A   1      38.526  29.054  30.770  1.00  0.00     0.055 A 
ATOM     79  C   UNL A   1      37.918  29.365  28.465  1.00  0.00     0.041 A 
ATOM     80  F   UNL A   1      39.585  29.384  26.818  1.00  0.00    -0.206 F 
ATOM     81  C   UNL A   1      37.540  29.236  29.799  1.00  0.00     0.022 A 
BRANCH  78  82
ATOM     82  S   UNL A   1      38.055  28.791  32.502  1.00  0.00     0.124 S 
ATOM     83  O   UNL A   1      39.017  29.635  33.202  1.00  0.00    -0.237 OA
ATOM     84  O   UNL A   1      36.670  29.249  32.513  1.00  0.00    -0.237 OA
ATOM     85  O   UNL A   1      38.233  27.353  32.689  1.00  0.00    -0.744 OA
ENDBRANCH  78  82
ENDBRANCH  51  75
BRANCH  63  86
ATOM     86  C   UNL A   1      45.676  33.523  29.125  1.00  0.00     0.023 A 
ATOM     87  C   UNL A   1      45.422  34.545  28.195  1.00  0.00     0.031 A 
ATOM     88  C   UNL A   1      46.035  33.891  30.433  1.00  0.00     0.131 A 
ATOM     89  C   UNL A   1      45.585  35.886  28.573  1.00  0.00     0.055 A 
ATOM     90  C   UNL A   1      46.138  35.227  30.819  1.00  0.00     0.041 A 
ATOM     91  F   UNL A   1      46.287  32.954  31.362  1.00  0.00    -0.206 F 
ATOM     92  C   UNL A   1      45.925  36.234  29.883  1.00  0.00     0.022 A 
BRANCH  89  93
ATOM     93  S   UNL A   1      45.433  37.173  27.303  1.00  0.00     0.124 S 
ATOM     94  O   UNL A   1      46.352  36.697  26.275  1.00  0.00    -0.237 OA
ATOM     95  O   UNL A   1      44.014  37.113  26.967  1.00  0.00    -0.237 OA
ATOM     96  O   UNL A   1      45.854  38.390  27.996  1.00  0.00    -0.744 OA
ENDBRANCH  89  93
ENDBRANCH  63  86
ENDBRANCH  37  38
ENDBRANCH  30  32
ENDBRANCH  29  30
ENDBRANCH  28  29
ENDBRANCH  27  28
ENDBRANCH  26  27
ENDBRANCH   1  26
TORSDOF 22
ENDMDL
MODEL 2
REMARK VINA RESULT:      -9.7      2.313      2.882
REMARK SMILES CC[C@](C)(NC(=O)CNC(=O)c1cccc(Cl)c1)C(=O)OCCOCCOC(=O)c1ccc(-c2c3nc(c(-c4cc(S(=O)(=O)[O-])ccc4F)c4ccc([nH]4)c(-c4cc(S(=O)(=O)[O-])ccc4F)c4nc(c(-c5cc(S(=O)(=O)[O-])ccc5F)c5ccc2[nH]5)C=C4)C=C3)cc1
REMARK SMILES IDX 23 1 22 2 21 3 19 4 20 5 3 6 4 7 2 8 1 9 5 10 6 11 7 13 8 14
REMARK SMILES IDX 9 15 10 16 11 18 12 19 13 20 18 21 14 22 16 23 15 24 17 25
REMARK SMILES IDX 24 26 25 27 26 28 27 29 28 30 29 31 30 32 31 33 92 34 32 35
REMARK SMILES IDX 91 36 33 37 34 38 35 39 85 40 36 41 90 42 84 43 86 44 37 45
REMARK SMILES IDX 89 46 83 47 82 48 38 50 70 51 50 52 69 53 51 54 54 55 68 56
REMARK SMILES IDX 87 57 52 58 53 59 67 61 88 62 55 63 39 64 40 65 48 66 41 67
REMARK SMILES IDX 47 68 49 69 46 70 42 71 43 72 44 73 45 74 71 75 72 76 80 77
REMARK SMILES IDX 73 78 79 79 81 80 78 81 74 82 75 83 76 84 77 85 56 86 57 87
REMARK SMILES IDX 65 88 58 89 64 90 66 91 63 92 59 93 60 94 61 95 62 96
REMARK H PARENT 5 12 9 17 86 49 54 60
REMARK Flexibility Score: inf
ROOT
ATOM      1  C   UNL A   1      36.591  23.391  25.138  1.00  0.00     0.202 C 
ENDROOT
BRANCH   1   2
ATOM      2  C   UNL A   1      35.559  23.708  23.947  1.00  0.00     0.261 C 
BRANCH   2   3
ATOM      3  O   UNL A   1      34.220  23.009  24.056  1.00  0.00    -0.462 OA
BRANCH   3   4
ATOM      4  C   UNL A   1      33.550  21.823  24.155  1.00  0.00     0.331 C 
ATOM      5  O   UNL A   1      32.728  21.598  23.257  1.00  0.00    -0.249 OA
BRANCH   4   6
ATOM      6  C   UNL A   1      33.894  20.593  25.130  1.00  0.00     0.135 C 
ATOM      7  C   UNL A   1      34.911  19.497  24.679  1.00  0.00     0.047 C 
BRANCH   6   8
ATOM      8  C   UNL A   1      32.557  19.749  25.274  1.00  0.00     0.037 C 
ATOM      9  C   UNL A   1      32.748  18.231  25.520  1.00  0.00     0.007 C 
ENDBRANCH   6   8
BRANCH   6  10
ATOM     10  N   UNL A   1      34.334  21.043  26.435  1.00  0.00    -0.339 N 
ATOM     11  C   UNL A   1      33.785  22.088  27.116  1.00  0.00     0.240 C 
ATOM     12  H   UNL A   1      35.080  20.560  26.860  1.00  0.00     0.164 HD
ATOM     13  O   UNL A   1      34.343  22.441  28.159  1.00  0.00    -0.273 OA
BRANCH  11  14
ATOM     14  C   UNL A   1      32.358  22.588  26.747  1.00  0.00     0.216 C 
BRANCH  14  15
ATOM     15  N   UNL A   1      31.712  23.958  26.806  1.00  0.00    -0.343 N 
ATOM     16  C   UNL A   1      30.581  24.465  26.148  1.00  0.00     0.251 C 
ATOM     17  H   UNL A   1      32.159  24.598  27.404  1.00  0.00     0.164 HD
ATOM     18  O   UNL A   1      29.509  24.489  26.754  1.00  0.00    -0.269 OA
BRANCH  16  19
ATOM     19  C   UNL A   1      30.668  25.343  24.924  1.00  0.00     0.041 A 
ATOM     20  C   UNL A   1      30.108  26.634  24.895  1.00  0.00     0.014 A 
ATOM     21  C   UNL A   1      31.450  24.970  23.829  1.00  0.00     0.034 A 
ATOM     22  C   UNL A   1      30.127  27.433  23.741  1.00  0.00     0.002 A 
ATOM     23  C   UNL A   1      31.532  25.801  22.697  1.00  0.00     0.041 A 
ATOM     24  C   UNL A   1      30.841  27.009  22.631  1.00  0.00     0.020 A 
ATOM     25  Cl  UNL A   1      32.517  25.328  21.365  1.00  0.00    -0.084 Cl
ENDBRANCH  16  19
ENDBRANCH  14  15
ENDBRANCH  11  14
ENDBRANCH   6  10
ENDBRANCH   4   6
ENDBRANCH   3   4
ENDBRANCH   2   3
ENDBRANCH   1   2
BRANCH   1  26
ATOM     26  O   UNL A   1      37.292  22.147  25.086  1.00  0.00    -0.374 OA
BRANCH  26  27
ATOM     27  C   UNL A   1      38.428  21.934  25.925  1.00  0.00     0.202 C 
BRANCH  27  28
ATOM     28  C   UNL A   1      39.100  20.571  25.677  1.00  0.00     0.261 C 
BRANCH  28  29
ATOM     29  O   UNL A   1      39.948  20.204  26.769  1.00  0.00    -0.460 OA
BRANCH  29  30
ATOM     30  C   UNL A   1      41.224  19.932  26.377  1.00  0.00     0.338 C 
ATOM     31  O   UNL A   1      41.586  19.002  25.702  1.00  0.00    -0.246 OA
BRANCH  30  32
ATOM     32  C   UNL A   1      42.028  21.147  26.634  1.00  0.00     0.060 A 
ATOM     33  C   UNL A   1      42.414  21.378  27.963  1.00  0.00     0.016 A 
ATOM     34  C   UNL A   1      42.450  21.995  25.605  1.00  0.00     0.016 A 
ATOM     35  C   UNL A   1      43.132  22.520  28.284  1.00  0.00     0.010 A 
ATOM     36  C   UNL A   1      43.145  23.159  25.929  1.00  0.00     0.010 A 
ATOM     37  C   UNL A   1      43.410  23.454  27.279  1.00  0.00    -0.014 A 
BRANCH  37  38
ATOM     38  C   UNL A   1      43.568  24.861  27.704  1.00  0.00     0.031 A 
ATOM     39  C   UNL A   1      44.940  25.463  27.534  1.00  0.00     0.074 A 
ATOM     40  C   UNL A   1      42.533  25.599  28.126  1.00  0.00     0.049 A 
ATOM     41  N   UNL A   1      45.347  26.687  27.736  1.00  0.00    -0.248 NA
ATOM     42  C   UNL A   1      45.996  24.549  27.061  1.00  0.00     0.031 C 
ATOM     43  C   UNL A   1      41.157  25.131  28.272  1.00  0.00     0.029 A 
ATOM     44  N   UNL A   1      42.488  26.916  28.498  1.00  0.00    -0.354 N 
ATOM     45  C   UNL A   1      46.696  26.692  27.395  1.00  0.00     0.074 A 
ATOM     46  C   UNL A   1      47.052  25.340  27.032  1.00  0.00     0.031 C 
ATOM     47  C   UNL A   1      40.398  26.153  28.708  1.00  0.00     0.029 A 
ATOM     48  C   UNL A   1      41.240  27.335  28.885  1.00  0.00     0.049 A 
ATOM     49  H   UNL A   1      43.275  27.505  28.489  1.00  0.00     0.167 HD
ATOM     50  C   UNL A   1      47.560  27.733  27.368  1.00  0.00     0.034 A 
ATOM     51  C   UNL A   1      40.838  28.540  29.337  1.00  0.00     0.034 A 
ATOM     52  C   UNL A   1      47.203  29.064  27.778  1.00  0.00     0.049 A 
ATOM     53  C   UNL A   1      41.846  29.662  29.419  1.00  0.00     0.074 A 
ATOM     54  C   UNL A   1      47.994  30.196  27.824  1.00  0.00     0.029 A 
ATOM     55  N   UNL A   1      45.945  29.433  28.240  1.00  0.00    -0.354 N 
ATOM     56  N   UNL A   1      43.117  29.664  29.082  1.00  0.00    -0.248 NA
ATOM     57  C   UNL A   1      41.359  30.948  29.932  1.00  0.00     0.031 C 
ATOM     58  C   UNL A   1      47.234  31.233  28.379  1.00  0.00     0.029 A 
ATOM     59  C   UNL A   1      45.947  30.769  28.604  1.00  0.00     0.049 A 
ATOM     60  H   UNL A   1      45.167  28.834  28.299  1.00  0.00     0.167 HD
ATOM     61  C   UNL A   1      43.568  30.963  29.306  1.00  0.00     0.074 A 
ATOM     62  C   UNL A   1      42.433  31.714  29.804  1.00  0.00     0.031 C 
ATOM     63  C   UNL A   1      44.803  31.494  29.107  1.00  0.00     0.034 A 
BRANCH  50  64
ATOM     64  C   UNL A   1      48.976  27.424  26.950  1.00  0.00     0.023 A 
ATOM     65  C   UNL A   1      50.008  27.276  27.896  1.00  0.00     0.031 A 
ATOM     66  C   UNL A   1      49.319  27.383  25.589  1.00  0.00     0.131 A 
ATOM     67  C   UNL A   1      51.341  27.190  27.468  1.00  0.00     0.055 A 
ATOM     68  C   UNL A   1      50.638  27.209  25.169  1.00  0.00     0.041 A 
ATOM     69  F   UNL A   1      48.382  27.554  24.643  1.00  0.00    -0.206 F 
ATOM     70  C   UNL A   1      51.662  27.132  26.110  1.00  0.00     0.022 A 
BRANCH  67  71
ATOM     71  S   UNL A   1      52.660  27.350  28.705  1.00  0.00     0.124 S 
ATOM     72  O   UNL A   1      53.854  27.380  27.861  1.00  0.00    -0.237 OA
ATOM     73  O   UNL A   1      52.316  28.601  29.371  1.00  0.00    -0.237 OA
ATOM     74  O   UNL A   1      52.513  26.146  29.520  1.00  0.00    -0.744 OA
ENDBRANCH  67  71
ENDBRANCH  50  64
BRANCH  51  75
ATOM     75  C   UNL A   1      39.430  28.751  29.770  1.00  0.00     0.023 A 
ATOM     76  C   UNL A   1      38.458  29.223  28.875  1.00  0.00     0.031 A 
ATOM     77  C   UNL A   1      39.051  28.533  31.107  1.00  0.00     0.131 A 
ATOM     78  C   UNL A   1      37.163  29.505  29.338  1.00  0.00     0.055 A 
ATOM     79  C   UNL A   1      37.751  28.774  31.552  1.00  0.00     0.041 A 
ATOM     80  F   UNL A   1      39.944  28.080  32.000  1.00  0.00    -0.206 F 
ATOM     81  C   UNL A   1      36.800  29.274  30.667  1.00  0.00     0.022 A 
BRANCH  78  82
ATOM     82  S   UNL A   1      35.971  30.243  28.188  1.00  0.00     0.124 S 
ATOM     83  O   UNL A   1      36.692  30.162  26.922  1.00  0.00    -0.237 OA
ATOM     84  O   UNL A   1      34.822  29.356  28.330  1.00  0.00    -0.237 OA
ATOM     85  O   UNL A   1      35.781  31.593  28.714  1.00  0.00    -0.744 OA
ENDBRANCH  78  82
ENDBRANCH  51  75
BRANCH  63  86
ATOM     86  C   UNL A   1      44.970  32.969  29.376  1.00  0.00     0.023 A 
ATOM     87  C   UNL A   1      44.798  33.932  28.368  1.00  0.00     0.031 A 
ATOM     88  C   UNL A   1      45.300  33.413  30.669  1.00  0.00     0.131 A 
ATOM     89  C   UNL A   1      45.012  35.288  28.657  1.00  0.00     0.055 A 
ATOM     90  C   UNL A   1      45.453  34.767  30.964  1.00  0.00     0.041 A 
ATOM     91  F   UNL A   1      45.474  32.535  31.670  1.00  0.00    -0.206 F 
ATOM     92  C   UNL A   1      45.322  35.714  29.952  1.00  0.00     0.022 A 
BRANCH  89  93
ATOM     93  S   UNL A   1      44.967  36.487  27.296  1.00  0.00     0.124 S 
ATOM     94  O   UNL A   1      45.901  37.509  27.759  1.00  0.00    -0.237 OA
ATOM     95  O   UNL A   1      45.410  35.685  26.161  1.00  0.00    -0.237 OA
ATOM     96  O   UNL A   1      43.566  36.902  27.251  1.00  0.00    -0.744 OA
ENDBRANCH  89  93
ENDBRANCH  63  86
ENDBRANCH  37  38
ENDBRANCH  30  32
ENDBRANCH  29  30
ENDBRANCH  28  29
ENDBRANCH  27  28
ENDBRANCH  26  27
ENDBRANCH   1  26
TORSDOF 22
ENDMDL
MODEL 3
REMARK VINA RESULT:      -9.4      5.658     11.604
REMARK SMILES CC[C@](C)(NC(=O)CNC(=O)c1cccc(Cl)c1)C(=O)OCCOCCOC(=O)c1ccc(-c2c3nc(c(-c4cc(S(=O)(=O)[O-])ccc4F)c4ccc([nH]4)c(-c4cc(S(=O)(=O)[O-])ccc4F)c4nc(c(-c5cc(S(=O)(=O)[O-])ccc5F)c5ccc2[nH]5)C=C4)C=C3)cc1
REMARK SMILES IDX 23 1 22 2 21 3 19 4 20 5 3 6 4 7 2 8 1 9 5 10 6 11 7 13 8 14
REMARK SMILES IDX 9 15 10 16 11 18 12 19 13 20 18 21 14 22 16 23 15 24 17 25
REMARK SMILES IDX 24 26 25 27 26 28 27 29 28 30 29 31 30 32 31 33 92 34 32 35
REMARK SMILES IDX 91 36 33 37 34 38 35 39 85 40 36 41 90 42 84 43 86 44 37 45
REMARK SMILES IDX 89 46 83 47 82 48 38 50 70 51 50 52 69 53 51 54 54 55 68 56
REMARK SMILES IDX 87 57 52 58 53 59 67 61 88 62 55 63 39 64 40 65 48 66 41 67
REMARK SMILES IDX 47 68 49 69 46 70 42 71 43 72 44 73 45 74 71 75 72 76 80 77
REMARK SMILES IDX 73 78 79 79 81 80 78 81 74 82 75 83 76 84 77 85 56 86 57 87
REMARK SMILES IDX 65 88 58 89 64 90 66 91 63 92 59 93 60 94 61 95 62 96
REMARK H PARENT 5 12 9 17 86 49 54 60
REMARK Flexibility Score: inf
ROOT
ATOM      1  C   UNL A   1      45.307  21.387  25.747  1.00  0.00     0.202 C 
ENDROOT
BRANCH   1   2
ATOM      2  C   UNL A   1      46.172  22.116  24.607  1.00  0.00     0.261 C 
BRANCH   2   3
ATOM      3  O   UNL A   1      46.828  23.413  25.031  1.00  0.00    -0.462 OA
BRANCH   3   4
ATOM      4  C   UNL A   1      47.244  24.661  24.665  1.00  0.00     0.331 C 
ATOM      5  O   UNL A   1      47.641  24.771  23.497  1.00  0.00    -0.249 OA
BRANCH   4   6
ATOM      6  C   UNL A   1      47.028  26.032  25.475  1.00  0.00     0.135 C 
ATOM      7  C   UNL A   1      45.587  26.595  25.691  1.00  0.00     0.047 C 
BRANCH   6   8
ATOM      8  C   UNL A   1      47.693  27.178  24.601  1.00  0.00     0.037 C 
ATOM      9  C   UNL A   1      46.703  28.141  23.897  1.00  0.00     0.007 C 
ENDBRANCH   6   8
BRANCH   6  10
ATOM     10  N   UNL A   1      47.648  25.991  26.784  1.00  0.00    -0.339 N 
ATOM     11  C   UNL A   1      47.038  25.533  27.913  1.00  0.00     0.240 C 
ATOM     12  H   UNL A   1      48.575  26.316  26.864  1.00  0.00     0.164 HD
ATOM     13  O   UNL A   1      47.640  25.677  28.981  1.00  0.00    -0.273 OA
BRANCH  11  14
ATOM     14  C   UNL A   1      45.794  24.606  27.798  1.00  0.00     0.216 C 
BRANCH  14  15
ATOM     15  N   UNL A   1      45.088  23.717  28.803  1.00  0.00    -0.343 N 
ATOM     16  C   UNL A   1      44.080  24.010  29.734  1.00  0.00     0.251 C 
ATOM     17  H   UNL A   1      45.386  22.780  28.802  1.00  0.00     0.164 HD
ATOM     18  O   UNL A   1      42.913  23.748  29.441  1.00  0.00    -0.269 OA
BRANCH  16  19
ATOM     19  C   UNL A   1      44.358  24.238  31.200  1.00  0.00     0.041 A 
ATOM     20  C   UNL A   1      44.641  25.519  31.711  1.00  0.00     0.014 A 
ATOM     21  C   UNL A   1      44.185  23.212  32.130  1.00  0.00     0.034 A 
ATOM     22  C   UNL A   1      44.963  25.732  33.059  1.00  0.00     0.002 A 
ATOM     23  C   UNL A   1      44.436  23.439  33.495  1.00  0.00     0.041 A 
ATOM     24  C   UNL A   1      44.866  24.681  33.957  1.00  0.00     0.020 A 
ATOM     25  Cl  UNL A   1      44.199  22.163  34.628  1.00  0.00    -0.084 Cl
ENDBRANCH  16  19
ENDBRANCH  14  15
ENDBRANCH  11  14
ENDBRANCH   6  10
ENDBRANCH   4   6
ENDBRANCH   3   4
ENDBRANCH   2   3
ENDBRANCH   1   2
BRANCH   1  26
ATOM     26  O   UNL A   1      44.149  22.071  26.231  1.00  0.00    -0.374 OA
BRANCH  26  27
ATOM     27  C   UNL A   1      42.982  22.164  25.413  1.00  0.00     0.202 C 
BRANCH  27  28
ATOM     28  C   UNL A   1      41.721  21.630  26.117  1.00  0.00     0.261 C 
BRANCH  28  29
ATOM     29  O   UNL A   1      41.200  22.586  27.046  1.00  0.00    -0.460 OA
BRANCH  29  30
ATOM     30  C   UNL A   1      39.995  23.090  26.662  1.00  0.00     0.338 C 
ATOM     31  O   UNL A   1      39.062  22.468  26.222  1.00  0.00    -0.246 OA
BRANCH  30  32
ATOM     32  C   UNL A   1      39.909  24.469  27.191  1.00  0.00     0.060 A 
ATOM     33  C   UNL A   1      40.386  25.494  26.360  1.00  0.00     0.016 A 
ATOM     34  C   UNL A   1      39.322  24.760  28.426  1.00  0.00     0.016 A 
ATOM     35  C   UNL A   1      40.377  26.806  26.808  1.00  0.00     0.010 A 
ATOM     36  C   UNL A   1      39.340  26.074  28.893  1.00  0.00     0.010 A 
ATOM     37  C   UNL A   1      39.943  27.077  28.112  1.00  0.00    -0.014 A 
BRANCH  37  38
ATOM     38  C   UNL A   1      40.516  28.271  28.769  1.00  0.00     0.031 A 
ATOM     39  C   UNL A   1      39.534  29.318  29.230  1.00  0.00     0.074 A 
ATOM     40  C   UNL A   1      41.825  28.382  29.033  1.00  0.00     0.049 A 
ATOM     41  N   UNL A   1      39.739  30.415  29.907  1.00  0.00    -0.248 NA
ATOM     42  C   UNL A   1      38.122  29.082  28.880  1.00  0.00     0.031 C 
ATOM     43  C   UNL A   1      42.850  27.402  28.682  1.00  0.00     0.029 A 
ATOM     44  N   UNL A   1      42.510  29.377  29.677  1.00  0.00    -0.354 N 
ATOM     45  C   UNL A   1      38.481  30.986  30.080  1.00  0.00     0.074 A 
ATOM     46  C   UNL A   1      37.531  30.148  29.388  1.00  0.00     0.031 C 
ATOM     47  C   UNL A   1      44.042  27.850  29.116  1.00  0.00     0.029 A 
ATOM     48  C   UNL A   1      43.860  29.152  29.758  1.00  0.00     0.049 A 
ATOM     49  H   UNL A   1      42.074  30.178  30.047  1.00  0.00     0.167 HD
ATOM     50  C   UNL A   1      38.143  32.100  30.770  1.00  0.00     0.034 A 
ATOM     51  C   UNL A   1      44.831  29.922  30.287  1.00  0.00     0.034 A 
ATOM     52  C   UNL A   1      39.107  32.951  31.414  1.00  0.00     0.049 A 
ATOM     53  C   UNL A   1      44.450  31.227  30.946  1.00  0.00     0.074 A 
ATOM     54  C   UNL A   1      38.893  34.120  32.119  1.00  0.00     0.029 A 
ATOM     55  N   UNL A   1      40.479  32.730  31.408  1.00  0.00    -0.354 N 
ATOM     56  N   UNL A   1      43.258  31.754  31.119  1.00  0.00    -0.248 NA
ATOM     57  C   UNL A   1      45.548  32.033  31.493  1.00  0.00     0.031 C 
ATOM     58  C   UNL A   1      40.141  34.643  32.479  1.00  0.00     0.029 A 
ATOM     59  C   UNL A   1      41.128  33.759  32.067  1.00  0.00     0.049 A 
ATOM     60  H   UNL A   1      40.924  31.956  30.995  1.00  0.00     0.167 HD
ATOM     61  C   UNL A   1      43.463  32.934  31.830  1.00  0.00     0.074 A 
ATOM     62  C   UNL A   1      44.891  33.039  32.053  1.00  0.00     0.031 C 
ATOM     63  C   UNL A   1      42.556  33.845  32.270  1.00  0.00     0.034 A 
BRANCH  50  64
ATOM     64  C   UNL A   1      36.681  32.471  30.778  1.00  0.00     0.023 A 
ATOM     65  C   UNL A   1      36.063  33.055  29.657  1.00  0.00     0.031 A 
ATOM     66  C   UNL A   1      35.924  32.338  31.954  1.00  0.00     0.131 A 
ATOM     67  C   UNL A   1      34.762  33.570  29.765  1.00  0.00     0.055 A 
ATOM     68  C   UNL A   1      34.600  32.773  32.027  1.00  0.00     0.041 A 
ATOM     69  F   UNL A   1      36.471  31.820  33.065  1.00  0.00    -0.206 F 
ATOM     70  C   UNL A   1      34.018  33.412  30.935  1.00  0.00     0.022 A 
BRANCH  67  71
ATOM     71  S   UNL A   1      34.130  34.615  28.423  1.00  0.00     0.124 S 
ATOM     72  O   UNL A   1      35.095  34.345  27.359  1.00  0.00    -0.237 OA
ATOM     73  O   UNL A   1      32.786  34.085  28.217  1.00  0.00    -0.237 OA
ATOM     74  O   UNL A   1      34.192  35.964  28.981  1.00  0.00    -0.744 OA
ENDBRANCH  67  71
ENDBRANCH  50  64
BRANCH  51  75
ATOM     75  C   UNL A   1      46.257  29.503  30.200  1.00  0.00     0.023 A 
ATOM     76  C   UNL A   1      47.019  29.754  29.049  1.00  0.00     0.031 A 
ATOM     77  C   UNL A   1      46.861  28.793  31.253  1.00  0.00     0.131 A 
ATOM     78  C   UNL A   1      48.329  29.260  28.960  1.00  0.00     0.055 A 
ATOM     79  C   UNL A   1      48.179  28.342  31.177  1.00  0.00     0.041 A 
ATOM     80  F   UNL A   1      46.174  28.530  32.376  1.00  0.00    -0.206 F 
ATOM     81  C   UNL A   1      48.918  28.565  30.018  1.00  0.00     0.022 A 
BRANCH  78  82
ATOM     82  S   UNL A   1      49.237  29.484  27.405  1.00  0.00     0.124 S 
ATOM     83  O   UNL A   1      50.241  30.470  27.788  1.00  0.00    -0.237 OA
ATOM     84  O   UNL A   1      49.728  28.135  27.144  1.00  0.00    -0.237 OA
ATOM     85  O   UNL A   1      48.213  29.960  26.479  1.00  0.00    -0.744 OA
ENDBRANCH  78  82
ENDBRANCH  51  75
BRANCH  63  86
ATOM     86  C   UNL A   1      43.081  35.001  33.086  1.00  0.00     0.023 A 
ATOM     87  C   UNL A   1      43.188  34.934  34.486  1.00  0.00     0.031 A 
ATOM     88  C   UNL A   1      43.484  36.185  32.445  1.00  0.00     0.131 A 
ATOM     89  C   UNL A   1      43.637  36.053  35.203  1.00  0.00     0.055 A 
ATOM     90  C   UNL A   1      43.985  37.273  33.160  1.00  0.00     0.041 A 
ATOM     91  F   UNL A   1      43.404  36.302  31.110  1.00  0.00    -0.206 F 
ATOM     92  C   UNL A   1      44.052  37.216  34.548  1.00  0.00     0.022 A 
BRANCH  89  93
ATOM     93  S   UNL A   1      43.589  36.002  37.016  1.00  0.00     0.124 S 
ATOM     94  O   UNL A   1      42.293  36.609  37.303  1.00  0.00    -0.237 OA
ATOM     95  O   UNL A   1      43.698  34.573  37.290  1.00  0.00    -0.237 OA
ATOM     96  O   UNL A   1      44.748  36.798  37.413  1.00  0.00    -0.744 OA
ENDBRANCH  89  93
ENDBRANCH  63  86
ENDBRANCH  37  38
ENDBRANCH  30  32
ENDBRANCH  29  30
ENDBRANCH  28  29
ENDBRANCH  27  28
ENDBRANCH  26  27
ENDBRANCH   1  26
TORSDOF 22
ENDMDL
