MODEL 1
REMARK VINA RESULT:     -11.1      0.000      0.000
REMARK SMILES CCCc1cc(O[C@@H]2CCOC3(CCC3)C2)c(C(=O)OCCOCCOC(=O)c2ccc(-c3c4nc(c(-c5cc(S(=O)(=O)[O-])ccc5F)c5ccc([nH]5)c(-c5cc(S(=O)(=O)[O-])ccc5F)c5nc(c(-c6cc(S(=O)(=O)[O-])ccc6F)c6ccc3[nH]6)C=C5)C=C4)cc2)s1
REMARK SMILES IDX 24 1 23 2 22 3 21 4 20 5 18 6 19 7 17 8 4 9 5 10 92 11 6 12
REMARK SMILES IDX 3 13 2 14 1 15 7 16 8 17 9 18 16 19 10 20 12 21 11 22 13 23
REMARK SMILES IDX 15 24 14 25 25 26 26 27 27 28 28 29 29 30 30 31 91 32 31 33
REMARK SMILES IDX 90 34 32 35 33 36 34 37 84 38 35 39 89 40 83 41 85 42 36 43
REMARK SMILES IDX 88 44 82 45 81 46 37 48 69 49 49 50 68 51 50 52 53 53 67 54
REMARK SMILES IDX 86 55 51 56 52 57 66 59 87 60 54 61 38 62 39 63 47 64 40 65
REMARK SMILES IDX 46 66 48 67 45 68 41 69 42 70 43 71 44 72 70 73 71 74 79 75
REMARK SMILES IDX 72 76 78 77 80 78 77 79 73 80 74 81 75 82 76 83 55 84 56 85
REMARK SMILES IDX 64 86 57 87 63 88 65 89 62 90 58 91 59 92 60 93 61 94
REMARK H PARENT 85 47 53 58
REMARK Flexibility Score: inf
ROOT
ATOM      1  C   UNL A   1      31.491  31.723  26.892  1.00  0.00     0.202 C 
ENDROOT
BRANCH   1   2
ATOM      2  O   UNL A   1      32.161  30.828  25.997  1.00  0.00    -0.374 OA
BRANCH   2   3
ATOM      3  C   UNL A   1      33.221  30.057  26.575  1.00  0.00     0.202 C 
BRANCH   3   4
ATOM      4  C   UNL A   1      33.640  28.868  25.708  1.00  0.00     0.261 C 
BRANCH   4   5
ATOM      5  O   UNL A   1      32.673  28.710  24.659  1.00  0.00    -0.459 OA
BRANCH   5   6
ATOM      6  C   UNL A   1      33.178  28.555  23.406  1.00  0.00     0.352 C 
ATOM      7  O   UNL A   1      34.019  29.299  22.907  1.00  0.00    -0.245 OA
BRANCH   6   8
ATOM      8  C   UNL A   1      32.712  27.306  22.837  1.00  0.00     0.155 A 
ATOM      9  C   UNL A   1      32.698  24.911  22.223  1.00  0.00     0.009 A 
ATOM     10  C   UNL A   1      31.479  25.527  22.029  1.00  0.00     0.062 A 
ATOM     11  S   UNL A   1      33.809  25.988  22.919  1.00  0.00    -0.130 S 
ATOM     12  C   UNL A   1      31.493  26.930  22.289  1.00  0.00     0.145 A 
BRANCH   9  13
ATOM     13  C   UNL A   1      33.053  23.484  21.918  1.00  0.00     0.046 C 
BRANCH  13  14
ATOM     14  C   UNL A   1      32.528  22.483  22.954  1.00  0.00     0.002 C 
ATOM     15  C   UNL A   1      33.464  22.289  24.141  1.00  0.00     0.004 C 
ENDBRANCH  13  14
ENDBRANCH   9  13
BRANCH  12  16
ATOM     16  O   UNL A   1      30.502  27.851  22.151  1.00  0.00    -0.488 OA
BRANCH  16  17
ATOM     17  C   UNL A   1      29.659  28.240  23.246  1.00  0.00     0.178 C 
ATOM     18  C   UNL A   1      28.326  27.508  23.430  1.00  0.00     0.074 C 
ATOM     19  C   UNL A   1      29.547  29.750  23.487  1.00  0.00     0.080 C 
ATOM     20  C   UNL A   1      27.134  28.461  23.336  1.00  0.00     0.165 C 
ATOM     21  C   UNL A   1      28.481  30.389  22.600  1.00  0.00     0.072 C 
ATOM     22  O   UNL A   1      27.361  29.488  22.372  1.00  0.00    -0.375 OA
ATOM     23  C   UNL A   1      28.042  31.828  23.027  1.00  0.00     0.036 C 
ATOM     24  C   UNL A   1      29.069  31.077  21.324  1.00  0.00     0.036 C 
ATOM     25  C   UNL A   1      28.070  32.219  21.539  1.00  0.00     0.006 C 
ENDBRANCH  16  17
ENDBRANCH  12  16
ENDBRANCH   6   8
ENDBRANCH   5   6
ENDBRANCH   4   5
ENDBRANCH   3   4
ENDBRANCH   2   3
ENDBRANCH   1   2
BRANCH   1  26
ATOM     26  C   UNL A   1      32.071  33.140  26.919  1.00  0.00     0.261 C 
BRANCH  26  27
ATOM     27  O   UNL A   1      32.344  33.546  28.271  1.00  0.00    -0.460 OA
BRANCH  27  28
ATOM     28  C   UNL A   1      33.424  34.352  28.418  1.00  0.00     0.338 C 
ATOM     29  O   UNL A   1      33.426  35.571  28.455  1.00  0.00    -0.246 OA
BRANCH  28  30
ATOM     30  C   UNL A   1      34.614  33.532  28.731  1.00  0.00     0.060 A 
ATOM     31  C   UNL A   1      34.404  32.353  29.458  1.00  0.00     0.016 A 
ATOM     32  C   UNL A   1      35.906  33.904  28.348  1.00  0.00     0.016 A 
ATOM     33  C   UNL A   1      35.488  31.570  29.848  1.00  0.00     0.010 A 
ATOM     34  C   UNL A   1      36.995  33.120  28.747  1.00  0.00     0.010 A 
ATOM     35  C   UNL A   1      36.792  31.969  29.530  1.00  0.00    -0.014 A 
BRANCH  35  36
ATOM     36  C   UNL A   1      37.937  31.275  30.167  1.00  0.00     0.031 A 
ATOM     37  C   UNL A   1      38.287  31.622  31.588  1.00  0.00     0.074 A 
ATOM     38  C   UNL A   1      38.621  30.322  29.510  1.00  0.00     0.049 A 
ATOM     39  N   UNL A   1      39.242  31.154  32.349  1.00  0.00    -0.248 NA
ATOM     40  C   UNL A   1      37.444  32.639  32.236  1.00  0.00     0.031 C 
ATOM     41  C   UNL A   1      38.346  29.873  28.146  1.00  0.00     0.029 A 
ATOM     42  N   UNL A   1      39.692  29.560  29.906  1.00  0.00    -0.354 N 
ATOM     43  C   UNL A   1      39.113  31.813  33.567  1.00  0.00     0.074 A 
ATOM     44  C   UNL A   1      38.015  32.745  33.425  1.00  0.00     0.031 C 
ATOM     45  C   UNL A   1      39.232  28.917  27.816  1.00  0.00     0.029 A 
ATOM     46  C   UNL A   1      40.155  28.709  28.930  1.00  0.00     0.049 A 
ATOM     47  H   UNL A   1      40.091  29.618  30.804  1.00  0.00     0.167 HD
ATOM     48  C   UNL A   1      39.839  31.649  34.700  1.00  0.00     0.034 A 
ATOM     49  C   UNL A   1      41.213  27.874  28.934  1.00  0.00     0.034 A 
ATOM     50  C   UNL A   1      40.940  30.727  34.821  1.00  0.00     0.049 A 
ATOM     51  C   UNL A   1      42.059  27.768  30.179  1.00  0.00     0.074 A 
ATOM     52  C   UNL A   1      41.738  30.474  35.923  1.00  0.00     0.029 A 
ATOM     53  N   UNL A   1      41.412  29.915  33.796  1.00  0.00    -0.354 N 
ATOM     54  N   UNL A   1      41.923  28.392  31.328  1.00  0.00    -0.248 NA
ATOM     55  C   UNL A   1      43.197  26.840  30.132  1.00  0.00     0.031 C 
ATOM     56  C   UNL A   1      42.729  29.559  35.547  1.00  0.00     0.029 A 
ATOM     57  C   UNL A   1      42.508  29.187  34.231  1.00  0.00     0.049 A 
ATOM     58  H   UNL A   1      41.023  29.865  32.893  1.00  0.00     0.167 HD
ATOM     59  C   UNL A   1      42.940  27.908  32.147  1.00  0.00     0.074 A 
ATOM     60  C   UNL A   1      43.675  26.935  31.364  1.00  0.00     0.031 C 
ATOM     61  C   UNL A   1      43.238  28.231  33.432  1.00  0.00     0.034 A 
BRANCH  48  62
ATOM     62  C   UNL A   1      39.485  32.529  35.875  1.00  0.00     0.023 A 
ATOM     63  C   UNL A   1      38.674  32.068  36.927  1.00  0.00     0.031 A 
ATOM     64  C   UNL A   1      39.933  33.861  35.921  1.00  0.00     0.131 A 
ATOM     65  C   UNL A   1      38.276  32.953  37.941  1.00  0.00     0.055 A 
ATOM     66  C   UNL A   1      39.596  34.714  36.973  1.00  0.00     0.041 A 
ATOM     67  F   UNL A   1      40.691  34.361  34.933  1.00  0.00    -0.206 F 
ATOM     68  C   UNL A   1      38.751  34.266  37.985  1.00  0.00     0.022 A 
BRANCH  65  69
ATOM     69  S   UNL A   1      37.017  32.405  39.127  1.00  0.00     0.124 S 
ATOM     70  O   UNL A   1      37.300  30.975  39.217  1.00  0.00    -0.237 OA
ATOM     71  O   UNL A   1      37.332  33.196  40.310  1.00  0.00    -0.237 OA
ATOM     72  O   UNL A   1      35.756  32.742  38.468  1.00  0.00    -0.744 OA
ENDBRANCH  65  69
ENDBRANCH  48  62
BRANCH  49  73
ATOM     73  C   UNL A   1      41.568  27.100  27.709  1.00  0.00     0.023 A 
ATOM     74  C   UNL A   1      41.357  25.715  27.635  1.00  0.00     0.031 A 
ATOM     75  C   UNL A   1      42.177  27.736  26.612  1.00  0.00     0.131 A 
ATOM     76  C   UNL A   1      41.792  25.002  26.506  1.00  0.00     0.055 A 
ATOM     77  C   UNL A   1      42.564  27.030  25.472  1.00  0.00     0.041 A 
ATOM     78  F   UNL A   1      42.401  29.059  26.632  1.00  0.00    -0.206 F 
ATOM     79  C   UNL A   1      42.382  25.652  25.420  1.00  0.00     0.022 A 
BRANCH  76  80
ATOM     80  S   UNL A   1      41.643  23.194  26.508  1.00  0.00     0.124 S 
ATOM     81  O   UNL A   1      42.448  22.828  25.347  1.00  0.00    -0.237 OA
ATOM     82  O   UNL A   1      42.200  22.846  27.811  1.00  0.00    -0.237 OA
ATOM     83  O   UNL A   1      40.206  22.970  26.368  1.00  0.00    -0.744 OA
ENDBRANCH  76  80
ENDBRANCH  49  73
BRANCH  61  84
ATOM     84  C   UNL A   1      44.384  27.491  34.076  1.00  0.00     0.023 A 
ATOM     85  C   UNL A   1      44.248  26.168  34.533  1.00  0.00     0.031 A 
ATOM     86  C   UNL A   1      45.629  28.124  34.242  1.00  0.00     0.131 A 
ATOM     87  C   UNL A   1      45.321  25.539  35.180  1.00  0.00     0.055 A 
ATOM     88  C   UNL A   1      46.710  27.474  34.837  1.00  0.00     0.041 A 
ATOM     89  F   UNL A   1      45.814  29.386  33.824  1.00  0.00    -0.206 F 
ATOM     90  C   UNL A   1      46.556  26.178  35.322  1.00  0.00     0.022 A 
BRANCH  87  91
ATOM     91  S   UNL A   1      45.060  23.900  35.911  1.00  0.00     0.124 S 
ATOM     92  O   UNL A   1      43.665  23.634  35.571  1.00  0.00    -0.237 OA
ATOM     93  O   UNL A   1      46.051  23.085  35.216  1.00  0.00    -0.237 OA
ATOM     94  O   UNL A   1      45.321  24.112  37.333  1.00  0.00    -0.744 OA
ENDBRANCH  87  91
ENDBRANCH  61  84
ENDBRANCH  35  36
ENDBRANCH  28  30
ENDBRANCH  27  28
ENDBRANCH  26  27
ENDBRANCH   1  26
TORSDOF 21
ENDMDL
MODEL 2
REMARK VINA RESULT:     -11.0      1.920      2.728
REMARK SMILES CCCc1cc(O[C@@H]2CCOC3(CCC3)C2)c(C(=O)OCCOCCOC(=O)c2ccc(-c3c4nc(c(-c5cc(S(=O)(=O)[O-])ccc5F)c5ccc([nH]5)c(-c5cc(S(=O)(=O)[O-])ccc5F)c5nc(c(-c6cc(S(=O)(=O)[O-])ccc6F)c6ccc3[nH]6)C=C5)C=C4)cc2)s1
REMARK SMILES IDX 24 1 23 2 22 3 21 4 20 5 18 6 19 7 17 8 4 9 5 10 92 11 6 12
REMARK SMILES IDX 3 13 2 14 1 15 7 16 8 17 9 18 16 19 10 20 12 21 11 22 13 23
REMARK SMILES IDX 15 24 14 25 25 26 26 27 27 28 28 29 29 30 30 31 91 32 31 33
REMARK SMILES IDX 90 34 32 35 33 36 34 37 84 38 35 39 89 40 83 41 85 42 36 43
REMARK SMILES IDX 88 44 82 45 81 46 37 48 69 49 49 50 68 51 50 52 53 53 67 54
REMARK SMILES IDX 86 55 51 56 52 57 66 59 87 60 54 61 38 62 39 63 47 64 40 65
REMARK SMILES IDX 46 66 48 67 45 68 41 69 42 70 43 71 44 72 70 73 71 74 79 75
REMARK SMILES IDX 72 76 78 77 80 78 77 79 73 80 74 81 75 82 76 83 55 84 56 85
REMARK SMILES IDX 64 86 57 87 63 88 65 89 62 90 58 91 59 92 60 93 61 94
REMARK H PARENT 85 47 53 58
REMARK Flexibility Score: inf
ROOT
ATOM      1  C   UNL A   1      31.726  30.383  26.105  1.00  0.00     0.202 C 
ENDROOT
BRANCH   1   2
ATOM      2  O   UNL A   1      31.701  29.479  27.215  1.00  0.00    -0.374 OA
BRANCH   2   3
ATOM      3  C   UNL A   1      32.314  28.205  26.986  1.00  0.00     0.202 C 
BRANCH   3   4
ATOM      4  C   UNL A   1      31.299  27.071  26.820  1.00  0.00     0.261 C 
BRANCH   4   5
ATOM      5  O   UNL A   1      31.949  25.978  26.154  1.00  0.00    -0.459 OA
BRANCH   5   6
ATOM      6  C   UNL A   1      31.321  24.775  26.242  1.00  0.00     0.352 C 
ATOM      7  O   UNL A   1      30.275  24.588  26.857  1.00  0.00    -0.245 OA
BRANCH   6   8
ATOM      8  C   UNL A   1      31.971  23.814  25.372  1.00  0.00     0.155 A 
ATOM      9  C   UNL A   1      33.195  21.778  24.687  1.00  0.00     0.009 A 
ATOM     10  C   UNL A   1      32.647  22.464  23.623  1.00  0.00     0.062 A 
ATOM     11  S   UNL A   1      32.768  22.511  26.156  1.00  0.00    -0.130 S 
ATOM     12  C   UNL A   1      32.018  23.692  23.990  1.00  0.00     0.145 A 
BRANCH   9  13
ATOM     13  C   UNL A   1      34.030  20.531  24.630  1.00  0.00     0.046 C 
BRANCH  13  14
ATOM     14  C   UNL A   1      33.286  19.269  25.083  1.00  0.00     0.002 C 
ATOM     15  C   UNL A   1      32.579  18.539  23.946  1.00  0.00     0.004 C 
ENDBRANCH  13  14
ENDBRANCH   9  13
BRANCH  12  16
ATOM     16  O   UNL A   1      31.432  24.637  23.208  1.00  0.00    -0.488 OA
BRANCH  16  17
ATOM     17  C   UNL A   1      32.197  25.567  22.426  1.00  0.00     0.178 C 
ATOM     18  C   UNL A   1      33.546  26.039  22.976  1.00  0.00     0.074 C 
ATOM     19  C   UNL A   1      31.392  26.698  21.774  1.00  0.00     0.080 C 
ATOM     20  C   UNL A   1      33.580  27.553  23.184  1.00  0.00     0.165 C 
ATOM     21  C   UNL A   1      31.178  27.868  22.732  1.00  0.00     0.072 C 
ATOM     22  O   UNL A   1      32.317  28.049  23.621  1.00  0.00    -0.375 OA
ATOM     23  C   UNL A   1      30.701  29.196  22.058  1.00  0.00     0.036 C 
ATOM     24  C   UNL A   1      29.774  27.854  23.422  1.00  0.00     0.036 C 
ATOM     25  C   UNL A   1      29.719  29.373  23.229  1.00  0.00     0.006 C 
ENDBRANCH  16  17
ENDBRANCH  12  16
ENDBRANCH   6   8
ENDBRANCH   5   6
ENDBRANCH   4   5
ENDBRANCH   3   4
ENDBRANCH   2   3
ENDBRANCH   1   2
BRANCH   1  26
ATOM     26  C   UNL A   1      31.729  31.863  26.496  1.00  0.00     0.261 C 
BRANCH  26  27
ATOM     27  O   UNL A   1      32.458  32.058  27.720  1.00  0.00    -0.460 OA
BRANCH  27  28
ATOM     28  C   UNL A   1      33.441  32.990  27.657  1.00  0.00     0.338 C 
ATOM     29  O   UNL A   1      33.302  34.186  27.465  1.00  0.00    -0.246 OA
BRANCH  28  30
ATOM     30  C   UNL A   1      34.727  32.380  28.056  1.00  0.00     0.060 A 
ATOM     31  C   UNL A   1      34.718  31.015  28.368  1.00  0.00     0.016 A 
ATOM     32  C   UNL A   1      35.913  33.115  28.145  1.00  0.00     0.016 A 
ATOM     33  C   UNL A   1      35.878  30.391  28.820  1.00  0.00     0.010 A 
ATOM     34  C   UNL A   1      37.078  32.490  28.606  1.00  0.00     0.010 A 
ATOM     35  C   UNL A   1      37.055  31.134  28.979  1.00  0.00    -0.014 A 
BRANCH  35  36
ATOM     36  C   UNL A   1      38.201  30.528  29.699  1.00  0.00     0.031 A 
ATOM     37  C   UNL A   1      38.439  30.920  31.132  1.00  0.00     0.074 A 
ATOM     38  C   UNL A   1      38.986  29.612  29.105  1.00  0.00     0.049 A 
ATOM     39  N   UNL A   1      39.373  30.529  31.959  1.00  0.00    -0.248 NA
ATOM     40  C   UNL A   1      37.492  31.889  31.707  1.00  0.00     0.031 C 
ATOM     41  C   UNL A   1      38.826  29.123  27.736  1.00  0.00     0.029 A 
ATOM     42  N   UNL A   1      40.078  28.929  29.581  1.00  0.00    -0.354 N 
ATOM     43  C   UNL A   1      39.126  31.198  33.153  1.00  0.00     0.074 A 
ATOM     44  C   UNL A   1      37.980  32.052  32.926  1.00  0.00     0.031 C 
ATOM     45  C   UNL A   1      39.792  28.223  27.480  1.00  0.00     0.029 A 
ATOM     46  C   UNL A   1      40.655  28.095  28.653  1.00  0.00     0.049 A 
ATOM     47  H   UNL A   1      40.415  29.028  30.500  1.00  0.00     0.167 HD
ATOM     48  C   UNL A   1      39.788  31.100  34.332  1.00  0.00     0.034 A 
ATOM     49  C   UNL A   1      41.763  27.332  28.738  1.00  0.00     0.034 A 
ATOM     50  C   UNL A   1      40.938  30.255  34.538  1.00  0.00     0.049 A 
ATOM     51  C   UNL A   1      42.535  27.303  30.035  1.00  0.00     0.074 A 
ATOM     52  C   UNL A   1      41.681  30.073  35.692  1.00  0.00     0.029 A 
ATOM     53  N   UNL A   1      41.524  29.461  33.561  1.00  0.00    -0.354 N 
ATOM     54  N   UNL A   1      42.287  27.934  31.160  1.00  0.00    -0.248 NA
ATOM     55  C   UNL A   1      43.732  26.452  30.075  1.00  0.00     0.031 C 
ATOM     56  C   UNL A   1      42.751  29.221  35.395  1.00  0.00     0.029 A 
ATOM     57  C   UNL A   1      42.636  28.814  34.076  1.00  0.00     0.049 A 
ATOM     58  H   UNL A   1      41.196  29.370  32.637  1.00  0.00     0.167 HD
ATOM     59  C   UNL A   1      43.281  27.533  32.049  1.00  0.00     0.074 A 
ATOM     60  C   UNL A   1      44.125  26.598  31.332  1.00  0.00     0.031 C 
ATOM     61  C   UNL A   1      43.476  27.896  33.343  1.00  0.00     0.034 A 
BRANCH  48  62
ATOM     62  C   UNL A   1      39.306  31.973  35.465  1.00  0.00     0.023 A 
ATOM     63  C   UNL A   1      39.715  33.312  35.593  1.00  0.00     0.031 A 
ATOM     64  C   UNL A   1      38.458  31.444  36.454  1.00  0.00     0.131 A 
ATOM     65  C   UNL A   1      39.334  34.054  36.723  1.00  0.00     0.055 A 
ATOM     66  C   UNL A   1      38.021  32.211  37.535  1.00  0.00     0.041 A 
ATOM     67  F   UNL A   1      38.055  30.165  36.395  1.00  0.00    -0.206 F 
ATOM     68  C   UNL A   1      38.471  33.520  37.683  1.00  0.00     0.022 A 
BRANCH  65  69
ATOM     69  S   UNL A   1      40.097  35.678  36.992  1.00  0.00     0.124 S 
ATOM     70  O   UNL A   1      39.501  36.076  38.264  1.00  0.00    -0.237 OA
ATOM     71  O   UNL A   1      41.519  35.357  37.023  1.00  0.00    -0.237 OA
ATOM     72  O   UNL A   1      39.658  36.458  35.836  1.00  0.00    -0.744 OA
ENDBRANCH  65  69
ENDBRANCH  48  62
BRANCH  49  73
ATOM     73  C   UNL A   1      42.244  26.564  27.553  1.00  0.00     0.023 A 
ATOM     74  C   UNL A   1      41.927  25.207  27.386  1.00  0.00     0.031 A 
ATOM     75  C   UNL A   1      43.075  27.171  26.595  1.00  0.00     0.131 A 
ATOM     76  C   UNL A   1      42.476  24.490  26.311  1.00  0.00     0.055 A 
ATOM     77  C   UNL A   1      43.580  26.465  25.502  1.00  0.00     0.041 A 
ATOM     78  F   UNL A   1      43.408  28.467  26.708  1.00  0.00    -0.206 F 
ATOM     79  C   UNL A   1      43.289  25.112  25.362  1.00  0.00     0.022 A 
BRANCH  76  80
ATOM     80  S   UNL A   1      42.171  22.704  26.211  1.00  0.00     0.124 S 
ATOM     81  O   UNL A   1      42.971  22.331  25.049  1.00  0.00    -0.237 OA
ATOM     82  O   UNL A   1      42.663  22.241  27.504  1.00  0.00    -0.237 OA
ATOM     83  O   UNL A   1      40.725  22.615  26.029  1.00  0.00    -0.744 OA
ENDBRANCH  76  80
ENDBRANCH  49  73
BRANCH  61  84
ATOM     84  C   UNL A   1      44.625  27.244  34.071  1.00  0.00     0.023 A 
ATOM     85  C   UNL A   1      44.479  26.013  34.735  1.00  0.00     0.031 A 
ATOM     86  C   UNL A   1      45.884  27.870  34.107  1.00  0.00     0.131 A 
ATOM     87  C   UNL A   1      45.558  25.472  35.449  1.00  0.00     0.055 A 
ATOM     88  C   UNL A   1      46.969  27.300  34.774  1.00  0.00     0.041 A 
ATOM     89  F   UNL A   1      46.079  29.047  33.491  1.00  0.00    -0.206 F 
ATOM     90  C   UNL A   1      46.806  26.101  35.461  1.00  0.00     0.022 A 
BRANCH  87  91
ATOM     91  S   UNL A   1      45.288  23.974  36.435  1.00  0.00     0.124 S 
ATOM     92  O   UNL A   1      46.442  23.159  36.071  1.00  0.00    -0.237 OA
ATOM     93  O   UNL A   1      45.278  24.494  37.798  1.00  0.00    -0.237 OA
ATOM     94  O   UNL A   1      44.000  23.474  35.955  1.00  0.00    -0.744 OA
ENDBRANCH  87  91
ENDBRANCH  61  84
ENDBRANCH  35  36
ENDBRANCH  28  30
ENDBRANCH  27  28
ENDBRANCH  26  27
ENDBRANCH   1  26
TORSDOF 21
ENDMDL
MODEL 3
REMARK VINA RESULT:     -10.7      1.285      3.422
REMARK SMILES CCCc1cc(O[C@@H]2CCOC3(CCC3)C2)c(C(=O)OCCOCCOC(=O)c2ccc(-c3c4nc(c(-c5cc(S(=O)(=O)[O-])ccc5F)c5ccc([nH]5)c(-c5cc(S(=O)(=O)[O-])ccc5F)c5nc(c(-c6cc(S(=O)(=O)[O-])ccc6F)c6ccc3[nH]6)C=C5)C=C4)cc2)s1
REMARK SMILES IDX 24 1 23 2 22 3 21 4 20 5 18 6 19 7 17 8 4 9 5 10 92 11 6 12
REMARK SMILES IDX 3 13 2 14 1 15 7 16 8 17 9 18 16 19 10 20 12 21 11 22 13 23
REMARK SMILES IDX 15 24 14 25 25 26 26 27 27 28 28 29 29 30 30 31 91 32 31 33
REMARK SMILES IDX 90 34 32 35 33 36 34 37 84 38 35 39 89 40 83 41 85 42 36 43
REMARK SMILES IDX 88 44 82 45 81 46 37 48 69 49 49 50 68 51 50 52 53 53 67 54
REMARK SMILES IDX 86 55 51 56 52 57 66 59 87 60 54 61 38 62 39 63 47 64 40 65
REMARK SMILES IDX 46 66 48 67 45 68 41 69 42 70 43 71 44 72 70 73 71 74 79 75
REMARK SMILES IDX 72 76 78 77 80 78 77 79 73 80 74 81 75 82 76 83 55 84 56 85
REMARK SMILES IDX 64 86 57 87 63 88 65 89 62 90 58 91 59 92 60 93 61 94
REMARK H PARENT 85 47 53 58
REMARK Flexibility Score: inf
ROOT
ATOM      1  C   UNL A   1      31.651  32.615  26.893  1.00  0.00     0.202 C 
ENDROOT
BRANCH   1   2
ATOM      2  O   UNL A   1      32.037  31.296  26.495  1.00  0.00    -0.374 OA
BRANCH   2   3
ATOM      3  C   UNL A   1      33.065  30.689  27.286  1.00  0.00     0.202 C 
BRANCH   3   4
ATOM      4  C   UNL A   1      33.929  29.704  26.495  1.00  0.00     0.261 C 
BRANCH   4   5
ATOM      5  O   UNL A   1      33.156  29.211  25.390  1.00  0.00    -0.459 OA
BRANCH   5   6
ATOM      6  C   UNL A   1      32.535  28.018  25.588  1.00  0.00     0.352 C 
ATOM      7  O   UNL A   1      32.813  27.240  26.497  1.00  0.00    -0.245 OA
BRANCH   6   8
ATOM      8  C   UNL A   1      31.407  27.893  24.686  1.00  0.00     0.155 A 
ATOM      9  C   UNL A   1      29.574  28.575  23.173  1.00  0.00     0.009 A 
ATOM     10  C   UNL A   1      29.844  27.223  23.123  1.00  0.00     0.062 A 
ATOM     11  S   UNL A   1      30.666  29.365  24.204  1.00  0.00    -0.130 S 
ATOM     12  C   UNL A   1      30.833  26.796  24.058  1.00  0.00     0.145 A 
BRANCH   9  13
ATOM     13  C   UNL A   1      28.507  29.317  22.421  1.00  0.00     0.046 C 
BRANCH  13  14
ATOM     14  C   UNL A   1      27.930  30.513  23.187  1.00  0.00     0.002 C 
ATOM     15  C   UNL A   1      28.030  31.830  22.424  1.00  0.00     0.004 C 
ENDBRANCH  13  14
ENDBRANCH   9  13
BRANCH  12  16
ATOM     16  O   UNL A   1      31.301  25.547  24.321  1.00  0.00    -0.488 OA
BRANCH  16  17
ATOM     17  C   UNL A   1      31.752  24.662  23.283  1.00  0.00     0.178 C 
ATOM     18  C   UNL A   1      31.149  23.256  23.217  1.00  0.00     0.074 C 
ATOM     19  C   UNL A   1      33.262  24.676  23.017  1.00  0.00     0.080 C 
ATOM     20  C   UNL A   1      32.213  22.171  23.379  1.00  0.00     0.165 C 
ATOM     21  C   UNL A   1      34.014  23.747  23.967  1.00  0.00     0.072 C 
ATOM     22  O   UNL A   1      33.228  22.567  24.298  1.00  0.00    -0.375 OA
ATOM     23  C   UNL A   1      35.482  23.414  23.540  1.00  0.00     0.036 C 
ATOM     24  C   UNL A   1      34.662  24.493  25.178  1.00  0.00     0.036 C 
ATOM     25  C   UNL A   1      35.891  23.593  25.013  1.00  0.00     0.006 C 
ENDBRANCH  16  17
ENDBRANCH  12  16
ENDBRANCH   6   8
ENDBRANCH   5   6
ENDBRANCH   4   5
ENDBRANCH   3   4
ENDBRANCH   2   3
ENDBRANCH   1   2
BRANCH   1  26
ATOM     26  C   UNL A   1      32.811  33.495  27.369  1.00  0.00     0.261 C 
BRANCH  26  27
ATOM     27  O   UNL A   1      32.478  34.138  28.611  1.00  0.00    -0.460 OA
BRANCH  27  28
ATOM     28  C   UNL A   1      33.486  34.846  29.176  1.00  0.00     0.338 C 
ATOM     29  O   UNL A   1      33.435  35.997  29.576  1.00  0.00    -0.246 OA
BRANCH  28  30
ATOM     30  C   UNL A   1      34.637  33.952  29.429  1.00  0.00     0.060 A 
ATOM     31  C   UNL A   1      34.412  32.837  30.245  1.00  0.00     0.016 A 
ATOM     32  C   UNL A   1      35.909  34.198  28.904  1.00  0.00     0.016 A 
ATOM     33  C   UNL A   1      35.467  31.993  30.583  1.00  0.00     0.010 A 
ATOM     34  C   UNL A   1      36.971  33.353  29.249  1.00  0.00     0.010 A 
ATOM     35  C   UNL A   1      36.760  32.268  30.119  1.00  0.00    -0.014 A 
BRANCH  35  36
ATOM     36  C   UNL A   1      37.907  31.522  30.690  1.00  0.00     0.031 A 
ATOM     37  C   UNL A   1      38.350  31.846  32.091  1.00  0.00     0.074 A 
ATOM     38  C   UNL A   1      38.512  30.543  29.994  1.00  0.00     0.049 A 
ATOM     39  N   UNL A   1      39.324  31.333  32.796  1.00  0.00    -0.248 NA
ATOM     40  C   UNL A   1      37.589  32.895  32.787  1.00  0.00     0.031 C 
ATOM     41  C   UNL A   1      38.142  30.113  28.646  1.00  0.00     0.029 A 
ATOM     42  N   UNL A   1      39.569  29.733  30.328  1.00  0.00    -0.354 N 
ATOM     43  C   UNL A   1      39.292  31.991  34.021  1.00  0.00     0.074 A 
ATOM     44  C   UNL A   1      38.229  32.970  33.943  1.00  0.00     0.031 C 
ATOM     45  C   UNL A   1      38.967  29.122  28.265  1.00  0.00     0.029 A 
ATOM     46  C   UNL A   1      39.939  28.868  29.326  1.00  0.00     0.049 A 
ATOM     47  H   UNL A   1      40.019  29.770  31.203  1.00  0.00     0.167 HD
ATOM     48  C   UNL A   1      40.071  31.789  35.112  1.00  0.00     0.034 A 
ATOM     49  C   UNL A   1      40.959  27.988  29.268  1.00  0.00     0.034 A 
ATOM     50  C   UNL A   1      41.136  30.820  35.169  1.00  0.00     0.049 A 
ATOM     51  C   UNL A   1      41.867  27.839  30.465  1.00  0.00     0.074 A 
ATOM     52  C   UNL A   1      41.982  30.526  36.225  1.00  0.00     0.029 A 
ATOM     53  N   UNL A   1      41.514  29.994  34.118  1.00  0.00    -0.354 N 
ATOM     54  N   UNL A   1      41.822  28.462  31.621  1.00  0.00    -0.248 NA
ATOM     55  C   UNL A   1      42.959  26.863  30.351  1.00  0.00     0.031 C 
ATOM     56  C   UNL A   1      42.910  29.572  35.791  1.00  0.00     0.029 A 
ATOM     57  C   UNL A   1      42.600  29.217  34.489  1.00  0.00     0.049 A 
ATOM     58  H   UNL A   1      41.074  29.965  33.237  1.00  0.00     0.167 HD
ATOM     59  C   UNL A   1      42.861  27.930  32.380  1.00  0.00     0.074 A 
ATOM     60  C   UNL A   1      43.508  26.930  31.556  1.00  0.00     0.031 C 
ATOM     61  C   UNL A   1      43.243  28.234  33.648  1.00  0.00     0.034 A 
BRANCH  48  62
ATOM     62  C   UNL A   1      39.822  32.677  36.307  1.00  0.00     0.023 A 
ATOM     63  C   UNL A   1      39.008  32.267  37.377  1.00  0.00     0.031 A 
ATOM     64  C   UNL A   1      40.373  33.970  36.355  1.00  0.00     0.131 A 
ATOM     65  C   UNL A   1      38.711  33.166  38.414  1.00  0.00     0.055 A 
ATOM     66  C   UNL A   1      40.135  34.832  37.427  1.00  0.00     0.041 A 
ATOM     67  F   UNL A   1      41.138  34.424  35.350  1.00  0.00    -0.206 F 
ATOM     68  C   UNL A   1      39.287  34.437  38.458  1.00  0.00     0.022 A 
BRANCH  65  69
ATOM     69  S   UNL A   1      37.448  32.700  39.631  1.00  0.00     0.124 S 
ATOM     70  O   UNL A   1      38.084  31.566  40.296  1.00  0.00    -0.237 OA
ATOM     71  O   UNL A   1      37.313  33.915  40.425  1.00  0.00    -0.237 OA
ATOM     72  O   UNL A   1      36.289  32.360  38.808  1.00  0.00    -0.744 OA
ENDBRANCH  65  69
ENDBRANCH  48  62
BRANCH  49  73
ATOM     73  C   UNL A   1      41.212  27.206  28.024  1.00  0.00     0.023 A 
ATOM     74  C   UNL A   1      40.951  25.828  27.962  1.00  0.00     0.031 A 
ATOM     75  C   UNL A   1      41.772  27.824  26.891  1.00  0.00     0.131 A 
ATOM     76  C   UNL A   1      41.291  25.104  26.808  1.00  0.00     0.055 A 
ATOM     77  C   UNL A   1      42.065  27.108  25.729  1.00  0.00     0.041 A 
ATOM     78  F   UNL A   1      42.041  29.139  26.898  1.00  0.00    -0.206 F 
ATOM     79  C   UNL A   1      41.834  25.737  25.688  1.00  0.00     0.022 A 
BRANCH  76  80
ATOM     80  S   UNL A   1      41.082  23.302  26.819  1.00  0.00     0.124 S 
ATOM     81  O   UNL A   1      41.975  22.894  25.740  1.00  0.00    -0.237 OA
ATOM     82  O   UNL A   1      41.508  22.957  28.171  1.00  0.00    -0.237 OA
ATOM     83  O   UNL A   1      39.658  23.123  26.552  1.00  0.00    -0.744 OA
ENDBRANCH  76  80
ENDBRANCH  49  73
BRANCH  61  84
ATOM     84  C   UNL A   1      44.389  27.441  34.226  1.00  0.00     0.023 A 
ATOM     85  C   UNL A   1      44.180  26.243  34.931  1.00  0.00     0.031 A 
ATOM     86  C   UNL A   1      45.710  27.899  34.075  1.00  0.00     0.131 A 
ATOM     87  C   UNL A   1      45.269  25.570  35.503  1.00  0.00     0.055 A 
ATOM     88  C   UNL A   1      46.796  27.195  34.598  1.00  0.00     0.041 A 
ATOM     89  F   UNL A   1      45.967  29.036  33.410  1.00  0.00    -0.206 F 
ATOM     90  C   UNL A   1      46.577  26.030  35.328  1.00  0.00     0.022 A 
BRANCH  87  91
ATOM     91  S   UNL A   1      44.949  24.125  36.551  1.00  0.00     0.124 S 
ATOM     92  O   UNL A   1      44.415  24.740  37.762  1.00  0.00    -0.237 OA
ATOM     93  O   UNL A   1      43.998  23.361  35.750  1.00  0.00    -0.237 OA
ATOM     94  O   UNL A   1      46.267  23.509  36.699  1.00  0.00    -0.744 OA
ENDBRANCH  87  91
ENDBRANCH  61  84
ENDBRANCH  35  36
ENDBRANCH  28  30
ENDBRANCH  27  28
ENDBRANCH  26  27
ENDBRANCH   1  26
TORSDOF 21
ENDMDL
