MODEL 1
REMARK VINA RESULT:     -11.4      0.000      0.000
REMARK SMILES CCCCN(c1ccccc1C(=O)OCCOCCOC(=O)c1ccc(-c2c3nc(c(-c4cc(S(=O)(=O)[O-])ccc4F)c4ccc([nH]4)c(-c4cc(S(=O)(=O)[O-])ccc4F)c4nc(c(-c5cc(S(=O)(=O)[O-])ccc5F)c5ccc2[nH]5)C=C4)C=C3)cc1)S(=O)(=O)c1ccc2c(c1)oc(=O)n2C
REMARK SMILES IDX 16 1 15 2 14 3 12 4 13 5 11 6 6 7 7 8 8 9 10 10 9 11 5 12
REMARK SMILES IDX 4 13 3 14 2 15 1 16 86 17 87 18 88 19 89 20 90 21 94 22
REMARK SMILES IDX 91 23 93 24 92 25 95 26 98 27 96 28 99 29 97 30 17 31 18 32
REMARK SMILES IDX 19 33 20 34 21 35 22 36 23 37 24 38 85 39 25 40 84 41 26 42
REMARK SMILES IDX 27 43 28 44 78 45 29 46 83 47 77 48 79 49 30 50 82 51 76 52
REMARK SMILES IDX 75 53 31 55 63 56 43 57 62 58 44 59 47 60 61 61 80 62 45 63
REMARK SMILES IDX 46 64 60 66 81 67 48 68 32 69 33 70 41 71 34 72 40 73 42 74
REMARK SMILES IDX 39 75 35 76 36 77 37 78 38 79 64 80 65 81 73 82 66 83 72 84
REMARK SMILES IDX 74 85 71 86 67 87 68 88 69 89 70 90 49 91 50 92 58 93 51 94
REMARK SMILES IDX 57 95 59 96 56 97 52 98 53 99 54 100 55 101
REMARK H PARENT 79 54 47 65
REMARK Flexibility Score: inf
ROOT
ATOM      1  C   UNL A   1      36.399  22.781  23.870  1.00  0.00     0.202 C 
ENDROOT
BRANCH   1   2
ATOM      2  C   UNL A   1      35.166  23.280  23.115  1.00  0.00     0.261 C 
BRANCH   2   3
ATOM      3  O   UNL A   1      34.766  24.598  23.532  1.00  0.00    -0.460 OA
BRANCH   3   4
ATOM      4  C   UNL A   1      33.833  25.176  22.746  1.00  0.00     0.340 C 
ATOM      5  O   UNL A   1      33.390  24.736  21.695  1.00  0.00    -0.246 OA
BRANCH   4   6
ATOM      6  C   UNL A   1      33.252  26.387  23.357  1.00  0.00     0.084 A 
ATOM      7  C   UNL A   1      32.357  26.424  24.444  1.00  0.00     0.066 A 
ATOM      8  C   UNL A   1      32.286  27.643  25.143  1.00  0.00     0.028 A 
ATOM      9  C   UNL A   1      32.889  28.818  24.677  1.00  0.00     0.002 A 
ATOM     10  C   UNL A   1      33.871  27.572  22.895  1.00  0.00     0.018 A 
ATOM     11  C   UNL A   1      33.655  28.791  23.524  1.00  0.00     0.001 A 
BRANCH   7  12
ATOM     12  N   UNL A   1      31.510  25.343  24.932  1.00  0.00    -0.265 N 
BRANCH  12  13
ATOM     13  C   UNL A   1      30.022  25.484  24.944  1.00  0.00     0.136 C 
BRANCH  13  14
ATOM     14  C   UNL A   1      29.383  26.087  23.690  1.00  0.00     0.022 C 
BRANCH  14  15
ATOM     15  C   UNL A   1      28.380  27.236  23.847  1.00  0.00    -0.002 C 
ATOM     16  C   UNL A   1      28.629  28.436  22.953  1.00  0.00     0.004 C 
ENDBRANCH  14  15
ENDBRANCH  13  14
ENDBRANCH  12  13
BRANCH  12  17
ATOM     17  S   UNL A   1      32.141  24.180  26.037  1.00  0.00     0.264 S 
ATOM     18  O   UNL A   1      33.490  24.571  26.390  1.00  0.00    -0.201 OA
ATOM     19  O   UNL A   1      31.130  23.984  27.058  1.00  0.00    -0.201 OA
BRANCH  17  20
ATOM     20  C   UNL A   1      32.322  22.588  25.247  1.00  0.00     0.091 A 
ATOM     21  C   UNL A   1      31.912  22.439  23.897  1.00  0.00     0.025 A 
ATOM     22  C   UNL A   1      32.699  21.478  26.012  1.00  0.00     0.071 A 
ATOM     23  C   UNL A   1      31.971  21.197  23.263  1.00  0.00     0.032 A 
ATOM     24  C   UNL A   1      32.719  20.260  25.365  1.00  0.00     0.157 A 
ATOM     25  C   UNL A   1      32.386  20.129  24.029  1.00  0.00     0.090 A 
ATOM     26  O   UNL A   1      33.068  19.050  25.948  1.00  0.00    -0.408 OA
ATOM     27  N   UNL A   1      32.558  18.801  23.726  1.00  0.00    -0.277 N 
ATOM     28  C   UNL A   1      32.962  18.154  24.875  1.00  0.00     0.419 A 
ATOM     29  C   UNL A   1      32.431  18.184  22.440  1.00  0.00     0.157 C 
ATOM     30  O   UNL A   1      33.227  16.960  24.970  1.00  0.00    -0.223 OA
ENDBRANCH  17  20
ENDBRANCH  12  17
ENDBRANCH   7  12
ENDBRANCH   4   6
ENDBRANCH   3   4
ENDBRANCH   2   3
ENDBRANCH   1   2
BRANCH   1  31
ATOM     31  O   UNL A   1      36.193  21.996  25.040  1.00  0.00    -0.374 OA
BRANCH  31  32
ATOM     32  C   UNL A   1      36.531  20.614  25.003  1.00  0.00     0.202 C 
BRANCH  32  33
ATOM     33  C   UNL A   1      38.008  20.183  24.983  1.00  0.00     0.261 C 
BRANCH  33  34
ATOM     34  O   UNL A   1      38.653  20.087  26.264  1.00  0.00    -0.460 OA
BRANCH  34  35
ATOM     35  C   UNL A   1      39.967  20.433  26.241  1.00  0.00     0.338 C 
ATOM     36  O   UNL A   1      40.869  19.821  25.690  1.00  0.00    -0.246 OA
BRANCH  35  37
ATOM     37  C   UNL A   1      40.190  21.760  26.844  1.00  0.00     0.060 A 
ATOM     38  C   UNL A   1      39.589  22.866  26.230  1.00  0.00     0.016 A 
ATOM     39  C   UNL A   1      41.113  21.938  27.874  1.00  0.00     0.016 A 
ATOM     40  C   UNL A   1      39.950  24.157  26.606  1.00  0.00     0.010 A 
ATOM     41  C   UNL A   1      41.476  23.238  28.249  1.00  0.00     0.010 A 
ATOM     42  C   UNL A   1      40.928  24.355  27.589  1.00  0.00    -0.014 A 
BRANCH  42  43
ATOM     43  C   UNL A   1      41.470  25.721  27.819  1.00  0.00     0.031 A 
ATOM     44  C   UNL A   1      42.858  26.054  27.344  1.00  0.00     0.074 A 
ATOM     45  C   UNL A   1      40.722  26.665  28.417  1.00  0.00     0.049 A 
ATOM     46  N   UNL A   1      43.531  27.170  27.460  1.00  0.00    -0.248 NA
ATOM     47  C   UNL A   1      43.583  24.985  26.642  1.00  0.00     0.031 C 
ATOM     48  C   UNL A   1      39.345  26.480  28.867  1.00  0.00     0.029 A 
ATOM     49  N   UNL A   1      41.014  27.962  28.762  1.00  0.00    -0.354 N 
ATOM     50  C   UNL A   1      44.762  26.937  26.854  1.00  0.00     0.074 A 
ATOM     51  C   UNL A   1      44.755  25.558  26.414  1.00  0.00     0.031 C 
ATOM     52  C   UNL A   1      38.926  27.601  29.477  1.00  0.00     0.029 A 
ATOM     53  C   UNL A   1      40.010  28.580  29.469  1.00  0.00     0.049 A 
ATOM     54  H   UNL A   1      41.861  28.404  28.527  1.00  0.00     0.167 HD
ATOM     55  C   UNL A   1      45.793  27.800  26.672  1.00  0.00     0.034 A 
ATOM     56  C   UNL A   1      39.972  29.788  30.064  1.00  0.00     0.034 A 
ATOM     57  C   UNL A   1      45.781  29.171  27.130  1.00  0.00     0.049 A 
ATOM     58  C   UNL A   1      41.156  30.709  29.918  1.00  0.00     0.074 A 
ATOM     59  C   UNL A   1      46.750  30.145  26.960  1.00  0.00     0.029 A 
ATOM     60  N   UNL A   1      44.759  29.758  27.869  1.00  0.00    -0.354 N 
ATOM     61  N   UNL A   1      42.299  30.493  29.306  1.00  0.00    -0.248 NA
ATOM     62  C   UNL A   1      41.035  32.043  30.517  1.00  0.00     0.031 C 
ATOM     63  C   UNL A   1      46.358  31.283  27.675  1.00  0.00     0.029 A 
ATOM     64  C   UNL A   1      45.098  31.060  28.205  1.00  0.00     0.049 A 
ATOM     65  H   UNL A   1      43.917  29.312  28.118  1.00  0.00     0.167 HD
ATOM     66  C   UNL A   1      43.020  31.679  29.420  1.00  0.00     0.074 A 
ATOM     67  C   UNL A   1      42.176  32.606  30.146  1.00  0.00     0.031 C 
ATOM     68  C   UNL A   1      44.261  31.975  28.954  1.00  0.00     0.034 A 
BRANCH  55  69
ATOM     69  C   UNL A   1      47.041  27.260  26.007  1.00  0.00     0.023 A 
ATOM     70  C   UNL A   1      48.054  26.607  26.733  1.00  0.00     0.031 A 
ATOM     71  C   UNL A   1      47.242  27.446  24.627  1.00  0.00     0.131 A 
ATOM     72  C   UNL A   1      49.253  26.248  26.097  1.00  0.00     0.055 A 
ATOM     73  C   UNL A   1      48.399  27.001  23.982  1.00  0.00     0.041 A 
ATOM     74  F   UNL A   1      46.325  28.081  23.880  1.00  0.00    -0.206 F 
ATOM     75  C   UNL A   1      49.422  26.416  24.721  1.00  0.00     0.022 A 
BRANCH  72  76
ATOM     76  S   UNL A   1      50.654  25.722  27.123  1.00  0.00     0.124 S 
ATOM     77  O   UNL A   1      50.242  24.377  27.521  1.00  0.00    -0.237 OA
ATOM     78  O   UNL A   1      51.773  25.797  26.190  1.00  0.00    -0.237 OA
ATOM     79  O   UNL A   1      50.676  26.704  28.204  1.00  0.00    -0.744 OA
ENDBRANCH  72  76
ENDBRANCH  55  69
BRANCH  56  80
ATOM     80  C   UNL A   1      38.784  30.178  30.877  1.00  0.00     0.023 A 
ATOM     81  C   UNL A   1      37.754  30.970  30.345  1.00  0.00     0.031 A 
ATOM     82  C   UNL A   1      38.674  29.764  32.217  1.00  0.00     0.131 A 
ATOM     83  C   UNL A   1      36.676  31.350  31.161  1.00  0.00     0.055 A 
ATOM     84  C   UNL A   1      37.576  30.103  33.008  1.00  0.00     0.041 A 
ATOM     85  F   UNL A   1      39.631  29.003  32.773  1.00  0.00    -0.206 F 
ATOM     86  C   UNL A   1      36.572  30.908  32.483  1.00  0.00     0.022 A 
BRANCH  83  87
ATOM     87  S   UNL A   1      35.431  32.484  30.486  1.00  0.00     0.124 S 
ATOM     88  O   UNL A   1      34.975  31.758  29.307  1.00  0.00    -0.237 OA
ATOM     89  O   UNL A   1      34.479  32.581  31.588  1.00  0.00    -0.237 OA
ATOM     90  O   UNL A   1      36.192  33.702  30.215  1.00  0.00    -0.744 OA
ENDBRANCH  83  87
ENDBRANCH  56  80
BRANCH  68  91
ATOM     91  C   UNL A   1      44.765  33.383  29.183  1.00  0.00     0.023 A 
ATOM     92  C   UNL A   1      44.396  34.451  28.346  1.00  0.00     0.031 A 
ATOM     93  C   UNL A   1      45.647  33.653  30.245  1.00  0.00     0.131 A 
ATOM     94  C   UNL A   1      44.959  35.722  28.543  1.00  0.00     0.055 A 
ATOM     95  C   UNL A   1      46.145  34.936  30.482  1.00  0.00     0.041 A 
ATOM     96  F   UNL A   1      46.043  32.673  31.073  1.00  0.00    -0.206 F 
ATOM     97  C   UNL A   1      45.814  35.976  29.619  1.00  0.00     0.022 A 
BRANCH  94  98
ATOM     98  S   UNL A   1      44.658  37.012  27.304  1.00  0.00     0.124 S 
ATOM     99  O   UNL A   1      45.929  37.043  26.586  1.00  0.00    -0.237 OA
ATOM    100  O   UNL A   1      43.521  36.474  26.564  1.00  0.00    -0.237 OA
ATOM    101  O   UNL A   1      44.370  38.199  28.106  1.00  0.00    -0.744 OA
ENDBRANCH  94  98
ENDBRANCH  68  91
ENDBRANCH  42  43
ENDBRANCH  35  37
ENDBRANCH  34  35
ENDBRANCH  33  34
ENDBRANCH  32  33
ENDBRANCH  31  32
ENDBRANCH   1  31
TORSDOF 23
ENDMDL
MODEL 2
REMARK VINA RESULT:     -11.1      1.925      2.222
REMARK SMILES CCCCN(c1ccccc1C(=O)OCCOCCOC(=O)c1ccc(-c2c3nc(c(-c4cc(S(=O)(=O)[O-])ccc4F)c4ccc([nH]4)c(-c4cc(S(=O)(=O)[O-])ccc4F)c4nc(c(-c5cc(S(=O)(=O)[O-])ccc5F)c5ccc2[nH]5)C=C4)C=C3)cc1)S(=O)(=O)c1ccc2c(c1)oc(=O)n2C
REMARK SMILES IDX 16 1 15 2 14 3 12 4 13 5 11 6 6 7 7 8 8 9 10 10 9 11 5 12
REMARK SMILES IDX 4 13 3 14 2 15 1 16 86 17 87 18 88 19 89 20 90 21 94 22
REMARK SMILES IDX 91 23 93 24 92 25 95 26 98 27 96 28 99 29 97 30 17 31 18 32
REMARK SMILES IDX 19 33 20 34 21 35 22 36 23 37 24 38 85 39 25 40 84 41 26 42
REMARK SMILES IDX 27 43 28 44 78 45 29 46 83 47 77 48 79 49 30 50 82 51 76 52
REMARK SMILES IDX 75 53 31 55 63 56 43 57 62 58 44 59 47 60 61 61 80 62 45 63
REMARK SMILES IDX 46 64 60 66 81 67 48 68 32 69 33 70 41 71 34 72 40 73 42 74
REMARK SMILES IDX 39 75 35 76 36 77 37 78 38 79 64 80 65 81 73 82 66 83 72 84
REMARK SMILES IDX 74 85 71 86 67 87 68 88 69 89 70 90 49 91 50 92 58 93 51 94
REMARK SMILES IDX 57 95 59 96 56 97 52 98 53 99 54 100 55 101
REMARK H PARENT 79 54 47 65
REMARK Flexibility Score: inf
ROOT
ATOM      1  C   UNL A   1      36.461  22.886  23.688  1.00  0.00     0.202 C 
ENDROOT
BRANCH   1   2
ATOM      2  C   UNL A   1      35.042  23.114  23.161  1.00  0.00     0.261 C 
BRANCH   2   3
ATOM      3  O   UNL A   1      34.859  24.445  22.647  1.00  0.00    -0.460 OA
BRANCH   3   4
ATOM      4  C   UNL A   1      33.571  24.844  22.569  1.00  0.00     0.340 C 
ATOM      5  O   UNL A   1      32.680  24.310  21.924  1.00  0.00    -0.246 OA
BRANCH   4   6
ATOM      6  C   UNL A   1      33.270  25.961  23.485  1.00  0.00     0.084 A 
ATOM      7  C   UNL A   1      32.662  25.858  24.751  1.00  0.00     0.066 A 
ATOM      8  C   UNL A   1      32.875  26.939  25.627  1.00  0.00     0.028 A 
ATOM      9  C   UNL A   1      33.463  28.141  25.214  1.00  0.00     0.002 A 
ATOM     10  C   UNL A   1      33.874  27.171  23.073  1.00  0.00     0.018 A 
ATOM     11  C   UNL A   1      33.931  28.272  23.918  1.00  0.00     0.001 A 
BRANCH   7  12
ATOM     12  N   UNL A   1      31.852  24.759  25.259  1.00  0.00    -0.265 N 
BRANCH  12  13
ATOM     13  C   UNL A   1      30.359  24.837  25.244  1.00  0.00     0.136 C 
BRANCH  13  14
ATOM     14  C   UNL A   1      29.722  25.481  24.010  1.00  0.00     0.022 C 
BRANCH  14  15
ATOM     15  C   UNL A   1      29.457  26.990  24.012  1.00  0.00    -0.002 C 
ATOM     16  C   UNL A   1      28.073  27.404  23.548  1.00  0.00     0.004 C 
ENDBRANCH  14  15
ENDBRANCH  13  14
ENDBRANCH  12  13
BRANCH  12  17
ATOM     17  S   UNL A   1      32.512  23.658  26.411  1.00  0.00     0.264 S 
ATOM     18  O   UNL A   1      33.884  24.038  26.671  1.00  0.00    -0.201 OA
ATOM     19  O   UNL A   1      31.548  23.555  27.489  1.00  0.00    -0.201 OA
BRANCH  17  20
ATOM     20  C   UNL A   1      32.620  22.011  25.724  1.00  0.00     0.091 A 
ATOM     21  C   UNL A   1      33.324  21.012  26.443  1.00  0.00     0.025 A 
ATOM     22  C   UNL A   1      32.164  21.776  24.423  1.00  0.00     0.071 A 
ATOM     23  C   UNL A   1      33.492  19.731  25.912  1.00  0.00     0.032 A 
ATOM     24  C   UNL A   1      32.370  20.510  23.915  1.00  0.00     0.157 A 
ATOM     25  C   UNL A   1      32.996  19.516  24.645  1.00  0.00     0.090 A 
ATOM     26  O   UNL A   1      31.988  20.083  22.651  1.00  0.00    -0.408 OA
ATOM     27  N   UNL A   1      32.987  18.399  23.846  1.00  0.00    -0.277 N 
ATOM     28  C   UNL A   1      32.388  18.739  22.651  1.00  0.00     0.419 A 
ATOM     29  C   UNL A   1      33.436  17.084  24.193  1.00  0.00     0.157 C 
ATOM     30  O   UNL A   1      32.193  17.981  21.706  1.00  0.00    -0.223 OA
ENDBRANCH  17  20
ENDBRANCH  12  17
ENDBRANCH   7  12
ENDBRANCH   4   6
ENDBRANCH   3   4
ENDBRANCH   2   3
ENDBRANCH   1   2
BRANCH   1  31
ATOM     31  O   UNL A   1      36.616  22.122  24.879  1.00  0.00    -0.374 OA
BRANCH  31  32
ATOM     32  C   UNL A   1      37.047  20.770  24.771  1.00  0.00     0.202 C 
BRANCH  32  33
ATOM     33  C   UNL A   1      38.497  20.394  25.123  1.00  0.00     0.261 C 
BRANCH  33  34
ATOM     34  O   UNL A   1      38.929  20.726  26.453  1.00  0.00    -0.460 OA
BRANCH  34  35
ATOM     35  C   UNL A   1      40.243  21.064  26.532  1.00  0.00     0.338 C 
ATOM     36  O   UNL A   1      41.181  20.451  26.048  1.00  0.00    -0.246 OA
BRANCH  35  37
ATOM     37  C   UNL A   1      40.426  22.387  27.157  1.00  0.00     0.060 A 
ATOM     38  C   UNL A   1      39.734  23.472  26.604  1.00  0.00     0.016 A 
ATOM     39  C   UNL A   1      41.392  22.592  28.141  1.00  0.00     0.016 A 
ATOM     40  C   UNL A   1      40.045  24.773  26.995  1.00  0.00     0.010 A 
ATOM     41  C   UNL A   1      41.704  23.901  28.531  1.00  0.00     0.010 A 
ATOM     42  C   UNL A   1      41.062  25.001  27.930  1.00  0.00    -0.014 A 
BRANCH  42  43
ATOM     43  C   UNL A   1      41.541  26.389  28.167  1.00  0.00     0.031 A 
ATOM     44  C   UNL A   1      42.939  26.768  27.759  1.00  0.00     0.074 A 
ATOM     45  C   UNL A   1      40.729  27.312  28.712  1.00  0.00     0.049 A 
ATOM     46  N   UNL A   1      43.563  27.909  27.893  1.00  0.00    -0.248 NA
ATOM     47  C   UNL A   1      43.738  25.717  27.111  1.00  0.00     0.031 C 
ATOM     48  C   UNL A   1      39.339  27.082  29.094  1.00  0.00     0.029 A 
ATOM     49  N   UNL A   1      40.956  28.623  29.053  1.00  0.00    -0.354 N 
ATOM     50  C   UNL A   1      44.832  27.715  27.354  1.00  0.00     0.074 A 
ATOM     51  C   UNL A   1      44.898  26.331  26.934  1.00  0.00     0.031 C 
ATOM     52  C   UNL A   1      38.848  28.194  29.665  1.00  0.00     0.029 A 
ATOM     53  C   UNL A   1      39.894  29.213  29.698  1.00  0.00     0.049 A 
ATOM     54  H   UNL A   1      41.797  29.094  28.855  1.00  0.00     0.167 HD
ATOM     55  C   UNL A   1      45.839  28.613  27.212  1.00  0.00     0.034 A 
ATOM     56  C   UNL A   1      39.781  30.426  30.273  1.00  0.00     0.034 A 
ATOM     57  C   UNL A   1      45.753  29.988  27.649  1.00  0.00     0.049 A 
ATOM     58  C   UNL A   1      40.937  31.388  30.174  1.00  0.00     0.074 A 
ATOM     59  C   UNL A   1      46.693  30.995  27.515  1.00  0.00     0.029 A 
ATOM     60  N   UNL A   1      44.673  30.546  28.326  1.00  0.00    -0.354 N 
ATOM     61  N   UNL A   1      42.117  31.208  29.624  1.00  0.00    -0.248 NA
ATOM     62  C   UNL A   1      40.736  32.724  30.746  1.00  0.00     0.031 C 
ATOM     63  C   UNL A   1      46.224  32.127  28.192  1.00  0.00     0.029 A 
ATOM     64  C   UNL A   1      44.946  31.865  28.660  1.00  0.00     0.049 A 
ATOM     65  H   UNL A   1      43.836  30.072  28.538  1.00  0.00     0.167 HD
ATOM     66  C   UNL A   1      42.788  32.420  29.757  1.00  0.00     0.074 A 
ATOM     67  C   UNL A   1      41.873  33.325  30.426  1.00  0.00     0.031 C 
ATOM     68  C   UNL A   1      44.039  32.757  29.351  1.00  0.00     0.034 A 
BRANCH  55  69
ATOM     69  C   UNL A   1      47.138  28.112  26.620  1.00  0.00     0.023 A 
ATOM     70  C   UNL A   1      47.370  28.090  25.233  1.00  0.00     0.031 A 
ATOM     71  C   UNL A   1      48.146  27.602  27.459  1.00  0.00     0.131 A 
ATOM     72  C   UNL A   1      48.534  27.489  24.725  1.00  0.00     0.055 A 
ATOM     73  C   UNL A   1      49.342  27.090  26.951  1.00  0.00     0.041 A 
ATOM     74  F   UNL A   1      47.979  27.574  28.792  1.00  0.00    -0.206 F 
ATOM     75  C   UNL A   1      49.533  27.013  25.576  1.00  0.00     0.022 A 
BRANCH  72  76
ATOM     76  S   UNL A   1      48.641  27.178  22.941  1.00  0.00     0.124 S 
ATOM     77  O   UNL A   1      47.639  28.105  22.417  1.00  0.00    -0.237 OA
ATOM     78  O   UNL A   1      50.031  27.505  22.647  1.00  0.00    -0.237 OA
ATOM     79  O   UNL A   1      48.292  25.764  22.818  1.00  0.00    -0.744 OA
ENDBRANCH  72  76
ENDBRANCH  55  69
BRANCH  56  80
ATOM     80  C   UNL A   1      38.539  30.782  31.018  1.00  0.00     0.023 A 
ATOM     81  C   UNL A   1      37.481  31.468  30.403  1.00  0.00     0.031 A 
ATOM     82  C   UNL A   1      38.405  30.442  32.377  1.00  0.00     0.131 A 
ATOM     83  C   UNL A   1      36.349  31.822  31.155  1.00  0.00     0.055 A 
ATOM     84  C   UNL A   1      37.257  30.751  33.106  1.00  0.00     0.041 A 
ATOM     85  F   UNL A   1      39.388  29.782  33.012  1.00  0.00    -0.206 F 
ATOM     86  C   UNL A   1      36.223  31.454  32.498  1.00  0.00     0.022 A 
BRANCH  83  87
ATOM     87  S   UNL A   1      35.059  32.826  30.368  1.00  0.00     0.124 S 
ATOM     88  O   UNL A   1      34.573  31.925  29.330  1.00  0.00    -0.237 OA
ATOM     89  O   UNL A   1      34.148  33.075  31.481  1.00  0.00    -0.237 OA
ATOM     90  O   UNL A   1      35.787  33.999  29.888  1.00  0.00    -0.744 OA
ENDBRANCH  83  87
ENDBRANCH  56  80
BRANCH  68  91
ATOM     91  C   UNL A   1      44.478  34.186  29.585  1.00  0.00     0.023 A 
ATOM     92  C   UNL A   1      45.096  34.589  30.781  1.00  0.00     0.031 A 
ATOM     93  C   UNL A   1      44.253  35.164  28.599  1.00  0.00     0.131 A 
ATOM     94  C   UNL A   1      45.404  35.942  30.989  1.00  0.00     0.055 A 
ATOM     95  C   UNL A   1      44.630  36.495  28.781  1.00  0.00     0.041 A 
ATOM     96  F   UNL A   1      43.660  34.842  27.438  1.00  0.00    -0.206 F 
ATOM     97  C   UNL A   1      45.195  36.895  29.988  1.00  0.00     0.022 A 
BRANCH  94  98
ATOM     98  S   UNL A   1      45.968  36.467  32.632  1.00  0.00     0.124 S 
ATOM     99  O   UNL A   1      47.381  36.102  32.597  1.00  0.00    -0.237 OA
ATOM    100  O   UNL A   1      45.678  37.896  32.620  1.00  0.00    -0.237 OA
ATOM    101  O   UNL A   1      45.147  35.676  33.546  1.00  0.00    -0.744 OA
ENDBRANCH  94  98
ENDBRANCH  68  91
ENDBRANCH  42  43
ENDBRANCH  35  37
ENDBRANCH  34  35
ENDBRANCH  33  34
ENDBRANCH  32  33
ENDBRANCH  31  32
ENDBRANCH   1  31
TORSDOF 23
ENDMDL
MODEL 3
REMARK VINA RESULT:     -10.7      0.964      7.428
REMARK SMILES CCCCN(c1ccccc1C(=O)OCCOCCOC(=O)c1ccc(-c2c3nc(c(-c4cc(S(=O)(=O)[O-])ccc4F)c4ccc([nH]4)c(-c4cc(S(=O)(=O)[O-])ccc4F)c4nc(c(-c5cc(S(=O)(=O)[O-])ccc5F)c5ccc2[nH]5)C=C4)C=C3)cc1)S(=O)(=O)c1ccc2c(c1)oc(=O)n2C
REMARK SMILES IDX 16 1 15 2 14 3 12 4 13 5 11 6 6 7 7 8 8 9 10 10 9 11 5 12
REMARK SMILES IDX 4 13 3 14 2 15 1 16 86 17 87 18 88 19 89 20 90 21 94 22
REMARK SMILES IDX 91 23 93 24 92 25 95 26 98 27 96 28 99 29 97 30 17 31 18 32
REMARK SMILES IDX 19 33 20 34 21 35 22 36 23 37 24 38 85 39 25 40 84 41 26 42
REMARK SMILES IDX 27 43 28 44 78 45 29 46 83 47 77 48 79 49 30 50 82 51 76 52
REMARK SMILES IDX 75 53 31 55 63 56 43 57 62 58 44 59 47 60 61 61 80 62 45 63
REMARK SMILES IDX 46 64 60 66 81 67 48 68 32 69 33 70 41 71 34 72 40 73 42 74
REMARK SMILES IDX 39 75 35 76 36 77 37 78 38 79 64 80 65 81 73 82 66 83 72 84
REMARK SMILES IDX 74 85 71 86 67 87 68 88 69 89 70 90 49 91 50 92 58 93 51 94
REMARK SMILES IDX 57 95 59 96 56 97 52 98 53 99 54 100 55 101
REMARK H PARENT 79 54 47 65
REMARK Flexibility Score: inf
ROOT
ATOM      1  C   UNL A   1      36.381  22.854  24.260  1.00  0.00     0.202 C 
ENDROOT
BRANCH   1   2
ATOM      2  C   UNL A   1      35.043  23.151  24.941  1.00  0.00     0.261 C 
BRANCH   2   3
ATOM      3  O   UNL A   1      34.940  24.520  25.369  1.00  0.00    -0.460 OA
BRANCH   3   4
ATOM      4  C   UNL A   1      34.226  25.314  24.542  1.00  0.00     0.340 C 
ATOM      5  O   UNL A   1      34.055  25.152  23.343  1.00  0.00    -0.246 OA
BRANCH   4   6
ATOM      6  C   UNL A   1      33.511  26.383  25.266  1.00  0.00     0.084 A 
ATOM      7  C   UNL A   1      32.245  26.273  25.875  1.00  0.00     0.066 A 
ATOM      8  C   UNL A   1      31.955  27.226  26.869  1.00  0.00     0.028 A 
ATOM      9  C   UNL A   1      32.762  28.347  27.100  1.00  0.00     0.002 A 
ATOM     10  C   UNL A   1      34.330  27.509  25.509  1.00  0.00     0.018 A 
ATOM     11  C   UNL A   1      33.938  28.510  26.388  1.00  0.00     0.001 A 
BRANCH   7  12
ATOM     12  N   UNL A   1      31.214  25.281  25.604  1.00  0.00    -0.265 N 
BRANCH  12  13
ATOM     13  C   UNL A   1      29.907  25.682  24.998  1.00  0.00     0.136 C 
BRANCH  13  14
ATOM     14  C   UNL A   1      29.858  27.059  24.330  1.00  0.00     0.022 C 
BRANCH  14  15
ATOM     15  C   UNL A   1      30.452  27.225  22.928  1.00  0.00    -0.002 C 
ATOM     16  C   UNL A   1      30.776  28.653  22.529  1.00  0.00     0.004 C 
ENDBRANCH  14  15
ENDBRANCH  13  14
ENDBRANCH  12  13
BRANCH  12  17
ATOM     17  S   UNL A   1      31.184  23.799  26.484  1.00  0.00     0.264 S 
ATOM     18  O   UNL A   1      32.226  23.844  27.488  1.00  0.00    -0.201 OA
ATOM     19  O   UNL A   1      29.802  23.561  26.854  1.00  0.00    -0.201 OA
BRANCH  17  20
ATOM     20  C   UNL A   1      31.628  22.426  25.431  1.00  0.00     0.091 A 
ATOM     21  C   UNL A   1      31.501  22.569  24.025  1.00  0.00     0.025 A 
ATOM     22  C   UNL A   1      31.926  21.185  26.004  1.00  0.00     0.071 A 
ATOM     23  C   UNL A   1      31.770  21.499  23.169  1.00  0.00     0.032 A 
ATOM     24  C   UNL A   1      32.158  20.141  25.134  1.00  0.00     0.157 A 
ATOM     25  C   UNL A   1      32.102  20.300  23.761  1.00  0.00     0.090 A 
ATOM     26  O   UNL A   1      32.471  18.842  25.507  1.00  0.00    -0.408 OA
ATOM     27  N   UNL A   1      32.424  19.076  23.226  1.00  0.00    -0.277 N 
ATOM     28  C   UNL A   1      32.641  18.203  24.271  1.00  0.00     0.419 A 
ATOM     29  C   UNL A   1      32.594  18.756  21.841  1.00  0.00     0.157 C 
ATOM     30  O   UNL A   1      32.966  17.025  24.164  1.00  0.00    -0.223 OA
ENDBRANCH  17  20
ENDBRANCH  12  17
ENDBRANCH   7  12
ENDBRANCH   4   6
ENDBRANCH   3   4
ENDBRANCH   2   3
ENDBRANCH   1   2
BRANCH   1  31
ATOM     31  O   UNL A   1      37.279  21.963  24.913  1.00  0.00    -0.374 OA
BRANCH  31  32
ATOM     32  C   UNL A   1      37.142  20.565  24.681  1.00  0.00     0.202 C 
BRANCH  32  33
ATOM     33  C   UNL A   1      38.290  19.608  25.046  1.00  0.00     0.261 C 
BRANCH  33  34
ATOM     34  O   UNL A   1      38.856  19.774  26.357  1.00  0.00    -0.460 OA
BRANCH  34  35
ATOM     35  C   UNL A   1      40.180  20.078  26.345  1.00  0.00     0.338 C 
ATOM     36  O   UNL A   1      41.071  19.426  25.824  1.00  0.00    -0.246 OA
BRANCH  35  37
ATOM     37  C   UNL A   1      40.435  21.412  26.919  1.00  0.00     0.060 A 
ATOM     38  C   UNL A   1      39.958  22.527  26.218  1.00  0.00     0.016 A 
ATOM     39  C   UNL A   1      41.279  21.576  28.017  1.00  0.00     0.016 A 
ATOM     40  C   UNL A   1      40.367  23.809  26.579  1.00  0.00     0.010 A 
ATOM     41  C   UNL A   1      41.690  22.866  28.377  1.00  0.00     0.010 A 
ATOM     42  C   UNL A   1      41.271  23.986  27.635  1.00  0.00    -0.014 A 
BRANCH  42  43
ATOM     43  C   UNL A   1      41.877  25.326  27.863  1.00  0.00     0.031 A 
ATOM     44  C   UNL A   1      41.053  26.408  28.506  1.00  0.00     0.074 A 
ATOM     45  C   UNL A   1      43.157  25.566  27.529  1.00  0.00     0.049 A 
ATOM     46  N   UNL A   1      41.375  27.647  28.775  1.00  0.00    -0.248 NA
ATOM     47  C   UNL A   1      39.685  26.042  28.899  1.00  0.00     0.031 C 
ATOM     48  C   UNL A   1      44.070  24.583  26.954  1.00  0.00     0.029 A 
ATOM     49  N   UNL A   1      43.909  26.712  27.610  1.00  0.00    -0.354 N 
ATOM     50  C   UNL A   1      40.247  28.214  29.363  1.00  0.00     0.074 A 
ATOM     51  C   UNL A   1      39.221  27.191  29.366  1.00  0.00     0.031 C 
ATOM     52  C   UNL A   1      45.244  25.176  26.685  1.00  0.00     0.029 A 
ATOM     53  C   UNL A   1      45.162  26.586  27.058  1.00  0.00     0.049 A 
ATOM     54  H   UNL A   1      43.582  27.544  28.022  1.00  0.00     0.167 HD
ATOM     55  C   UNL A   1      40.090  29.465  29.864  1.00  0.00     0.034 A 
ATOM     56  C   UNL A   1      46.127  27.503  26.853  1.00  0.00     0.034 A 
ATOM     57  C   UNL A   1      41.127  30.472  29.839  1.00  0.00     0.049 A 
ATOM     58  C   UNL A   1      45.909  28.910  27.346  1.00  0.00     0.074 A 
ATOM     59  C   UNL A   1      41.093  31.756  30.358  1.00  0.00     0.029 A 
ATOM     60  N   UNL A   1      42.376  30.320  29.246  1.00  0.00    -0.354 N 
ATOM     61  N   UNL A   1      44.855  29.424  27.939  1.00  0.00    -0.248 NA
ATOM     62  C   UNL A   1      47.021  29.852  27.170  1.00  0.00     0.031 C 
ATOM     63  C   UNL A   1      42.278  32.407  29.995  1.00  0.00     0.029 A 
ATOM     64  C   UNL A   1      43.098  31.501  29.340  1.00  0.00     0.049 A 
ATOM     65  H   UNL A   1      42.700  29.494  28.820  1.00  0.00     0.167 HD
ATOM     66  C   UNL A   1      45.190  30.743  28.235  1.00  0.00     0.074 A 
ATOM     67  C   UNL A   1      46.548  30.937  27.768  1.00  0.00     0.031 C 
ATOM     68  C   UNL A   1      44.446  31.698  28.849  1.00  0.00     0.034 A 
BRANCH  55  69
ATOM     69  C   UNL A   1      38.729  29.827  30.415  1.00  0.00     0.023 A 
ATOM     70  C   UNL A   1      37.773  30.524  29.654  1.00  0.00     0.031 A 
ATOM     71  C   UNL A   1      38.399  29.510  31.746  1.00  0.00     0.131 A 
ATOM     72  C   UNL A   1      36.579  30.958  30.252  1.00  0.00     0.055 A 
ATOM     73  C   UNL A   1      37.170  29.863  32.307  1.00  0.00     0.041 A 
ATOM     74  F   UNL A   1      39.275  28.864  32.533  1.00  0.00    -0.206 F 
ATOM     75  C   UNL A   1      36.260  30.610  31.566  1.00  0.00     0.022 A 
BRANCH  72  76
ATOM     76  S   UNL A   1      35.534  32.133  29.348  1.00  0.00     0.124 S 
ATOM     77  O   UNL A   1      36.456  33.247  29.132  1.00  0.00    -0.237 OA
ATOM     78  O   UNL A   1      35.160  31.374  28.160  1.00  0.00    -0.237 OA
ATOM     79  O   UNL A   1      34.444  32.411  30.281  1.00  0.00    -0.744 OA
ENDBRANCH  72  76
ENDBRANCH  55  69
BRANCH  56  80
ATOM     80  C   UNL A   1      47.369  27.123  26.119  1.00  0.00     0.023 A 
ATOM     81  C   UNL A   1      48.423  26.449  26.754  1.00  0.00     0.031 A 
ATOM     82  C   UNL A   1      47.516  27.448  24.758  1.00  0.00     0.131 A 
ATOM     83  C   UNL A   1      49.592  26.151  26.034  1.00  0.00     0.055 A 
ATOM     84  C   UNL A   1      48.658  27.105  24.035  1.00  0.00     0.041 A 
ATOM     85  F   UNL A   1      46.535  28.091  24.103  1.00  0.00    -0.206 F 
ATOM     86  C   UNL A   1      49.710  26.459  24.676  1.00  0.00     0.022 A 
BRANCH  83  87
ATOM     87  S   UNL A   1      50.990  25.401  26.916  1.00  0.00     0.124 S 
ATOM     88  O   UNL A   1      51.522  26.542  27.652  1.00  0.00    -0.237 OA
ATOM     89  O   UNL A   1      50.329  24.373  27.713  1.00  0.00    -0.237 OA
ATOM     90  O   UNL A   1      51.842  24.900  25.839  1.00  0.00    -0.744 OA
ENDBRANCH  83  87
ENDBRANCH  56  80
BRANCH  68  91
ATOM     91  C   UNL A   1      45.107  33.038  29.088  1.00  0.00     0.023 A 
ATOM     92  C   UNL A   1      45.190  34.018  28.084  1.00  0.00     0.031 A 
ATOM     93  C   UNL A   1      45.685  33.327  30.338  1.00  0.00     0.131 A 
ATOM     94  C   UNL A   1      45.891  35.210  28.323  1.00  0.00     0.055 A 
ATOM     95  C   UNL A   1      46.316  34.545  30.595  1.00  0.00     0.041 A 
ATOM     96  F   UNL A   1      45.646  32.429  31.335  1.00  0.00    -0.206 F 
ATOM     97  C   UNL A   1      46.436  35.489  29.579  1.00  0.00     0.022 A 
BRANCH  94  98
ATOM     98  S   UNL A   1      46.191  36.340  26.936  1.00  0.00     0.124 S 
ATOM     99  O   UNL A   1      45.146  37.340  27.130  1.00  0.00    -0.237 OA
ATOM    100  O   UNL A   1      47.557  36.788  27.189  1.00  0.00    -0.237 OA
ATOM    101  O   UNL A   1      46.026  35.490  25.759  1.00  0.00    -0.744 OA
ENDBRANCH  94  98
ENDBRANCH  68  91
ENDBRANCH  42  43
ENDBRANCH  35  37
ENDBRANCH  34  35
ENDBRANCH  33  34
ENDBRANCH  32  33
ENDBRANCH  31  32
ENDBRANCH   1  31
TORSDOF 23
ENDMDL
