MODEL 1
REMARK VINA RESULT:     -11.1      0.000      0.000
REMARK SMILES Cc1cccc2nc([C@@H]3CCCC[C@@H]3C(=O)OCCOCCOC(=O)c3ccc(-c4c5nc(c(-c6cc(S(=O)(=O)[O-])ccc6F)c6ccc([nH]6)c(-c6cc(S(=O)(=O)[O-])ccc6F)c6nc(c(-c7cc(S(=O)(=O)[O-])ccc7F)c7ccc4[nH]7)C=C6)C=C5)cc3)oc12
REMARK SMILES IDX 21 1 20 2 19 3 18 4 17 5 15 6 16 7 14 8 9 9 10 10 11 11
REMARK SMILES IDX 13 12 12 13 8 14 1 15 2 16 3 17 90 18 4 19 6 20 89 21 5 22
REMARK SMILES IDX 7 23 22 24 23 25 24 26 25 27 26 28 27 29 88 30 28 31 87 32
REMARK SMILES IDX 29 33 30 34 31 35 81 36 32 37 86 38 80 39 82 40 33 41 85 42
REMARK SMILES IDX 79 43 78 44 34 46 66 47 46 48 65 49 47 50 50 51 64 52 83 53
REMARK SMILES IDX 48 54 49 55 63 57 84 58 51 59 35 60 36 61 44 62 37 63 43 64
REMARK SMILES IDX 45 65 42 66 38 67 39 68 40 69 41 70 67 71 68 72 76 73 69 74
REMARK SMILES IDX 75 75 77 76 74 77 70 78 71 79 72 80 73 81 52 82 53 83 61 84
REMARK SMILES IDX 54 85 60 86 62 87 59 88 55 89 56 90 57 91 58 92
REMARK H PARENT 82 45 50 56
REMARK Flexibility Score: inf
ROOT
ATOM      1  C   UNL A   1      33.178  29.523  26.136  1.00  0.00     0.202 C 
ENDROOT
BRANCH   1   2
ATOM      2  O   UNL A   1      32.921  29.100  24.801  1.00  0.00    -0.374 OA
BRANCH   2   3
ATOM      3  C   UNL A   1      33.932  28.504  23.990  1.00  0.00     0.202 C 
BRANCH   3   4
ATOM      4  C   UNL A   1      33.939  26.998  23.722  1.00  0.00     0.261 C 
BRANCH   4   5
ATOM      5  O   UNL A   1      32.633  26.420  23.749  1.00  0.00    -0.463 OA
BRANCH   5   6
ATOM      6  C   UNL A   1      32.585  25.177  24.303  1.00  0.00     0.309 C 
ATOM      7  O   UNL A   1      32.448  24.145  23.665  1.00  0.00    -0.252 OA
BRANCH   6   8
ATOM      8  C   UNL A   1      32.675  25.275  25.826  1.00  0.00     0.111 C 
ATOM      9  C   UNL A   1      32.658  23.896  26.518  1.00  0.00     0.090 C 
ATOM     10  C   UNL A   1      31.342  23.147  26.250  1.00  0.00     0.014 C 
ATOM     11  C   UNL A   1      30.096  24.012  26.501  1.00  0.00     0.001 C 
ATOM     12  C   UNL A   1      31.505  26.118  26.333  1.00  0.00     0.016 C 
ATOM     13  C   UNL A   1      30.177  25.453  25.989  1.00  0.00     0.001 C 
BRANCH   9  14
ATOM     14  C   UNL A   1      33.875  23.083  26.177  1.00  0.00     0.199 A 
ATOM     15  C   UNL A   1      38.174  24.077  26.156  1.00  0.00     0.048 C 
ATOM     16  C   UNL A   1      37.387  22.869  25.760  1.00  0.00    -0.006 A 
ATOM     17  C   UNL A   1      38.040  21.711  25.286  1.00  0.00     0.007 A 
ATOM     18  C   UNL A   1      35.996  22.761  25.855  1.00  0.00     0.157 A 
ATOM     19  C   UNL A   1      37.337  20.561  24.909  1.00  0.00     0.003 A 
ATOM     20  C   UNL A   1      35.270  21.637  25.493  1.00  0.00     0.110 A 
ATOM     21  O   UNL A   1      35.100  23.701  26.298  1.00  0.00    -0.440 OA
ATOM     22  C   UNL A   1      35.941  20.511  25.001  1.00  0.00     0.032 A 
ATOM     23  N   UNL A   1      33.935  21.859  25.694  1.00  0.00    -0.213 NA
ENDBRANCH   9  14
ENDBRANCH   6   8
ENDBRANCH   5   6
ENDBRANCH   4   5
ENDBRANCH   3   4
ENDBRANCH   2   3
ENDBRANCH   1   2
BRANCH   1  24
ATOM     24  C   UNL A   1      34.338  28.939  26.941  1.00  0.00     0.261 C 
BRANCH  24  25
ATOM     25  O   UNL A   1      35.485  29.771  26.968  1.00  0.00    -0.460 OA
BRANCH  25  26
ATOM     26  C   UNL A   1      35.334  30.786  27.847  1.00  0.00     0.338 C 
ATOM     27  O   UNL A   1      34.573  31.734  27.747  1.00  0.00    -0.246 OA
BRANCH  26  28
ATOM     28  C   UNL A   1      36.306  30.666  28.935  1.00  0.00     0.060 A 
ATOM     29  C   UNL A   1      37.451  31.442  28.752  1.00  0.00     0.016 A 
ATOM     30  C   UNL A   1      36.296  29.491  29.697  1.00  0.00     0.016 A 
ATOM     31  C   UNL A   1      38.654  30.850  29.027  1.00  0.00     0.010 A 
ATOM     32  C   UNL A   1      37.504  28.901  29.970  1.00  0.00     0.010 A 
ATOM     33  C   UNL A   1      38.654  29.540  29.521  1.00  0.00    -0.014 A 
BRANCH  33  34
ATOM     34  C   UNL A   1      39.938  28.891  29.611  1.00  0.00     0.031 A 
ATOM     35  C   UNL A   1      40.473  28.933  30.982  1.00  0.00     0.074 A 
ATOM     36  C   UNL A   1      40.544  28.313  28.561  1.00  0.00     0.049 A 
ATOM     37  N   UNL A   1      41.391  29.716  31.441  1.00  0.00    -0.248 NA
ATOM     38  C   UNL A   1      39.718  28.202  32.011  1.00  0.00     0.031 C 
ATOM     39  C   UNL A   1      39.987  27.964  27.252  1.00  0.00     0.029 A 
ATOM     40  N   UNL A   1      41.808  27.828  28.494  1.00  0.00    -0.354 N 
ATOM     41  C   UNL A   1      41.480  29.408  32.792  1.00  0.00     0.074 A 
ATOM     42  C   UNL A   1      40.288  28.668  33.119  1.00  0.00     0.031 C 
ATOM     43  C   UNL A   1      40.834  27.109  26.628  1.00  0.00     0.029 A 
ATOM     44  C   UNL A   1      42.042  26.976  27.428  1.00  0.00     0.049 A 
ATOM     45  H   UNL A   1      42.503  28.061  29.150  1.00  0.00     0.167 HD
ATOM     46  C   UNL A   1      42.650  29.541  33.474  1.00  0.00     0.034 A 
ATOM     47  C   UNL A   1      43.109  26.148  27.302  1.00  0.00     0.034 A 
ATOM     48  C   UNL A   1      43.597  30.341  32.747  1.00  0.00     0.049 A 
ATOM     49  C   UNL A   1      44.168  26.636  28.226  1.00  0.00     0.074 A 
ATOM     50  C   UNL A   1      43.634  31.653  32.326  1.00  0.00     0.029 A 
ATOM     51  N   UNL A   1      44.537  29.669  32.003  1.00  0.00    -0.354 N 
ATOM     52  N   UNL A   1      44.815  27.756  28.066  1.00  0.00    -0.248 NA
ATOM     53  C   UNL A   1      44.178  26.100  29.582  1.00  0.00     0.031 C 
ATOM     54  C   UNL A   1      44.278  31.618  31.057  1.00  0.00     0.029 A 
ATOM     55  C   UNL A   1      44.650  30.298  30.791  1.00  0.00     0.049 A 
ATOM     56  H   UNL A   1      45.043  28.874  32.291  1.00  0.00     0.167 HD
ATOM     57  C   UNL A   1      44.928  28.283  29.344  1.00  0.00     0.074 A 
ATOM     58  C   UNL A   1      44.603  27.179  30.244  1.00  0.00     0.031 C 
ATOM     59  C   UNL A   1      44.986  29.631  29.550  1.00  0.00     0.034 A 
BRANCH  46  60
ATOM     60  C   UNL A   1      43.046  28.618  34.595  1.00  0.00     0.023 A 
ATOM     61  C   UNL A   1      43.229  27.235  34.404  1.00  0.00     0.031 A 
ATOM     62  C   UNL A   1      43.476  29.134  35.829  1.00  0.00     0.131 A 
ATOM     63  C   UNL A   1      43.770  26.417  35.397  1.00  0.00     0.055 A 
ATOM     64  C   UNL A   1      44.087  28.328  36.799  1.00  0.00     0.041 A 
ATOM     65  F   UNL A   1      43.371  30.443  36.103  1.00  0.00    -0.206 F 
ATOM     66  C   UNL A   1      44.233  26.961  36.588  1.00  0.00     0.022 A 
BRANCH  63  67
ATOM     67  S   UNL A   1      43.900  24.628  35.126  1.00  0.00     0.124 S 
ATOM     68  O   UNL A   1      43.894  24.544  33.671  1.00  0.00    -0.237 OA
ATOM     69  O   UNL A   1      45.172  24.325  35.777  1.00  0.00    -0.237 OA
ATOM     70  O   UNL A   1      42.720  24.093  35.800  1.00  0.00    -0.744 OA
ENDBRANCH  63  67
ENDBRANCH  46  60
BRANCH  47  71
ATOM     71  C   UNL A   1      43.060  24.733  26.860  1.00  0.00     0.023 A 
ATOM     72  C   UNL A   1      44.021  24.245  25.954  1.00  0.00     0.031 A 
ATOM     73  C   UNL A   1      41.912  23.948  27.065  1.00  0.00     0.131 A 
ATOM     74  C   UNL A   1      43.801  23.055  25.249  1.00  0.00     0.055 A 
ATOM     75  C   UNL A   1      41.699  22.752  26.369  1.00  0.00     0.041 A 
ATOM     76  F   UNL A   1      40.941  24.367  27.891  1.00  0.00    -0.206 F 
ATOM     77  C   UNL A   1      42.640  22.307  25.445  1.00  0.00     0.022 A 
BRANCH  74  78
ATOM     78  S   UNL A   1      45.004  22.499  24.011  1.00  0.00     0.124 S 
ATOM     79  O   UNL A   1      44.154  22.202  22.860  1.00  0.00    -0.237 OA
ATOM     80  O   UNL A   1      45.859  23.672  23.876  1.00  0.00    -0.237 OA
ATOM     81  O   UNL A   1      45.620  21.331  24.635  1.00  0.00    -0.744 OA
ENDBRANCH  74  78
ENDBRANCH  47  71
BRANCH  59  82
ATOM     82  C   UNL A   1      45.183  30.536  28.358  1.00  0.00     0.023 A 
ATOM     83  C   UNL A   1      46.494  30.971  28.107  1.00  0.00     0.031 A 
ATOM     84  C   UNL A   1      44.137  31.160  27.653  1.00  0.00     0.131 A 
ATOM     85  C   UNL A   1      46.728  32.033  27.230  1.00  0.00     0.055 A 
ATOM     86  C   UNL A   1      44.382  32.177  26.724  1.00  0.00     0.041 A 
ATOM     87  F   UNL A   1      42.853  30.872  27.907  1.00  0.00    -0.206 F 
ATOM     88  C   UNL A   1      45.682  32.632  26.523  1.00  0.00     0.022 A 
BRANCH  85  89
ATOM     89  S   UNL A   1      48.383  32.751  27.101  1.00  0.00     0.124 S 
ATOM     90  O   UNL A   1      49.149  31.662  26.501  1.00  0.00    -0.237 OA
ATOM     91  O   UNL A   1      48.150  33.904  26.234  1.00  0.00    -0.237 OA
ATOM     92  O   UNL A   1      48.738  33.076  28.480  1.00  0.00    -0.744 OA
ENDBRANCH  85  89
ENDBRANCH  59  82
ENDBRANCH  33  34
ENDBRANCH  26  28
ENDBRANCH  25  26
ENDBRANCH  24  25
ENDBRANCH   1  24
TORSDOF 18
ENDMDL
MODEL 2
REMARK VINA RESULT:     -11.1      2.201      3.090
REMARK SMILES Cc1cccc2nc([C@@H]3CCCC[C@@H]3C(=O)OCCOCCOC(=O)c3ccc(-c4c5nc(c(-c6cc(S(=O)(=O)[O-])ccc6F)c6ccc([nH]6)c(-c6cc(S(=O)(=O)[O-])ccc6F)c6nc(c(-c7cc(S(=O)(=O)[O-])ccc7F)c7ccc4[nH]7)C=C6)C=C5)cc3)oc12
REMARK SMILES IDX 21 1 20 2 19 3 18 4 17 5 15 6 16 7 14 8 9 9 10 10 11 11
REMARK SMILES IDX 13 12 12 13 8 14 1 15 2 16 3 17 90 18 4 19 6 20 89 21 5 22
REMARK SMILES IDX 7 23 22 24 23 25 24 26 25 27 26 28 27 29 88 30 28 31 87 32
REMARK SMILES IDX 29 33 30 34 31 35 81 36 32 37 86 38 80 39 82 40 33 41 85 42
REMARK SMILES IDX 79 43 78 44 34 46 66 47 46 48 65 49 47 50 50 51 64 52 83 53
REMARK SMILES IDX 48 54 49 55 63 57 84 58 51 59 35 60 36 61 44 62 37 63 43 64
REMARK SMILES IDX 45 65 42 66 38 67 39 68 40 69 41 70 67 71 68 72 76 73 69 74
REMARK SMILES IDX 75 75 77 76 74 77 70 78 71 79 72 80 73 81 52 82 53 83 61 84
REMARK SMILES IDX 54 85 60 86 62 87 59 88 55 89 56 90 57 91 58 92
REMARK H PARENT 82 45 50 56
REMARK Flexibility Score: inf
ROOT
ATOM      1  C   UNL A   1      33.830  32.641  28.057  1.00  0.00     0.202 C 
ENDROOT
BRANCH   1   2
ATOM      2  O   UNL A   1      34.056  31.477  27.269  1.00  0.00    -0.374 OA
BRANCH   2   3
ATOM      3  C   UNL A   1      33.191  30.345  27.331  1.00  0.00     0.202 C 
BRANCH   3   4
ATOM      4  C   UNL A   1      33.741  28.925  27.188  1.00  0.00     0.261 C 
BRANCH   4   5
ATOM      5  O   UNL A   1      32.733  27.965  26.867  1.00  0.00    -0.463 OA
BRANCH   5   6
ATOM      6  C   UNL A   1      33.095  27.080  25.898  1.00  0.00     0.309 C 
ATOM      7  O   UNL A   1      34.187  26.537  25.835  1.00  0.00    -0.252 OA
BRANCH   6   8
ATOM      8  C   UNL A   1      31.961  26.914  24.886  1.00  0.00     0.111 C 
ATOM      9  C   UNL A   1      32.335  25.981  23.715  1.00  0.00     0.090 C 
ATOM     10  C   UNL A   1      33.509  26.545  22.898  1.00  0.00     0.014 C 
ATOM     11  C   UNL A   1      33.321  28.022  22.515  1.00  0.00     0.001 C 
ATOM     12  C   UNL A   1      31.581  28.292  24.344  1.00  0.00     0.016 C 
ATOM     13  C   UNL A   1      32.762  28.925  23.617  1.00  0.00     0.001 C 
BRANCH   9  14
ATOM     14  C   UNL A   1      32.564  24.569  24.174  1.00  0.00     0.199 A 
ATOM     15  C   UNL A   1      36.165  22.019  24.184  1.00  0.00     0.048 C 
ATOM     16  C   UNL A   1      34.732  21.791  24.546  1.00  0.00    -0.006 A 
ATOM     17  C   UNL A   1      34.307  20.539  25.039  1.00  0.00     0.007 A 
ATOM     18  C   UNL A   1      33.730  22.763  24.470  1.00  0.00     0.157 A 
ATOM     19  C   UNL A   1      32.975  20.291  25.391  1.00  0.00     0.003 A 
ATOM     20  C   UNL A   1      32.403  22.551  24.812  1.00  0.00     0.110 A 
ATOM     21  O   UNL A   1      33.841  24.067  24.056  1.00  0.00    -0.440 OA
ATOM     22  C   UNL A   1      32.003  21.292  25.275  1.00  0.00     0.032 A 
ATOM     23  N   UNL A   1      31.681  23.695  24.611  1.00  0.00    -0.213 NA
ENDBRANCH   9  14
ENDBRANCH   6   8
ENDBRANCH   5   6
ENDBRANCH   4   5
ENDBRANCH   3   4
ENDBRANCH   2   3
ENDBRANCH   1   2
BRANCH   1  24
ATOM     24  C   UNL A   1      34.749  32.996  29.227  1.00  0.00     0.261 C 
BRANCH  24  25
ATOM     25  O   UNL A   1      35.021  31.901  30.085  1.00  0.00    -0.460 OA
BRANCH  25  26
ATOM     26  C   UNL A   1      36.231  32.028  30.671  1.00  0.00     0.338 C 
ATOM     27  O   UNL A   1      36.460  32.443  31.795  1.00  0.00    -0.246 OA
BRANCH  26  28
ATOM     28  C   UNL A   1      37.294  31.690  29.723  1.00  0.00     0.060 A 
ATOM     29  C   UNL A   1      37.121  30.452  29.104  1.00  0.00     0.016 A 
ATOM     30  C   UNL A   1      38.550  32.281  29.908  1.00  0.00     0.016 A 
ATOM     31  C   UNL A   1      38.224  29.648  29.002  1.00  0.00     0.010 A 
ATOM     32  C   UNL A   1      39.653  31.471  29.805  1.00  0.00     0.010 A 
ATOM     33  C   UNL A   1      39.450  30.138  29.469  1.00  0.00    -0.014 A 
BRANCH  33  34
ATOM     34  C   UNL A   1      40.537  29.193  29.522  1.00  0.00     0.031 A 
ATOM     35  C   UNL A   1      40.854  28.809  30.908  1.00  0.00     0.074 A 
ATOM     36  C   UNL A   1      41.159  28.725  28.427  1.00  0.00     0.049 A 
ATOM     37  N   UNL A   1      41.837  29.229  31.633  1.00  0.00    -0.248 NA
ATOM     38  C   UNL A   1      39.814  28.079  31.648  1.00  0.00     0.031 C 
ATOM     39  C   UNL A   1      40.746  28.811  27.025  1.00  0.00     0.029 A 
ATOM     40  N   UNL A   1      42.285  27.974  28.369  1.00  0.00    -0.354 N 
ATOM     41  C   UNL A   1      41.652  28.625  32.869  1.00  0.00     0.074 A 
ATOM     42  C   UNL A   1      40.294  28.144  32.887  1.00  0.00     0.031 C 
ATOM     43  C   UNL A   1      41.476  27.931  26.297  1.00  0.00     0.029 A 
ATOM     44  C   UNL A   1      42.492  27.341  27.155  1.00  0.00     0.049 A 
ATOM     45  H   UNL A   1      42.906  27.885  29.127  1.00  0.00     0.167 HD
ATOM     46  C   UNL A   1      42.705  28.321  33.675  1.00  0.00     0.034 A 
ATOM     47  C   UNL A   1      43.366  26.326  26.936  1.00  0.00     0.034 A 
ATOM     48  C   UNL A   1      43.900  29.004  33.261  1.00  0.00     0.049 A 
ATOM     49  C   UNL A   1      44.350  26.332  28.051  1.00  0.00     0.074 A 
ATOM     50  C   UNL A   1      44.279  30.327  33.179  1.00  0.00     0.029 A 
ATOM     51  N   UNL A   1      44.778  28.300  32.472  1.00  0.00    -0.354 N 
ATOM     52  N   UNL A   1      45.238  27.269  28.233  1.00  0.00    -0.248 NA
ATOM     53  C   UNL A   1      44.040  25.531  29.229  1.00  0.00     0.031 C 
ATOM     54  C   UNL A   1      45.086  30.411  32.010  1.00  0.00     0.029 A 
ATOM     55  C   UNL A   1      45.205  29.129  31.467  1.00  0.00     0.049 A 
ATOM     56  H   UNL A   1      45.053  27.363  32.604  1.00  0.00     0.167 HD
ATOM     57  C   UNL A   1      45.265  27.466  29.607  1.00  0.00     0.074 A 
ATOM     58  C   UNL A   1      44.580  26.306  30.173  1.00  0.00     0.031 C 
ATOM     59  C   UNL A   1      45.577  28.682  30.140  1.00  0.00     0.034 A 
BRANCH  46  60
ATOM     60  C   UNL A   1      42.721  27.111  34.569  1.00  0.00     0.023 A 
ATOM     61  C   UNL A   1      43.558  26.005  34.328  1.00  0.00     0.031 A 
ATOM     62  C   UNL A   1      42.069  27.132  35.813  1.00  0.00     0.131 A 
ATOM     63  C   UNL A   1      43.701  24.970  35.254  1.00  0.00     0.055 A 
ATOM     64  C   UNL A   1      42.269  26.133  36.775  1.00  0.00     0.041 A 
ATOM     65  F   UNL A   1      41.268  28.154  36.155  1.00  0.00    -0.206 F 
ATOM     66  C   UNL A   1      43.085  25.041  36.496  1.00  0.00     0.022 A 
BRANCH  63  67
ATOM     67  S   UNL A   1      44.725  23.528  34.850  1.00  0.00     0.124 S 
ATOM     68  O   UNL A   1      43.777  22.433  35.008  1.00  0.00    -0.237 OA
ATOM     69  O   UNL A   1      45.128  23.829  33.479  1.00  0.00    -0.237 OA
ATOM     70  O   UNL A   1      45.802  23.587  35.835  1.00  0.00    -0.744 OA
ENDBRANCH  63  67
ENDBRANCH  46  60
BRANCH  47  71
ATOM     71  C   UNL A   1      43.084  25.093  26.160  1.00  0.00     0.023 A 
ATOM     72  C   UNL A   1      42.068  24.215  26.580  1.00  0.00     0.031 A 
ATOM     73  C   UNL A   1      43.998  24.612  25.206  1.00  0.00     0.131 A 
ATOM     74  C   UNL A   1      42.017  22.899  26.102  1.00  0.00     0.055 A 
ATOM     75  C   UNL A   1      43.938  23.301  24.719  1.00  0.00     0.041 A 
ATOM     76  F   UNL A   1      45.011  25.385  24.784  1.00  0.00    -0.206 F 
ATOM     77  C   UNL A   1      42.952  22.432  25.178  1.00  0.00     0.022 A 
BRANCH  74  78
ATOM     78  S   UNL A   1      40.761  21.752  26.734  1.00  0.00     0.124 S 
ATOM     79  O   UNL A   1      39.522  22.329  26.215  1.00  0.00    -0.237 OA
ATOM     80  O   UNL A   1      41.173  20.493  26.124  1.00  0.00    -0.237 OA
ATOM     81  O   UNL A   1      40.918  21.840  28.183  1.00  0.00    -0.744 OA
ENDBRANCH  74  78
ENDBRANCH  47  71
BRANCH  59  82
ATOM     82  C   UNL A   1      46.140  29.747  29.230  1.00  0.00     0.023 A 
ATOM     83  C   UNL A   1      45.210  30.528  28.525  1.00  0.00     0.031 A 
ATOM     84  C   UNL A   1      47.493  29.839  28.856  1.00  0.00     0.131 A 
ATOM     85  C   UNL A   1      45.625  31.317  27.449  1.00  0.00     0.055 A 
ATOM     86  C   UNL A   1      47.914  30.683  27.822  1.00  0.00     0.041 A 
ATOM     87  F   UNL A   1      48.426  29.054  29.412  1.00  0.00    -0.206 F 
ATOM     88  C   UNL A   1      46.975  31.413  27.100  1.00  0.00     0.022 A 
BRANCH  85  89
ATOM     89  S   UNL A   1      44.398  32.122  26.392  1.00  0.00     0.124 S 
ATOM     90  O   UNL A   1      43.908  33.200  27.247  1.00  0.00    -0.237 OA
ATOM     91  O   UNL A   1      45.208  32.546  25.251  1.00  0.00    -0.237 OA
ATOM     92  O   UNL A   1      43.430  31.067  26.104  1.00  0.00    -0.744 OA
ENDBRANCH  85  89
ENDBRANCH  59  82
ENDBRANCH  33  34
ENDBRANCH  26  28
ENDBRANCH  25  26
ENDBRANCH  24  25
ENDBRANCH   1  24
TORSDOF 18
ENDMDL
MODEL 3
REMARK VINA RESULT:     -10.9      1.906      3.355
REMARK SMILES Cc1cccc2nc([C@@H]3CCCC[C@@H]3C(=O)OCCOCCOC(=O)c3ccc(-c4c5nc(c(-c6cc(S(=O)(=O)[O-])ccc6F)c6ccc([nH]6)c(-c6cc(S(=O)(=O)[O-])ccc6F)c6nc(c(-c7cc(S(=O)(=O)[O-])ccc7F)c7ccc4[nH]7)C=C6)C=C5)cc3)oc12
REMARK SMILES IDX 21 1 20 2 19 3 18 4 17 5 15 6 16 7 14 8 9 9 10 10 11 11
REMARK SMILES IDX 13 12 12 13 8 14 1 15 2 16 3 17 90 18 4 19 6 20 89 21 5 22
REMARK SMILES IDX 7 23 22 24 23 25 24 26 25 27 26 28 27 29 88 30 28 31 87 32
REMARK SMILES IDX 29 33 30 34 31 35 81 36 32 37 86 38 80 39 82 40 33 41 85 42
REMARK SMILES IDX 79 43 78 44 34 46 66 47 46 48 65 49 47 50 50 51 64 52 83 53
REMARK SMILES IDX 48 54 49 55 63 57 84 58 51 59 35 60 36 61 44 62 37 63 43 64
REMARK SMILES IDX 45 65 42 66 38 67 39 68 40 69 41 70 67 71 68 72 76 73 69 74
REMARK SMILES IDX 75 75 77 76 74 77 70 78 71 79 72 80 73 81 52 82 53 83 61 84
REMARK SMILES IDX 54 85 60 86 62 87 59 88 55 89 56 90 57 91 58 92
REMARK H PARENT 82 45 50 56
REMARK Flexibility Score: inf
ROOT
ATOM      1  C   UNL A   1      32.891  30.090  26.136  1.00  0.00     0.202 C 
ENDROOT
BRANCH   1   2
ATOM      2  O   UNL A   1      32.714  28.698  26.380  1.00  0.00    -0.374 OA
BRANCH   2   3
ATOM      3  C   UNL A   1      33.701  27.737  26.011  1.00  0.00     0.202 C 
BRANCH   3   4
ATOM      4  C   UNL A   1      33.445  26.239  26.188  1.00  0.00     0.261 C 
BRANCH   4   5
ATOM      5  O   UNL A   1      34.451  25.426  25.582  1.00  0.00    -0.463 OA
BRANCH   5   6
ATOM      6  C   UNL A   1      34.078  24.131  25.386  1.00  0.00     0.309 C 
ATOM      7  O   UNL A   1      33.729  23.373  26.277  1.00  0.00    -0.252 OA
BRANCH   6   8
ATOM      8  C   UNL A   1      34.212  23.762  23.908  1.00  0.00     0.111 C 
ATOM      9  C   UNL A   1      32.849  23.533  23.222  1.00  0.00     0.090 C 
ATOM     10  C   UNL A   1      32.091  22.353  23.852  1.00  0.00     0.014 C 
ATOM     11  C   UNL A   1      32.959  21.094  24.005  1.00  0.00     0.001 C 
ATOM     12  C   UNL A   1      35.064  22.498  23.793  1.00  0.00     0.016 C 
ATOM     13  C   UNL A   1      34.388  21.330  24.503  1.00  0.00     0.001 C 
BRANCH   9  14
ATOM     14  C   UNL A   1      32.031  24.793  23.164  1.00  0.00     0.199 A 
ATOM     15  C   UNL A   1      33.152  29.008  22.503  1.00  0.00     0.048 C 
ATOM     16  C   UNL A   1      31.867  28.316  22.828  1.00  0.00    -0.006 A 
ATOM     17  C   UNL A   1      30.668  29.050  22.952  1.00  0.00     0.007 A 
ATOM     18  C   UNL A   1      31.730  26.935  22.996  1.00  0.00     0.157 A 
ATOM     19  C   UNL A   1      29.447  28.435  23.253  1.00  0.00     0.003 A 
ATOM     20  C   UNL A   1      30.537  26.294  23.291  1.00  0.00     0.110 A 
ATOM     21  O   UNL A   1      32.702  25.969  22.912  1.00  0.00    -0.440 OA
ATOM     22  C   UNL A   1      29.367  27.049  23.434  1.00  0.00     0.032 A 
ATOM     23  N   UNL A   1      30.745  24.947  23.403  1.00  0.00    -0.213 NA
ENDBRANCH   9  14
ENDBRANCH   6   8
ENDBRANCH   5   6
ENDBRANCH   4   5
ENDBRANCH   3   4
ENDBRANCH   2   3
ENDBRANCH   1   2
BRANCH   1  24
ATOM     24  C   UNL A   1      33.395  31.028  27.233  1.00  0.00     0.261 C 
BRANCH  24  25
ATOM     25  O   UNL A   1      34.542  30.542  27.910  1.00  0.00    -0.460 OA
BRANCH  25  26
ATOM     26  C   UNL A   1      35.440  31.528  28.123  1.00  0.00     0.338 C 
ATOM     27  O   UNL A   1      35.549  32.567  27.493  1.00  0.00    -0.246 OA
BRANCH  26  28
ATOM     28  C   UNL A   1      36.376  31.143  29.180  1.00  0.00     0.060 A 
ATOM     29  C   UNL A   1      37.584  31.840  29.140  1.00  0.00     0.016 A 
ATOM     30  C   UNL A   1      36.254  29.861  29.730  1.00  0.00     0.016 A 
ATOM     31  C   UNL A   1      38.729  31.111  29.317  1.00  0.00     0.010 A 
ATOM     32  C   UNL A   1      37.404  29.133  29.905  1.00  0.00     0.010 A 
ATOM     33  C   UNL A   1      38.612  29.741  29.580  1.00  0.00    -0.014 A 
BRANCH  33  34
ATOM     34  C   UNL A   1      39.836  28.980  29.565  1.00  0.00     0.031 A 
ATOM     35  C   UNL A   1      40.346  28.746  30.927  1.00  0.00     0.074 A 
ATOM     36  C   UNL A   1      40.413  28.538  28.436  1.00  0.00     0.049 A 
ATOM     37  N   UNL A   1      41.316  29.361  31.517  1.00  0.00    -0.248 NA
ATOM     38  C   UNL A   1      39.514  27.919  31.813  1.00  0.00     0.031 C 
ATOM     39  C   UNL A   1      39.855  28.462  27.084  1.00  0.00     0.029 A 
ATOM     40  N   UNL A   1      41.633  27.966  28.295  1.00  0.00    -0.354 N 
ATOM     41  C   UNL A   1      41.354  28.824  32.796  1.00  0.00     0.074 A 
ATOM     42  C   UNL A   1      40.098  28.143  32.987  1.00  0.00     0.031 C 
ATOM     43  C   UNL A   1      40.640  27.656  26.329  1.00  0.00     0.029 A 
ATOM     44  C   UNL A   1      41.817  27.289  27.101  1.00  0.00     0.049 A 
ATOM     45  H   UNL A   1      42.333  28.026  28.984  1.00  0.00     0.167 HD
ATOM     46  C   UNL A   1      42.516  28.741  33.497  1.00  0.00     0.034 A 
ATOM     47  C   UNL A   1      42.816  26.407  26.843  1.00  0.00     0.034 A 
ATOM     48  C   UNL A   1      43.540  29.569  32.920  1.00  0.00     0.049 A 
ATOM     49  C   UNL A   1      43.892  26.641  27.841  1.00  0.00     0.074 A 
ATOM     50  C   UNL A   1      43.693  30.926  32.727  1.00  0.00     0.029 A 
ATOM     51  N   UNL A   1      44.436  28.954  32.079  1.00  0.00    -0.354 N 
ATOM     52  N   UNL A   1      44.632  27.714  27.876  1.00  0.00    -0.248 NA
ATOM     53  C   UNL A   1      43.832  25.887  29.087  1.00  0.00     0.031 C 
ATOM     54  C   UNL A   1      44.356  31.050  31.475  1.00  0.00     0.029 A 
ATOM     55  C   UNL A   1      44.623  29.767  30.991  1.00  0.00     0.049 A 
ATOM     56  H   UNL A   1      44.869  28.083  32.230  1.00  0.00     0.167 HD
ATOM     57  C   UNL A   1      44.764  28.008  29.226  1.00  0.00     0.074 A 
ATOM     58  C   UNL A   1      44.332  26.799  29.925  1.00  0.00     0.031 C 
ATOM     59  C   UNL A   1      44.928  29.291  29.657  1.00  0.00     0.034 A 
BRANCH  46  60
ATOM     60  C   UNL A   1      42.813  27.613  34.448  1.00  0.00     0.023 A 
ATOM     61  C   UNL A   1      43.347  26.383  34.016  1.00  0.00     0.031 A 
ATOM     62  C   UNL A   1      42.789  27.822  35.837  1.00  0.00     0.131 A 
ATOM     63  C   UNL A   1      43.789  25.412  34.916  1.00  0.00     0.055 A 
ATOM     64  C   UNL A   1      43.300  26.880  36.739  1.00  0.00     0.041 A 
ATOM     65  F   UNL A   1      42.325  28.970  36.353  1.00  0.00    -0.206 F 
ATOM     66  C   UNL A   1      43.799  25.665  36.282  1.00  0.00     0.022 A 
BRANCH  63  67
ATOM     67  S   UNL A   1      44.384  23.812  34.303  1.00  0.00     0.124 S 
ATOM     68  O   UNL A   1      44.518  24.069  32.874  1.00  0.00    -0.237 OA
ATOM     69  O   UNL A   1      45.633  23.661  35.043  1.00  0.00    -0.237 OA
ATOM     70  O   UNL A   1      43.324  22.884  34.686  1.00  0.00    -0.744 OA
ENDBRANCH  63  67
ENDBRANCH  46  60
BRANCH  47  71
ATOM     71  C   UNL A   1      42.659  25.095  26.168  1.00  0.00     0.023 A 
ATOM     72  C   UNL A   1      41.662  24.199  26.597  1.00  0.00     0.031 A 
ATOM     73  C   UNL A   1      43.665  24.586  25.329  1.00  0.00     0.131 A 
ATOM     74  C   UNL A   1      41.718  22.844  26.243  1.00  0.00     0.055 A 
ATOM     75  C   UNL A   1      43.712  23.235  24.965  1.00  0.00     0.041 A 
ATOM     76  F   UNL A   1      44.664  25.377  24.907  1.00  0.00    -0.206 F 
ATOM     77  C   UNL A   1      42.742  22.353  25.434  1.00  0.00     0.022 A 
BRANCH  74  78
ATOM     78  S   UNL A   1      40.481  21.686  26.891  1.00  0.00     0.124 S 
ATOM     79  O   UNL A   1      39.226  22.384  26.621  1.00  0.00    -0.237 OA
ATOM     80  O   UNL A   1      40.728  20.500  26.080  1.00  0.00    -0.237 OA
ATOM     81  O   UNL A   1      40.828  21.574  28.306  1.00  0.00    -0.744 OA
ENDBRANCH  74  78
ENDBRANCH  47  71
BRANCH  59  82
ATOM     82  C   UNL A   1      45.221  30.364  28.636  1.00  0.00     0.023 A 
ATOM     83  C   UNL A   1      46.563  30.755  28.502  1.00  0.00     0.031 A 
ATOM     84  C   UNL A   1      44.240  31.156  28.011  1.00  0.00     0.131 A 
ATOM     85  C   UNL A   1      46.889  31.929  27.818  1.00  0.00     0.055 A 
ATOM     86  C   UNL A   1      44.577  32.293  27.269  1.00  0.00     0.041 A 
ATOM     87  F   UNL A   1      42.934  30.907  28.173  1.00  0.00    -0.206 F 
ATOM     88  C   UNL A   1      45.906  32.696  27.186  1.00  0.00     0.022 A 
BRANCH  85  89
ATOM     89  S   UNL A   1      48.585  32.560  27.861  1.00  0.00     0.124 S 
ATOM     90  O   UNL A   1      49.023  32.367  26.481  1.00  0.00    -0.237 OA
ATOM     91  O   UNL A   1      48.384  33.949  28.267  1.00  0.00    -0.237 OA
ATOM     92  O   UNL A   1      49.252  31.717  28.849  1.00  0.00    -0.744 OA
ENDBRANCH  85  89
ENDBRANCH  59  82
ENDBRANCH  33  34
ENDBRANCH  26  28
ENDBRANCH  25  26
ENDBRANCH  24  25
ENDBRANCH   1  24
TORSDOF 18
ENDMDL
