MODEL 1
REMARK VINA RESULT:      -6.1      0.000      0.000
REMARK SMILES CC/C=C/C/C=C/C/C=C/C/C=C/CCSCCCC(=O)OCCOCCOC(=O)c1ccc(-c2c3nc(c(-c4cc(S(=O)(=O)[O-])ccc4F)c4ccc([nH]4)c(-c4cc(S(=O)(=O)[O-])ccc4F)c4nc(c(-c5cc(S(=O)(=O)[O-])ccc5F)c5ccc2[nH]5)C=C4)C=C3)cc1
REMARK SMILES IDX 19 1 18 2 17 3 16 4 15 5 14 6 13 7 12 8 11 9 10 10 9 11 8 12
REMARK SMILES IDX 7 13 6 14 5 15 4 16 3 17 2 18 1 19 20 20 21 21 22 22 23 23
REMARK SMILES IDX 24 24 25 25 26 26 27 27 28 28 29 29 30 30 31 31 32 32 93 33
REMARK SMILES IDX 33 34 92 35 34 36 35 37 36 38 86 39 37 40 91 41 85 42 87 43
REMARK SMILES IDX 38 44 90 45 84 46 83 47 39 49 71 50 51 51 70 52 52 53 55 54
REMARK SMILES IDX 69 55 88 56 53 57 54 58 68 60 89 61 56 62 40 63 41 64 49 65
REMARK SMILES IDX 42 66 48 67 50 68 47 69 43 70 44 71 45 72 46 73 72 74 73 75
REMARK SMILES IDX 81 76 74 77 80 78 82 79 79 80 75 81 76 82 77 83 78 84 57 85
REMARK SMILES IDX 58 86 66 87 59 88 65 89 67 90 64 91 60 92 61 93 62 94 63 95
REMARK H PARENT 87 48 55 59
REMARK Flexibility Score: inf
ROOT
ATOM      1  C   UNL A   1      43.560  35.184  33.148  1.00  0.00     0.123 C 
ENDROOT
BRANCH   1   2
ATOM      2  C   UNL A   1      44.089  33.956  32.420  1.00  0.00     0.023 C 
BRANCH   2   3
ATOM      3  C   UNL A   1      44.169  33.988  30.886  1.00  0.00     0.070 C 
BRANCH   3   4
ATOM      4  S   UNL A   1      42.648  34.018  29.876  1.00  0.00    -0.162 SA
BRANCH   4   5
ATOM      5  C   UNL A   1      41.380  33.069  30.799  1.00  0.00     0.073 C 
BRANCH   5   6
ATOM      6  C   UNL A   1      40.138  32.550  30.049  1.00  0.00     0.038 C 
BRANCH   6   7
ATOM      7  C   UNL A   1      39.928  31.053  30.022  1.00  0.00    -0.030 C 
ATOM      8  C   UNL A   1      38.970  30.398  29.328  1.00  0.00    -0.027 C 
BRANCH   8   9
ATOM      9  C   UNL A   1      38.743  28.890  29.256  1.00  0.00     0.054 C 
BRANCH   9  10
ATOM     10  C   UNL A   1      39.587  28.217  28.194  1.00  0.00    -0.027 C 
ATOM     11  C   UNL A   1      40.101  28.800  27.090  1.00  0.00    -0.027 C 
BRANCH  11  12
ATOM     12  C   UNL A   1      41.000  28.115  26.088  1.00  0.00     0.054 C 
BRANCH  12  13
ATOM     13  C   UNL A   1      41.831  27.073  26.776  1.00  0.00    -0.027 C 
ATOM     14  C   UNL A   1      41.604  25.751  26.721  1.00  0.00    -0.027 C 
BRANCH  14  15
ATOM     15  C   UNL A   1      42.275  24.781  27.650  1.00  0.00     0.054 C 
BRANCH  15  16
ATOM     16  C   UNL A   1      41.628  23.432  27.518  1.00  0.00    -0.027 C 
ATOM     17  C   UNL A   1      40.978  23.011  26.422  1.00  0.00    -0.031 C 
BRANCH  17  18
ATOM     18  C   UNL A   1      40.261  21.696  26.337  1.00  0.00     0.023 C 
ATOM     19  C   UNL A   1      40.848  20.705  27.331  1.00  0.00     0.008 C 
ENDBRANCH  17  18
ENDBRANCH  15  16
ENDBRANCH  14  15
ENDBRANCH  12  13
ENDBRANCH  11  12
ENDBRANCH   9  10
ENDBRANCH   8   9
ENDBRANCH   6   7
ENDBRANCH   5   6
ENDBRANCH   4   5
ENDBRANCH   3   4
ENDBRANCH   2   3
ENDBRANCH   1   2
BRANCH   1  20
ATOM     20  C   UNL A   1      43.187  34.971  34.587  1.00  0.00     0.305 C 
ATOM     21  O   UNL A   1      43.999  35.145  35.485  1.00  0.00    -0.252 OA
BRANCH  20  22
ATOM     22  O   UNL A   1      41.931  34.496  34.734  1.00  0.00    -0.463 OA
BRANCH  22  23
ATOM     23  C   UNL A   1      40.823  35.330  34.385  1.00  0.00     0.261 C 
BRANCH  23  24
ATOM     24  C   UNL A   1      39.431  35.048  34.961  1.00  0.00     0.202 C 
BRANCH  24  25
ATOM     25  O   UNL A   1      38.303  34.809  34.145  1.00  0.00    -0.374 OA
BRANCH  25  26
ATOM     26  C   UNL A   1      37.217  34.067  34.663  1.00  0.00     0.202 C 
BRANCH  26  27
ATOM     27  C   UNL A   1      36.554  32.977  33.798  1.00  0.00     0.261 C 
BRANCH  27  28
ATOM     28  O   UNL A   1      37.355  32.385  32.757  1.00  0.00    -0.460 OA
BRANCH  28  29
ATOM     29  C   UNL A   1      37.170  31.055  32.570  1.00  0.00     0.338 C 
ATOM     30  O   UNL A   1      36.212  30.528  32.018  1.00  0.00    -0.246 OA
BRANCH  29  31
ATOM     31  C   UNL A   1      38.373  30.295  32.981  1.00  0.00     0.060 A 
ATOM     32  C   UNL A   1      39.494  31.009  33.431  1.00  0.00     0.016 A 
ATOM     33  C   UNL A   1      38.440  28.909  32.833  1.00  0.00     0.016 A 
ATOM     34  C   UNL A   1      40.698  30.350  33.687  1.00  0.00     0.010 A 
ATOM     35  C   UNL A   1      39.656  28.251  33.064  1.00  0.00     0.010 A 
ATOM     36  C   UNL A   1      40.802  28.974  33.448  1.00  0.00    -0.014 A 
BRANCH  36  37
ATOM     37  C   UNL A   1      42.147  28.344  33.361  1.00  0.00     0.031 A 
ATOM     38  C   UNL A   1      42.882  28.065  34.646  1.00  0.00     0.074 A 
ATOM     39  C   UNL A   1      42.694  27.997  32.182  1.00  0.00     0.049 A 
ATOM     40  N   UNL A   1      44.096  27.619  34.836  1.00  0.00    -0.248 NA
ATOM     41  C   UNL A   1      42.139  28.335  35.888  1.00  0.00     0.031 C 
ATOM     42  C   UNL A   1      42.051  28.144  30.878  1.00  0.00     0.029 A 
ATOM     43  N   UNL A   1      43.922  27.457  31.892  1.00  0.00    -0.354 N 
ATOM     44  C   UNL A   1      44.269  27.566  36.216  1.00  0.00     0.074 A 
ATOM     45  C   UNL A   1      43.046  28.060  36.811  1.00  0.00     0.031 C 
ATOM     46  C   UNL A   1      42.901  27.724  29.925  1.00  0.00     0.029 A 
ATOM     47  C   UNL A   1      44.163  27.323  30.544  1.00  0.00     0.049 A 
ATOM     48  H   UNL A   1      44.570  27.189  32.584  1.00  0.00     0.167 HD
ATOM     49  C   UNL A   1      45.346  27.138  36.922  1.00  0.00     0.034 A 
ATOM     50  C   UNL A   1      45.285  26.957  29.888  1.00  0.00     0.034 A 
ATOM     51  C   UNL A   1      46.562  26.664  36.309  1.00  0.00     0.049 A 
ATOM     52  C   UNL A   1      46.513  26.589  30.690  1.00  0.00     0.074 A 
ATOM     53  C   UNL A   1      47.718  26.212  36.923  1.00  0.00     0.029 A 
ATOM     54  N   UNL A   1      46.787  26.591  34.940  1.00  0.00    -0.354 N 
ATOM     55  N   UNL A   1      46.674  26.558  31.995  1.00  0.00    -0.248 NA
ATOM     56  C   UNL A   1      47.709  26.199  29.931  1.00  0.00     0.031 C 
ATOM     57  C   UNL A   1      48.666  25.946  35.929  1.00  0.00     0.029 A 
ATOM     58  C   UNL A   1      48.073  26.138  34.690  1.00  0.00     0.049 A 
ATOM     59  H   UNL A   1      46.128  26.827  34.247  1.00  0.00     0.167 HD
ATOM     60  C   UNL A   1      47.978  26.115  32.208  1.00  0.00     0.074 A 
ATOM     61  C   UNL A   1      48.553  25.878  30.901  1.00  0.00     0.031 C 
ATOM     62  C   UNL A   1      48.638  25.914  33.379  1.00  0.00     0.034 A 
BRANCH  49  63
ATOM     63  C   UNL A   1      45.269  27.231  38.428  1.00  0.00     0.023 A 
ATOM     64  C   UNL A   1      45.706  28.373  39.126  1.00  0.00     0.031 A 
ATOM     65  C   UNL A   1      44.792  26.145  39.183  1.00  0.00     0.131 A 
ATOM     66  C   UNL A   1      45.731  28.369  40.529  1.00  0.00     0.055 A 
ATOM     67  C   UNL A   1      44.737  26.182  40.578  1.00  0.00     0.041 A 
ATOM     68  F   UNL A   1      44.387  25.018  38.578  1.00  0.00    -0.206 F 
ATOM     69  C   UNL A   1      45.225  27.293  41.261  1.00  0.00     0.022 A 
BRANCH  66  70
ATOM     70  S   UNL A   1      46.585  29.723  41.384  1.00  0.00     0.124 S 
ATOM     71  O   UNL A   1      45.696  30.850  41.113  1.00  0.00    -0.237 OA
ATOM     72  O   UNL A   1      46.619  29.253  42.764  1.00  0.00    -0.237 OA
ATOM     73  O   UNL A   1      47.882  29.788  40.713  1.00  0.00    -0.744 OA
ENDBRANCH  66  70
ENDBRANCH  49  63
BRANCH  50  74
ATOM     74  C   UNL A   1      45.329  26.974  28.395  1.00  0.00     0.023 A 
ATOM     75  C   UNL A   1      45.554  25.801  27.656  1.00  0.00     0.031 A 
ATOM     76  C   UNL A   1      45.203  28.183  27.686  1.00  0.00     0.131 A 
ATOM     77  C   UNL A   1      45.687  25.868  26.259  1.00  0.00     0.055 A 
ATOM     78  C   UNL A   1      45.277  28.235  26.293  1.00  0.00     0.041 A 
ATOM     79  F   UNL A   1      44.998  29.337  28.340  1.00  0.00    -0.206 F 
ATOM     80  C   UNL A   1      45.533  27.074  25.572  1.00  0.00     0.022 A 
BRANCH  77  81
ATOM     81  S   UNL A   1      46.156  24.365  25.357  1.00  0.00     0.124 S 
ATOM     82  O   UNL A   1      45.081  24.261  24.377  1.00  0.00    -0.237 OA
ATOM     83  O   UNL A   1      47.470  24.723  24.834  1.00  0.00    -0.237 OA
ATOM     84  O   UNL A   1      46.160  23.334  26.393  1.00  0.00    -0.744 OA
ENDBRANCH  77  81
ENDBRANCH  50  74
BRANCH  62  85
ATOM     85  C   UNL A   1      50.042  25.360  33.297  1.00  0.00     0.023 A 
ATOM     86  C   UNL A   1      50.296  23.978  33.253  1.00  0.00     0.031 A 
ATOM     87  C   UNL A   1      51.144  26.235  33.267  1.00  0.00     0.131 A 
ATOM     88  C   UNL A   1      51.619  23.511  33.238  1.00  0.00     0.055 A 
ATOM     89  C   UNL A   1      52.455  25.765  33.183  1.00  0.00     0.041 A 
ATOM     90  F   UNL A   1      50.963  27.564  33.311  1.00  0.00    -0.206 F 
ATOM     91  C   UNL A   1      52.700  24.395  33.183  1.00  0.00     0.022 A 
BRANCH  88  92
ATOM     92  S   UNL A   1      51.916  21.728  33.399  1.00  0.00     0.124 S 
ATOM     93  O   UNL A   1      53.109  21.694  34.238  1.00  0.00    -0.237 OA
ATOM     94  O   UNL A   1      50.683  21.262  34.024  1.00  0.00    -0.237 OA
ATOM     95  O   UNL A   1      52.116  21.288  32.019  1.00  0.00    -0.744 OA
ENDBRANCH  88  92
ENDBRANCH  62  85
ENDBRANCH  36  37
ENDBRANCH  29  31
ENDBRANCH  28  29
ENDBRANCH  27  28
ENDBRANCH  26  27
ENDBRANCH  25  26
ENDBRANCH  24  25
ENDBRANCH  23  24
ENDBRANCH  22  23
ENDBRANCH  20  22
ENDBRANCH   1  20
TORSDOF 30
ENDMDL
MODEL 2
REMARK VINA RESULT:      -5.4      4.400     10.747
REMARK SMILES CC/C=C/C/C=C/C/C=C/C/C=C/CCSCCCC(=O)OCCOCCOC(=O)c1ccc(-c2c3nc(c(-c4cc(S(=O)(=O)[O-])ccc4F)c4ccc([nH]4)c(-c4cc(S(=O)(=O)[O-])ccc4F)c4nc(c(-c5cc(S(=O)(=O)[O-])ccc5F)c5ccc2[nH]5)C=C4)C=C3)cc1
REMARK SMILES IDX 19 1 18 2 17 3 16 4 15 5 14 6 13 7 12 8 11 9 10 10 9 11 8 12
REMARK SMILES IDX 7 13 6 14 5 15 4 16 3 17 2 18 1 19 20 20 21 21 22 22 23 23
REMARK SMILES IDX 24 24 25 25 26 26 27 27 28 28 29 29 30 30 31 31 32 32 93 33
REMARK SMILES IDX 33 34 92 35 34 36 35 37 36 38 86 39 37 40 91 41 85 42 87 43
REMARK SMILES IDX 38 44 90 45 84 46 83 47 39 49 71 50 51 51 70 52 52 53 55 54
REMARK SMILES IDX 69 55 88 56 53 57 54 58 68 60 89 61 56 62 40 63 41 64 49 65
REMARK SMILES IDX 42 66 48 67 50 68 47 69 43 70 44 71 45 72 46 73 72 74 73 75
REMARK SMILES IDX 81 76 74 77 80 78 82 79 79 80 75 81 76 82 77 83 78 84 57 85
REMARK SMILES IDX 58 86 66 87 59 88 65 89 67 90 64 91 60 92 61 93 62 94 63 95
REMARK H PARENT 87 48 55 59
REMARK Flexibility Score: inf
ROOT
ATOM      1  C   UNL A   1      47.716  28.884  26.673  1.00  0.00     0.123 C 
ENDROOT
BRANCH   1   2
ATOM      2  C   UNL A   1      46.482  28.019  26.889  1.00  0.00     0.023 C 
BRANCH   2   3
ATOM      3  C   UNL A   1      46.490  26.579  26.353  1.00  0.00     0.070 C 
BRANCH   3   4
ATOM      4  S   UNL A   1      45.551  25.265  27.207  1.00  0.00    -0.162 SA
BRANCH   4   5
ATOM      5  C   UNL A   1      44.667  24.318  25.910  1.00  0.00     0.073 C 
BRANCH   5   6
ATOM      6  C   UNL A   1      43.585  25.026  25.070  1.00  0.00     0.038 C 
BRANCH   6   7
ATOM      7  C   UNL A   1      42.922  26.236  25.684  1.00  0.00    -0.030 C 
ATOM      8  C   UNL A   1      42.768  27.443  25.094  1.00  0.00    -0.027 C 
BRANCH   8   9
ATOM      9  C   UNL A   1      42.083  28.679  25.672  1.00  0.00     0.054 C 
BRANCH   9  10
ATOM     10  C   UNL A   1      40.832  28.348  26.458  1.00  0.00    -0.027 C 
ATOM     11  C   UNL A   1      40.774  27.666  27.621  1.00  0.00    -0.027 C 
BRANCH  11  12
ATOM     12  C   UNL A   1      39.514  27.416  28.416  1.00  0.00     0.054 C 
BRANCH  12  13
ATOM     13  C   UNL A   1      39.078  25.992  28.246  1.00  0.00    -0.027 C 
ATOM     14  C   UNL A   1      39.428  25.199  27.222  1.00  0.00    -0.027 C 
BRANCH  14  15
ATOM     15  C   UNL A   1      38.741  23.893  26.943  1.00  0.00     0.054 C 
BRANCH  15  16
ATOM     16  C   UNL A   1      39.766  22.800  26.839  1.00  0.00    -0.027 C 
ATOM     17  C   UNL A   1      41.050  22.932  27.204  1.00  0.00    -0.031 C 
BRANCH  17  18
ATOM     18  C   UNL A   1      42.082  21.860  27.013  1.00  0.00     0.023 C 
ATOM     19  C   UNL A   1      41.545  20.516  27.483  1.00  0.00     0.008 C 
ENDBRANCH  17  18
ENDBRANCH  15  16
ENDBRANCH  14  15
ENDBRANCH  12  13
ENDBRANCH  11  12
ENDBRANCH   9  10
ENDBRANCH   8   9
ENDBRANCH   6   7
ENDBRANCH   5   6
ENDBRANCH   4   5
ENDBRANCH   3   4
ENDBRANCH   2   3
ENDBRANCH   1   2
BRANCH   1  20
ATOM     20  C   UNL A   1      48.876  28.201  26.009  1.00  0.00     0.305 C 
ATOM     21  O   UNL A   1      48.870  27.963  24.809  1.00  0.00    -0.252 OA
BRANCH  20  22
ATOM     22  O   UNL A   1      49.830  27.823  26.887  1.00  0.00    -0.463 OA
BRANCH  22  23
ATOM     23  C   UNL A   1      49.877  26.463  27.328  1.00  0.00     0.261 C 
BRANCH  23  24
ATOM     24  C   UNL A   1      49.631  26.118  28.801  1.00  0.00     0.202 C 
BRANCH  24  25
ATOM     25  O   UNL A   1      50.525  25.329  29.558  1.00  0.00    -0.374 OA
BRANCH  25  26
ATOM     26  C   UNL A   1      50.915  25.763  30.845  1.00  0.00     0.202 C 
BRANCH  26  27
ATOM     27  C   UNL A   1      51.082  24.734  31.981  1.00  0.00     0.261 C 
BRANCH  27  28
ATOM     28  O   UNL A   1      50.498  25.063  33.256  1.00  0.00    -0.460 OA
BRANCH  28  29
ATOM     29  C   UNL A   1      49.196  24.716  33.404  1.00  0.00     0.338 C 
ATOM     30  O   UNL A   1      48.776  23.637  33.804  1.00  0.00    -0.246 OA
BRANCH  29  31
ATOM     31  C   UNL A   1      48.313  25.881  33.171  1.00  0.00     0.060 A 
ATOM     32  C   UNL A   1      47.529  25.904  32.007  1.00  0.00     0.016 A 
ATOM     33  C   UNL A   1      48.326  26.983  34.027  1.00  0.00     0.016 A 
ATOM     34  C   UNL A   1      46.796  27.043  31.669  1.00  0.00     0.010 A 
ATOM     35  C   UNL A   1      47.610  28.136  33.674  1.00  0.00     0.010 A 
ATOM     36  C   UNL A   1      46.879  28.187  32.471  1.00  0.00    -0.014 A 
BRANCH  36  37
ATOM     37  C   UNL A   1      46.412  29.494  31.936  1.00  0.00     0.031 A 
ATOM     38  C   UNL A   1      44.969  29.872  32.148  1.00  0.00     0.074 A 
ATOM     39  C   UNL A   1      47.246  30.343  31.307  1.00  0.00     0.049 A 
ATOM     40  N   UNL A   1      44.298  30.899  31.698  1.00  0.00    -0.248 NA
ATOM     41  C   UNL A   1      44.177  28.953  32.982  1.00  0.00     0.031 C 
ATOM     42  C   UNL A   1      48.677  30.126  31.107  1.00  0.00     0.029 A 
ATOM     43  N   UNL A   1      47.002  31.555  30.709  1.00  0.00    -0.354 N 
ATOM     44  C   UNL A   1      43.001  30.746  32.183  1.00  0.00     0.074 A 
ATOM     45  C   UNL A   1      42.977  29.507  32.929  1.00  0.00     0.031 C 
ATOM     46  C   UNL A   1      49.181  31.163  30.414  1.00  0.00     0.029 A 
ATOM     47  C   UNL A   1      48.102  32.092  30.081  1.00  0.00     0.049 A 
ATOM     48  H   UNL A   1      46.124  31.999  30.730  1.00  0.00     0.167 HD
ATOM     49  C   UNL A   1      41.933  31.566  32.024  1.00  0.00     0.034 A 
ATOM     50  C   UNL A   1      48.214  33.184  29.295  1.00  0.00     0.034 A 
ATOM     51  C   UNL A   1      41.974  32.789  31.260  1.00  0.00     0.049 A 
ATOM     52  C   UNL A   1      46.985  34.028  29.037  1.00  0.00     0.074 A 
ATOM     53  C   UNL A   1      40.954  33.695  31.026  1.00  0.00     0.029 A 
ATOM     54  N   UNL A   1      43.094  33.274  30.596  1.00  0.00    -0.354 N 
ATOM     55  N   UNL A   1      45.759  33.867  29.485  1.00  0.00    -0.248 NA
ATOM     56  C   UNL A   1      47.156  35.205  28.175  1.00  0.00     0.031 C 
ATOM     57  C   UNL A   1      41.434  34.680  30.156  1.00  0.00     0.029 A 
ATOM     58  C   UNL A   1      42.780  34.445  29.923  1.00  0.00     0.049 A 
ATOM     59  H   UNL A   1      43.982  32.849  30.602  1.00  0.00     0.167 HD
ATOM     60  C   UNL A   1      45.025  34.940  28.983  1.00  0.00     0.074 A 
ATOM     61  C   UNL A   1      45.949  35.747  28.213  1.00  0.00     0.031 C 
ATOM     62  C   UNL A   1      43.710  35.236  29.150  1.00  0.00     0.034 A 
BRANCH  49  63
ATOM     63  C   UNL A   1      40.623  31.125  32.634  1.00  0.00     0.023 A 
ATOM     64  C   UNL A   1      40.205  31.570  33.901  1.00  0.00     0.031 A 
ATOM     65  C   UNL A   1      39.797  30.209  31.957  1.00  0.00     0.131 A 
ATOM     66  C   UNL A   1      39.042  31.040  34.482  1.00  0.00     0.055 A 
ATOM     67  C   UNL A   1      38.596  29.753  32.503  1.00  0.00     0.041 A 
ATOM     68  F   UNL A   1      40.154  29.726  30.756  1.00  0.00    -0.206 F 
ATOM     69  C   UNL A   1      38.220  30.155  33.782  1.00  0.00     0.022 A 
BRANCH  66  70
ATOM     70  S   UNL A   1      38.706  31.398  36.230  1.00  0.00     0.124 S 
ATOM     71  O   UNL A   1      40.057  31.576  36.759  1.00  0.00    -0.237 OA
ATOM     72  O   UNL A   1      37.886  32.602  36.152  1.00  0.00    -0.237 OA
ATOM     73  O   UNL A   1      38.014  30.199  36.698  1.00  0.00    -0.744 OA
ENDBRANCH  66  70
ENDBRANCH  49  63
BRANCH  50  74
ATOM     74  C   UNL A   1      49.515  33.519  28.643  1.00  0.00     0.023 A 
ATOM     75  C   UNL A   1      49.889  32.946  27.417  1.00  0.00     0.031 A 
ATOM     76  C   UNL A   1      50.434  34.378  29.273  1.00  0.00     0.131 A 
ATOM     77  C   UNL A   1      51.161  33.206  26.880  1.00  0.00     0.055 A 
ATOM     78  C   UNL A   1      51.674  34.681  28.706  1.00  0.00     0.041 A 
ATOM     79  F   UNL A   1      50.136  34.947  30.452  1.00  0.00    -0.206 F 
ATOM     80  C   UNL A   1      52.048  34.083  27.508  1.00  0.00     0.022 A 
BRANCH  77  81
ATOM     81  S   UNL A   1      51.677  32.308  25.390  1.00  0.00     0.124 S 
ATOM     82  O   UNL A   1      51.175  33.178  24.332  1.00  0.00    -0.237 OA
ATOM     83  O   UNL A   1      53.126  32.263  25.550  1.00  0.00    -0.237 OA
ATOM     84  O   UNL A   1      50.998  31.020  25.517  1.00  0.00    -0.744 OA
ENDBRANCH  77  81
ENDBRANCH  50  74
BRANCH  62  85
ATOM     85  C   UNL A   1      43.204  36.519  28.530  1.00  0.00     0.023 A 
ATOM     86  C   UNL A   1      43.329  37.760  29.178  1.00  0.00     0.031 A 
ATOM     87  C   UNL A   1      42.583  36.494  27.267  1.00  0.00     0.131 A 
ATOM     88  C   UNL A   1      42.790  38.914  28.589  1.00  0.00     0.055 A 
ATOM     89  C   UNL A   1      42.109  37.656  26.656  1.00  0.00     0.041 A 
ATOM     90  F   UNL A   1      42.431  35.338  26.602  1.00  0.00    -0.206 F 
ATOM     91  C   UNL A   1      42.198  38.874  27.324  1.00  0.00     0.022 A 
BRANCH  88  92
ATOM     92  S   UNL A   1      42.776  40.456  29.546  1.00  0.00     0.124 S 
ATOM     93  O   UNL A   1      43.169  39.993  30.872  1.00  0.00    -0.237 OA
ATOM     94  O   UNL A   1      43.756  41.272  28.838  1.00  0.00    -0.237 OA
ATOM     95  O   UNL A   1      41.392  40.914  29.436  1.00  0.00    -0.744 OA
ENDBRANCH  88  92
ENDBRANCH  62  85
ENDBRANCH  36  37
ENDBRANCH  29  31
ENDBRANCH  28  29
ENDBRANCH  27  28
ENDBRANCH  26  27
ENDBRANCH  25  26
ENDBRANCH  24  25
ENDBRANCH  23  24
ENDBRANCH  22  23
ENDBRANCH  20  22
ENDBRANCH   1  20
TORSDOF 30
ENDMDL
MODEL 3
REMARK VINA RESULT:      -5.3      2.757      4.552
REMARK SMILES CC/C=C/C/C=C/C/C=C/C/C=C/CCSCCCC(=O)OCCOCCOC(=O)c1ccc(-c2c3nc(c(-c4cc(S(=O)(=O)[O-])ccc4F)c4ccc([nH]4)c(-c4cc(S(=O)(=O)[O-])ccc4F)c4nc(c(-c5cc(S(=O)(=O)[O-])ccc5F)c5ccc2[nH]5)C=C4)C=C3)cc1
REMARK SMILES IDX 19 1 18 2 17 3 16 4 15 5 14 6 13 7 12 8 11 9 10 10 9 11 8 12
REMARK SMILES IDX 7 13 6 14 5 15 4 16 3 17 2 18 1 19 20 20 21 21 22 22 23 23
REMARK SMILES IDX 24 24 25 25 26 26 27 27 28 28 29 29 30 30 31 31 32 32 93 33
REMARK SMILES IDX 33 34 92 35 34 36 35 37 36 38 86 39 37 40 91 41 85 42 87 43
REMARK SMILES IDX 38 44 90 45 84 46 83 47 39 49 71 50 51 51 70 52 52 53 55 54
REMARK SMILES IDX 69 55 88 56 53 57 54 58 68 60 89 61 56 62 40 63 41 64 49 65
REMARK SMILES IDX 42 66 48 67 50 68 47 69 43 70 44 71 45 72 46 73 72 74 73 75
REMARK SMILES IDX 81 76 74 77 80 78 82 79 79 80 75 81 76 82 77 83 78 84 57 85
REMARK SMILES IDX 58 86 66 87 59 88 65 89 67 90 64 91 60 92 61 93 62 94 63 95
REMARK H PARENT 87 48 55 59
REMARK Flexibility Score: inf
ROOT
ATOM      1  C   UNL A   1      39.543  29.865  29.224  1.00  0.00     0.123 C 
ENDROOT
BRANCH   1   2
ATOM      2  C   UNL A   1      39.807  28.622  30.062  1.00  0.00     0.023 C 
BRANCH   2   3
ATOM      3  C   UNL A   1      41.245  28.089  30.157  1.00  0.00     0.070 C 
BRANCH   3   4
ATOM      4  S   UNL A   1      41.929  27.024  28.839  1.00  0.00    -0.162 SA
BRANCH   4   5
ATOM      5  C   UNL A   1      40.664  26.940  27.516  1.00  0.00     0.073 C 
BRANCH   5   6
ATOM      6  C   UNL A   1      39.364  26.151  27.771  1.00  0.00     0.038 C 
BRANCH   6   7
ATOM      7  C   UNL A   1      39.488  24.653  27.922  1.00  0.00    -0.030 C 
ATOM      8  C   UNL A   1      40.285  23.844  27.188  1.00  0.00    -0.027 C 
BRANCH   8   9
ATOM      9  C   UNL A   1      40.456  22.333  27.328  1.00  0.00     0.054 C 
BRANCH   9  10
ATOM     10  C   UNL A   1      39.581  21.549  26.372  1.00  0.00    -0.027 C 
ATOM     11  C   UNL A   1      38.426  21.970  25.816  1.00  0.00    -0.027 C 
BRANCH  11  12
ATOM     12  C   UNL A   1      37.615  21.188  24.809  1.00  0.00     0.054 C 
BRANCH  12  13
ATOM     13  C   UNL A   1      36.571  22.073  24.197  1.00  0.00    -0.027 C 
ATOM     14  C   UNL A   1      36.281  23.317  24.609  1.00  0.00    -0.027 C 
BRANCH  14  15
ATOM     15  C   UNL A   1      35.047  24.045  24.163  1.00  0.00     0.054 C 
BRANCH  15  16
ATOM     16  C   UNL A   1      33.843  23.446  24.832  1.00  0.00    -0.027 C 
ATOM     17  C   UNL A   1      33.375  23.832  26.029  1.00  0.00    -0.031 C 
BRANCH  17  18
ATOM     18  C   UNL A   1      32.224  23.165  26.724  1.00  0.00     0.023 C 
ATOM     19  C   UNL A   1      30.959  23.994  26.572  1.00  0.00     0.008 C 
ENDBRANCH  17  18
ENDBRANCH  15  16
ENDBRANCH  14  15
ENDBRANCH  12  13
ENDBRANCH  11  12
ENDBRANCH   9  10
ENDBRANCH   8   9
ENDBRANCH   6   7
ENDBRANCH   5   6
ENDBRANCH   4   5
ENDBRANCH   3   4
ENDBRANCH   2   3
ENDBRANCH   1   2
BRANCH   1  20
ATOM     20  C   UNL A   1      38.098  30.235  29.053  1.00  0.00     0.305 C 
ATOM     21  O   UNL A   1      37.584  30.292  27.945  1.00  0.00    -0.252 OA
BRANCH  20  22
ATOM     22  O   UNL A   1      37.506  30.570  30.220  1.00  0.00    -0.463 OA
BRANCH  22  23
ATOM     23  C   UNL A   1      36.180  31.107  30.203  1.00  0.00     0.261 C 
BRANCH  23  24
ATOM     24  C   UNL A   1      35.701  32.023  31.335  1.00  0.00     0.202 C 
BRANCH  24  25
ATOM     25  O   UNL A   1      36.365  33.222  31.677  1.00  0.00    -0.374 OA
BRANCH  25  26
ATOM     26  C   UNL A   1      37.549  33.165  32.445  1.00  0.00     0.202 C 
BRANCH  26  27
ATOM     27  C   UNL A   1      38.882  33.637  31.832  1.00  0.00     0.261 C 
BRANCH  27  28
ATOM     28  O   UNL A   1      39.875  34.157  32.737  1.00  0.00    -0.460 OA
BRANCH  28  29
ATOM     29  C   UNL A   1      40.222  33.329  33.753  1.00  0.00     0.338 C 
ATOM     30  O   UNL A   1      39.688  33.271  34.854  1.00  0.00    -0.246 OA
BRANCH  29  31
ATOM     31  C   UNL A   1      41.252  32.361  33.313  1.00  0.00     0.060 A 
ATOM     32  C   UNL A   1      40.898  31.007  33.209  1.00  0.00     0.016 A 
ATOM     33  C   UNL A   1      42.575  32.756  33.102  1.00  0.00     0.016 A 
ATOM     34  C   UNL A   1      41.869  30.039  32.944  1.00  0.00     0.010 A 
ATOM     35  C   UNL A   1      43.553  31.780  32.862  1.00  0.00     0.010 A 
ATOM     36  C   UNL A   1      43.212  30.414  32.827  1.00  0.00    -0.014 A 
BRANCH  36  37
ATOM     37  C   UNL A   1      44.274  29.377  32.915  1.00  0.00     0.031 A 
ATOM     38  C   UNL A   1      44.621  28.833  34.277  1.00  0.00     0.074 A 
ATOM     39  C   UNL A   1      44.896  28.902  31.821  1.00  0.00     0.049 A 
ATOM     40  N   UNL A   1      45.568  28.005  34.630  1.00  0.00    -0.248 NA
ATOM     41  C   UNL A   1      43.780  29.298  35.391  1.00  0.00     0.031 C 
ATOM     42  C   UNL A   1      44.597  29.292  30.445  1.00  0.00     0.029 A 
ATOM     43  N   UNL A   1      45.919  27.994  31.698  1.00  0.00    -0.354 N 
ATOM     44  C   UNL A   1      45.446  27.857  36.010  1.00  0.00     0.074 A 
ATOM     45  C   UNL A   1      44.357  28.712  36.428  1.00  0.00     0.031 C 
ATOM     46  C   UNL A   1      45.434  28.641  29.617  1.00  0.00     0.029 A 
ATOM     47  C   UNL A   1      46.358  27.827  30.405  1.00  0.00     0.049 A 
ATOM     48  H   UNL A   1      46.301  27.507  32.464  1.00  0.00     0.167 HD
ATOM     49  C   UNL A   1      46.173  27.077  36.848  1.00  0.00     0.034 A 
ATOM     50  C   UNL A   1      47.407  27.129  29.921  1.00  0.00     0.034 A 
ATOM     51  C   UNL A   1      47.268  26.244  36.413  1.00  0.00     0.049 A 
ATOM     52  C   UNL A   1      48.276  26.352  30.885  1.00  0.00     0.074 A 
ATOM     53  C   UNL A   1      48.078  25.417  37.172  1.00  0.00     0.029 A 
ATOM     54  N   UNL A   1      47.715  26.140  35.102  1.00  0.00    -0.354 N 
ATOM     55  N   UNL A   1      48.164  26.232  32.190  1.00  0.00    -0.248 NA
ATOM     56  C   UNL A   1      49.406  25.610  30.311  1.00  0.00     0.031 C 
ATOM     57  C   UNL A   1      49.062  24.880  36.336  1.00  0.00     0.029 A 
ATOM     58  C   UNL A   1      48.811  25.294  35.037  1.00  0.00     0.049 A 
ATOM     59  H   UNL A   1      47.312  26.601  34.330  1.00  0.00     0.167 HD
ATOM     60  C   UNL A   1      49.191  25.375  32.583  1.00  0.00     0.074 A 
ATOM     61  C   UNL A   1      49.900  24.999  31.378  1.00  0.00     0.031 C 
ATOM     62  C   UNL A   1      49.515  24.934  33.827  1.00  0.00     0.034 A 
BRANCH  49  63
ATOM     63  C   UNL A   1      45.843  27.146  38.321  1.00  0.00     0.023 A 
ATOM     64  C   UNL A   1      46.509  28.029  39.191  1.00  0.00     0.031 A 
ATOM     65  C   UNL A   1      44.878  26.286  38.874  1.00  0.00     0.131 A 
ATOM     66  C   UNL A   1      46.258  27.975  40.571  1.00  0.00     0.055 A 
ATOM     67  C   UNL A   1      44.570  26.299  40.236  1.00  0.00     0.041 A 
ATOM     68  F   UNL A   1      44.228  25.402  38.101  1.00  0.00    -0.206 F 
ATOM     69  C   UNL A   1      45.274  27.135  41.097  1.00  0.00     0.022 A 
BRANCH  66  70
ATOM     70  S   UNL A   1      47.351  28.899  41.688  1.00  0.00     0.124 S 
ATOM     71  O   UNL A   1      46.998  30.281  41.368  1.00  0.00    -0.237 OA
ATOM     72  O   UNL A   1      46.936  28.422  43.001  1.00  0.00    -0.237 OA
ATOM     73  O   UNL A   1      48.691  28.494  41.269  1.00  0.00    -0.744 OA
ENDBRANCH  66  70
ENDBRANCH  49  63
BRANCH  50  74
ATOM     74  C   UNL A   1      47.740  27.173  28.465  1.00  0.00     0.023 A 
ATOM     75  C   UNL A   1      47.125  26.307  27.547  1.00  0.00     0.031 A 
ATOM     76  C   UNL A   1      48.727  28.050  27.980  1.00  0.00     0.131 A 
ATOM     77  C   UNL A   1      47.532  26.308  26.203  1.00  0.00     0.055 A 
ATOM     78  C   UNL A   1      49.086  28.089  26.631  1.00  0.00     0.041 A 
ATOM     79  F   UNL A   1      49.357  28.894  28.813  1.00  0.00    -0.206 F 
ATOM     80  C   UNL A   1      48.495  27.204  25.736  1.00  0.00     0.022 A 
BRANCH  77  81
ATOM     81  S   UNL A   1      46.845  25.053  25.085  1.00  0.00     0.124 S 
ATOM     82  O   UNL A   1      46.920  23.851  25.908  1.00  0.00    -0.237 OA
ATOM     83  O   UNL A   1      45.507  25.575  24.830  1.00  0.00    -0.237 OA
ATOM     84  O   UNL A   1      47.753  25.085  23.940  1.00  0.00    -0.744 OA
ENDBRANCH  77  81
ENDBRANCH  50  74
BRANCH  62  85
ATOM     85  C   UNL A   1      50.655  23.948  33.937  1.00  0.00     0.023 A 
ATOM     86  C   UNL A   1      51.993  24.365  34.043  1.00  0.00     0.031 A 
ATOM     87  C   UNL A   1      50.394  22.565  33.932  1.00  0.00     0.131 A 
ATOM     88  C   UNL A   1      53.023  23.412  34.083  1.00  0.00     0.055 A 
ATOM     89  C   UNL A   1      51.417  21.621  34.041  1.00  0.00     0.041 A 
ATOM     90  F   UNL A   1      49.137  22.107  33.830  1.00  0.00    -0.206 F 
ATOM     91  C   UNL A   1      52.742  22.043  34.102  1.00  0.00     0.022 A 
BRANCH  88  92
ATOM     92  S   UNL A   1      54.743  23.982  34.001  1.00  0.00     0.124 S 
ATOM     93  O   UNL A   1      55.425  22.809  33.465  1.00  0.00    -0.237 OA
ATOM     94  O   UNL A   1      54.649  25.130  33.106  1.00  0.00    -0.237 OA
ATOM     95  O   UNL A   1      55.064  24.303  35.391  1.00  0.00    -0.744 OA
ENDBRANCH  88  92
ENDBRANCH  62  85
ENDBRANCH  36  37
ENDBRANCH  29  31
ENDBRANCH  28  29
ENDBRANCH  27  28
ENDBRANCH  26  27
ENDBRANCH  25  26
ENDBRANCH  24  25
ENDBRANCH  23  24
ENDBRANCH  22  23
ENDBRANCH  20  22
ENDBRANCH   1  20
TORSDOF 30
ENDMDL
