MODEL 1
REMARK VINA RESULT:     -11.1      0.000      0.000
REMARK SMILES [NH3+][C@H]1CCCC[C@@H]1C(=O)N1CC(C(=O)OCCOCCOC(=O)c2ccc(-c3c4nc(c(-c5cc(S(=O)(=O)[O-])ccc5F)c5ccc([nH]5)c(-c5cc(S(=O)(=O)[O-])ccc5F)c5nc(c(-c6cc(S(=O)(=O)[O-])ccc6F)c6ccc3[nH]6)C=C5)C=C4)cc2)C1
REMARK SMILES IDX 19 1 18 2 17 3 16 4 15 5 13 6 14 7 12 8 8 9 9 10 10 11 11 12
REMARK SMILES IDX 87 13 7 14 2 15 3 16 4 17 6 18 5 19 1 20 20 24 21 25 22 26
REMARK SMILES IDX 23 27 24 28 25 29 86 30 26 31 85 32 27 33 28 34 29 35 79 36
REMARK SMILES IDX 30 37 84 38 78 39 80 40 31 41 83 42 77 43 76 44 32 46 64 47
REMARK SMILES IDX 44 48 63 49 45 50 48 51 62 52 81 53 46 54 47 55 61 57 82 58
REMARK SMILES IDX 49 59 33 60 34 61 42 62 35 63 41 64 43 65 40 66 36 67 37 68
REMARK SMILES IDX 38 69 39 70 65 71 66 72 74 73 67 74 73 75 75 76 72 77 68 78
REMARK SMILES IDX 69 79 70 80 71 81 50 82 51 83 59 84 52 85 58 86 60 87 57 88
REMARK SMILES IDX 53 89 54 90 55 91 56 92
REMARK H PARENT 1 21 1 22 1 23 80 45 48 56
REMARK Flexibility Score: inf
ROOT
ATOM      1  C   UNL A   1      36.175  20.033  24.863  1.00  0.00     0.202 C 
ENDROOT
BRANCH   1   2
ATOM      2  O   UNL A   1      35.616  21.344  24.970  1.00  0.00    -0.374 OA
BRANCH   2   3
ATOM      3  C   UNL A   1      34.913  21.679  26.164  1.00  0.00     0.202 C 
BRANCH   3   4
ATOM      4  C   UNL A   1      33.522  21.060  26.345  1.00  0.00     0.261 C 
BRANCH   4   5
ATOM      5  O   UNL A   1      32.740  21.164  25.145  1.00  0.00    -0.463 OA
BRANCH   5   6
ATOM      6  C   UNL A   1      31.831  22.183  25.116  1.00  0.00     0.312 C 
ATOM      7  O   UNL A   1      31.122  22.493  26.075  1.00  0.00    -0.252 OA
BRANCH   6   8
ATOM      8  C   UNL A   1      31.850  22.966  23.803  1.00  0.00     0.138 C 
ATOM      9  C   UNL A   1      32.703  25.863  22.268  1.00  0.00     0.231 C 
ATOM     10  O   UNL A   1      33.553  25.777  21.374  1.00  0.00    -0.274 OA
ATOM     11  N   UNL A   1      32.237  24.732  22.864  1.00  0.00    -0.340 N 
ATOM     12  C   UNL A   1      33.120  23.765  23.514  1.00  0.00     0.136 C 
ATOM     13  C   UNL A   1      31.089  24.303  23.638  1.00  0.00     0.136 C 
BRANCH   9  14
ATOM     14  C   UNL A   1      32.232  27.239  22.716  1.00  0.00     0.136 C 
ATOM     15  C   UNL A   1      32.495  27.561  24.200  1.00  0.00     0.193 C 
ATOM     16  C   UNL A   1      32.133  29.019  24.510  1.00  0.00     0.066 C 
ATOM     17  C   UNL A   1      30.700  29.342  24.090  1.00  0.00     0.006 C 
ATOM     18  C   UNL A   1      30.783  27.534  22.324  1.00  0.00     0.020 C 
ATOM     19  C   UNL A   1      30.445  28.996  22.625  1.00  0.00     0.001 C 
BRANCH  15  20
ATOM     20  N   UNL A   1      33.890  27.314  24.578  1.00  0.00    -0.354 N 
ATOM     21  H   UNL A   1      34.075  27.735  25.489  1.00  0.00     0.344 HD
ATOM     22  H   UNL A   1      34.509  27.728  23.881  1.00  0.00     0.344 HD
ATOM     23  H   UNL A   1      34.057  26.309  24.627  1.00  0.00     0.344 HD
ENDBRANCH  15  20
ENDBRANCH   9  14
ENDBRANCH   6   8
ENDBRANCH   5   6
ENDBRANCH   4   5
ENDBRANCH   3   4
ENDBRANCH   2   3
ENDBRANCH   1   2
BRANCH   1  24
ATOM     24  C   UNL A   1      37.696  19.886  24.996  1.00  0.00     0.261 C 
BRANCH  24  25
ATOM     25  O   UNL A   1      38.339  21.095  25.436  1.00  0.00    -0.460 OA
BRANCH  25  26
ATOM     26  C   UNL A   1      39.458  20.901  26.178  1.00  0.00     0.338 C 
ATOM     27  O   UNL A   1      40.118  19.872  26.249  1.00  0.00    -0.246 OA
BRANCH  26  28
ATOM     28  C   UNL A   1      39.910  22.173  26.767  1.00  0.00     0.060 A 
ATOM     29  C   UNL A   1      39.379  23.360  26.242  1.00  0.00     0.016 A 
ATOM     30  C   UNL A   1      40.900  22.212  27.751  1.00  0.00     0.016 A 
ATOM     31  C   UNL A   1      39.868  24.593  26.670  1.00  0.00     0.010 A 
ATOM     32  C   UNL A   1      41.395  23.453  28.170  1.00  0.00     0.010 A 
ATOM     33  C   UNL A   1      40.904  24.647  27.609  1.00  0.00    -0.014 A 
BRANCH  33  34
ATOM     34  C   UNL A   1      41.581  25.937  27.889  1.00  0.00     0.031 A 
ATOM     35  C   UNL A   1      40.826  27.008  28.630  1.00  0.00     0.074 A 
ATOM     36  C   UNL A   1      42.853  26.148  27.506  1.00  0.00     0.049 A 
ATOM     37  N   UNL A   1      41.183  28.232  28.917  1.00  0.00    -0.248 NA
ATOM     38  C   UNL A   1      39.483  26.643  29.107  1.00  0.00     0.031 C 
ATOM     39  C   UNL A   1      43.704  25.167  26.835  1.00  0.00     0.029 A 
ATOM     40  N   UNL A   1      43.649  27.261  27.622  1.00  0.00    -0.354 N 
ATOM     41  C   UNL A   1      40.109  28.789  29.606  1.00  0.00     0.074 A 
ATOM     42  C   UNL A   1      39.075  27.777  29.656  1.00  0.00     0.031 C 
ATOM     43  C   UNL A   1      44.901  25.726  26.588  1.00  0.00     0.029 A 
ATOM     44  C   UNL A   1      44.887  27.116  27.042  1.00  0.00     0.049 A 
ATOM     45  H   UNL A   1      43.360  28.084  28.078  1.00  0.00     0.167 HD
ATOM     46  C   UNL A   1      40.002  30.026  30.151  1.00  0.00     0.034 A 
ATOM     47  C   UNL A   1      45.879  28.012  26.868  1.00  0.00     0.034 A 
ATOM     48  C   UNL A   1      41.038  31.027  30.079  1.00  0.00     0.049 A 
ATOM     49  C   UNL A   1      45.697  29.418  27.392  1.00  0.00     0.074 A 
ATOM     50  C   UNL A   1      41.036  32.311  30.598  1.00  0.00     0.029 A 
ATOM     51  N   UNL A   1      42.260  30.862  29.439  1.00  0.00    -0.354 N 
ATOM     52  N   UNL A   1      44.675  29.935  28.035  1.00  0.00    -0.248 NA
ATOM     53  C   UNL A   1      46.804  30.358  27.170  1.00  0.00     0.031 C 
ATOM     54  C   UNL A   1      42.223  32.942  30.211  1.00  0.00     0.029 A 
ATOM     55  C   UNL A   1      43.003  32.029  29.520  1.00  0.00     0.049 A 
ATOM     56  H   UNL A   1      42.555  30.036  28.992  1.00  0.00     0.167 HD
ATOM     57  C   UNL A   1      45.034  31.250  28.325  1.00  0.00     0.074 A 
ATOM     58  C   UNL A   1      46.367  31.443  27.794  1.00  0.00     0.031 C 
ATOM     59  C   UNL A   1      44.330  32.208  28.980  1.00  0.00     0.034 A 
BRANCH  46  60
ATOM     60  C   UNL A   1      38.695  30.375  30.822  1.00  0.00     0.023 A 
ATOM     61  C   UNL A   1      37.647  30.998  30.124  1.00  0.00     0.031 A 
ATOM     62  C   UNL A   1      38.508  30.110  32.190  1.00  0.00     0.131 A 
ATOM     63  C   UNL A   1      36.490  31.400  30.809  1.00  0.00     0.055 A 
ATOM     64  C   UNL A   1      37.322  30.440  32.849  1.00  0.00     0.041 A 
ATOM     65  F   UNL A   1      39.482  29.539  32.916  1.00  0.00    -0.206 F 
ATOM     66  C   UNL A   1      36.309  31.102  32.162  1.00  0.00     0.022 A 
BRANCH  63  67
ATOM     67  S   UNL A   1      35.288  32.446  29.942  1.00  0.00     0.124 S 
ATOM     68  O   UNL A   1      34.318  32.718  31.000  1.00  0.00    -0.237 OA
ATOM     69  O   UNL A   1      36.104  33.577  29.516  1.00  0.00    -0.237 OA
ATOM     70  O   UNL A   1      34.800  31.586  28.866  1.00  0.00    -0.744 OA
ENDBRANCH  63  67
ENDBRANCH  46  60
BRANCH  47  71
ATOM     71  C   UNL A   1      47.119  27.635  26.130  1.00  0.00     0.023 A 
ATOM     72  C   UNL A   1      47.246  27.876  24.753  1.00  0.00     0.031 A 
ATOM     73  C   UNL A   1      48.174  26.972  26.784  1.00  0.00     0.131 A 
ATOM     74  C   UNL A   1      48.378  27.413  24.064  1.00  0.00     0.055 A 
ATOM     75  C   UNL A   1      49.322  26.563  26.105  1.00  0.00     0.041 A 
ATOM     76  F   UNL A   1      48.104  26.715  28.100  1.00  0.00    -0.206 F 
ATOM     77  C   UNL A   1      49.423  26.770  24.732  1.00  0.00     0.022 A 
BRANCH  74  78
ATOM     78  S   UNL A   1      48.425  27.582  22.259  1.00  0.00     0.124 S 
ATOM     79  O   UNL A   1      49.564  28.474  22.075  1.00  0.00    -0.237 OA
ATOM     80  O   UNL A   1      48.614  26.200  21.831  1.00  0.00    -0.237 OA
ATOM     81  O   UNL A   1      47.121  28.160  21.938  1.00  0.00    -0.744 OA
ENDBRANCH  74  78
ENDBRANCH  47  71
BRANCH  59  82
ATOM     82  C   UNL A   1      45.016  33.534  29.207  1.00  0.00     0.023 A 
ATOM     83  C   UNL A   1      44.974  34.566  28.253  1.00  0.00     0.031 A 
ATOM     84  C   UNL A   1      45.719  33.767  30.403  1.00  0.00     0.131 A 
ATOM     85  C   UNL A   1      45.666  35.765  28.491  1.00  0.00     0.055 A 
ATOM     86  C   UNL A   1      46.356  34.982  30.658  1.00  0.00     0.041 A 
ATOM     87  F   UNL A   1      45.792  32.815  31.348  1.00  0.00    -0.206 F 
ATOM     88  C   UNL A   1      46.341  35.985  29.694  1.00  0.00     0.022 A 
BRANCH  85  89
ATOM     89  S   UNL A   1      45.735  37.008  27.171  1.00  0.00     0.124 S 
ATOM     90  O   UNL A   1      46.626  38.011  27.746  1.00  0.00    -0.237 OA
ATOM     91  O   UNL A   1      46.272  36.246  26.050  1.00  0.00    -0.237 OA
ATOM     92  O   UNL A   1      44.342  37.429  27.023  1.00  0.00    -0.744 OA
ENDBRANCH  85  89
ENDBRANCH  59  82
ENDBRANCH  33  34
ENDBRANCH  26  28
ENDBRANCH  25  26
ENDBRANCH  24  25
ENDBRANCH   1  24
TORSDOF 19
ENDMDL
MODEL 2
REMARK VINA RESULT:     -11.1      5.111      8.650
REMARK SMILES [NH3+][C@H]1CCCC[C@@H]1C(=O)N1CC(C(=O)OCCOCCOC(=O)c2ccc(-c3c4nc(c(-c5cc(S(=O)(=O)[O-])ccc5F)c5ccc([nH]5)c(-c5cc(S(=O)(=O)[O-])ccc5F)c5nc(c(-c6cc(S(=O)(=O)[O-])ccc6F)c6ccc3[nH]6)C=C5)C=C4)cc2)C1
REMARK SMILES IDX 19 1 18 2 17 3 16 4 15 5 13 6 14 7 12 8 8 9 9 10 10 11 11 12
REMARK SMILES IDX 87 13 7 14 2 15 3 16 4 17 6 18 5 19 1 20 20 24 21 25 22 26
REMARK SMILES IDX 23 27 24 28 25 29 86 30 26 31 85 32 27 33 28 34 29 35 79 36
REMARK SMILES IDX 30 37 84 38 78 39 80 40 31 41 83 42 77 43 76 44 32 46 64 47
REMARK SMILES IDX 44 48 63 49 45 50 48 51 62 52 81 53 46 54 47 55 61 57 82 58
REMARK SMILES IDX 49 59 33 60 34 61 42 62 35 63 41 64 43 65 40 66 36 67 37 68
REMARK SMILES IDX 38 69 39 70 65 71 66 72 74 73 67 74 73 75 75 76 72 77 68 78
REMARK SMILES IDX 69 79 70 80 71 81 50 82 51 83 59 84 52 85 58 86 60 87 57 88
REMARK SMILES IDX 53 89 54 90 55 91 56 92
REMARK H PARENT 1 21 1 22 1 23 80 45 48 56
REMARK Flexibility Score: inf
ROOT
ATOM      1  C   UNL A   1      31.512  31.565  26.668  1.00  0.00     0.202 C 
ENDROOT
BRANCH   1   2
ATOM      2  O   UNL A   1      32.334  30.397  26.610  1.00  0.00    -0.374 OA
BRANCH   2   3
ATOM      3  C   UNL A   1      31.743  29.182  26.152  1.00  0.00     0.202 C 
BRANCH   3   4
ATOM      4  C   UNL A   1      32.199  27.889  26.838  1.00  0.00     0.261 C 
BRANCH   4   5
ATOM      5  O   UNL A   1      31.151  26.907  26.859  1.00  0.00    -0.463 OA
BRANCH   5   6
ATOM      6  C   UNL A   1      31.274  25.892  25.953  1.00  0.00     0.312 C 
ATOM      7  O   UNL A   1      31.167  26.047  24.735  1.00  0.00    -0.252 OA
BRANCH   6   8
ATOM      8  C   UNL A   1      31.652  24.556  26.595  1.00  0.00     0.138 C 
ATOM      9  C   UNL A   1      33.010  21.491  26.116  1.00  0.00     0.231 C 
ATOM     10  O   UNL A   1      34.045  21.247  26.749  1.00  0.00    -0.274 OA
ATOM     11  N   UNL A   1      32.353  22.662  26.330  1.00  0.00    -0.340 N 
ATOM     12  C   UNL A   1      32.997  23.965  26.175  1.00  0.00     0.136 C 
ATOM     13  C   UNL A   1      31.030  23.220  26.129  1.00  0.00     0.136 C 
BRANCH   9  14
ATOM     14  C   UNL A   1      32.522  20.492  25.077  1.00  0.00     0.136 C 
ATOM     15  C   UNL A   1      33.039  19.053  25.271  1.00  0.00     0.193 C 
ATOM     16  C   UNL A   1      32.367  18.099  24.275  1.00  0.00     0.066 C 
ATOM     17  C   UNL A   1      32.528  18.586  22.835  1.00  0.00     0.006 C 
ATOM     18  C   UNL A   1      32.725  20.975  23.640  1.00  0.00     0.020 C 
ATOM     19  C   UNL A   1      32.034  20.021  22.663  1.00  0.00     0.001 C 
BRANCH  15  20
ATOM     20  N   UNL A   1      32.818  18.568  26.636  1.00  0.00    -0.354 N 
ATOM     21  H   UNL A   1      33.717  18.441  27.101  1.00  0.00     0.344 HD
ATOM     22  H   UNL A   1      32.324  17.676  26.604  1.00  0.00     0.344 HD
ATOM     23  H   UNL A   1      32.260  19.248  27.153  1.00  0.00     0.344 HD
ENDBRANCH  15  20
ENDBRANCH   9  14
ENDBRANCH   6   8
ENDBRANCH   5   6
ENDBRANCH   4   5
ENDBRANCH   3   4
ENDBRANCH   2   3
ENDBRANCH   1   2
BRANCH   1  24
ATOM     24  C   UNL A   1      32.206  32.933  26.652  1.00  0.00     0.261 C 
BRANCH  24  25
ATOM     25  O   UNL A   1      32.272  33.543  27.953  1.00  0.00    -0.460 OA
BRANCH  25  26
ATOM     26  C   UNL A   1      33.383  34.290  28.169  1.00  0.00     0.338 C 
ATOM     27  O   UNL A   1      33.437  35.512  28.253  1.00  0.00    -0.246 OA
BRANCH  26  28
ATOM     28  C   UNL A   1      34.531  33.425  28.487  1.00  0.00     0.060 A 
ATOM     29  C   UNL A   1      34.271  32.207  29.133  1.00  0.00     0.016 A 
ATOM     30  C   UNL A   1      35.844  33.833  28.244  1.00  0.00     0.016 A 
ATOM     31  C   UNL A   1      35.326  31.411  29.575  1.00  0.00     0.010 A 
ATOM     32  C   UNL A   1      36.901  33.035  28.699  1.00  0.00     0.010 A 
ATOM     33  C   UNL A   1      36.647  31.838  29.394  1.00  0.00    -0.014 A 
BRANCH  33  34
ATOM     34  C   UNL A   1      37.755  31.114  30.065  1.00  0.00     0.031 A 
ATOM     35  C   UNL A   1      38.074  31.443  31.498  1.00  0.00     0.074 A 
ATOM     36  C   UNL A   1      38.455  30.166  29.415  1.00  0.00     0.049 A 
ATOM     37  N   UNL A   1      39.040  30.998  32.259  1.00  0.00    -0.248 NA
ATOM     38  C   UNL A   1      37.182  32.408  32.158  1.00  0.00     0.031 C 
ATOM     39  C   UNL A   1      38.199  29.721  28.046  1.00  0.00     0.029 A 
ATOM     40  N   UNL A   1      39.528  29.412  29.821  1.00  0.00    -0.354 N 
ATOM     41  C   UNL A   1      38.877  31.630  33.488  1.00  0.00     0.074 A 
ATOM     42  C   UNL A   1      37.741  32.518  33.354  1.00  0.00     0.031 C 
ATOM     43  C   UNL A   1      39.101  28.778  27.721  1.00  0.00     0.029 A 
ATOM     44  C   UNL A   1      40.022  28.586  28.839  1.00  0.00     0.049 A 
ATOM     45  H   UNL A   1      39.907  29.459  30.728  1.00  0.00     0.167 HD
ATOM     46  C   UNL A   1      39.602  31.477  34.624  1.00  0.00     0.034 A 
ATOM     47  C   UNL A   1      41.111  27.791  28.835  1.00  0.00     0.034 A 
ATOM     48  C   UNL A   1      40.739  30.597  34.736  1.00  0.00     0.049 A 
ATOM     49  C   UNL A   1      41.968  27.714  30.078  1.00  0.00     0.074 A 
ATOM     50  C   UNL A   1      41.544  30.362  35.838  1.00  0.00     0.029 A 
ATOM     51  N   UNL A   1      41.242  29.812  33.706  1.00  0.00    -0.354 N 
ATOM     52  N   UNL A   1      41.808  28.322  31.231  1.00  0.00    -0.248 NA
ATOM     53  C   UNL A   1      43.147  26.841  30.019  1.00  0.00     0.031 C 
ATOM     54  C   UNL A   1      42.571  29.494  35.455  1.00  0.00     0.029 A 
ATOM     55  C   UNL A   1      42.364  29.121  34.137  1.00  0.00     0.049 A 
ATOM     56  H   UNL A   1      40.857  29.755  32.802  1.00  0.00     0.167 HD
ATOM     57  C   UNL A   1      42.846  27.875  32.045  1.00  0.00     0.074 A 
ATOM     58  C   UNL A   1      43.621  26.942  31.253  1.00  0.00     0.031 C 
ATOM     59  C   UNL A   1      43.130  28.198  33.333  1.00  0.00     0.034 A 
BRANCH  46  60
ATOM     60  C   UNL A   1      39.213  32.323  35.813  1.00  0.00     0.023 A 
ATOM     61  C   UNL A   1      39.688  33.636  35.974  1.00  0.00     0.031 A 
ATOM     62  C   UNL A   1      38.381  31.796  36.816  1.00  0.00     0.131 A 
ATOM     63  C   UNL A   1      39.388  34.351  37.144  1.00  0.00     0.055 A 
ATOM     64  C   UNL A   1      38.020  32.542  37.940  1.00  0.00     0.041 A 
ATOM     65  F   UNL A   1      37.917  30.540  36.730  1.00  0.00    -0.206 F 
ATOM     66  C   UNL A   1      38.537  33.822  38.117  1.00  0.00     0.022 A 
BRANCH  63  67
ATOM     67  S   UNL A   1      40.243  35.922  37.443  1.00  0.00     0.124 S 
ATOM     68  O   UNL A   1      39.722  36.751  36.360  1.00  0.00    -0.237 OA
ATOM     69  O   UNL A   1      39.798  36.272  38.788  1.00  0.00    -0.237 OA
ATOM     70  O   UNL A   1      41.657  35.570  37.325  1.00  0.00    -0.744 OA
ENDBRANCH  63  67
ENDBRANCH  46  60
BRANCH  47  71
ATOM     71  C   UNL A   1      41.492  27.034  27.608  1.00  0.00     0.023 A 
ATOM     72  C   UNL A   1      41.325  25.643  27.531  1.00  0.00     0.031 A 
ATOM     73  C   UNL A   1      42.088  27.688  26.513  1.00  0.00     0.131 A 
ATOM     74  C   UNL A   1      41.793  24.943  26.407  1.00  0.00     0.055 A 
ATOM     75  C   UNL A   1      42.501  26.994  25.375  1.00  0.00     0.041 A 
ATOM     76  F   UNL A   1      42.273  29.018  26.534  1.00  0.00    -0.206 F 
ATOM     77  C   UNL A   1      42.367  25.610  25.323  1.00  0.00     0.022 A 
BRANCH  74  78
ATOM     78  S   UNL A   1      41.722  23.130  26.423  1.00  0.00     0.124 S 
ATOM     79  O   UNL A   1      42.439  22.817  27.654  1.00  0.00    -0.237 OA
ATOM     80  O   UNL A   1      40.285  22.885  26.434  1.00  0.00    -0.237 OA
ATOM     81  O   UNL A   1      42.408  22.754  25.188  1.00  0.00    -0.744 OA
ENDBRANCH  74  78
ENDBRANCH  47  71
BRANCH  59  82
ATOM     82  C   UNL A   1      44.295  27.490  33.981  1.00  0.00     0.023 A 
ATOM     83  C   UNL A   1      44.140  26.270  34.662  1.00  0.00     0.031 A 
ATOM     84  C   UNL A   1      45.585  28.049  33.911  1.00  0.00     0.131 A 
ATOM     85  C   UNL A   1      45.246  25.674  35.288  1.00  0.00     0.055 A 
ATOM     86  C   UNL A   1      46.691  27.422  34.486  1.00  0.00     0.041 A 
ATOM     87  F   UNL A   1      45.790  29.214  33.275  1.00  0.00    -0.206 F 
ATOM     88  C   UNL A   1      46.523  26.232  35.189  1.00  0.00     0.022 A 
BRANCH  85  89
ATOM     89  S   UNL A   1      44.981  24.191  36.300  1.00  0.00     0.124 S 
ATOM     90  O   UNL A   1      43.915  24.624  37.198  1.00  0.00    -0.237 OA
ATOM     91  O   UNL A   1      44.610  23.193  35.303  1.00  0.00    -0.237 OA
ATOM     92  O   UNL A   1      46.279  23.975  36.938  1.00  0.00    -0.744 OA
ENDBRANCH  85  89
ENDBRANCH  59  82
ENDBRANCH  33  34
ENDBRANCH  26  28
ENDBRANCH  25  26
ENDBRANCH  24  25
ENDBRANCH   1  24
TORSDOF 19
ENDMDL
MODEL 3
REMARK VINA RESULT:     -11.0      1.357      7.741
REMARK SMILES [NH3+][C@H]1CCCC[C@@H]1C(=O)N1CC(C(=O)OCCOCCOC(=O)c2ccc(-c3c4nc(c(-c5cc(S(=O)(=O)[O-])ccc5F)c5ccc([nH]5)c(-c5cc(S(=O)(=O)[O-])ccc5F)c5nc(c(-c6cc(S(=O)(=O)[O-])ccc6F)c6ccc3[nH]6)C=C5)C=C4)cc2)C1
REMARK SMILES IDX 19 1 18 2 17 3 16 4 15 5 13 6 14 7 12 8 8 9 9 10 10 11 11 12
REMARK SMILES IDX 87 13 7 14 2 15 3 16 4 17 6 18 5 19 1 20 20 24 21 25 22 26
REMARK SMILES IDX 23 27 24 28 25 29 86 30 26 31 85 32 27 33 28 34 29 35 79 36
REMARK SMILES IDX 30 37 84 38 78 39 80 40 31 41 83 42 77 43 76 44 32 46 64 47
REMARK SMILES IDX 44 48 63 49 45 50 48 51 62 52 81 53 46 54 47 55 61 57 82 58
REMARK SMILES IDX 49 59 33 60 34 61 42 62 35 63 41 64 43 65 40 66 36 67 37 68
REMARK SMILES IDX 38 69 39 70 65 71 66 72 74 73 67 74 73 75 75 76 72 77 68 78
REMARK SMILES IDX 69 79 70 80 71 81 50 82 51 83 59 84 52 85 58 86 60 87 57 88
REMARK SMILES IDX 53 89 54 90 55 91 56 92
REMARK H PARENT 1 21 1 22 1 23 80 45 48 56
REMARK Flexibility Score: inf
ROOT
ATOM      1  C   UNL A   1      36.832  20.235  24.846  1.00  0.00     0.202 C 
ENDROOT
BRANCH   1   2
ATOM      2  O   UNL A   1      35.412  20.119  24.727  1.00  0.00    -0.374 OA
BRANCH   2   3
ATOM      3  C   UNL A   1      34.601  21.070  25.414  1.00  0.00     0.202 C 
BRANCH   3   4
ATOM      4  C   UNL A   1      33.233  20.586  25.907  1.00  0.00     0.261 C 
BRANCH   4   5
ATOM      5  O   UNL A   1      32.164  21.150  25.131  1.00  0.00    -0.463 OA
BRANCH   5   6
ATOM      6  C   UNL A   1      32.259  20.980  23.779  1.00  0.00     0.312 C 
ATOM      7  O   UNL A   1      32.382  19.881  23.236  1.00  0.00    -0.252 OA
BRANCH   6   8
ATOM      8  C   UNL A   1      32.103  22.286  22.998  1.00  0.00     0.138 C 
ATOM      9  C   UNL A   1      33.118  25.500  22.661  1.00  0.00     0.231 C 
ATOM     10  O   UNL A   1      33.673  25.788  21.594  1.00  0.00    -0.274 OA
ATOM     11  N   UNL A   1      32.596  24.255  22.832  1.00  0.00    -0.340 N 
ATOM     12  C   UNL A   1      33.394  23.039  22.684  1.00  0.00     0.136 C 
ATOM     13  C   UNL A   1      31.622  23.590  23.675  1.00  0.00     0.136 C 
BRANCH   9  14
ATOM     14  C   UNL A   1      33.076  26.531  23.778  1.00  0.00     0.136 C 
ATOM     15  C   UNL A   1      33.390  27.974  23.338  1.00  0.00     0.193 C 
ATOM     16  C   UNL A   1      33.165  28.954  24.497  1.00  0.00     0.066 C 
ATOM     17  C   UNL A   1      33.950  28.542  25.741  1.00  0.00     0.006 C 
ATOM     18  C   UNL A   1      33.897  26.124  25.002  1.00  0.00     0.020 C 
ATOM     19  C   UNL A   1      33.647  27.103  26.152  1.00  0.00     0.001 C 
BRANCH  15  20
ATOM     20  N   UNL A   1      32.582  28.386  22.187  1.00  0.00    -0.354 N 
ATOM     21  H   UNL A   1      33.065  29.131  21.682  1.00  0.00     0.344 HD
ATOM     22  H   UNL A   1      31.677  28.728  22.511  1.00  0.00     0.344 HD
ATOM     23  H   UNL A   1      32.443  27.589  21.566  1.00  0.00     0.344 HD
ENDBRANCH  15  20
ENDBRANCH   9  14
ENDBRANCH   6   8
ENDBRANCH   5   6
ENDBRANCH   4   5
ENDBRANCH   3   4
ENDBRANCH   2   3
ENDBRANCH   1   2
BRANCH   1  24
ATOM     24  C   UNL A   1      37.390  21.373  25.710  1.00  0.00     0.261 C 
BRANCH  24  25
ATOM     25  O   UNL A   1      38.752  21.705  25.386  1.00  0.00    -0.460 OA
BRANCH  25  26
ATOM     26  C   UNL A   1      39.618  21.608  26.425  1.00  0.00     0.338 C 
ATOM     27  O   UNL A   1      40.241  20.609  26.767  1.00  0.00    -0.246 OA
BRANCH  26  28
ATOM     28  C   UNL A   1      39.874  22.936  27.006  1.00  0.00     0.060 A 
ATOM     29  C   UNL A   1      39.134  24.019  26.510  1.00  0.00     0.016 A 
ATOM     30  C   UNL A   1      40.880  23.139  27.953  1.00  0.00     0.016 A 
ATOM     31  C   UNL A   1      39.427  25.316  26.928  1.00  0.00     0.010 A 
ATOM     32  C   UNL A   1      41.178  24.445  28.363  1.00  0.00     0.010 A 
ATOM     33  C   UNL A   1      40.475  25.540  27.828  1.00  0.00    -0.014 A 
BRANCH  33  34
ATOM     34  C   UNL A   1      40.937  26.926  28.092  1.00  0.00     0.031 A 
ATOM     35  C   UNL A   1      42.366  27.285  27.787  1.00  0.00     0.074 A 
ATOM     36  C   UNL A   1      40.095  27.855  28.578  1.00  0.00     0.049 A 
ATOM     37  N   UNL A   1      43.009  28.402  28.006  1.00  0.00    -0.248 NA
ATOM     38  C   UNL A   1      43.179  26.236  27.153  1.00  0.00     0.031 C 
ATOM     39  C   UNL A   1      38.675  27.641  28.856  1.00  0.00     0.029 A 
ATOM     40  N   UNL A   1      40.313  29.163  28.930  1.00  0.00    -0.354 N 
ATOM     41  C   UNL A   1      44.304  28.193  27.540  1.00  0.00     0.074 A 
ATOM     42  C   UNL A   1      44.361  26.828  27.063  1.00  0.00     0.031 C 
ATOM     43  C   UNL A   1      38.153  28.777  29.348  1.00  0.00     0.029 A 
ATOM     44  C   UNL A   1      39.207  29.784  29.461  1.00  0.00     0.049 A 
ATOM     45  H   UNL A   1      41.180  29.614  28.812  1.00  0.00     0.167 HD
ATOM     46  C   UNL A   1      45.343  29.063  27.507  1.00  0.00     0.034 A 
ATOM     47  C   UNL A   1      39.071  31.010  30.005  1.00  0.00     0.034 A 
ATOM     48  C   UNL A   1      45.273  30.417  27.999  1.00  0.00     0.049 A 
ATOM     49  C   UNL A   1      40.271  31.928  30.053  1.00  0.00     0.074 A 
ATOM     50  C   UNL A   1      46.263  31.384  28.012  1.00  0.00     0.029 A 
ATOM     51  N   UNL A   1      44.149  30.995  28.576  1.00  0.00    -0.354 N 
ATOM     52  N   UNL A   1      41.492  31.716  29.616  1.00  0.00    -0.248 NA
ATOM     53  C   UNL A   1      40.073  33.249  30.663  1.00  0.00     0.031 C 
ATOM     54  C   UNL A   1      45.762  32.518  28.659  1.00  0.00     0.029 A 
ATOM     55  C   UNL A   1      44.433  32.291  28.979  1.00  0.00     0.049 A 
ATOM     56  H   UNL A   1      43.279  30.549  28.684  1.00  0.00     0.167 HD
ATOM     57  C   UNL A   1      42.194  32.892  29.866  1.00  0.00     0.074 A 
ATOM     58  C   UNL A   1      41.261  33.810  30.485  1.00  0.00     0.031 C 
ATOM     59  C   UNL A   1      43.492  33.192  29.601  1.00  0.00     0.034 A 
BRANCH  46  60
ATOM     60  C   UNL A   1      46.657  28.550  26.967  1.00  0.00     0.023 A 
ATOM     61  C   UNL A   1      46.890  28.417  25.587  1.00  0.00     0.031 A 
ATOM     62  C   UNL A   1      47.680  28.157  27.848  1.00  0.00     0.131 A 
ATOM     63  C   UNL A   1      48.084  27.839  25.131  1.00  0.00     0.055 A 
ATOM     64  C   UNL A   1      48.899  27.657  27.384  1.00  0.00     0.041 A 
ATOM     65  F   UNL A   1      47.508  28.237  29.176  1.00  0.00    -0.206 F 
ATOM     66  C   UNL A   1      49.101  27.481  26.019  1.00  0.00     0.022 A 
BRANCH  63  67
ATOM     67  S   UNL A   1      48.231  27.426  23.370  1.00  0.00     0.124 S 
ATOM     68  O   UNL A   1      48.026  25.980  23.390  1.00  0.00    -0.237 OA
ATOM     69  O   UNL A   1      47.160  28.216  22.772  1.00  0.00    -0.237 OA
ATOM     70  O   UNL A   1      49.587  27.852  23.031  1.00  0.00    -0.744 OA
ENDBRANCH  63  67
ENDBRANCH  46  60
BRANCH  47  71
ATOM     71  C   UNL A   1      37.769  31.438  30.592  1.00  0.00     0.023 A 
ATOM     72  C   UNL A   1      36.808  32.108  29.818  1.00  0.00     0.031 A 
ATOM     73  C   UNL A   1      37.492  31.236  31.956  1.00  0.00     0.131 A 
ATOM     74  C   UNL A   1      35.639  32.596  30.423  1.00  0.00     0.055 A 
ATOM     75  C   UNL A   1      36.303  31.674  32.541  1.00  0.00     0.041 A 
ATOM     76  F   UNL A   1      38.376  30.602  32.743  1.00  0.00    -0.206 F 
ATOM     77  C   UNL A   1      35.373  32.371  31.776  1.00  0.00     0.022 A 
BRANCH  74  78
ATOM     78  S   UNL A   1      34.508  33.611  29.433  1.00  0.00     0.124 S 
ATOM     79  O   UNL A   1      33.882  32.608  28.579  1.00  0.00    -0.237 OA
ATOM     80  O   UNL A   1      33.659  34.204  30.459  1.00  0.00    -0.237 OA
ATOM     81  O   UNL A   1      35.401  34.544  28.748  1.00  0.00    -0.744 OA
ENDBRANCH  74  78
ENDBRANCH  47  71
BRANCH  59  82
ATOM     82  C   UNL A   1      43.958  34.591  29.927  1.00  0.00     0.023 A 
ATOM     83  C   UNL A   1      43.800  35.657  29.025  1.00  0.00     0.031 A 
ATOM     84  C   UNL A   1      44.568  34.857  31.166  1.00  0.00     0.131 A 
ATOM     85  C   UNL A   1      44.291  36.930  29.356  1.00  0.00     0.055 A 
ATOM     86  C   UNL A   1      45.002  36.138  31.512  1.00  0.00     0.041 A 
ATOM     87  F   UNL A   1      44.746  33.876  32.065  1.00  0.00    -0.206 F 
ATOM     88  C   UNL A   1      44.875  37.181  30.600  1.00  0.00     0.022 A 
BRANCH  85  89
ATOM     89  S   UNL A   1      44.225  38.243  28.105  1.00  0.00     0.124 S 
ATOM     90  O   UNL A   1      43.547  37.574  26.999  1.00  0.00    -0.237 OA
ATOM     91  O   UNL A   1      43.462  39.285  28.784  1.00  0.00    -0.237 OA
ATOM     92  O   UNL A   1      45.632  38.562  27.867  1.00  0.00    -0.744 OA
ENDBRANCH  85  89
ENDBRANCH  59  82
ENDBRANCH  33  34
ENDBRANCH  26  28
ENDBRANCH  25  26
ENDBRANCH  24  25
ENDBRANCH   1  24
TORSDOF 19
ENDMDL
