MODEL 1
REMARK VINA RESULT:     -12.1      0.000      0.000
REMARK SMILES Cc1ccc(NC(=O)NC2CCCC2)cc1/C=C/C(=O)OCCOCCOC(=O)c1ccc(-c2c3nc(c(-c4cc(S(=O)(=O)[O-])ccc4F)c4ccc([nH]4)c(-c4cc(S(=O)(=O)[O-])ccc4F)c4nc(c(-c5cc(S(=O)(=O)[O-])ccc5F)c5ccc2[nH]5)C=C4)C=C3)cc1
REMARK SMILES IDX 24 1 23 2 22 3 21 4 19 5 20 6 18 7 17 8 16 9 1 10 2 11 3 12
REMARK SMILES IDX 4 13 15 14 5 15 6 16 7 17 8 19 9 20 10 22 11 23 14 24 12 25
REMARK SMILES IDX 13 26 25 27 26 28 27 29 28 30 29 31 30 32 31 33 92 34 32 35
REMARK SMILES IDX 91 36 33 37 34 38 35 39 85 40 36 41 90 42 84 43 86 44 37 45
REMARK SMILES IDX 89 46 83 47 82 48 38 50 70 51 50 52 69 53 51 54 54 55 68 56
REMARK SMILES IDX 87 57 52 58 53 59 67 61 88 62 55 63 39 64 40 65 48 66 41 67
REMARK SMILES IDX 47 68 49 69 46 70 42 71 43 72 44 73 45 74 71 75 72 76 80 77
REMARK SMILES IDX 73 78 79 79 81 80 78 81 74 82 75 83 76 84 77 85 56 86 57 87
REMARK SMILES IDX 65 88 58 89 64 90 66 91 63 92 59 93 60 94 61 95 62 96
REMARK H PARENT 6 18 9 21 86 49 54 60
REMARK Flexibility Score: inf
ROOT
ATOM      1  O   UNL A   1      42.002  19.759  26.287  1.00  0.00    -0.374 OA
ENDROOT
BRANCH   1   2
ATOM      2  C   UNL A   1      40.592  19.685  26.129  1.00  0.00     0.202 C 
BRANCH   2   3
ATOM      3  C   UNL A   1      40.145  21.071  26.418  1.00  0.00     0.261 C 
BRANCH   3   4
ATOM      4  O   UNL A   1      38.948  21.369  25.700  1.00  0.00    -0.460 OA
BRANCH   4   5
ATOM      5  C   UNL A   1      38.207  22.470  25.991  1.00  0.00     0.330 C 
ATOM      6  O   UNL A   1      38.544  23.562  26.389  1.00  0.00    -0.247 OA
BRANCH   5   7
ATOM      7  C   UNL A   1      36.812  22.081  25.788  1.00  0.00     0.094 C 
ATOM      8  C   UNL A   1      35.887  23.050  25.778  1.00  0.00     0.016 C 
BRANCH   8   9
ATOM      9  C   UNL A   1      34.585  22.748  25.239  1.00  0.00    -0.020 A 
ATOM     10  C   UNL A   1      35.392  23.312  22.891  1.00  0.00     0.045 C 
ATOM     11  C   UNL A   1      34.380  22.731  23.848  1.00  0.00    -0.044 A 
ATOM     12  C   UNL A   1      33.172  22.221  23.375  1.00  0.00     0.006 A 
ATOM     13  C   UNL A   1      32.150  21.891  24.274  1.00  0.00     0.026 A 
ATOM     14  C   UNL A   1      33.560  22.447  26.133  1.00  0.00     0.034 A 
ATOM     15  C   UNL A   1      32.309  22.145  25.635  1.00  0.00     0.043 A 
BRANCH  15  16
ATOM     16  N   UNL A   1      31.247  22.204  26.534  1.00  0.00    -0.308 N 
ATOM     17  C   UNL A   1      30.441  23.235  26.876  1.00  0.00     0.319 C 
ATOM     18  H   UNL A   1      31.050  21.358  26.997  1.00  0.00     0.171 HD
ATOM     19  O   UNL A   1      29.465  23.009  27.600  1.00  0.00    -0.248 OA
ATOM     20  N   UNL A   1      30.706  24.527  26.573  1.00  0.00    -0.335 N 
ATOM     21  H   UNL A   1      29.988  25.149  26.832  1.00  0.00     0.165 HD
BRANCH  20  22
ATOM     22  C   UNL A   1      31.839  25.174  25.943  1.00  0.00     0.083 C 
ATOM     23  C   UNL A   1      31.649  25.506  24.467  1.00  0.00     0.025 C 
ATOM     24  C   UNL A   1      32.228  26.540  26.501  1.00  0.00     0.025 C 
ATOM     25  C   UNL A   1      32.910  26.322  24.171  1.00  0.00     0.002 C 
ATOM     26  C   UNL A   1      33.234  27.062  25.474  1.00  0.00     0.002 C 
ENDBRANCH  20  22
ENDBRANCH  15  16
ENDBRANCH   8   9
ENDBRANCH   5   7
ENDBRANCH   4   5
ENDBRANCH   3   4
ENDBRANCH   2   3
ENDBRANCH   1   2
BRANCH   1  27
ATOM     27  C   UNL A   1      42.721  18.618  25.906  1.00  0.00     0.202 C 
BRANCH  27  28
ATOM     28  C   UNL A   1      44.090  18.997  25.338  1.00  0.00     0.261 C 
BRANCH  28  29
ATOM     29  O   UNL A   1      44.008  20.296  24.704  1.00  0.00    -0.460 OA
BRANCH  29  30
ATOM     30  C   UNL A   1      44.851  21.260  25.180  1.00  0.00     0.338 C 
ATOM     31  O   UNL A   1      46.032  21.089  25.431  1.00  0.00    -0.246 OA
BRANCH  30  32
ATOM     32  C   UNL A   1      44.092  22.509  25.495  1.00  0.00     0.060 A 
ATOM     33  C   UNL A   1      44.102  23.605  24.605  1.00  0.00     0.016 A 
ATOM     34  C   UNL A   1      43.624  22.682  26.793  1.00  0.00     0.016 A 
ATOM     35  C   UNL A   1      43.807  24.903  25.070  1.00  0.00     0.010 A 
ATOM     36  C   UNL A   1      43.429  23.964  27.263  1.00  0.00     0.010 A 
ATOM     37  C   UNL A   1      43.562  25.089  26.428  1.00  0.00    -0.014 A 
BRANCH  37  38
ATOM     38  C   UNL A   1      43.570  26.364  27.162  1.00  0.00     0.031 A 
ATOM     39  C   UNL A   1      42.271  27.051  27.338  1.00  0.00     0.074 A 
ATOM     40  C   UNL A   1      44.630  26.729  27.932  1.00  0.00     0.049 A 
ATOM     41  N   UNL A   1      42.147  28.197  27.897  1.00  0.00    -0.248 NA
ATOM     42  C   UNL A   1      40.987  26.527  26.868  1.00  0.00     0.031 C 
ATOM     43  C   UNL A   1      44.662  27.586  29.123  1.00  0.00     0.029 A 
ATOM     44  N   UNL A   1      45.971  26.372  27.795  1.00  0.00    -0.354 N 
ATOM     45  C   UNL A   1      40.818  28.396  28.175  1.00  0.00     0.074 A 
ATOM     46  C   UNL A   1      40.129  27.404  27.398  1.00  0.00     0.031 C 
ATOM     47  C   UNL A   1      45.935  27.911  29.421  1.00  0.00     0.029 A 
ATOM     48  C   UNL A   1      46.779  27.361  28.372  1.00  0.00     0.049 A 
ATOM     49  H   UNL A   1      46.300  25.551  27.359  1.00  0.00     0.167 HD
ATOM     50  C   UNL A   1      40.506  29.311  29.133  1.00  0.00     0.034 A 
ATOM     51  C   UNL A   1      47.711  27.990  27.611  1.00  0.00     0.034 A 
ATOM     52  C   UNL A   1      41.710  30.069  29.515  1.00  0.00     0.049 A 
ATOM     53  C   UNL A   1      47.203  29.399  27.428  1.00  0.00     0.074 A 
ATOM     54  C   UNL A   1      42.509  30.106  30.644  1.00  0.00     0.029 A 
ATOM     55  N   UNL A   1      42.434  30.712  28.509  1.00  0.00    -0.354 N 
ATOM     56  N   UNL A   1      45.941  29.715  27.584  1.00  0.00    -0.248 NA
ATOM     57  C   UNL A   1      48.054  30.567  27.250  1.00  0.00     0.031 C 
ATOM     58  C   UNL A   1      43.771  30.663  30.259  1.00  0.00     0.029 A 
ATOM     59  C   UNL A   1      43.721  31.005  28.913  1.00  0.00     0.049 A 
ATOM     60  H   UNL A   1      42.071  30.930  27.621  1.00  0.00     0.167 HD
ATOM     61  C   UNL A   1      45.817  31.063  27.681  1.00  0.00     0.074 A 
ATOM     62  C   UNL A   1      47.159  31.561  27.406  1.00  0.00     0.031 C 
ATOM     63  C   UNL A   1      44.643  31.684  28.005  1.00  0.00     0.034 A 
BRANCH  50  64
ATOM     64  C   UNL A   1      39.176  29.447  29.841  1.00  0.00     0.023 A 
ATOM     65  C   UNL A   1      38.414  30.611  29.610  1.00  0.00     0.031 A 
ATOM     66  C   UNL A   1      38.628  28.557  30.794  1.00  0.00     0.131 A 
ATOM     67  C   UNL A   1      37.198  30.846  30.283  1.00  0.00     0.055 A 
ATOM     68  C   UNL A   1      37.396  28.769  31.428  1.00  0.00     0.041 A 
ATOM     69  F   UNL A   1      39.267  27.461  31.213  1.00  0.00    -0.206 F 
ATOM     70  C   UNL A   1      36.673  29.920  31.178  1.00  0.00     0.022 A 
BRANCH  67  71
ATOM     71  S   UNL A   1      36.327  32.410  30.001  1.00  0.00     0.124 S 
ATOM     72  O   UNL A   1      34.994  31.953  29.623  1.00  0.00    -0.237 OA
ATOM     73  O   UNL A   1      36.445  33.068  31.297  1.00  0.00    -0.237 OA
ATOM     74  O   UNL A   1      37.092  33.034  28.921  1.00  0.00    -0.744 OA
ENDBRANCH  67  71
ENDBRANCH  50  64
BRANCH  51  75
ATOM     75  C   UNL A   1      48.354  27.025  26.648  1.00  0.00     0.023 A 
ATOM     76  C   UNL A   1      48.021  27.181  25.269  1.00  0.00     0.031 A 
ATOM     77  C   UNL A   1      49.570  26.388  26.939  1.00  0.00     0.131 A 
ATOM     78  C   UNL A   1      48.941  26.841  24.254  1.00  0.00     0.055 A 
ATOM     79  C   UNL A   1      50.477  26.036  25.922  1.00  0.00     0.041 A 
ATOM     80  F   UNL A   1      49.978  26.245  28.208  1.00  0.00    -0.206 F 
ATOM     81  C   UNL A   1      50.184  26.294  24.580  1.00  0.00     0.022 A 
BRANCH  78  82
ATOM     82  S   UNL A   1      48.672  27.466  22.546  1.00  0.00     0.124 S 
ATOM     83  O   UNL A   1      49.822  28.338  22.345  1.00  0.00    -0.237 OA
ATOM     84  O   UNL A   1      48.653  26.245  21.745  1.00  0.00    -0.237 OA
ATOM     85  O   UNL A   1      47.374  28.136  22.629  1.00  0.00    -0.744 OA
ENDBRANCH  78  82
ENDBRANCH  51  75
BRANCH  63  86
ATOM     86  C   UNL A   1      44.319  33.055  27.485  1.00  0.00     0.023 A 
ATOM     87  C   UNL A   1      44.396  34.177  28.316  1.00  0.00     0.031 A 
ATOM     88  C   UNL A   1      44.051  33.311  26.123  1.00  0.00     0.131 A 
ATOM     89  C   UNL A   1      44.060  35.448  27.850  1.00  0.00     0.055 A 
ATOM     90  C   UNL A   1      43.852  34.601  25.629  1.00  0.00     0.041 A 
ATOM     91  F   UNL A   1      43.991  32.330  25.212  1.00  0.00    -0.206 F 
ATOM     92  C   UNL A   1      43.820  35.680  26.502  1.00  0.00     0.022 A 
BRANCH  89  93
ATOM     93  S   UNL A   1      43.804  36.728  29.097  1.00  0.00     0.124 S 
ATOM     94  O   UNL A   1      45.179  37.061  29.464  1.00  0.00    -0.237 OA
ATOM     95  O   UNL A   1      43.086  37.758  28.352  1.00  0.00    -0.237 OA
ATOM     96  O   UNL A   1      43.030  36.049  30.131  1.00  0.00    -0.744 OA
ENDBRANCH  89  93
ENDBRANCH  63  86
ENDBRANCH  37  38
ENDBRANCH  30  32
ENDBRANCH  29  30
ENDBRANCH  28  29
ENDBRANCH  27  28
ENDBRANCH   1  27
TORSDOF 20
ENDMDL
MODEL 2
REMARK VINA RESULT:     -11.9      5.238     11.516
REMARK SMILES Cc1ccc(NC(=O)NC2CCCC2)cc1/C=C/C(=O)OCCOCCOC(=O)c1ccc(-c2c3nc(c(-c4cc(S(=O)(=O)[O-])ccc4F)c4ccc([nH]4)c(-c4cc(S(=O)(=O)[O-])ccc4F)c4nc(c(-c5cc(S(=O)(=O)[O-])ccc5F)c5ccc2[nH]5)C=C4)C=C3)cc1
REMARK SMILES IDX 24 1 23 2 22 3 21 4 19 5 20 6 18 7 17 8 16 9 1 10 2 11 3 12
REMARK SMILES IDX 4 13 15 14 5 15 6 16 7 17 8 19 9 20 10 22 11 23 14 24 12 25
REMARK SMILES IDX 13 26 25 27 26 28 27 29 28 30 29 31 30 32 31 33 92 34 32 35
REMARK SMILES IDX 91 36 33 37 34 38 35 39 85 40 36 41 90 42 84 43 86 44 37 45
REMARK SMILES IDX 89 46 83 47 82 48 38 50 70 51 50 52 69 53 51 54 54 55 68 56
REMARK SMILES IDX 87 57 52 58 53 59 67 61 88 62 55 63 39 64 40 65 48 66 41 67
REMARK SMILES IDX 47 68 49 69 46 70 42 71 43 72 44 73 45 74 71 75 72 76 80 77
REMARK SMILES IDX 73 78 79 79 81 80 78 81 74 82 75 83 76 84 77 85 56 86 57 87
REMARK SMILES IDX 65 88 58 89 64 90 66 91 63 92 59 93 60 94 61 95 62 96
REMARK H PARENT 6 18 9 21 86 49 54 60
REMARK Flexibility Score: inf
ROOT
ATOM      1  O   UNL A   1      32.863  34.516  29.174  1.00  0.00    -0.374 OA
ENDROOT
BRANCH   1   2
ATOM      2  C   UNL A   1      34.046  34.111  28.501  1.00  0.00     0.202 C 
BRANCH   2   3
ATOM      3  C   UNL A   1      34.113  32.654  28.780  1.00  0.00     0.261 C 
BRANCH   3   4
ATOM      4  O   UNL A   1      33.875  31.905  27.587  1.00  0.00    -0.460 OA
BRANCH   4   5
ATOM      5  C   UNL A   1      32.614  31.619  27.174  1.00  0.00     0.330 C 
ATOM      6  O   UNL A   1      31.664  32.344  26.988  1.00  0.00    -0.247 OA
BRANCH   5   7
ATOM      7  C   UNL A   1      32.557  30.164  27.035  1.00  0.00     0.094 C 
ATOM      8  C   UNL A   1      32.473  29.657  25.797  1.00  0.00     0.016 C 
BRANCH   8   9
ATOM      9  C   UNL A   1      32.768  28.259  25.609  1.00  0.00    -0.020 A 
ATOM     10  C   UNL A   1      34.116  28.794  23.515  1.00  0.00     0.045 C 
ATOM     11  C   UNL A   1      33.668  27.853  24.608  1.00  0.00    -0.044 A 
ATOM     12  C   UNL A   1      34.088  26.524  24.610  1.00  0.00     0.006 A 
ATOM     13  C   UNL A   1      33.499  25.605  25.488  1.00  0.00     0.026 A 
ATOM     14  C   UNL A   1      32.161  27.341  26.463  1.00  0.00     0.034 A 
ATOM     15  C   UNL A   1      32.440  25.999  26.305  1.00  0.00     0.043 A 
BRANCH  15  16
ATOM     16  N   UNL A   1      31.567  25.102  26.915  1.00  0.00    -0.308 N 
ATOM     17  C   UNL A   1      30.400  24.576  26.478  1.00  0.00     0.319 C 
ATOM     18  H   UNL A   1      31.843  24.802  27.811  1.00  0.00     0.171 HD
ATOM     19  O   UNL A   1      29.867  23.682  27.144  1.00  0.00    -0.248 OA
ATOM     20  N   UNL A   1      29.712  25.055  25.416  1.00  0.00    -0.335 N 
ATOM     21  H   UNL A   1      28.919  24.520  25.185  1.00  0.00     0.165 HD
BRANCH  20  22
ATOM     22  C   UNL A   1      29.915  26.199  24.552  1.00  0.00     0.083 C 
ATOM     23  C   UNL A   1      30.671  25.904  23.261  1.00  0.00     0.025 C 
ATOM     24  C   UNL A   1      28.653  26.860  24.004  1.00  0.00     0.025 C 
ATOM     25  C   UNL A   1      30.550  27.238  22.520  1.00  0.00     0.002 C 
ATOM     26  C   UNL A   1      29.194  27.817  22.940  1.00  0.00     0.002 C 
ENDBRANCH  20  22
ENDBRANCH  15  16
ENDBRANCH   8   9
ENDBRANCH   5   7
ENDBRANCH   4   5
ENDBRANCH   3   4
ENDBRANCH   2   3
ENDBRANCH   1   2
BRANCH   1  27
ATOM     27  C   UNL A   1      32.909  35.775  29.787  1.00  0.00     0.202 C 
BRANCH  27  28
ATOM     28  C   UNL A   1      32.953  35.642  31.310  1.00  0.00     0.261 C 
BRANCH  28  29
ATOM     29  O   UNL A   1      34.274  35.993  31.788  1.00  0.00    -0.460 OA
BRANCH  29  30
ATOM     30  C   UNL A   1      34.726  35.310  32.882  1.00  0.00     0.338 C 
ATOM     31  O   UNL A   1      34.688  35.726  34.027  1.00  0.00    -0.246 OA
BRANCH  30  32
ATOM     32  C   UNL A   1      35.411  34.048  32.463  1.00  0.00     0.060 A 
ATOM     33  C   UNL A   1      35.332  32.884  33.259  1.00  0.00     0.016 A 
ATOM     34  C   UNL A   1      36.355  34.122  31.445  1.00  0.00     0.016 A 
ATOM     35  C   UNL A   1      36.308  31.874  33.143  1.00  0.00     0.010 A 
ATOM     36  C   UNL A   1      37.358  33.177  31.401  1.00  0.00     0.010 A 
ATOM     37  C   UNL A   1      37.377  32.073  32.273  1.00  0.00    -0.014 A 
BRANCH  37  38
ATOM     38  C   UNL A   1      38.647  31.329  32.247  1.00  0.00     0.031 A 
ATOM     39  C   UNL A   1      38.702  30.116  31.402  1.00  0.00     0.074 A 
ATOM     40  C   UNL A   1      39.804  31.893  32.686  1.00  0.00     0.049 A 
ATOM     41  N   UNL A   1      39.721  29.341  31.343  1.00  0.00    -0.248 NA
ATOM     42  C   UNL A   1      37.598  29.636  30.569  1.00  0.00     0.031 C 
ATOM     43  C   UNL A   1      41.185  31.620  32.273  1.00  0.00     0.029 A 
ATOM     44  N   UNL A   1      39.979  32.892  33.644  1.00  0.00    -0.354 N 
ATOM     45  C   UNL A   1      39.566  28.512  30.261  1.00  0.00     0.074 A 
ATOM     46  C   UNL A   1      38.181  28.637  29.899  1.00  0.00     0.031 C 
ATOM     47  C   UNL A   1      42.045  32.193  33.138  1.00  0.00     0.029 A 
ATOM     48  C   UNL A   1      41.256  32.777  34.210  1.00  0.00     0.049 A 
ATOM     49  H   UNL A   1      39.309  33.573  33.885  1.00  0.00     0.167 HD
ATOM     50  C   UNL A   1      40.684  27.928  29.751  1.00  0.00     0.034 A 
ATOM     51  C   UNL A   1      41.377  32.601  35.551  1.00  0.00     0.034 A 
ATOM     52  C   UNL A   1      41.826  28.157  30.653  1.00  0.00     0.049 A 
ATOM     53  C   UNL A   1      41.856  31.183  35.734  1.00  0.00     0.074 A 
ATOM     54  C   UNL A   1      42.972  28.929  30.581  1.00  0.00     0.029 A 
ATOM     55  N   UNL A   1      41.700  27.777  31.989  1.00  0.00    -0.354 N 
ATOM     56  N   UNL A   1      41.701  30.266  34.811  1.00  0.00    -0.248 NA
ATOM     57  C   UNL A   1      42.688  30.727  36.838  1.00  0.00     0.031 C 
ATOM     58  C   UNL A   1      43.451  29.111  31.918  1.00  0.00     0.029 A 
ATOM     59  C   UNL A   1      42.626  28.414  32.792  1.00  0.00     0.049 A 
ATOM     60  H   UNL A   1      41.033  27.134  32.321  1.00  0.00     0.167 HD
ATOM     61  C   UNL A   1      42.491  29.198  35.090  1.00  0.00     0.074 A 
ATOM     62  C   UNL A   1      43.046  29.504  36.401  1.00  0.00     0.031 C 
ATOM     63  C   UNL A   1      42.663  28.150  34.229  1.00  0.00     0.034 A 
BRANCH  50  64
ATOM     64  C   UNL A   1      40.813  27.276  28.391  1.00  0.00     0.023 A 
ATOM     65  C   UNL A   1      40.818  25.867  28.325  1.00  0.00     0.031 A 
ATOM     66  C   UNL A   1      41.013  27.931  27.153  1.00  0.00     0.131 A 
ATOM     67  C   UNL A   1      41.003  25.184  27.106  1.00  0.00     0.055 A 
ATOM     68  C   UNL A   1      41.150  27.251  25.935  1.00  0.00     0.041 A 
ATOM     69  F   UNL A   1      41.144  29.256  27.047  1.00  0.00    -0.206 F 
ATOM     70  C   UNL A   1      41.149  25.869  25.905  1.00  0.00     0.022 A 
BRANCH  67  71
ATOM     71  S   UNL A   1      41.093  23.374  27.120  1.00  0.00     0.124 S 
ATOM     72  O   UNL A   1      41.906  23.099  25.940  1.00  0.00    -0.237 OA
ATOM     73  O   UNL A   1      41.711  23.104  28.412  1.00  0.00    -0.237 OA
ATOM     74  O   UNL A   1      39.692  22.965  27.009  1.00  0.00    -0.744 OA
ENDBRANCH  67  71
ENDBRANCH  50  64
BRANCH  51  75
ATOM     75  C   UNL A   1      40.346  33.412  36.292  1.00  0.00     0.023 A 
ATOM     76  C   UNL A   1      39.193  32.711  36.753  1.00  0.00     0.031 A 
ATOM     77  C   UNL A   1      40.679  34.598  36.965  1.00  0.00     0.131 A 
ATOM     78  C   UNL A   1      38.510  33.116  37.921  1.00  0.00     0.055 A 
ATOM     79  C   UNL A   1      39.986  35.006  38.120  1.00  0.00     0.041 A 
ATOM     80  F   UNL A   1      41.775  35.290  36.624  1.00  0.00    -0.206 F 
ATOM     81  C   UNL A   1      38.925  34.249  38.624  1.00  0.00     0.022 A 
BRANCH  78  82
ATOM     82  S   UNL A   1      37.337  31.955  38.730  1.00  0.00     0.124 S 
ATOM     83  O   UNL A   1      36.075  32.679  38.655  1.00  0.00    -0.237 OA
ATOM     84  O   UNL A   1      37.432  30.756  37.900  1.00  0.00    -0.237 OA
ATOM     85  O   UNL A   1      37.895  31.787  40.072  1.00  0.00    -0.744 OA
ENDBRANCH  78  82
ENDBRANCH  51  75
BRANCH  63  86
ATOM     86  C   UNL A   1      42.935  26.763  34.735  1.00  0.00     0.023 A 
ATOM     87  C   UNL A   1      44.241  26.334  34.994  1.00  0.00     0.031 A 
ATOM     88  C   UNL A   1      41.907  25.869  35.101  1.00  0.00     0.131 A 
ATOM     89  C   UNL A   1      44.504  25.036  35.428  1.00  0.00     0.055 A 
ATOM     90  C   UNL A   1      42.167  24.620  35.667  1.00  0.00     0.041 A 
ATOM     91  F   UNL A   1      40.610  26.172  34.946  1.00  0.00    -0.206 F 
ATOM     92  C   UNL A   1      43.476  24.180  35.802  1.00  0.00     0.022 A 
BRANCH  89  93
ATOM     93  S   UNL A   1      46.219  24.479  35.333  1.00  0.00     0.124 S 
ATOM     94  O   UNL A   1      46.052  23.043  35.115  1.00  0.00    -0.237 OA
ATOM     95  O   UNL A   1      46.735  25.232  34.194  1.00  0.00    -0.237 OA
ATOM     96  O   UNL A   1      46.772  24.851  36.632  1.00  0.00    -0.744 OA
ENDBRANCH  89  93
ENDBRANCH  63  86
ENDBRANCH  37  38
ENDBRANCH  30  32
ENDBRANCH  29  30
ENDBRANCH  28  29
ENDBRANCH  27  28
ENDBRANCH   1  27
TORSDOF 20
ENDMDL
MODEL 3
REMARK VINA RESULT:     -11.7      4.269     10.058
REMARK SMILES Cc1ccc(NC(=O)NC2CCCC2)cc1/C=C/C(=O)OCCOCCOC(=O)c1ccc(-c2c3nc(c(-c4cc(S(=O)(=O)[O-])ccc4F)c4ccc([nH]4)c(-c4cc(S(=O)(=O)[O-])ccc4F)c4nc(c(-c5cc(S(=O)(=O)[O-])ccc5F)c5ccc2[nH]5)C=C4)C=C3)cc1
REMARK SMILES IDX 24 1 23 2 22 3 21 4 19 5 20 6 18 7 17 8 16 9 1 10 2 11 3 12
REMARK SMILES IDX 4 13 15 14 5 15 6 16 7 17 8 19 9 20 10 22 11 23 14 24 12 25
REMARK SMILES IDX 13 26 25 27 26 28 27 29 28 30 29 31 30 32 31 33 92 34 32 35
REMARK SMILES IDX 91 36 33 37 34 38 35 39 85 40 36 41 90 42 84 43 86 44 37 45
REMARK SMILES IDX 89 46 83 47 82 48 38 50 70 51 50 52 69 53 51 54 54 55 68 56
REMARK SMILES IDX 87 57 52 58 53 59 67 61 88 62 55 63 39 64 40 65 48 66 41 67
REMARK SMILES IDX 47 68 49 69 46 70 42 71 43 72 44 73 45 74 71 75 72 76 80 77
REMARK SMILES IDX 73 78 79 79 81 80 78 81 74 82 75 83 76 84 77 85 56 86 57 87
REMARK SMILES IDX 65 88 58 89 64 90 66 91 63 92 59 93 60 94 61 95 62 96
REMARK H PARENT 6 18 9 21 86 49 54 60
REMARK Flexibility Score: inf
ROOT
ATOM      1  O   UNL A   1      32.797  29.240  25.370  1.00  0.00    -0.374 OA
ENDROOT
BRANCH   1   2
ATOM      2  C   UNL A   1      32.332  29.239  24.027  1.00  0.00     0.202 C 
BRANCH   2   3
ATOM      3  C   UNL A   1      33.419  28.545  23.292  1.00  0.00     0.261 C 
BRANCH   3   4
ATOM      4  O   UNL A   1      32.876  27.708  22.270  1.00  0.00    -0.460 OA
BRANCH   4   5
ATOM      5  C   UNL A   1      33.323  26.439  22.088  1.00  0.00     0.330 C 
ATOM      6  O   UNL A   1      33.458  25.791  21.075  1.00  0.00    -0.247 OA
BRANCH   5   7
ATOM      7  C   UNL A   1      33.581  25.908  23.426  1.00  0.00     0.094 C 
ATOM      8  C   UNL A   1      32.616  25.184  24.009  1.00  0.00     0.016 C 
BRANCH   8   9
ATOM      9  C   UNL A   1      32.964  24.369  25.146  1.00  0.00    -0.020 A 
ATOM     10  C   UNL A   1      30.933  25.226  26.421  1.00  0.00     0.045 C 
ATOM     11  C   UNL A   1      32.091  24.274  26.244  1.00  0.00    -0.044 A 
ATOM     12  C   UNL A   1      32.365  23.309  27.211  1.00  0.00     0.006 A 
ATOM     13  C   UNL A   1      33.560  22.580  27.155  1.00  0.00     0.026 A 
ATOM     14  C   UNL A   1      34.166  23.666  25.104  1.00  0.00     0.034 A 
ATOM     15  C   UNL A   1      34.511  22.873  26.178  1.00  0.00     0.043 A 
BRANCH  15  16
ATOM     16  N   UNL A   1      35.845  22.481  26.264  1.00  0.00    -0.308 N 
ATOM     17  C   UNL A   1      36.496  21.446  25.687  1.00  0.00     0.319 C 
ATOM     18  H   UNL A   1      36.406  23.051  26.838  1.00  0.00     0.171 HD
ATOM     19  O   UNL A   1      37.725  21.382  25.799  1.00  0.00    -0.248 OA
ATOM     20  N   UNL A   1      35.870  20.402  25.096  1.00  0.00    -0.335 N 
ATOM     21  H   UNL A   1      36.485  19.765  24.664  1.00  0.00     0.165 HD
BRANCH  20  22
ATOM     22  C   UNL A   1      34.473  20.038  24.973  1.00  0.00     0.083 C 
ATOM     23  C   UNL A   1      33.719  20.751  23.856  1.00  0.00     0.025 C 
ATOM     24  C   UNL A   1      34.187  18.578  24.631  1.00  0.00     0.025 C 
ATOM     25  C   UNL A   1      32.373  20.023  23.879  1.00  0.00     0.002 C 
ATOM     26  C   UNL A   1      32.694  18.584  24.301  1.00  0.00     0.002 C 
ENDBRANCH  20  22
ENDBRANCH  15  16
ENDBRANCH   8   9
ENDBRANCH   5   7
ENDBRANCH   4   5
ENDBRANCH   3   4
ENDBRANCH   2   3
ENDBRANCH   1   2
BRANCH   1  27
ATOM     27  C   UNL A   1      32.575  30.419  26.093  1.00  0.00     0.202 C 
BRANCH  27  28
ATOM     28  C   UNL A   1      33.279  30.370  27.450  1.00  0.00     0.261 C 
BRANCH  28  29
ATOM     29  O   UNL A   1      34.368  31.325  27.464  1.00  0.00    -0.460 OA
BRANCH  29  30
ATOM     30  C   UNL A   1      35.098  31.398  28.616  1.00  0.00     0.338 C 
ATOM     31  O   UNL A   1      35.051  32.319  29.414  1.00  0.00    -0.246 OA
BRANCH  30  32
ATOM     32  C   UNL A   1      36.073  30.266  28.689  1.00  0.00     0.060 A 
ATOM     33  C   UNL A   1      36.342  29.621  29.916  1.00  0.00     0.016 A 
ATOM     34  C   UNL A   1      36.916  30.057  27.603  1.00  0.00     0.016 A 
ATOM     35  C   UNL A   1      37.545  28.909  30.098  1.00  0.00     0.010 A 
ATOM     36  C   UNL A   1      38.132  29.441  27.816  1.00  0.00     0.010 A 
ATOM     37  C   UNL A   1      38.483  28.904  29.068  1.00  0.00    -0.014 A 
BRANCH  37  38
ATOM     38  C   UNL A   1      39.901  28.525  29.165  1.00  0.00     0.031 A 
ATOM     39  C   UNL A   1      40.265  27.153  28.747  1.00  0.00     0.074 A 
ATOM     40  C   UNL A   1      40.875  29.465  29.297  1.00  0.00     0.049 A 
ATOM     41  N   UNL A   1      41.450  26.675  28.844  1.00  0.00    -0.248 NA
ATOM     42  C   UNL A   1      39.319  26.173  28.211  1.00  0.00     0.031 C 
ATOM     43  C   UNL A   1      42.278  29.416  28.869  1.00  0.00     0.029 A 
ATOM     44  N   UNL A   1      40.790  30.735  29.869  1.00  0.00    -0.354 N 
ATOM     45  C   UNL A   1      41.510  25.525  28.099  1.00  0.00     0.074 A 
ATOM     46  C   UNL A   1      40.138  25.183  27.843  1.00  0.00     0.031 C 
ATOM     47  C   UNL A   1      42.964  30.433  29.428  1.00  0.00     0.029 A 
ATOM     48  C   UNL A   1      42.056  31.127  30.326  1.00  0.00     0.049 A 
ATOM     49  H   UNL A   1      39.967  31.272  29.942  1.00  0.00     0.167 HD
ATOM     50  C   UNL A   1      42.738  25.095  27.702  1.00  0.00     0.034 A 
ATOM     51  C   UNL A   1      42.225  31.437  31.637  1.00  0.00     0.034 A 
ATOM     52  C   UNL A   1      43.787  25.879  28.379  1.00  0.00     0.049 A 
ATOM     53  C   UNL A   1      43.056  30.320  32.216  1.00  0.00     0.074 A 
ATOM     54  C   UNL A   1      44.693  26.839  27.964  1.00  0.00     0.029 A 
ATOM     55  N   UNL A   1      43.770  25.942  29.773  1.00  0.00    -0.354 N 
ATOM     56  N   UNL A   1      43.139  29.142  31.648  1.00  0.00    -0.248 NA
ATOM     57  C   UNL A   1      43.984  30.469  33.328  1.00  0.00     0.031 C 
ATOM     58  C   UNL A   1      45.115  27.561  29.125  1.00  0.00     0.029 A 
ATOM     59  C   UNL A   1      44.503  27.012  30.245  1.00  0.00     0.049 A 
ATOM     60  H   UNL A   1      43.294  25.302  30.349  1.00  0.00     0.167 HD
ATOM     61  C   UNL A   1      44.180  28.451  32.179  1.00  0.00     0.074 A 
ATOM     62  C   UNL A   1      44.644  29.298  33.271  1.00  0.00     0.031 C 
ATOM     63  C   UNL A   1      44.614  27.254  31.682  1.00  0.00     0.034 A 
BRANCH  50  64
ATOM     64  C   UNL A   1      43.025  24.084  26.613  1.00  0.00     0.023 A 
ATOM     65  C   UNL A   1      42.633  22.746  26.826  1.00  0.00     0.031 A 
ATOM     66  C   UNL A   1      43.728  24.314  25.408  1.00  0.00     0.131 A 
ATOM     67  C   UNL A   1      42.925  21.732  25.892  1.00  0.00     0.055 A 
ATOM     68  C   UNL A   1      43.976  23.314  24.457  1.00  0.00     0.041 A 
ATOM     69  F   UNL A   1      44.265  25.497  25.095  1.00  0.00    -0.206 F 
ATOM     70  C   UNL A   1      43.578  22.012  24.696  1.00  0.00     0.022 A 
BRANCH  67  71
ATOM     71  S   UNL A   1      42.473  20.022  26.284  1.00  0.00     0.124 S 
ATOM     72  O   UNL A   1      41.304  19.813  25.435  1.00  0.00    -0.237 OA
ATOM     73  O   UNL A   1      43.680  19.290  25.918  1.00  0.00    -0.237 OA
ATOM     74  O   UNL A   1      42.190  20.067  27.719  1.00  0.00    -0.744 OA
ENDBRANCH  67  71
ENDBRANCH  50  64
BRANCH  51  75
ATOM     75  C   UNL A   1      41.022  32.170  32.172  1.00  0.00     0.023 A 
ATOM     76  C   UNL A   1      40.148  31.429  33.020  1.00  0.00     0.031 A 
ATOM     77  C   UNL A   1      41.007  33.567  32.310  1.00  0.00     0.131 A 
ATOM     78  C   UNL A   1      39.413  32.063  34.046  1.00  0.00     0.055 A 
ATOM     79  C   UNL A   1      40.260  34.196  33.324  1.00  0.00     0.041 A 
ATOM     80  F   UNL A   1      41.833  34.333  31.585  1.00  0.00    -0.206 F 
ATOM     81  C   UNL A   1      39.491  33.447  34.218  1.00  0.00     0.022 A 
BRANCH  78  82
ATOM     82  S   UNL A   1      38.668  31.046  35.384  1.00  0.00     0.124 S 
ATOM     83  O   UNL A   1      37.578  31.893  35.852  1.00  0.00    -0.237 OA
ATOM     84  O   UNL A   1      38.270  29.824  34.689  1.00  0.00    -0.237 OA
ATOM     85  O   UNL A   1      39.774  30.857  36.323  1.00  0.00    -0.744 OA
ENDBRANCH  78  82
ENDBRANCH  51  75
BRANCH  63  86
ATOM     86  C   UNL A   1      45.239  26.221  32.575  1.00  0.00     0.023 A 
ATOM     87  C   UNL A   1      44.450  25.340  33.320  1.00  0.00     0.031 A 
ATOM     88  C   UNL A   1      46.631  25.991  32.618  1.00  0.00     0.131 A 
ATOM     89  C   UNL A   1      45.023  24.404  34.180  1.00  0.00     0.055 A 
ATOM     90  C   UNL A   1      47.197  24.962  33.372  1.00  0.00     0.041 A 
ATOM     91  F   UNL A   1      47.499  26.736  31.918  1.00  0.00    -0.206 F 
ATOM     92  C   UNL A   1      46.393  24.180  34.190  1.00  0.00     0.022 A 
BRANCH  89  93
ATOM     93  S   UNL A   1      43.921  23.617  35.375  1.00  0.00     0.124 S 
ATOM     94  O   UNL A   1      43.760  24.677  36.370  1.00  0.00    -0.237 OA
ATOM     95  O   UNL A   1      42.738  23.324  34.572  1.00  0.00    -0.237 OA
ATOM     96  O   UNL A   1      44.679  22.452  35.824  1.00  0.00    -0.744 OA
ENDBRANCH  89  93
ENDBRANCH  63  86
ENDBRANCH  37  38
ENDBRANCH  30  32
ENDBRANCH  29  30
ENDBRANCH  28  29
ENDBRANCH  27  28
ENDBRANCH   1  27
TORSDOF 20
ENDMDL
