MODEL 1
REMARK VINA RESULT:     -11.3      0.000      0.000
REMARK SMILES CC(C)Nc1ncc(C(=O)N2CCC[C@H](c3cccc(C(=O)OCCOCCOC(=O)c4ccc(-c5c6nc(c(-c7cc(S(=O)(=O)[O-])ccc7F)c7ccc([nH]7)c(-c7cc(S(=O)(=O)[O-])ccc7F)c7nc(c(-c8cc(S(=O)(=O)[O-])ccc8F)c8ccc5[nH]8)C=C7)C=C6)cc4)c3)C2)cn1
REMARK SMILES IDX 25 1 24 2 23 3 21 4 22 5 20 6 16 7 17 8 95 9 18 10 19 11
REMARK SMILES IDX 15 12 11 13 12 14 96 15 13 16 14 17 9 18 10 19 8 20 5 21
REMARK SMILES IDX 6 22 98 23 7 24 97 25 4 26 2 28 1 29 3 30 26 31 27 32 28 33
REMARK SMILES IDX 29 34 30 35 31 36 32 37 33 38 94 39 34 40 93 41 35 42 36 43
REMARK SMILES IDX 37 44 87 45 38 46 92 47 86 48 88 49 39 50 91 51 85 52 84 53
REMARK SMILES IDX 40 55 72 56 52 57 71 58 53 59 56 60 70 61 89 62 54 63 55 64
REMARK SMILES IDX 69 66 90 67 57 68 41 69 42 70 50 71 43 72 49 73 51 74 48 75
REMARK SMILES IDX 44 76 45 77 46 78 47 79 73 80 74 81 82 82 75 83 81 84 83 85
REMARK SMILES IDX 80 86 76 87 77 88 78 89 79 90 58 91 59 92 67 93 60 94 66 95
REMARK SMILES IDX 68 96 65 97 61 98 62 99 63 100 64 101
REMARK H PARENT 4 27 88 54 56 65
REMARK Flexibility Score: inf
ROOT
ATOM      1  C   UNL A   1      33.865  31.068  27.633  1.00  0.00     0.202 C 
ENDROOT
BRANCH   1   2
ATOM      2  C   UNL A   1      34.688  29.829  27.264  1.00  0.00     0.261 C 
BRANCH   2   3
ATOM      3  O   UNL A   1      33.870  28.647  27.235  1.00  0.00    -0.460 OA
BRANCH   3   4
ATOM      4  C   UNL A   1      33.649  28.133  26.001  1.00  0.00     0.338 C 
ATOM      5  O   UNL A   1      34.020  28.595  24.932  1.00  0.00    -0.246 OA
BRANCH   4   6
ATOM      6  C   UNL A   1      33.066  26.779  26.130  1.00  0.00     0.060 A 
ATOM      7  C   UNL A   1      33.176  24.345  25.931  1.00  0.00    -0.042 A 
ATOM      8  C   UNL A   1      31.831  24.299  26.341  1.00  0.00     0.004 A 
ATOM      9  C   UNL A   1      33.755  25.619  25.754  1.00  0.00     0.019 A 
ATOM     10  C   UNL A   1      31.132  25.456  26.689  1.00  0.00     0.001 A 
ATOM     11  C   UNL A   1      31.758  26.692  26.614  1.00  0.00     0.016 A 
BRANCH   7  12
ATOM     12  C   UNL A   1      34.005  23.069  25.715  1.00  0.00     0.039 C 
ATOM     13  N   UNL A   1      33.496  22.644  23.297  1.00  0.00    -0.338 N 
ATOM     14  C   UNL A   1      32.571  21.555  23.603  1.00  0.00     0.120 C 
ATOM     15  C   UNL A   1      34.574  22.878  24.276  1.00  0.00     0.128 C 
ATOM     16  C   UNL A   1      32.050  21.601  25.033  1.00  0.00     0.022 C 
ATOM     17  C   UNL A   1      33.198  21.784  26.030  1.00  0.00     0.012 C 
BRANCH  13  18
ATOM     18  C   UNL A   1      33.242  23.439  22.184  1.00  0.00     0.257 C 
ATOM     19  O   UNL A   1      33.506  23.099  21.034  1.00  0.00    -0.269 OA
BRANCH  18  20
ATOM     20  C   UNL A   1      32.745  24.808  22.376  1.00  0.00     0.076 A 
ATOM     21  C   UNL A   1      31.727  27.336  22.353  1.00  0.00     0.222 A 
ATOM     22  N   UNL A   1      33.026  27.172  22.062  1.00  0.00    -0.221 NA
ATOM     23  N   UNL A   1      30.901  26.327  22.670  1.00  0.00    -0.221 NA
ATOM     24  C   UNL A   1      33.509  25.910  22.081  1.00  0.00     0.130 A 
ATOM     25  C   UNL A   1      31.422  25.074  22.640  1.00  0.00     0.130 A 
BRANCH  21  26
ATOM     26  N   UNL A   1      31.278  28.623  22.275  1.00  0.00    -0.352 N 
ATOM     27  H   UNL A   1      31.726  29.241  21.654  1.00  0.00     0.163 HD
BRANCH  26  28
ATOM     28  C   UNL A   1      30.173  29.115  23.064  1.00  0.00     0.076 C 
ATOM     29  C   UNL A   1      30.746  29.702  24.356  1.00  0.00     0.030 C 
ATOM     30  C   UNL A   1      29.413  30.184  22.285  1.00  0.00     0.030 C 
ENDBRANCH  26  28
ENDBRANCH  21  26
ENDBRANCH  18  20
ENDBRANCH  13  18
ENDBRANCH   7  12
ENDBRANCH   4   6
ENDBRANCH   3   4
ENDBRANCH   2   3
ENDBRANCH   1   2
BRANCH   1  31
ATOM     31  O   UNL A   1      32.560  31.175  27.064  1.00  0.00    -0.374 OA
BRANCH  31  32
ATOM     32  C   UNL A   1      31.903  32.439  27.164  1.00  0.00     0.202 C 
BRANCH  32  33
ATOM     33  C   UNL A   1      32.753  33.662  27.533  1.00  0.00     0.261 C 
BRANCH  33  34
ATOM     34  O   UNL A   1      32.472  34.157  28.852  1.00  0.00    -0.460 OA
BRANCH  34  35
ATOM     35  C   UNL A   1      33.475  34.882  29.405  1.00  0.00     0.338 C 
ATOM     36  O   UNL A   1      33.434  36.058  29.735  1.00  0.00    -0.246 OA
BRANCH  35  37
ATOM     37  C   UNL A   1      34.604  33.997  29.746  1.00  0.00     0.060 A 
ATOM     38  C   UNL A   1      34.369  32.976  30.676  1.00  0.00     0.016 A 
ATOM     39  C   UNL A   1      35.880  34.196  29.215  1.00  0.00     0.016 A 
ATOM     40  C   UNL A   1      35.420  32.174  31.111  1.00  0.00     0.010 A 
ATOM     41  C   UNL A   1      36.936  33.392  29.661  1.00  0.00     0.010 A 
ATOM     42  C   UNL A   1      36.717  32.398  30.633  1.00  0.00    -0.014 A 
BRANCH  42  43
ATOM     43  C   UNL A   1      37.861  31.677  31.244  1.00  0.00     0.031 A 
ATOM     44  C   UNL A   1      38.326  32.073  32.619  1.00  0.00     0.074 A 
ATOM     45  C   UNL A   1      38.460  30.664  30.593  1.00  0.00     0.049 A 
ATOM     46  N   UNL A   1      39.333  31.620  33.319  1.00  0.00    -0.248 NA
ATOM     47  C   UNL A   1      37.551  33.128  33.290  1.00  0.00     0.031 C 
ATOM     48  C   UNL A   1      38.065  30.159  29.278  1.00  0.00     0.029 A 
ATOM     49  N   UNL A   1      39.531  29.881  30.945  1.00  0.00    -0.354 N 
ATOM     50  C   UNL A   1      39.319  32.336  34.512  1.00  0.00     0.074 A 
ATOM     51  C   UNL A   1      38.227  33.282  34.419  1.00  0.00     0.031 C 
ATOM     52  C   UNL A   1      38.887  29.153  28.933  1.00  0.00     0.029 A 
ATOM     53  C   UNL A   1      39.894  28.974  29.977  1.00  0.00     0.049 A 
ATOM     54  H   UNL A   1      39.995  29.961  31.809  1.00  0.00     0.167 HD
ATOM     55  C   UNL A   1      40.136  32.209  35.587  1.00  0.00     0.034 A 
ATOM     56  C   UNL A   1      40.936  28.119  29.927  1.00  0.00     0.034 A 
ATOM     57  C   UNL A   1      41.226  31.264  35.656  1.00  0.00     0.049 A 
ATOM     58  C   UNL A   1      41.891  28.063  31.096  1.00  0.00     0.074 A 
ATOM     59  C   UNL A   1      42.104  31.039  36.703  1.00  0.00     0.029 A 
ATOM     60  N   UNL A   1      41.599  30.399  34.636  1.00  0.00    -0.354 N 
ATOM     61  N   UNL A   1      41.865  28.740  32.220  1.00  0.00    -0.248 NA
ATOM     62  C   UNL A   1      43.014  27.122  30.989  1.00  0.00     0.031 C 
ATOM     63  C   UNL A   1      43.055  30.101  36.284  1.00  0.00     0.029 A 
ATOM     64  C   UNL A   1      42.718  29.670  35.011  1.00  0.00     0.049 A 
ATOM     65  H   UNL A   1      41.136  30.315  33.771  1.00  0.00     0.167 HD
ATOM     66  C   UNL A   1      42.947  28.280  32.968  1.00  0.00     0.074 A 
ATOM     67  C   UNL A   1      43.596  27.259  32.171  1.00  0.00     0.031 C 
ATOM     68  C   UNL A   1      43.365  28.663  34.203  1.00  0.00     0.034 A 
BRANCH  55  69
ATOM     69  C   UNL A   1      39.915  33.150  36.747  1.00  0.00     0.023 A 
ATOM     70  C   UNL A   1      39.229  32.751  37.908  1.00  0.00     0.031 A 
ATOM     71  C   UNL A   1      40.376  34.476  36.681  1.00  0.00     0.131 A 
ATOM     72  C   UNL A   1      38.966  33.684  38.922  1.00  0.00     0.055 A 
ATOM     73  C   UNL A   1      40.185  35.378  37.730  1.00  0.00     0.041 A 
ATOM     74  F   UNL A   1      41.015  34.924  35.588  1.00  0.00    -0.206 F 
ATOM     75  C   UNL A   1      39.463  34.989  38.853  1.00  0.00     0.022 A 
BRANCH  72  76
ATOM     76  S   UNL A   1      37.838  33.214  40.262  1.00  0.00     0.124 S 
ATOM     77  O   UNL A   1      37.855  34.414  41.096  1.00  0.00    -0.237 OA
ATOM     78  O   UNL A   1      36.594  32.948  39.548  1.00  0.00    -0.237 OA
ATOM     79  O   UNL A   1      38.481  32.043  40.856  1.00  0.00    -0.744 OA
ENDBRANCH  72  76
ENDBRANCH  55  69
BRANCH  56  80
ATOM     80  C   UNL A   1      41.165  27.276  28.717  1.00  0.00     0.023 A 
ATOM     81  C   UNL A   1      42.179  27.585  27.797  1.00  0.00     0.031 A 
ATOM     82  C   UNL A   1      40.330  26.179  28.434  1.00  0.00     0.131 A 
ATOM     83  C   UNL A   1      42.300  26.838  26.615  1.00  0.00     0.055 A 
ATOM     84  C   UNL A   1      40.495  25.402  27.287  1.00  0.00     0.041 A 
ATOM     85  F   UNL A   1      39.341  25.841  29.278  1.00  0.00    -0.206 F 
ATOM     86  C   UNL A   1      41.476  25.739  26.361  1.00  0.00     0.022 A 
BRANCH  83  87
ATOM     87  S   UNL A   1      43.493  27.385  25.362  1.00  0.00     0.124 S 
ATOM     88  O   UNL A   1      44.247  28.396  26.094  1.00  0.00    -0.237 OA
ATOM     89  O   UNL A   1      44.202  26.146  25.060  1.00  0.00    -0.237 OA
ATOM     90  O   UNL A   1      42.646  27.893  24.286  1.00  0.00    -0.744 OA
ENDBRANCH  83  87
ENDBRANCH  56  80
BRANCH  68  91
ATOM     91  C   UNL A   1      44.557  27.937  34.784  1.00  0.00     0.023 A 
ATOM     92  C   UNL A   1      44.419  26.736  35.502  1.00  0.00     0.031 A 
ATOM     93  C   UNL A   1      45.852  28.463  34.621  1.00  0.00     0.131 A 
ATOM     94  C   UNL A   1      45.545  26.133  36.081  1.00  0.00     0.055 A 
ATOM     95  C   UNL A   1      46.978  27.821  35.142  1.00  0.00     0.041 A 
ATOM     96  F   UNL A   1      46.046  29.608  33.949  1.00  0.00    -0.206 F 
ATOM     97  C   UNL A   1      46.826  26.658  35.888  1.00  0.00     0.022 A 
BRANCH  94  98
ATOM     98  S   UNL A   1      45.305  24.708  37.178  1.00  0.00     0.124 S 
ATOM     99  O   UNL A   1      45.020  25.355  38.455  1.00  0.00    -0.237 OA
ATOM    100  O   UNL A   1      44.185  24.016  36.550  1.00  0.00    -0.237 OA
ATOM    101  O   UNL A   1      46.584  24.004  37.112  1.00  0.00    -0.744 OA
ENDBRANCH  94  98
ENDBRANCH  68  91
ENDBRANCH  42  43
ENDBRANCH  35  37
ENDBRANCH  34  35
ENDBRANCH  33  34
ENDBRANCH  32  33
ENDBRANCH  31  32
ENDBRANCH   1  31
TORSDOF 22
ENDMDL
MODEL 2
REMARK VINA RESULT:     -11.2      1.664      2.151
REMARK SMILES CC(C)Nc1ncc(C(=O)N2CCC[C@H](c3cccc(C(=O)OCCOCCOC(=O)c4ccc(-c5c6nc(c(-c7cc(S(=O)(=O)[O-])ccc7F)c7ccc([nH]7)c(-c7cc(S(=O)(=O)[O-])ccc7F)c7nc(c(-c8cc(S(=O)(=O)[O-])ccc8F)c8ccc5[nH]8)C=C7)C=C6)cc4)c3)C2)cn1
REMARK SMILES IDX 25 1 24 2 23 3 21 4 22 5 20 6 16 7 17 8 95 9 18 10 19 11
REMARK SMILES IDX 15 12 11 13 12 14 96 15 13 16 14 17 9 18 10 19 8 20 5 21
REMARK SMILES IDX 6 22 98 23 7 24 97 25 4 26 2 28 1 29 3 30 26 31 27 32 28 33
REMARK SMILES IDX 29 34 30 35 31 36 32 37 33 38 94 39 34 40 93 41 35 42 36 43
REMARK SMILES IDX 37 44 87 45 38 46 92 47 86 48 88 49 39 50 91 51 85 52 84 53
REMARK SMILES IDX 40 55 72 56 52 57 71 58 53 59 56 60 70 61 89 62 54 63 55 64
REMARK SMILES IDX 69 66 90 67 57 68 41 69 42 70 50 71 43 72 49 73 51 74 48 75
REMARK SMILES IDX 44 76 45 77 46 78 47 79 73 80 74 81 82 82 75 83 81 84 83 85
REMARK SMILES IDX 80 86 76 87 77 88 78 89 79 90 58 91 59 92 67 93 60 94 66 95
REMARK SMILES IDX 68 96 65 97 61 98 62 99 63 100 64 101
REMARK H PARENT 4 27 88 54 56 65
REMARK Flexibility Score: inf
ROOT
ATOM      1  C   UNL A   1      33.432  29.898  26.222  1.00  0.00     0.202 C 
ENDROOT
BRANCH   1   2
ATOM      2  C   UNL A   1      32.407  29.006  25.510  1.00  0.00     0.261 C 
BRANCH   2   3
ATOM      3  O   UNL A   1      32.650  27.615  25.779  1.00  0.00    -0.460 OA
BRANCH   3   4
ATOM      4  C   UNL A   1      31.759  27.029  26.615  1.00  0.00     0.338 C 
ATOM      5  O   UNL A   1      30.874  27.580  27.254  1.00  0.00    -0.246 OA
BRANCH   4   6
ATOM      6  C   UNL A   1      31.859  25.558  26.486  1.00  0.00     0.060 A 
ATOM      7  C   UNL A   1      33.102  23.455  26.575  1.00  0.00    -0.042 A 
ATOM      8  C   UNL A   1      31.936  22.803  26.134  1.00  0.00     0.004 A 
ATOM      9  C   UNL A   1      33.061  24.862  26.668  1.00  0.00     0.019 A 
ATOM     10  C   UNL A   1      30.744  23.499  25.924  1.00  0.00     0.001 A 
ATOM     11  C   UNL A   1      30.696  24.870  26.130  1.00  0.00     0.016 A 
BRANCH   7  12
ATOM     12  C   UNL A   1      34.366  22.678  26.976  1.00  0.00     0.039 C 
ATOM     13  N   UNL A   1      35.363  22.300  24.707  1.00  0.00    -0.338 N 
ATOM     14  C   UNL A   1      34.952  20.898  24.675  1.00  0.00     0.120 C 
ATOM     15  C   UNL A   1      35.598  22.880  26.042  1.00  0.00     0.128 C 
ATOM     16  C   UNL A   1      33.820  20.587  25.645  1.00  0.00     0.022 C 
ATOM     17  C   UNL A   1      34.120  21.149  27.038  1.00  0.00     0.012 C 
BRANCH  13  18
ATOM     18  C   UNL A   1      35.399  23.009  23.511  1.00  0.00     0.257 C 
ATOM     19  O   UNL A   1      36.407  23.116  22.818  1.00  0.00    -0.269 OA
BRANCH  18  20
ATOM     20  C   UNL A   1      34.220  23.780  23.095  1.00  0.00     0.076 A 
ATOM     21  C   UNL A   1      31.912  25.172  22.694  1.00  0.00     0.222 A 
ATOM     22  N   UNL A   1      31.894  23.844  22.507  1.00  0.00    -0.221 NA
ATOM     23  N   UNL A   1      33.007  25.859  23.054  1.00  0.00    -0.221 NA
ATOM     24  C   UNL A   1      33.050  23.175  22.710  1.00  0.00     0.130 A 
ATOM     25  C   UNL A   1      34.135  25.140  23.282  1.00  0.00     0.130 A 
BRANCH  21  26
ATOM     26  N   UNL A   1      30.709  25.794  22.521  1.00  0.00    -0.352 N 
ATOM     27  H   UNL A   1      30.091  25.443  21.840  1.00  0.00     0.163 HD
BRANCH  26  28
ATOM     28  C   UNL A   1      30.304  26.944  23.296  1.00  0.00     0.076 C 
ATOM     29  C   UNL A   1      30.376  28.171  22.384  1.00  0.00     0.030 C 
ATOM     30  C   UNL A   1      28.883  26.748  23.813  1.00  0.00     0.030 C 
ENDBRANCH  26  28
ENDBRANCH  21  26
ENDBRANCH  18  20
ENDBRANCH  13  18
ENDBRANCH   7  12
ENDBRANCH   4   6
ENDBRANCH   3   4
ENDBRANCH   2   3
ENDBRANCH   1   2
BRANCH   1  31
ATOM     31  O   UNL A   1      32.934  30.798  27.212  1.00  0.00    -0.374 OA
BRANCH  31  32
ATOM     32  C   UNL A   1      31.890  31.691  26.821  1.00  0.00     0.202 C 
BRANCH  32  33
ATOM     33  C   UNL A   1      32.179  33.197  26.871  1.00  0.00     0.261 C 
BRANCH  33  34
ATOM     34  O   UNL A   1      32.385  33.679  28.209  1.00  0.00    -0.460 OA
BRANCH  34  35
ATOM     35  C   UNL A   1      33.509  34.420  28.371  1.00  0.00     0.338 C 
ATOM     36  O   UNL A   1      33.587  35.640  28.381  1.00  0.00    -0.246 OA
BRANCH  35  37
ATOM     37  C   UNL A   1      34.637  33.545  28.737  1.00  0.00     0.060 A 
ATOM     38  C   UNL A   1      34.372  32.470  29.595  1.00  0.00     0.016 A 
ATOM     39  C   UNL A   1      35.938  33.802  28.301  1.00  0.00     0.016 A 
ATOM     40  C   UNL A   1      35.415  31.670  30.054  1.00  0.00     0.010 A 
ATOM     41  C   UNL A   1      36.986  33.001  28.771  1.00  0.00     0.010 A 
ATOM     42  C   UNL A   1      36.733  31.951  29.673  1.00  0.00    -0.014 A 
BRANCH  42  43
ATOM     43  C   UNL A   1      37.855  31.225  30.318  1.00  0.00     0.031 A 
ATOM     44  C   UNL A   1      38.224  31.559  31.738  1.00  0.00     0.074 A 
ATOM     45  C   UNL A   1      38.520  30.262  29.655  1.00  0.00     0.049 A 
ATOM     46  N   UNL A   1      39.196  31.093  32.477  1.00  0.00    -0.248 NA
ATOM     47  C   UNL A   1      37.381  32.560  32.412  1.00  0.00     0.031 C 
ATOM     48  C   UNL A   1      38.220  29.817  28.295  1.00  0.00     0.029 A 
ATOM     49  N   UNL A   1      39.587  29.486  30.034  1.00  0.00    -0.354 N 
ATOM     50  C   UNL A   1      39.090  31.745  33.701  1.00  0.00     0.074 A 
ATOM     51  C   UNL A   1      37.981  32.670  33.587  1.00  0.00     0.031 C 
ATOM     52  C   UNL A   1      39.089  28.850  27.951  1.00  0.00     0.029 A 
ATOM     53  C   UNL A   1      40.033  28.640  29.046  1.00  0.00     0.049 A 
ATOM     54  H   UNL A   1      39.994  29.532  30.929  1.00  0.00     0.167 HD
ATOM     55  C   UNL A   1      39.842  31.581  34.818  1.00  0.00     0.034 A 
ATOM     56  C   UNL A   1      41.099  27.813  29.019  1.00  0.00     0.034 A 
ATOM     57  C   UNL A   1      40.950  30.659  34.908  1.00  0.00     0.049 A 
ATOM     58  C   UNL A   1      41.981  27.717  30.242  1.00  0.00     0.074 A 
ATOM     59  C   UNL A   1      41.767  30.399  35.995  1.00  0.00     0.029 A 
ATOM     60  N   UNL A   1      41.408  29.857  33.870  1.00  0.00    -0.354 N 
ATOM     61  N   UNL A   1      41.866  28.334  31.395  1.00  0.00    -0.248 NA
ATOM     62  C   UNL A   1      43.132  26.809  30.159  1.00  0.00     0.031 C 
ATOM     63  C   UNL A   1      42.767  29.507  35.591  1.00  0.00     0.029 A 
ATOM     64  C   UNL A   1      42.520  29.136  34.278  1.00  0.00     0.049 A 
ATOM     65  H   UNL A   1      41.002  29.808  32.974  1.00  0.00     0.167 HD
ATOM     66  C   UNL A   1      42.912  27.861  32.185  1.00  0.00     0.074 A 
ATOM     67  C   UNL A   1      43.635  26.898  31.380  1.00  0.00     0.031 C 
ATOM     68  C   UNL A   1      43.242  28.188  33.462  1.00  0.00     0.034 A 
BRANCH  55  69
ATOM     69  C   UNL A   1      39.524  32.454  36.008  1.00  0.00     0.023 A 
ATOM     70  C   UNL A   1      38.687  32.017  37.050  1.00  0.00     0.031 A 
ATOM     71  C   UNL A   1      40.049  33.756  36.091  1.00  0.00     0.131 A 
ATOM     72  C   UNL A   1      38.345  32.894  38.089  1.00  0.00     0.055 A 
ATOM     73  C   UNL A   1      39.773  34.596  37.172  1.00  0.00     0.041 A 
ATOM     74  F   UNL A   1      40.834  34.240  35.115  1.00  0.00    -0.206 F 
ATOM     75  C   UNL A   1      38.904  34.173  38.172  1.00  0.00     0.022 A 
BRANCH  72  76
ATOM     76  S   UNL A   1      37.044  32.398  39.252  1.00  0.00     0.124 S 
ATOM     77  O   UNL A   1      37.296  30.965  39.380  1.00  0.00    -0.237 OA
ATOM     78  O   UNL A   1      37.345  33.208  40.426  1.00  0.00    -0.237 OA
ATOM     79  O   UNL A   1      35.809  32.746  38.552  1.00  0.00    -0.744 OA
ENDBRANCH  72  76
ENDBRANCH  55  69
BRANCH  56  80
ATOM     80  C   UNL A   1      41.424  27.040  27.785  1.00  0.00     0.023 A 
ATOM     81  C   UNL A   1      41.204  25.656  27.715  1.00  0.00     0.031 A 
ATOM     82  C   UNL A   1      42.017  27.670  26.675  1.00  0.00     0.131 A 
ATOM     83  C   UNL A   1      41.619  24.939  26.582  1.00  0.00     0.055 A 
ATOM     84  C   UNL A   1      42.372  26.961  25.526  1.00  0.00     0.041 A 
ATOM     85  F   UNL A   1      42.255  28.991  26.689  1.00  0.00    -0.206 F 
ATOM     86  C   UNL A   1      42.186  25.584  25.481  1.00  0.00     0.022 A 
BRANCH  83  87
ATOM     87  S   UNL A   1      41.495  23.129  26.607  1.00  0.00     0.124 S 
ATOM     88  O   UNL A   1      41.956  22.821  27.956  1.00  0.00    -0.237 OA
ATOM     89  O   UNL A   1      40.075  22.920  26.350  1.00  0.00    -0.237 OA
ATOM     90  O   UNL A   1      42.390  22.713  25.531  1.00  0.00    -0.744 OA
ENDBRANCH  83  87
ENDBRANCH  56  80
BRANCH  68  91
ATOM     91  C   UNL A   1      44.414  27.459  34.080  1.00  0.00     0.023 A 
ATOM     92  C   UNL A   1      44.270  26.203  34.692  1.00  0.00     0.031 A 
ATOM     93  C   UNL A   1      45.696  28.041  34.061  1.00  0.00     0.131 A 
ATOM     94  C   UNL A   1      45.372  25.595  35.312  1.00  0.00     0.055 A 
ATOM     95  C   UNL A   1      46.803  27.399  34.619  1.00  0.00     0.041 A 
ATOM     96  F   UNL A   1      45.895  29.241  33.494  1.00  0.00    -0.206 F 
ATOM     97  C   UNL A   1      46.642  26.177  35.262  1.00  0.00     0.022 A 
BRANCH  94  98
ATOM     98  S   UNL A   1      45.106  24.082  36.277  1.00  0.00     0.124 S 
ATOM     99  O   UNL A   1      43.867  23.570  35.701  1.00  0.00    -0.237 OA
ATOM    100  O   UNL A   1      46.310  23.310  35.986  1.00  0.00    -0.237 OA
ATOM    101  O   UNL A   1      44.997  24.566  37.652  1.00  0.00    -0.744 OA
ENDBRANCH  94  98
ENDBRANCH  68  91
ENDBRANCH  42  43
ENDBRANCH  35  37
ENDBRANCH  34  35
ENDBRANCH  33  34
ENDBRANCH  32  33
ENDBRANCH  31  32
ENDBRANCH   1  31
TORSDOF 22
ENDMDL
MODEL 3
REMARK VINA RESULT:     -10.5      2.200      2.601
REMARK SMILES CC(C)Nc1ncc(C(=O)N2CCC[C@H](c3cccc(C(=O)OCCOCCOC(=O)c4ccc(-c5c6nc(c(-c7cc(S(=O)(=O)[O-])ccc7F)c7ccc([nH]7)c(-c7cc(S(=O)(=O)[O-])ccc7F)c7nc(c(-c8cc(S(=O)(=O)[O-])ccc8F)c8ccc5[nH]8)C=C7)C=C6)cc4)c3)C2)cn1
REMARK SMILES IDX 25 1 24 2 23 3 21 4 22 5 20 6 16 7 17 8 95 9 18 10 19 11
REMARK SMILES IDX 15 12 11 13 12 14 96 15 13 16 14 17 9 18 10 19 8 20 5 21
REMARK SMILES IDX 6 22 98 23 7 24 97 25 4 26 2 28 1 29 3 30 26 31 27 32 28 33
REMARK SMILES IDX 29 34 30 35 31 36 32 37 33 38 94 39 34 40 93 41 35 42 36 43
REMARK SMILES IDX 37 44 87 45 38 46 92 47 86 48 88 49 39 50 91 51 85 52 84 53
REMARK SMILES IDX 40 55 72 56 52 57 71 58 53 59 56 60 70 61 89 62 54 63 55 64
REMARK SMILES IDX 69 66 90 67 57 68 41 69 42 70 50 71 43 72 49 73 51 74 48 75
REMARK SMILES IDX 44 76 45 77 46 78 47 79 73 80 74 81 82 82 75 83 81 84 83 85
REMARK SMILES IDX 80 86 76 87 77 88 78 89 79 90 58 91 59 92 67 93 60 94 66 95
REMARK SMILES IDX 68 96 65 97 61 98 62 99 63 100 64 101
REMARK H PARENT 4 27 88 54 56 65
REMARK Flexibility Score: inf
ROOT
ATOM      1  C   UNL A   1      32.934  30.107  25.776  1.00  0.00     0.202 C 
ENDROOT
BRANCH   1   2
ATOM      2  C   UNL A   1      31.798  29.132  25.444  1.00  0.00     0.261 C 
BRANCH   2   3
ATOM      3  O   UNL A   1      32.198  27.769  25.664  1.00  0.00    -0.460 OA
BRANCH   3   4
ATOM      4  C   UNL A   1      31.650  27.180  26.753  1.00  0.00     0.338 C 
ATOM      5  O   UNL A   1      31.069  27.731  27.677  1.00  0.00    -0.246 OA
BRANCH   4   6
ATOM      6  C   UNL A   1      31.653  25.711  26.570  1.00  0.00     0.060 A 
ATOM      7  C   UNL A   1      32.761  23.531  26.559  1.00  0.00    -0.042 A 
ATOM      8  C   UNL A   1      31.548  22.971  26.120  1.00  0.00     0.004 A 
ATOM      9  C   UNL A   1      32.811  24.934  26.702  1.00  0.00     0.019 A 
ATOM     10  C   UNL A   1      30.398  23.748  25.959  1.00  0.00     0.001 A 
ATOM     11  C   UNL A   1      30.442  25.111  26.215  1.00  0.00     0.016 A 
BRANCH   7  12
ATOM     12  C   UNL A   1      33.981  22.663  26.905  1.00  0.00     0.039 C 
ATOM     13  N   UNL A   1      34.942  22.356  24.610  1.00  0.00    -0.338 N 
ATOM     14  C   UNL A   1      34.451  20.985  24.503  1.00  0.00     0.120 C 
ATOM     15  C   UNL A   1      35.217  22.846  25.974  1.00  0.00     0.128 C 
ATOM     16  C   UNL A   1      33.308  20.684  25.463  1.00  0.00     0.022 C 
ATOM     17  C   UNL A   1      33.648  21.149  26.883  1.00  0.00     0.012 C 
BRANCH  13  18
ATOM     18  C   UNL A   1      35.014  23.128  23.456  1.00  0.00     0.257 C 
ATOM     19  O   UNL A   1      35.880  22.985  22.598  1.00  0.00    -0.269 OA
BRANCH  18  20
ATOM     20  C   UNL A   1      34.091  24.260  23.288  1.00  0.00     0.076 A 
ATOM     21  C   UNL A   1      32.561  26.417  22.634  1.00  0.00     0.222 A 
ATOM     22  N   UNL A   1      33.701  26.629  23.309  1.00  0.00    -0.221 NA
ATOM     23  N   UNL A   1      32.122  25.201  22.275  1.00  0.00    -0.221 NA
ATOM     24  C   UNL A   1      34.443  25.544  23.623  1.00  0.00     0.130 A 
ATOM     25  C   UNL A   1      32.918  24.146  22.580  1.00  0.00     0.130 A 
BRANCH  21  26
ATOM     26  N   UNL A   1      31.872  27.549  22.301  1.00  0.00    -0.352 N 
ATOM     27  H   UNL A   1      32.380  28.368  22.101  1.00  0.00     0.163 HD
BRANCH  26  28
ATOM     28  C   UNL A   1      30.430  27.593  22.228  1.00  0.00     0.076 C 
ATOM     29  C   UNL A   1      29.878  26.836  23.438  1.00  0.00     0.030 C 
ATOM     30  C   UNL A   1      29.953  29.041  22.243  1.00  0.00     0.030 C 
ENDBRANCH  26  28
ENDBRANCH  21  26
ENDBRANCH  18  20
ENDBRANCH  13  18
ENDBRANCH   7  12
ENDBRANCH   4   6
ENDBRANCH   3   4
ENDBRANCH   2   3
ENDBRANCH   1   2
BRANCH   1  31
ATOM     31  O   UNL A   1      32.771  30.924  26.936  1.00  0.00    -0.374 OA
BRANCH  31  32
ATOM     32  C   UNL A   1      31.727  31.898  26.910  1.00  0.00     0.202 C 
BRANCH  32  33
ATOM     33  C   UNL A   1      32.126  33.379  26.938  1.00  0.00     0.261 C 
BRANCH  33  34
ATOM     34  O   UNL A   1      32.323  33.877  28.270  1.00  0.00    -0.460 OA
BRANCH  34  35
ATOM     35  C   UNL A   1      33.444  34.622  28.431  1.00  0.00     0.338 C 
ATOM     36  O   UNL A   1      33.519  35.842  28.444  1.00  0.00    -0.246 OA
BRANCH  35  37
ATOM     37  C   UNL A   1      34.577  33.750  28.791  1.00  0.00     0.060 A 
ATOM     38  C   UNL A   1      34.299  32.605  29.549  1.00  0.00     0.016 A 
ATOM     39  C   UNL A   1      35.892  34.073  28.448  1.00  0.00     0.016 A 
ATOM     40  C   UNL A   1      35.340  31.799  30.003  1.00  0.00     0.010 A 
ATOM     41  C   UNL A   1      36.936  33.265  28.913  1.00  0.00     0.010 A 
ATOM     42  C   UNL A   1      36.667  32.142  29.717  1.00  0.00    -0.014 A 
BRANCH  42  43
ATOM     43  C   UNL A   1      37.774  31.397  30.366  1.00  0.00     0.031 A 
ATOM     44  C   UNL A   1      38.087  31.663  31.813  1.00  0.00     0.074 A 
ATOM     45  C   UNL A   1      38.475  30.476  29.680  1.00  0.00     0.049 A 
ATOM     46  N   UNL A   1      39.038  31.171  32.563  1.00  0.00    -0.248 NA
ATOM     47  C   UNL A   1      37.208  32.619  32.504  1.00  0.00     0.031 C 
ATOM     48  C   UNL A   1      38.230  30.097  28.289  1.00  0.00     0.029 A 
ATOM     49  N   UNL A   1      39.537  29.693  30.059  1.00  0.00    -0.354 N 
ATOM     50  C   UNL A   1      38.879  31.760  33.813  1.00  0.00     0.074 A 
ATOM     51  C   UNL A   1      37.764  32.677  33.705  1.00  0.00     0.031 C 
ATOM     52  C   UNL A   1      39.123  29.158  27.930  1.00  0.00     0.029 A 
ATOM     53  C   UNL A   1      40.029  28.903  29.047  1.00  0.00     0.049 A 
ATOM     54  H   UNL A   1      39.911  29.699  30.970  1.00  0.00     0.167 HD
ATOM     55  C   UNL A   1      39.593  31.548  34.947  1.00  0.00     0.034 A 
ATOM     56  C   UNL A   1      41.106  28.090  29.018  1.00  0.00     0.034 A 
ATOM     57  C   UNL A   1      40.708  30.635  35.032  1.00  0.00     0.049 A 
ATOM     58  C   UNL A   1      41.944  27.943  30.266  1.00  0.00     0.074 A 
ATOM     59  C   UNL A   1      41.489  30.329  36.134  1.00  0.00     0.029 A 
ATOM     60  N   UNL A   1      41.213  29.891  33.973  1.00  0.00    -0.354 N 
ATOM     61  N   UNL A   1      41.781  28.500  31.444  1.00  0.00    -0.248 NA
ATOM     62  C   UNL A   1      43.109  27.053  30.180  1.00  0.00     0.031 C 
ATOM     63  C   UNL A   1      42.514  29.470  35.722  1.00  0.00     0.029 A 
ATOM     64  C   UNL A   1      42.320  29.163  34.385  1.00  0.00     0.049 A 
ATOM     65  H   UNL A   1      40.840  29.883  33.061  1.00  0.00     0.167 HD
ATOM     66  C   UNL A   1      42.803  27.998  32.247  1.00  0.00     0.074 A 
ATOM     67  C   UNL A   1      43.567  27.086  31.422  1.00  0.00     0.031 C 
ATOM     68  C   UNL A   1      43.083  28.265  33.550  1.00  0.00     0.034 A 
BRANCH  55  69
ATOM     69  C   UNL A   1      39.221  32.357  36.167  1.00  0.00     0.023 A 
ATOM     70  C   UNL A   1      39.767  33.629  36.411  1.00  0.00     0.031 A 
ATOM     71  C   UNL A   1      38.323  31.836  37.115  1.00  0.00     0.131 A 
ATOM     72  C   UNL A   1      39.465  34.305  37.602  1.00  0.00     0.055 A 
ATOM     73  C   UNL A   1      37.960  32.550  38.258  1.00  0.00     0.041 A 
ATOM     74  F   UNL A   1      37.787  30.615  36.951  1.00  0.00    -0.206 F 
ATOM     75  C   UNL A   1      38.543  33.786  38.516  1.00  0.00     0.022 A 
BRANCH  72  76
ATOM     76  S   UNL A   1      40.405  35.801  38.014  1.00  0.00     0.124 S 
ATOM     77  O   UNL A   1      41.778  35.306  37.970  1.00  0.00    -0.237 OA
ATOM     78  O   UNL A   1      40.020  36.719  36.948  1.00  0.00    -0.237 OA
ATOM     79  O   UNL A   1      39.920  36.154  39.348  1.00  0.00    -0.744 OA
ENDBRANCH  72  76
ENDBRANCH  55  69
BRANCH  56  80
ATOM     80  C   UNL A   1      41.485  27.384  27.760  1.00  0.00     0.023 A 
ATOM     81  C   UNL A   1      41.357  25.992  27.640  1.00  0.00     0.031 A 
ATOM     82  C   UNL A   1      42.038  28.090  26.675  1.00  0.00     0.131 A 
ATOM     83  C   UNL A   1      41.823  25.343  26.486  1.00  0.00     0.055 A 
ATOM     84  C   UNL A   1      42.443  27.447  25.504  1.00  0.00     0.041 A 
ATOM     85  F   UNL A   1      42.188  29.423  26.736  1.00  0.00    -0.206 F 
ATOM     86  C   UNL A   1      42.349  26.063  25.410  1.00  0.00     0.022 A 
BRANCH  83  87
ATOM     87  S   UNL A   1      41.820  23.529  26.448  1.00  0.00     0.124 S 
ATOM     88  O   UNL A   1      42.518  23.208  27.687  1.00  0.00    -0.237 OA
ATOM     89  O   UNL A   1      40.392  23.231  26.418  1.00  0.00    -0.237 OA
ATOM     90  O   UNL A   1      42.546  23.214  25.221  1.00  0.00    -0.744 OA
ENDBRANCH  83  87
ENDBRANCH  56  80
BRANCH  68  91
ATOM     91  C   UNL A   1      44.241  27.519  34.173  1.00  0.00     0.023 A 
ATOM     92  C   UNL A   1      45.540  28.054  34.203  1.00  0.00     0.031 A 
ATOM     93  C   UNL A   1      44.039  26.246  34.737  1.00  0.00     0.131 A 
ATOM     94  C   UNL A   1      46.597  27.297  34.730  1.00  0.00     0.055 A 
ATOM     95  C   UNL A   1      45.082  25.526  35.323  1.00  0.00     0.041 A 
ATOM     96  F   UNL A   1      42.821  25.682  34.734  1.00  0.00    -0.206 F 
ATOM     97  C   UNL A   1      46.372  26.044  35.308  1.00  0.00     0.022 A 
BRANCH  94  98
ATOM     98  S   UNL A   1      48.291  27.925  34.559  1.00  0.00     0.124 S 
ATOM     99  O   UNL A   1      48.061  29.312  34.169  1.00  0.00    -0.237 OA
ATOM    100  O   UNL A   1      48.836  27.721  35.897  1.00  0.00    -0.237 OA
ATOM    101  O   UNL A   1      48.868  27.076  33.519  1.00  0.00    -0.744 OA
ENDBRANCH  94  98
ENDBRANCH  68  91
ENDBRANCH  42  43
ENDBRANCH  35  37
ENDBRANCH  34  35
ENDBRANCH  33  34
ENDBRANCH  32  33
ENDBRANCH  31  32
ENDBRANCH   1  31
TORSDOF 22
ENDMDL
