MODEL 1
REMARK VINA RESULT:     -10.7      0.000      0.000
REMARK SMILES CC[C@@H](C)[C@@H](NC(=O)Cn1ncc2ccccc2c1=O)C(=O)OCCOCCOC(=O)c1ccc(-c2c3nc(c(-c4cc(S(=O)(=O)[O-])ccc4F)c4ccc([nH]4)c(-c4cc(S(=O)(=O)[O-])ccc4F)c4nc(c(-c5cc(S(=O)(=O)[O-])ccc5F)c5ccc2[nH]5)C=C4)C=C3)cc1
REMARK SMILES IDX 26 1 25 2 24 3 23 4 21 5 22 6 5 7 3 8 4 9 2 10 1 11 6 12
REMARK SMILES IDX 7 13 8 15 9 16 10 17 11 18 19 19 12 20 18 21 20 22 13 23
REMARK SMILES IDX 17 24 14 25 16 26 15 27 27 28 28 29 29 30 30 31 31 32 32 33
REMARK SMILES IDX 33 34 94 35 34 36 93 37 35 38 36 39 37 40 87 41 38 42 92 43
REMARK SMILES IDX 86 44 88 45 39 46 91 47 85 48 84 49 40 51 72 52 52 53 71 54
REMARK SMILES IDX 53 55 56 56 70 57 89 58 54 59 55 60 69 62 90 63 57 64 41 65
REMARK SMILES IDX 42 66 50 67 43 68 49 69 51 70 48 71 44 72 45 73 46 74 47 75
REMARK SMILES IDX 73 76 74 77 82 78 75 79 81 80 83 81 80 82 76 83 77 84 78 85
REMARK SMILES IDX 79 86 58 87 59 88 67 89 60 90 66 91 68 92 65 93 61 94 62 95
REMARK SMILES IDX 63 96 64 97
REMARK H PARENT 6 14 88 50 56 61
REMARK Flexibility Score: inf
ROOT
ATOM      1  O   UNL A   1      31.777  28.783  24.798  1.00  0.00    -0.374 OA
ENDROOT
BRANCH   1   2
ATOM      2  C   UNL A   1      31.399  28.480  23.459  1.00  0.00     0.202 C 
BRANCH   2   3
ATOM      3  C   UNL A   1      32.538  28.396  22.444  1.00  0.00     0.261 C 
BRANCH   3   4
ATOM      4  O   UNL A   1      33.635  27.550  22.881  1.00  0.00    -0.462 OA
BRANCH   4   5
ATOM      5  C   UNL A   1      33.662  26.306  22.341  1.00  0.00     0.328 C 
ATOM      6  O   UNL A   1      33.517  26.090  21.138  1.00  0.00    -0.250 OA
BRANCH   5   7
ATOM      7  C   UNL A   1      33.698  25.136  23.353  1.00  0.00     0.195 C 
BRANCH   7   8
ATOM      8  C   UNL A   1      34.954  24.495  24.009  1.00  0.00     0.019 C 
ATOM      9  C   UNL A   1      35.299  23.124  23.461  1.00  0.00     0.010 C 
BRANCH   8  10
ATOM     10  C   UNL A   1      34.821  24.425  25.554  1.00  0.00     0.002 C 
ATOM     11  C   UNL A   1      35.530  23.225  26.183  1.00  0.00     0.004 C 
ENDBRANCH   8  10
ENDBRANCH   7   8
BRANCH   7  12
ATOM     12  N   UNL A   1      32.539  25.191  24.251  1.00  0.00    -0.341 N 
ATOM     13  C   UNL A   1      31.386  24.475  24.362  1.00  0.00     0.242 C 
ATOM     14  H   UNL A   1      32.610  25.907  24.924  1.00  0.00     0.164 HD
ATOM     15  O   UNL A   1      30.640  24.866  25.274  1.00  0.00    -0.273 OA
BRANCH  13  16
ATOM     16  C   UNL A   1      31.102  23.123  23.677  1.00  0.00     0.248 C 
BRANCH  16  17
ATOM     17  N   UNL A   1      31.799  21.899  24.076  1.00  0.00    -0.220 N 
ATOM     18  N   UNL A   1      32.252  21.858  25.379  1.00  0.00    -0.177 NA
ATOM     19  C   UNL A   1      32.119  20.968  23.069  1.00  0.00     0.275 A 
ATOM     20  C   UNL A   1      32.656  20.758  25.936  1.00  0.00     0.142 A 
ATOM     21  C   UNL A   1      32.508  19.628  23.507  1.00  0.00     0.050 A 
ATOM     22  O   UNL A   1      32.014  21.161  21.862  1.00  0.00    -0.267 OA
ATOM     23  C   UNL A   1      32.695  19.473  25.266  1.00  0.00     0.007 A 
ATOM     24  C   UNL A   1      32.890  18.239  22.410  1.00  0.00     0.014 A 
ATOM     25  C   UNL A   1      33.216  17.876  26.007  1.00  0.00     0.010 A 
ATOM     26  C   UNL A   1      33.645  16.697  23.110  1.00  0.00     0.001 A 
ATOM     27  C   UNL A   1      33.769  16.523  24.924  1.00  0.00     0.001 A 
ENDBRANCH  16  17
ENDBRANCH  13  16
ENDBRANCH   7  12
ENDBRANCH   5   7
ENDBRANCH   4   5
ENDBRANCH   3   4
ENDBRANCH   2   3
ENDBRANCH   1   2
BRANCH   1  28
ATOM     28  C   UNL A   1      31.401  30.060  25.300  1.00  0.00     0.202 C 
BRANCH  28  29
ATOM     29  C   UNL A   1      32.060  30.554  26.595  1.00  0.00     0.261 C 
BRANCH  29  30
ATOM     30  O   UNL A   1      31.948  31.991  26.839  1.00  0.00    -0.460 OA
BRANCH  30  31
ATOM     31  C   UNL A   1      33.008  32.680  27.622  1.00  0.00     0.338 C 
ATOM     32  O   UNL A   1      32.483  33.835  27.686  1.00  0.00    -0.246 OA
BRANCH  31  33
ATOM     33  C   UNL A   1      34.830  31.855  28.397  1.00  0.00     0.060 A 
ATOM     34  C   UNL A   1      35.138  30.491  29.035  1.00  0.00     0.016 A 
ATOM     35  C   UNL A   1      36.225  32.493  28.473  1.00  0.00     0.016 A 
ATOM     36  C   UNL A   1      36.285  30.041  29.694  1.00  0.00     0.010 A 
ATOM     37  C   UNL A   1      37.389  32.061  29.099  1.00  0.00     0.010 A 
ATOM     38  C   UNL A   1      37.388  30.852  29.735  1.00  0.00    -0.014 A 
BRANCH  38  39
ATOM     39  C   UNL A   1      38.626  30.397  30.323  1.00  0.00     0.031 A 
ATOM     40  C   UNL A   1      39.392  29.357  29.598  1.00  0.00     0.074 A 
ATOM     41  C   UNL A   1      38.891  30.895  31.538  1.00  0.00     0.049 A 
ATOM     42  N   UNL A   1      40.486  28.766  29.964  1.00  0.00    -0.248 NA
ATOM     43  C   UNL A   1      38.843  28.889  28.311  1.00  0.00     0.031 C 
ATOM     44  C   UNL A   1      38.038  31.867  32.238  1.00  0.00     0.029 A 
ATOM     45  N   UNL A   1      39.906  30.657  32.403  1.00  0.00    -0.354 N 
ATOM     46  C   UNL A   1      40.768  27.860  28.953  1.00  0.00     0.074 A 
ATOM     47  C   UNL A   1      39.692  27.924  27.994  1.00  0.00     0.031 C 
ATOM     48  C   UNL A   1      38.588  32.162  33.419  1.00  0.00     0.029 A 
ATOM     49  C   UNL A   1      39.796  31.367  33.573  1.00  0.00     0.049 A 
ATOM     50  H   UNL A   1      40.649  30.040  32.212  1.00  0.00     0.167 HD
ATOM     51  C   UNL A   1      41.861  27.076  28.865  1.00  0.00     0.034 A 
ATOM     52  C   UNL A   1      40.604  31.355  34.646  1.00  0.00     0.034 A 
ATOM     53  C   UNL A   1      42.849  27.074  29.915  1.00  0.00     0.049 A 
ATOM     54  C   UNL A   1      41.827  30.494  34.513  1.00  0.00     0.074 A 
ATOM     55  C   UNL A   1      44.020  26.354  29.997  1.00  0.00     0.029 A 
ATOM     56  N   UNL A   1      42.758  27.839  31.080  1.00  0.00    -0.354 N 
ATOM     57  N   UNL A   1      42.152  29.691  33.519  1.00  0.00    -0.248 NA
ATOM     58  C   UNL A   1      42.802  30.538  35.599  1.00  0.00     0.031 C 
ATOM     59  C   UNL A   1      44.595  26.630  31.240  1.00  0.00     0.029 A 
ATOM     60  C   UNL A   1      43.840  27.595  31.901  1.00  0.00     0.049 A 
ATOM     61  H   UNL A   1      42.026  28.465  31.286  1.00  0.00     0.167 HD
ATOM     62  C   UNL A   1      43.377  29.139  33.848  1.00  0.00     0.074 A 
ATOM     63  C   UNL A   1      43.746  29.733  35.126  1.00  0.00     0.031 C 
ATOM     64  C   UNL A   1      44.128  28.228  33.175  1.00  0.00     0.034 A 
BRANCH  51  65
ATOM     65  C   UNL A   1      42.025  26.199  27.651  1.00  0.00     0.023 A 
ATOM     66  C   UNL A   1      41.539  24.880  27.661  1.00  0.00     0.031 A 
ATOM     67  C   UNL A   1      42.711  26.636  26.499  1.00  0.00     0.131 A 
ATOM     68  C   UNL A   1      41.768  24.040  26.563  1.00  0.00     0.055 A 
ATOM     69  C   UNL A   1      42.886  25.815  25.384  1.00  0.00     0.041 A 
ATOM     70  F   UNL A   1      43.200  27.885  26.429  1.00  0.00    -0.206 F 
ATOM     71  C   UNL A   1      42.424  24.504  25.418  1.00  0.00     0.022 A 
BRANCH  68  72
ATOM     72  S   UNL A   1      41.274  22.296  26.601  1.00  0.00     0.124 S 
ATOM     73  O   UNL A   1      41.958  21.759  25.427  1.00  0.00    -0.237 OA
ATOM     74  O   UNL A   1      41.808  21.861  27.889  1.00  0.00    -0.237 OA
ATOM     75  O   UNL A   1      39.819  22.342  26.504  1.00  0.00    -0.744 OA
ENDBRANCH  68  72
ENDBRANCH  51  65
BRANCH  52  76
ATOM     76  C   UNL A   1      40.291  32.270  35.778  1.00  0.00     0.023 A 
ATOM     77  C   UNL A   1      39.337  31.908  36.752  1.00  0.00     0.031 A 
ATOM     78  C   UNL A   1      40.739  33.601  35.761  1.00  0.00     0.131 A 
ATOM     79  C   UNL A   1      38.791  32.885  37.595  1.00  0.00     0.055 A 
ATOM     80  C   UNL A   1      40.248  34.555  36.656  1.00  0.00     0.041 A 
ATOM     81  F   UNL A   1      41.614  34.007  34.829  1.00  0.00    -0.206 F 
ATOM     82  C   UNL A   1      39.251  34.205  37.563  1.00  0.00     0.022 A 
BRANCH  79  83
ATOM     83  S   UNL A   1      37.331  32.526  38.616  1.00  0.00     0.124 S 
ATOM     84  O   UNL A   1      37.366  31.069  38.697  1.00  0.00    -0.237 OA
ATOM     85  O   UNL A   1      37.649  33.234  39.853  1.00  0.00    -0.237 OA
ATOM     86  O   UNL A   1      36.226  33.090  37.848  1.00  0.00    -0.744 OA
ENDBRANCH  79  83
ENDBRANCH  52  76
BRANCH  64  87
ATOM     87  C   UNL A   1      45.415  27.803  33.823  1.00  0.00     0.023 A 
ATOM     88  C   UNL A   1      45.401  26.752  34.755  1.00  0.00     0.031 A 
ATOM     89  C   UNL A   1      46.591  28.555  33.664  1.00  0.00     0.131 A 
ATOM     90  C   UNL A   1      46.522  26.530  35.555  1.00  0.00     0.055 A 
ATOM     91  C   UNL A   1      47.732  28.278  34.412  1.00  0.00     0.041 A 
ATOM     92  F   UNL A   1      46.637  29.575  32.792  1.00  0.00    -0.206 F 
ATOM     93  C   UNL A   1      47.692  27.277  35.379  1.00  0.00     0.022 A 
BRANCH  90  94
ATOM     94  S   UNL A   1      46.450  25.366  36.941  1.00  0.00     0.124 S 
ATOM     95  O   UNL A   1      47.235  26.062  37.958  1.00  0.00    -0.237 OA
ATOM     96  O   UNL A   1      45.016  25.291  37.200  1.00  0.00    -0.237 OA
ATOM     97  O   UNL A   1      47.058  24.149  36.413  1.00  0.00    -0.744 OA
ENDBRANCH  90  94
ENDBRANCH  64  87
ENDBRANCH  38  39
ENDBRANCH  31  33
ENDBRANCH  30  31
ENDBRANCH  29  30
ENDBRANCH  28  29
ENDBRANCH   1  28
TORSDOF 22
ENDMDL
MODEL 2
REMARK VINA RESULT:     -10.6      2.275      8.053
REMARK SMILES CC[C@@H](C)[C@@H](NC(=O)Cn1ncc2ccccc2c1=O)C(=O)OCCOCCOC(=O)c1ccc(-c2c3nc(c(-c4cc(S(=O)(=O)[O-])ccc4F)c4ccc([nH]4)c(-c4cc(S(=O)(=O)[O-])ccc4F)c4nc(c(-c5cc(S(=O)(=O)[O-])ccc5F)c5ccc2[nH]5)C=C4)C=C3)cc1
REMARK SMILES IDX 26 1 25 2 24 3 23 4 21 5 22 6 5 7 3 8 4 9 2 10 1 11 6 12
REMARK SMILES IDX 7 13 8 15 9 16 10 17 11 18 19 19 12 20 18 21 20 22 13 23
REMARK SMILES IDX 17 24 14 25 16 26 15 27 27 28 28 29 29 30 30 31 31 32 32 33
REMARK SMILES IDX 33 34 94 35 34 36 93 37 35 38 36 39 37 40 87 41 38 42 92 43
REMARK SMILES IDX 86 44 88 45 39 46 91 47 85 48 84 49 40 51 72 52 52 53 71 54
REMARK SMILES IDX 53 55 56 56 70 57 89 58 54 59 55 60 69 62 90 63 57 64 41 65
REMARK SMILES IDX 42 66 50 67 43 68 49 69 51 70 48 71 44 72 45 73 46 74 47 75
REMARK SMILES IDX 73 76 74 77 82 78 75 79 81 80 83 81 80 82 76 83 77 84 78 85
REMARK SMILES IDX 79 86 58 87 59 88 67 89 60 90 66 91 68 92 65 93 61 94 62 95
REMARK SMILES IDX 63 96 64 97
REMARK H PARENT 6 14 88 50 56 61
REMARK Flexibility Score: inf
ROOT
ATOM      1  O   UNL A   1      31.657  30.774  25.790  1.00  0.00    -0.374 OA
ENDROOT
BRANCH   1   2
ATOM      2  C   UNL A   1      32.754  30.040  26.323  1.00  0.00     0.202 C 
BRANCH   2   3
ATOM      3  C   UNL A   1      32.412  28.697  26.967  1.00  0.00     0.261 C 
BRANCH   3   4
ATOM      4  O   UNL A   1      31.342  27.989  26.285  1.00  0.00    -0.462 OA
BRANCH   4   5
ATOM      5  C   UNL A   1      31.526  26.653  26.141  1.00  0.00     0.328 C 
ATOM      6  O   UNL A   1      31.283  25.839  27.030  1.00  0.00    -0.250 OA
BRANCH   5   7
ATOM      7  C   UNL A   1      32.248  26.212  24.844  1.00  0.00     0.195 C 
BRANCH   7   8
ATOM      8  C   UNL A   1      32.019  26.759  23.407  1.00  0.00     0.019 C 
ATOM      9  C   UNL A   1      30.562  26.793  22.989  1.00  0.00     0.010 C 
BRANCH   8  10
ATOM     10  C   UNL A   1      32.848  25.971  22.356  1.00  0.00     0.002 C 
ATOM     11  C   UNL A   1      32.160  25.840  20.997  1.00  0.00     0.004 C 
ENDBRANCH   8  10
ENDBRANCH   7   8
BRANCH   7  12
ATOM     12  N   UNL A   1      33.648  25.872  25.120  1.00  0.00    -0.341 N 
ATOM     13  C   UNL A   1      34.268  24.850  25.772  1.00  0.00     0.242 C 
ATOM     14  H   UNL A   1      34.281  26.530  24.752  1.00  0.00     0.164 HD
ATOM     15  O   UNL A   1      35.505  24.947  25.793  1.00  0.00    -0.273 OA
BRANCH  13  16
ATOM     16  C   UNL A   1      33.604  23.523  26.194  1.00  0.00     0.248 C 
BRANCH  16  17
ATOM     17  N   UNL A   1      33.913  22.262  25.518  1.00  0.00    -0.220 N 
ATOM     18  N   UNL A   1      35.178  21.753  25.733  1.00  0.00    -0.177 NA
ATOM     19  C   UNL A   1      32.990  21.782  24.569  1.00  0.00     0.275 A 
ATOM     20  C   UNL A   1      35.499  20.539  25.409  1.00  0.00     0.142 A 
ATOM     21  C   UNL A   1      33.136  20.389  24.149  1.00  0.00     0.050 A 
ATOM     22  O   UNL A   1      32.028  22.408  24.134  1.00  0.00    -0.267 OA
ATOM     23  C   UNL A   1      34.593  19.597  24.781  1.00  0.00     0.007 A 
ATOM     24  C   UNL A   1      32.033  19.522  23.004  1.00  0.00     0.014 A 
ATOM     25  C   UNL A   1      34.971  17.856  24.336  1.00  0.00     0.010 A 
ATOM     26  C   UNL A   1      32.516  17.855  22.351  1.00  0.00     0.001 A 
ATOM     27  C   UNL A   1      33.980  17.023  23.058  1.00  0.00     0.001 A 
ENDBRANCH  16  17
ENDBRANCH  13  16
ENDBRANCH   7  12
ENDBRANCH   5   7
ENDBRANCH   4   5
ENDBRANCH   3   4
ENDBRANCH   2   3
ENDBRANCH   1   2
BRANCH   1  28
ATOM     28  C   UNL A   1      31.296  31.973  26.464  1.00  0.00     0.202 C 
BRANCH  28  29
ATOM     29  C   UNL A   1      32.358  32.667  27.329  1.00  0.00     0.261 C 
BRANCH  29  30
ATOM     30  O   UNL A   1      32.097  34.076  27.619  1.00  0.00    -0.460 OA
BRANCH  30  31
ATOM     31  C   UNL A   1      32.917  34.770  28.649  1.00  0.00     0.338 C 
ATOM     32  O   UNL A   1      32.301  35.880  28.671  1.00  0.00    -0.246 OA
BRANCH  31  33
ATOM     33  C   UNL A   1      34.600  34.006  29.737  1.00  0.00     0.060 A 
ATOM     34  C   UNL A   1      36.100  34.321  29.640  1.00  0.00     0.016 A 
ATOM     35  C   UNL A   1      34.631  32.955  30.856  1.00  0.00     0.016 A 
ATOM     36  C   UNL A   1      37.196  33.686  30.230  1.00  0.00     0.010 A 
ATOM     37  C   UNL A   1      35.701  32.322  31.479  1.00  0.00     0.010 A 
ATOM     38  C   UNL A   1      36.974  32.674  31.125  1.00  0.00    -0.014 A 
BRANCH  38  39
ATOM     39  C   UNL A   1      38.068  32.048  31.831  1.00  0.00     0.031 A 
ATOM     40  C   UNL A   1      38.455  32.615  33.143  1.00  0.00     0.074 A 
ATOM     41  C   UNL A   1      38.694  31.077  31.153  1.00  0.00     0.049 A 
ATOM     42  N   UNL A   1      39.433  32.255  33.914  1.00  0.00    -0.248 NA
ATOM     43  C   UNL A   1      37.669  33.759  33.643  1.00  0.00     0.031 C 
ATOM     44  C   UNL A   1      38.305  30.620  29.811  1.00  0.00     0.029 A 
ATOM     45  N   UNL A   1      39.777  30.323  31.463  1.00  0.00    -0.354 N 
ATOM     46  C   UNL A   1      39.381  33.119  34.997  1.00  0.00     0.074 A 
ATOM     47  C   UNL A   1      38.324  34.069  34.751  1.00  0.00     0.031 C 
ATOM     48  C   UNL A   1      39.127  29.638  29.427  1.00  0.00     0.029 A 
ATOM     49  C   UNL A   1      40.120  29.438  30.470  1.00  0.00     0.049 A 
ATOM     50  H   UNL A   1      40.267  30.400  32.313  1.00  0.00     0.167 HD
ATOM     51  C   UNL A   1      40.160  33.069  36.096  1.00  0.00     0.034 A 
ATOM     52  C   UNL A   1      41.140  28.566  30.434  1.00  0.00     0.034 A 
ATOM     53  C   UNL A   1      41.215  32.094  36.205  1.00  0.00     0.049 A 
ATOM     54  C   UNL A   1      41.977  28.512  31.680  1.00  0.00     0.074 A 
ATOM     55  C   UNL A   1      42.098  31.887  37.241  1.00  0.00     0.029 A 
ATOM     56  N   UNL A   1      41.525  31.159  35.214  1.00  0.00    -0.354 N 
ATOM     57  N   UNL A   1      41.886  29.270  32.754  1.00  0.00    -0.248 NA
ATOM     58  C   UNL A   1      43.024  27.496  31.744  1.00  0.00     0.031 C 
ATOM     59  C   UNL A   1      42.984  30.882  36.845  1.00  0.00     0.029 A 
ATOM     60  C   UNL A   1      42.601  30.387  35.601  1.00  0.00     0.049 A 
ATOM     61  H   UNL A   1      41.044  31.065  34.360  1.00  0.00     0.167 HD
ATOM     62  C   UNL A   1      42.853  28.820  33.634  1.00  0.00     0.074 A 
ATOM     63  C   UNL A   1      43.497  27.695  32.969  1.00  0.00     0.031 C 
ATOM     64  C   UNL A   1      43.192  29.283  34.866  1.00  0.00     0.034 A 
BRANCH  51  65
ATOM     65  C   UNL A   1      39.909  34.059  37.205  1.00  0.00     0.023 A 
ATOM     66  C   UNL A   1      39.287  33.644  38.396  1.00  0.00     0.031 A 
ATOM     67  C   UNL A   1      40.229  35.426  37.074  1.00  0.00     0.131 A 
ATOM     68  C   UNL A   1      38.980  34.582  39.390  1.00  0.00     0.055 A 
ATOM     69  C   UNL A   1      39.973  36.348  38.091  1.00  0.00     0.041 A 
ATOM     70  F   UNL A   1      40.823  35.884  35.960  1.00  0.00    -0.206 F 
ATOM     71  C   UNL A   1      39.334  35.928  39.252  1.00  0.00     0.022 A 
BRANCH  68  72
ATOM     72  S   UNL A   1      38.057  34.102  40.875  1.00  0.00     0.124 S 
ATOM     73  O   UNL A   1      39.057  33.343  41.624  1.00  0.00    -0.237 OA
ATOM     74  O   UNL A   1      37.705  35.401  41.443  1.00  0.00    -0.237 OA
ATOM     75  O   UNL A   1      36.943  33.317  40.357  1.00  0.00    -0.744 OA
ENDBRANCH  68  72
ENDBRANCH  51  65
BRANCH  52  76
ATOM     76  C   UNL A   1      41.262  27.668  29.253  1.00  0.00     0.023 A 
ATOM     77  C   UNL A   1      42.243  27.907  28.267  1.00  0.00     0.031 A 
ATOM     78  C   UNL A   1      40.256  26.732  28.965  1.00  0.00     0.131 A 
ATOM     79  C   UNL A   1      42.135  27.297  27.010  1.00  0.00     0.055 A 
ATOM     80  C   UNL A   1      40.198  26.068  27.737  1.00  0.00     0.041 A 
ATOM     81  F   UNL A   1      39.277  26.498  29.851  1.00  0.00    -0.206 F 
ATOM     82  C   UNL A   1      41.126  26.367  26.743  1.00  0.00     0.022 A 
BRANCH  79  83
ATOM     83  S   UNL A   1      43.173  27.839  25.619  1.00  0.00     0.124 S 
ATOM     84  O   UNL A   1      43.832  26.596  25.228  1.00  0.00    -0.237 OA
ATOM     85  O   UNL A   1      42.175  28.346  24.680  1.00  0.00    -0.237 OA
ATOM     86  O   UNL A   1      44.038  28.855  26.210  1.00  0.00    -0.744 OA
ENDBRANCH  79  83
ENDBRANCH  52  76
BRANCH  64  87
ATOM     87  C   UNL A   1      44.325  28.585  35.563  1.00  0.00     0.023 A 
ATOM     88  C   UNL A   1      44.039  27.559  36.480  1.00  0.00     0.031 A 
ATOM     89  C   UNL A   1      45.642  29.063  35.468  1.00  0.00     0.131 A 
ATOM     90  C   UNL A   1      45.047  27.095  37.325  1.00  0.00     0.055 A 
ATOM     91  C   UNL A   1      46.660  28.542  36.261  1.00  0.00     0.041 A 
ATOM     92  F   UNL A   1      45.948  30.052  34.612  1.00  0.00    -0.206 F 
ATOM     93  C   UNL A   1      46.358  27.570  37.211  1.00  0.00     0.022 A 
BRANCH  90  94
ATOM     94  S   UNL A   1      44.660  25.969  38.691  1.00  0.00     0.124 S 
ATOM     95  O   UNL A   1      43.541  25.207  38.142  1.00  0.00    -0.237 OA
ATOM     96  O   UNL A   1      45.910  25.230  38.838  1.00  0.00    -0.237 OA
ATOM     97  O   UNL A   1      44.322  26.859  39.797  1.00  0.00    -0.744 OA
ENDBRANCH  90  94
ENDBRANCH  64  87
ENDBRANCH  38  39
ENDBRANCH  31  33
ENDBRANCH  30  31
ENDBRANCH  29  30
ENDBRANCH  28  29
ENDBRANCH   1  28
TORSDOF 22
ENDMDL
MODEL 3
REMARK VINA RESULT:     -10.5      1.543      7.741
REMARK SMILES CC[C@@H](C)[C@@H](NC(=O)Cn1ncc2ccccc2c1=O)C(=O)OCCOCCOC(=O)c1ccc(-c2c3nc(c(-c4cc(S(=O)(=O)[O-])ccc4F)c4ccc([nH]4)c(-c4cc(S(=O)(=O)[O-])ccc4F)c4nc(c(-c5cc(S(=O)(=O)[O-])ccc5F)c5ccc2[nH]5)C=C4)C=C3)cc1
REMARK SMILES IDX 26 1 25 2 24 3 23 4 21 5 22 6 5 7 3 8 4 9 2 10 1 11 6 12
REMARK SMILES IDX 7 13 8 15 9 16 10 17 11 18 19 19 12 20 18 21 20 22 13 23
REMARK SMILES IDX 17 24 14 25 16 26 15 27 27 28 28 29 29 30 30 31 31 32 32 33
REMARK SMILES IDX 33 34 94 35 34 36 93 37 35 38 36 39 37 40 87 41 38 42 92 43
REMARK SMILES IDX 86 44 88 45 39 46 91 47 85 48 84 49 40 51 72 52 52 53 71 54
REMARK SMILES IDX 53 55 56 56 70 57 89 58 54 59 55 60 69 62 90 63 57 64 41 65
REMARK SMILES IDX 42 66 50 67 43 68 49 69 51 70 48 71 44 72 45 73 46 74 47 75
REMARK SMILES IDX 73 76 74 77 82 78 75 79 81 80 83 81 80 82 76 83 77 84 78 85
REMARK SMILES IDX 79 86 58 87 59 88 67 89 60 90 66 91 68 92 65 93 61 94 62 95
REMARK SMILES IDX 63 96 64 97
REMARK H PARENT 6 14 88 50 56 61
REMARK Flexibility Score: inf
ROOT
ATOM      1  O   UNL A   1      31.896  30.614  26.518  1.00  0.00    -0.374 OA
ENDROOT
BRANCH   1   2
ATOM      2  C   UNL A   1      32.948  30.171  27.369  1.00  0.00     0.202 C 
BRANCH   2   3
ATOM      3  C   UNL A   1      34.065  29.377  26.696  1.00  0.00     0.261 C 
BRANCH   3   4
ATOM      4  O   UNL A   1      33.785  27.954  26.606  1.00  0.00    -0.462 OA
BRANCH   4   5
ATOM      5  C   UNL A   1      33.307  27.529  25.410  1.00  0.00     0.328 C 
ATOM      6  O   UNL A   1      33.884  27.733  24.343  1.00  0.00    -0.250 OA
BRANCH   5   7
ATOM      7  C   UNL A   1      31.882  26.926  25.434  1.00  0.00     0.195 C 
BRANCH   7   8
ATOM      8  C   UNL A   1      30.849  26.904  24.271  1.00  0.00     0.019 C 
ATOM      9  C   UNL A   1      30.585  28.267  23.661  1.00  0.00     0.010 C 
BRANCH   8  10
ATOM     10  C   UNL A   1      29.507  26.257  24.709  1.00  0.00     0.002 C 
ATOM     11  C   UNL A   1      28.304  26.702  23.876  1.00  0.00     0.004 C 
ENDBRANCH   8  10
ENDBRANCH   7   8
BRANCH   7  12
ATOM     12  N   UNL A   1      31.842  25.720  26.268  1.00  0.00    -0.341 N 
ATOM     13  C   UNL A   1      32.433  24.496  26.200  1.00  0.00     0.242 C 
ATOM     14  H   UNL A   1      31.256  25.819  27.054  1.00  0.00     0.164 HD
ATOM     15  O   UNL A   1      32.113  23.733  27.125  1.00  0.00    -0.273 OA
BRANCH  13  16
ATOM     16  C   UNL A   1      33.618  24.123  25.285  1.00  0.00     0.248 C 
BRANCH  16  17
ATOM     17  N   UNL A   1      33.873  22.738  24.886  1.00  0.00    -0.220 N 
ATOM     18  N   UNL A   1      34.987  22.143  25.441  1.00  0.00    -0.177 NA
ATOM     19  C   UNL A   1      33.094  22.202  23.842  1.00  0.00     0.275 A 
ATOM     20  C   UNL A   1      35.191  20.863  25.378  1.00  0.00     0.142 A 
ATOM     21  C   UNL A   1      33.122  20.749  23.675  1.00  0.00     0.050 A 
ATOM     22  O   UNL A   1      32.333  22.841  23.122  1.00  0.00    -0.267 OA
ATOM     23  C   UNL A   1      34.302  19.928  24.716  1.00  0.00     0.007 A 
ATOM     24  C   UNL A   1      32.153  19.818  22.461  1.00  0.00     0.014 A 
ATOM     25  C   UNL A   1      34.512  18.107  24.626  1.00  0.00     0.010 A 
ATOM     26  C   UNL A   1      32.515  18.021  22.182  1.00  0.00     0.001 A 
ATOM     27  C   UNL A   1      33.681  17.174  23.303  1.00  0.00     0.001 A 
ENDBRANCH  16  17
ENDBRANCH  13  16
ENDBRANCH   7  12
ENDBRANCH   5   7
ENDBRANCH   4   5
ENDBRANCH   3   4
ENDBRANCH   2   3
ENDBRANCH   1   2
BRANCH   1  28
ATOM     28  C   UNL A   1      31.467  31.961  26.673  1.00  0.00     0.202 C 
BRANCH  28  29
ATOM     29  C   UNL A   1      32.535  33.044  26.877  1.00  0.00     0.261 C 
BRANCH  29  30
ATOM     30  O   UNL A   1      32.122  34.172  27.710  1.00  0.00    -0.460 OA
BRANCH  30  31
ATOM     31  C   UNL A   1      33.078  34.729  28.705  1.00  0.00     0.338 C 
ATOM     32  O   UNL A   1      32.528  35.858  28.892  1.00  0.00    -0.246 OA
BRANCH  31  33
ATOM     33  C   UNL A   1      34.820  33.792  29.535  1.00  0.00     0.060 A 
ATOM     34  C   UNL A   1      36.311  33.933  29.192  1.00  0.00     0.016 A 
ATOM     35  C   UNL A   1      34.915  32.758  30.667  1.00  0.00     0.016 A 
ATOM     36  C   UNL A   1      37.411  33.185  29.620  1.00  0.00     0.010 A 
ATOM     37  C   UNL A   1      35.995  32.015  31.131  1.00  0.00     0.010 A 
ATOM     38  C   UNL A   1      37.225  32.216  30.570  1.00  0.00    -0.014 A 
BRANCH  38  39
ATOM     39  C   UNL A   1      38.343  31.479  31.111  1.00  0.00     0.031 A 
ATOM     40  C   UNL A   1      38.864  31.892  32.435  1.00  0.00     0.074 A 
ATOM     41  C   UNL A   1      38.864  30.559  30.289  1.00  0.00     0.049 A 
ATOM     42  N   UNL A   1      39.884  31.417  33.078  1.00  0.00    -0.248 NA
ATOM     43  C   UNL A   1      38.177  33.008  33.112  1.00  0.00     0.031 C 
ATOM     44  C   UNL A   1      38.344  30.257  28.947  1.00  0.00     0.029 A 
ATOM     45  N   UNL A   1      39.931  29.735  30.427  1.00  0.00    -0.354 N 
ATOM     46  C   UNL A   1      39.963  32.166  34.242  1.00  0.00     0.074 A 
ATOM     47  C   UNL A   1      38.935  33.177  34.184  1.00  0.00     0.031 C 
ATOM     48  C   UNL A   1      39.083  29.289  28.398  1.00  0.00     0.029 A 
ATOM     49  C   UNL A   1      40.148  28.944  29.325  1.00  0.00     0.049 A 
ATOM     50  H   UNL A   1      40.493  29.704  31.235  1.00  0.00     0.167 HD
ATOM     51  C   UNL A   1      40.827  31.973  35.259  1.00  0.00     0.034 A 
ATOM     52  C   UNL A   1      41.119  28.041  29.114  1.00  0.00     0.034 A 
ATOM     53  C   UNL A   1      41.840  30.951  35.178  1.00  0.00     0.049 A 
ATOM     54  C   UNL A   1      42.053  27.827  30.271  1.00  0.00     0.074 A 
ATOM     55  C   UNL A   1      42.795  30.605  36.107  1.00  0.00     0.029 A 
ATOM     56  N   UNL A   1      42.022  30.111  34.075  1.00  0.00    -0.354 N 
ATOM     57  N   UNL A   1      42.087  28.473  31.418  1.00  0.00    -0.248 NA
ATOM     58  C   UNL A   1      43.052  26.769  30.142  1.00  0.00     0.031 C 
ATOM     59  C   UNL A   1      43.595  29.612  35.538  1.00  0.00     0.029 A 
ATOM     60  C   UNL A   1      43.088  29.262  34.289  1.00  0.00     0.049 A 
ATOM     61  H   UNL A   1      41.468  30.125  33.261  1.00  0.00     0.167 HD
ATOM     62  C   UNL A   1      43.102  27.897  32.162  1.00  0.00     0.074 A 
ATOM     63  C   UNL A   1      43.634  26.823  31.335  1.00  0.00     0.031 C 
ATOM     64  C   UNL A   1      43.563  28.218  33.399  1.00  0.00     0.034 A 
BRANCH  51  65
ATOM     65  C   UNL A   1      40.716  32.852  36.478  1.00  0.00     0.023 A 
ATOM     66  C   UNL A   1      39.959  32.433  37.586  1.00  0.00     0.031 A 
ATOM     67  C   UNL A   1      41.309  34.130  36.534  1.00  0.00     0.131 A 
ATOM     68  C   UNL A   1      39.789  33.288  38.682  1.00  0.00     0.055 A 
ATOM     69  C   UNL A   1      41.185  34.956  37.653  1.00  0.00     0.041 A 
ATOM     70  F   UNL A   1      42.043  34.588  35.507  1.00  0.00    -0.206 F 
ATOM     71  C   UNL A   1      40.411  34.540  38.730  1.00  0.00     0.022 A 
BRANCH  68  72
ATOM     72  S   UNL A   1      38.708  32.832  40.064  1.00  0.00     0.124 S 
ATOM     73  O   UNL A   1      38.185  34.131  40.485  1.00  0.00    -0.237 OA
ATOM     74  O   UNL A   1      37.741  31.952  39.412  1.00  0.00    -0.237 OA
ATOM     75  O   UNL A   1      39.606  32.188  41.015  1.00  0.00    -0.744 OA
ENDBRANCH  68  72
ENDBRANCH  51  65
BRANCH  52  76
ATOM     76  C   UNL A   1      41.100  27.265  27.844  1.00  0.00     0.023 A 
ATOM     77  C   UNL A   1      40.764  25.895  27.845  1.00  0.00     0.031 A 
ATOM     78  C   UNL A   1      41.657  27.803  26.673  1.00  0.00     0.131 A 
ATOM     79  C   UNL A   1      41.083  25.095  26.739  1.00  0.00     0.055 A 
ATOM     80  C   UNL A   1      41.902  27.016  25.544  1.00  0.00     0.041 A 
ATOM     81  F   UNL A   1      42.034  29.090  26.633  1.00  0.00    -0.206 F 
ATOM     82  C   UNL A   1      41.637  25.650  25.582  1.00  0.00     0.022 A 
BRANCH  79  83
ATOM     83  S   UNL A   1      40.978  23.282  26.839  1.00  0.00     0.124 S 
ATOM     84  O   UNL A   1      41.877  22.865  25.767  1.00  0.00    -0.237 OA
ATOM     85  O   UNL A   1      41.456  23.029  28.196  1.00  0.00    -0.237 OA
ATOM     86  O   UNL A   1      39.563  23.006  26.621  1.00  0.00    -0.744 OA
ENDBRANCH  79  83
ENDBRANCH  52  76
BRANCH  64  87
ATOM     87  C   UNL A   1      44.715  27.408  33.923  1.00  0.00     0.023 A 
ATOM     88  C   UNL A   1      44.454  26.231  34.646  1.00  0.00     0.031 A 
ATOM     89  C   UNL A   1      46.029  27.900  33.875  1.00  0.00     0.131 A 
ATOM     90  C   UNL A   1      45.487  25.624  35.361  1.00  0.00     0.055 A 
ATOM     91  C   UNL A   1      47.070  27.246  34.528  1.00  0.00     0.041 A 
ATOM     92  F   UNL A   1      46.312  29.029  33.204  1.00  0.00    -0.206 F 
ATOM     93  C   UNL A   1      46.795  26.116  35.295  1.00  0.00     0.022 A 
BRANCH  90  94
ATOM     94  S   UNL A   1      45.139  24.268  36.510  1.00  0.00     0.124 S 
ATOM     95  O   UNL A   1      45.438  24.884  37.800  1.00  0.00    -0.237 OA
ATOM     96  O   UNL A   1      43.727  24.007  36.252  1.00  0.00    -0.237 OA
ATOM     97  O   UNL A   1      46.058  23.212  36.099  1.00  0.00    -0.744 OA
ENDBRANCH  90  94
ENDBRANCH  64  87
ENDBRANCH  38  39
ENDBRANCH  31  33
ENDBRANCH  30  31
ENDBRANCH  29  30
ENDBRANCH  28  29
ENDBRANCH   1  28
TORSDOF 22
ENDMDL
