MODEL 1
REMARK VINA RESULT:     -11.6      0.000      0.000
REMARK SMILES Cc1ccc(C)c(NC(=O)/C=C\C(=O)OCCOCCOC(=O)c2ccc(-c3c4nc(c(-c5cc(S(=O)(=O)[O-])ccc5F)c5ccc([nH]5)c(-c5cc(S(=O)(=O)[O-])ccc5F)c5nc(c(-c6cc(S(=O)(=O)[O-])ccc6F)c6ccc3[nH]6)C=C5)C=C4)cc2)c1
REMARK SMILES IDX 19 1 18 2 17 3 16 4 15 5 13 6 14 7 12 8 11 9 9 10 8 11 10 13
REMARK SMILES IDX 7 14 1 15 2 16 3 17 87 18 4 19 5 20 6 21 20 22 21 23 22 24
REMARK SMILES IDX 23 25 24 26 25 27 86 28 26 29 85 30 27 31 28 32 29 33 79 34
REMARK SMILES IDX 30 35 84 36 78 37 80 38 31 39 83 40 77 41 76 42 32 44 64 45
REMARK SMILES IDX 44 46 63 47 45 48 48 49 62 50 81 51 46 52 47 53 61 55 82 56
REMARK SMILES IDX 49 57 33 58 34 59 42 60 35 61 41 62 43 63 40 64 36 65 37 66
REMARK SMILES IDX 38 67 39 68 65 69 66 70 74 71 67 72 73 73 75 74 72 75 68 76
REMARK SMILES IDX 69 77 70 78 71 79 50 80 51 81 59 82 52 83 58 84 60 85 57 86
REMARK SMILES IDX 53 87 54 88 55 89 56 90
REMARK H PARENT 8 12 80 43 48 54
REMARK Flexibility Score: inf
ROOT
ATOM      1  C   UNL A   1      38.116  21.541  25.492  1.00  0.00     0.202 C 
ENDROOT
BRANCH   1   2
ATOM      2  O   UNL A   1      37.612  22.561  24.638  1.00  0.00    -0.374 OA
BRANCH   2   3
ATOM      3  C   UNL A   1      36.386  22.321  23.965  1.00  0.00     0.202 C 
BRANCH   3   4
ATOM      4  C   UNL A   1      35.526  23.599  23.957  1.00  0.00     0.261 C 
BRANCH   4   5
ATOM      5  O   UNL A   1      34.597  23.501  22.864  1.00  0.00    -0.460 OA
BRANCH   5   6
ATOM      6  C   UNL A   1      33.379  22.974  23.218  1.00  0.00     0.331 C 
ATOM      7  O   UNL A   1      33.235  21.897  23.731  1.00  0.00    -0.247 OA
BRANCH   6   8
ATOM      8  C   UNL A   1      32.419  24.127  23.117  1.00  0.00     0.099 C 
ATOM      9  C   UNL A   1      32.342  25.434  22.792  1.00  0.00     0.079 C 
BRANCH   9  10
ATOM     10  C   UNL A   1      33.135  26.678  22.520  1.00  0.00     0.248 C 
ATOM     11  N   UNL A   1      33.513  27.703  23.345  1.00  0.00    -0.322 N 
ATOM     12  H   UNL A   1      34.349  28.091  22.997  1.00  0.00     0.170 HD
ATOM     13  O   UNL A   1      33.843  26.572  21.502  1.00  0.00    -0.270 OA
BRANCH  11  14
ATOM     14  C   UNL A   1      33.139  28.411  24.519  1.00  0.00     0.044 A 
ATOM     15  C   UNL A   1      34.923  29.524  27.768  1.00  0.00     0.044 C 
ATOM     16  C   UNL A   1      33.899  29.337  26.692  1.00  0.00    -0.049 A 
ATOM     17  C   UNL A   1      32.771  30.139  26.757  1.00  0.00     0.004 A 
ATOM     18  C   UNL A   1      34.089  28.499  25.564  1.00  0.00     0.029 A 
ATOM     19  C   UNL A   1      31.821  30.027  25.765  1.00  0.00     0.006 A 
ATOM     20  C   UNL A   1      31.980  29.149  24.679  1.00  0.00    -0.027 A 
ATOM     21  C   UNL A   1      30.921  29.106  23.667  1.00  0.00     0.046 C 
ENDBRANCH  11  14
ENDBRANCH   9  10
ENDBRANCH   6   8
ENDBRANCH   5   6
ENDBRANCH   4   5
ENDBRANCH   3   4
ENDBRANCH   2   3
ENDBRANCH   1   2
BRANCH   1  22
ATOM     22  C   UNL A   1      39.462  21.790  26.163  1.00  0.00     0.261 C 
BRANCH  22  23
ATOM     23  O   UNL A   1      39.604  22.920  27.064  1.00  0.00    -0.460 OA
BRANCH  23  24
ATOM     24  C   UNL A   1      40.834  23.336  27.482  1.00  0.00     0.338 C 
ATOM     25  O   UNL A   1      41.785  22.585  27.626  1.00  0.00    -0.246 OA
BRANCH  24  26
ATOM     26  C   UNL A   1      40.887  24.807  27.688  1.00  0.00     0.060 A 
ATOM     27  C   UNL A   1      41.880  25.388  28.484  1.00  0.00     0.016 A 
ATOM     28  C   UNL A   1      39.807  25.575  27.282  1.00  0.00     0.016 A 
ATOM     29  C   UNL A   1      41.652  26.651  29.079  1.00  0.00     0.010 A 
ATOM     30  C   UNL A   1      39.577  26.795  27.913  1.00  0.00     0.010 A 
ATOM     31  C   UNL A   1      40.432  27.329  28.903  1.00  0.00    -0.014 A 
BRANCH  31  32
ATOM     32  C   UNL A   1      40.250  28.797  29.207  1.00  0.00     0.031 A 
ATOM     33  C   UNL A   1      41.497  29.399  28.694  1.00  0.00     0.074 A 
ATOM     34  C   UNL A   1      39.283  29.609  29.752  1.00  0.00     0.049 A 
ATOM     35  N   UNL A   1      42.545  29.568  29.436  1.00  0.00    -0.248 NA
ATOM     36  C   UNL A   1      41.797  29.403  27.250  1.00  0.00     0.031 C 
ATOM     37  C   UNL A   1      38.090  29.267  30.510  1.00  0.00     0.029 A 
ATOM     38  N   UNL A   1      39.130  31.001  29.708  1.00  0.00    -0.354 N 
ATOM     39  C   UNL A   1      43.471  30.102  28.568  1.00  0.00     0.074 A 
ATOM     40  C   UNL A   1      43.116  29.610  27.271  1.00  0.00     0.031 C 
ATOM     41  C   UNL A   1      37.200  30.283  30.587  1.00  0.00     0.029 A 
ATOM     42  C   UNL A   1      37.818  31.473  30.032  1.00  0.00     0.049 A 
ATOM     43  H   UNL A   1      39.868  31.608  29.473  1.00  0.00     0.167 HD
ATOM     44  C   UNL A   1      44.020  31.296  28.906  1.00  0.00     0.034 A 
ATOM     45  C   UNL A   1      37.313  32.739  30.238  1.00  0.00     0.034 A 
ATOM     46  C   UNL A   1      43.898  31.525  30.339  1.00  0.00     0.049 A 
ATOM     47  C   UNL A   1      38.440  33.540  30.711  1.00  0.00     0.074 A 
ATOM     48  C   UNL A   1      44.275  30.857  31.488  1.00  0.00     0.029 A 
ATOM     49  N   UNL A   1      42.882  32.377  30.698  1.00  0.00    -0.354 N 
ATOM     50  N   UNL A   1      38.945  33.397  31.902  1.00  0.00    -0.248 NA
ATOM     51  C   UNL A   1      39.305  34.152  29.720  1.00  0.00     0.031 C 
ATOM     52  C   UNL A   1      43.299  31.180  32.480  1.00  0.00     0.029 A 
ATOM     53  C   UNL A   1      42.401  32.106  31.950  1.00  0.00     0.049 A 
ATOM     54  H   UNL A   1      42.540  33.099  30.122  1.00  0.00     0.167 HD
ATOM     55  C   UNL A   1      40.306  33.421  31.682  1.00  0.00     0.074 A 
ATOM     56  C   UNL A   1      40.465  34.058  30.373  1.00  0.00     0.031 C 
ATOM     57  C   UNL A   1      41.129  32.624  32.426  1.00  0.00     0.034 A 
BRANCH  44  58
ATOM     58  C   UNL A   1      44.103  32.450  27.918  1.00  0.00     0.023 A 
ATOM     59  C   UNL A   1      43.673  33.696  28.392  1.00  0.00     0.031 A 
ATOM     60  C   UNL A   1      44.279  32.360  26.510  1.00  0.00     0.131 A 
ATOM     61  C   UNL A   1      43.368  34.736  27.498  1.00  0.00     0.055 A 
ATOM     62  C   UNL A   1      44.031  33.414  25.634  1.00  0.00     0.041 A 
ATOM     63  F   UNL A   1      44.612  31.238  25.868  1.00  0.00    -0.206 F 
ATOM     64  C   UNL A   1      43.549  34.607  26.124  1.00  0.00     0.022 A 
BRANCH  61  65
ATOM     65  S   UNL A   1      42.585  36.220  28.159  1.00  0.00     0.124 S 
ATOM     66  O   UNL A   1      43.368  37.268  27.516  1.00  0.00    -0.237 OA
ATOM     67  O   UNL A   1      41.210  36.061  27.698  1.00  0.00    -0.237 OA
ATOM     68  O   UNL A   1      42.778  36.085  29.601  1.00  0.00    -0.744 OA
ENDBRANCH  61  65
ENDBRANCH  44  58
BRANCH  45  69
ATOM     69  C   UNL A   1      35.992  33.373  29.852  1.00  0.00     0.023 A 
ATOM     70  C   UNL A   1      35.176  34.187  30.692  1.00  0.00     0.031 A 
ATOM     71  C   UNL A   1      35.642  33.388  28.497  1.00  0.00     0.131 A 
ATOM     72  C   UNL A   1      34.122  34.984  30.145  1.00  0.00     0.055 A 
ATOM     73  C   UNL A   1      34.611  34.173  27.965  1.00  0.00     0.041 A 
ATOM     74  F   UNL A   1      36.369  32.690  27.627  1.00  0.00    -0.206 F 
ATOM     75  C   UNL A   1      33.866  34.999  28.779  1.00  0.00     0.022 A 
BRANCH  72  76
ATOM     76  S   UNL A   1      33.087  36.102  31.163  1.00  0.00     0.124 S 
ATOM     77  O   UNL A   1      32.756  37.165  30.220  1.00  0.00    -0.237 OA
ATOM     78  O   UNL A   1      31.994  35.238  31.586  1.00  0.00    -0.237 OA
ATOM     79  O   UNL A   1      33.987  36.512  32.245  1.00  0.00    -0.744 OA
ENDBRANCH  72  76
ENDBRANCH  45  69
BRANCH  57  80
ATOM     80  C   UNL A   1      40.649  32.219  33.808  1.00  0.00     0.023 A 
ATOM     81  C   UNL A   1      40.682  33.010  34.982  1.00  0.00     0.031 A 
ATOM     82  C   UNL A   1      40.108  30.925  33.916  1.00  0.00     0.131 A 
ATOM     83  C   UNL A   1      40.196  32.484  36.199  1.00  0.00     0.055 A 
ATOM     84  C   UNL A   1      39.608  30.419  35.112  1.00  0.00     0.041 A 
ATOM     85  F   UNL A   1      40.048  30.122  32.841  1.00  0.00    -0.206 F 
ATOM     86  C   UNL A   1      39.657  31.195  36.262  1.00  0.00     0.022 A 
BRANCH  83  87
ATOM     87  S   UNL A   1      40.301  33.440  37.751  1.00  0.00     0.124 S 
ATOM     88  O   UNL A   1      39.529  34.643  37.462  1.00  0.00    -0.237 OA
ATOM     89  O   UNL A   1      39.719  32.522  38.727  1.00  0.00    -0.237 OA
ATOM     90  O   UNL A   1      41.739  33.663  37.917  1.00  0.00    -0.744 OA
ENDBRANCH  83  87
ENDBRANCH  57  80
ENDBRANCH  31  32
ENDBRANCH  24  26
ENDBRANCH  23  24
ENDBRANCH  22  23
ENDBRANCH   1  22
TORSDOF 19
ENDMDL
MODEL 2
REMARK VINA RESULT:     -11.4      2.953      7.727
REMARK SMILES Cc1ccc(C)c(NC(=O)/C=C\C(=O)OCCOCCOC(=O)c2ccc(-c3c4nc(c(-c5cc(S(=O)(=O)[O-])ccc5F)c5ccc([nH]5)c(-c5cc(S(=O)(=O)[O-])ccc5F)c5nc(c(-c6cc(S(=O)(=O)[O-])ccc6F)c6ccc3[nH]6)C=C5)C=C4)cc2)c1
REMARK SMILES IDX 19 1 18 2 17 3 16 4 15 5 13 6 14 7 12 8 11 9 9 10 8 11 10 13
REMARK SMILES IDX 7 14 1 15 2 16 3 17 87 18 4 19 5 20 6 21 20 22 21 23 22 24
REMARK SMILES IDX 23 25 24 26 25 27 86 28 26 29 85 30 27 31 28 32 29 33 79 34
REMARK SMILES IDX 30 35 84 36 78 37 80 38 31 39 83 40 77 41 76 42 32 44 64 45
REMARK SMILES IDX 44 46 63 47 45 48 48 49 62 50 81 51 46 52 47 53 61 55 82 56
REMARK SMILES IDX 49 57 33 58 34 59 42 60 35 61 41 62 43 63 40 64 36 65 37 66
REMARK SMILES IDX 38 67 39 68 65 69 66 70 74 71 67 72 73 73 75 74 72 75 68 76
REMARK SMILES IDX 69 77 70 78 71 79 50 80 51 81 59 82 52 83 58 84 60 85 57 86
REMARK SMILES IDX 53 87 54 88 55 89 56 90
REMARK H PARENT 8 12 80 43 48 54
REMARK Flexibility Score: inf
ROOT
ATOM      1  C   UNL A   1      31.331  31.822  26.332  1.00  0.00     0.202 C 
ENDROOT
BRANCH   1   2
ATOM      2  O   UNL A   1      31.349  30.485  25.847  1.00  0.00    -0.374 OA
BRANCH   2   3
ATOM      3  C   UNL A   1      32.605  29.917  25.507  1.00  0.00     0.202 C 
BRANCH   3   4
ATOM      4  C   UNL A   1      32.472  29.062  24.233  1.00  0.00     0.261 C 
BRANCH   4   5
ATOM      5  O   UNL A   1      31.109  28.611  24.142  1.00  0.00    -0.460 OA
BRANCH   5   6
ATOM      6  C   UNL A   1      30.655  28.472  22.853  1.00  0.00     0.331 C 
ATOM      7  O   UNL A   1      30.460  29.392  22.106  1.00  0.00    -0.247 OA
BRANCH   6   8
ATOM      8  C   UNL A   1      30.790  27.004  22.556  1.00  0.00     0.099 C 
ATOM      9  C   UNL A   1      31.696  26.011  22.443  1.00  0.00     0.079 C 
BRANCH   9  10
ATOM     10  C   UNL A   1      33.157  25.693  22.318  1.00  0.00     0.248 C 
ATOM     11  N   UNL A   1      33.926  24.735  22.922  1.00  0.00    -0.322 N 
ATOM     12  H   UNL A   1      34.675  24.512  22.323  1.00  0.00     0.170 HD
ATOM     13  O   UNL A   1      33.643  26.124  21.256  1.00  0.00    -0.270 OA
BRANCH  11  14
ATOM     14  C   UNL A   1      34.036  23.945  24.097  1.00  0.00     0.044 A 
ATOM     15  C   UNL A   1      35.084  20.307  24.903  1.00  0.00     0.044 C 
ATOM     16  C   UNL A   1      34.665  21.738  25.042  1.00  0.00    -0.049 A 
ATOM     17  C   UNL A   1      34.735  22.289  26.312  1.00  0.00     0.004 A 
ATOM     18  C   UNL A   1      34.342  22.572  23.941  1.00  0.00     0.029 A 
ATOM     19  C   UNL A   1      34.395  23.613  26.478  1.00  0.00     0.006 A 
ATOM     20  C   UNL A   1      34.013  24.425  25.395  1.00  0.00    -0.027 A 
ATOM     21  C   UNL A   1      33.680  25.826  25.667  1.00  0.00     0.046 C 
ENDBRANCH  11  14
ENDBRANCH   9  10
ENDBRANCH   6   8
ENDBRANCH   5   6
ENDBRANCH   4   5
ENDBRANCH   3   4
ENDBRANCH   2   3
ENDBRANCH   1   2
BRANCH   1  22
ATOM     22  C   UNL A   1      32.471  32.250  27.251  1.00  0.00     0.261 C 
BRANCH  22  23
ATOM     23  O   UNL A   1      32.550  33.635  27.679  1.00  0.00    -0.460 OA
BRANCH  23  24
ATOM     24  C   UNL A   1      33.249  33.986  28.797  1.00  0.00     0.338 C 
ATOM     25  O   UNL A   1      32.844  34.792  29.618  1.00  0.00    -0.246 OA
BRANCH  24  26
ATOM     26  C   UNL A   1      34.527  33.236  28.915  1.00  0.00     0.060 A 
ATOM     27  C   UNL A   1      34.741  32.340  29.967  1.00  0.00     0.016 A 
ATOM     28  C   UNL A   1      35.594  33.608  28.112  1.00  0.00     0.016 A 
ATOM     29  C   UNL A   1      36.063  32.029  30.366  1.00  0.00     0.010 A 
ATOM     30  C   UNL A   1      36.887  33.331  28.546  1.00  0.00     0.010 A 
ATOM     31  C   UNL A   1      37.171  32.622  29.736  1.00  0.00    -0.014 A 
BRANCH  31  32
ATOM     32  C   UNL A   1      38.580  32.091  29.865  1.00  0.00     0.031 A 
ATOM     33  C   UNL A   1      38.444  30.686  29.429  1.00  0.00     0.074 A 
ATOM     34  C   UNL A   1      39.819  32.573  30.214  1.00  0.00     0.049 A 
ATOM     35  N   UNL A   1      38.204  29.721  30.259  1.00  0.00    -0.248 NA
ATOM     36  C   UNL A   1      38.100  30.356  28.034  1.00  0.00     0.031 C 
ATOM     37  C   UNL A   1      40.190  33.817  30.870  1.00  0.00     0.029 A 
ATOM     38  N   UNL A   1      41.097  32.036  30.010  1.00  0.00    -0.354 N 
ATOM     39  C   UNL A   1      38.110  28.613  29.447  1.00  0.00     0.074 A 
ATOM     40  C   UNL A   1      37.663  29.102  28.177  1.00  0.00     0.031 C 
ATOM     41  C   UNL A   1      41.504  34.111  30.744  1.00  0.00     0.029 A 
ATOM     42  C   UNL A   1      42.170  32.974  30.139  1.00  0.00     0.049 A 
ATOM     43  H   UNL A   1      41.245  31.087  29.795  1.00  0.00     0.167 HD
ATOM     44  C   UNL A   1      38.941  27.575  29.716  1.00  0.00     0.034 A 
ATOM     45  C   UNL A   1      43.540  32.817  30.157  1.00  0.00     0.034 A 
ATOM     46  C   UNL A   1      39.402  27.637  31.097  1.00  0.00     0.049 A 
ATOM     47  C   UNL A   1      43.776  31.467  30.664  1.00  0.00     0.074 A 
ATOM     48  C   UNL A   1      38.807  27.680  32.343  1.00  0.00     0.029 A 
ATOM     49  N   UNL A   1      40.673  28.134  31.252  1.00  0.00    -0.354 N 
ATOM     50  N   UNL A   1      43.583  31.148  31.910  1.00  0.00    -0.248 NA
ATOM     51  C   UNL A   1      43.761  30.370  29.715  1.00  0.00     0.031 C 
ATOM     52  C   UNL A   1      39.689  28.425  33.184  1.00  0.00     0.029 A 
ATOM     53  C   UNL A   1      40.841  28.742  32.467  1.00  0.00     0.049 A 
ATOM     54  H   UNL A   1      41.380  28.060  30.571  1.00  0.00     0.167 HD
ATOM     55  C   UNL A   1      42.933  29.934  31.838  1.00  0.00     0.074 A 
ATOM     56  C   UNL A   1      43.226  29.429  30.496  1.00  0.00     0.031 C 
ATOM     57  C   UNL A   1      41.959  29.630  32.746  1.00  0.00     0.034 A 
BRANCH  44  58
ATOM     58  C   UNL A   1      39.766  26.903  28.629  1.00  0.00     0.023 A 
ATOM     59  C   UNL A   1      40.809  27.666  28.090  1.00  0.00     0.031 A 
ATOM     60  C   UNL A   1      39.427  25.730  27.900  1.00  0.00     0.131 A 
ATOM     61  C   UNL A   1      41.400  27.308  26.867  1.00  0.00     0.055 A 
ATOM     62  C   UNL A   1      40.058  25.350  26.717  1.00  0.00     0.041 A 
ATOM     63  F   UNL A   1      38.415  24.918  28.216  1.00  0.00    -0.206 F 
ATOM     64  C   UNL A   1      41.037  26.154  26.179  1.00  0.00     0.022 A 
BRANCH  61  65
ATOM     65  S   UNL A   1      42.557  28.469  26.114  1.00  0.00     0.124 S 
ATOM     66  O   UNL A   1      42.333  28.217  24.696  1.00  0.00    -0.237 OA
ATOM     67  O   UNL A   1      42.075  29.746  26.630  1.00  0.00    -0.237 OA
ATOM     68  O   UNL A   1      43.851  28.034  26.633  1.00  0.00    -0.744 OA
ENDBRANCH  61  65
ENDBRANCH  44  58
BRANCH  45  69
ATOM     69  C   UNL A   1      44.658  33.652  29.566  1.00  0.00     0.023 A 
ATOM     70  C   UNL A   1      45.191  33.527  28.249  1.00  0.00     0.031 A 
ATOM     71  C   UNL A   1      45.047  34.809  30.251  1.00  0.00     0.131 A 
ATOM     72  C   UNL A   1      46.014  34.552  27.687  1.00  0.00     0.055 A 
ATOM     73  C   UNL A   1      45.852  35.812  29.695  1.00  0.00     0.041 A 
ATOM     74  F   UNL A   1      44.571  35.035  31.473  1.00  0.00    -0.206 F 
ATOM     75  C   UNL A   1      46.313  35.706  28.401  1.00  0.00     0.022 A 
BRANCH  72  76
ATOM     76  S   UNL A   1      46.668  34.480  25.977  1.00  0.00     0.124 S 
ATOM     77  O   UNL A   1      47.278  35.795  25.821  1.00  0.00    -0.237 OA
ATOM     78  O   UNL A   1      47.572  33.338  26.023  1.00  0.00    -0.237 OA
ATOM     79  O   UNL A   1      45.469  34.268  25.160  1.00  0.00    -0.744 OA
ENDBRANCH  72  76
ENDBRANCH  45  69
BRANCH  57  80
ATOM     80  C   UNL A   1      42.029  30.308  34.102  1.00  0.00     0.023 A 
ATOM     81  C   UNL A   1      41.395  31.516  34.479  1.00  0.00     0.031 A 
ATOM     82  C   UNL A   1      42.801  29.651  35.078  1.00  0.00     0.131 A 
ATOM     83  C   UNL A   1      41.561  32.021  35.787  1.00  0.00     0.055 A 
ATOM     84  C   UNL A   1      42.943  30.139  36.374  1.00  0.00     0.041 A 
ATOM     85  F   UNL A   1      43.431  28.501  34.787  1.00  0.00    -0.206 F 
ATOM     86  C   UNL A   1      42.329  31.332  36.732  1.00  0.00     0.022 A 
BRANCH  83  87
ATOM     87  S   UNL A   1      40.830  33.618  36.285  1.00  0.00     0.124 S 
ATOM     88  O   UNL A   1      40.004  33.984  35.142  1.00  0.00    -0.237 OA
ATOM     89  O   UNL A   1      40.116  33.270  37.511  1.00  0.00    -0.237 OA
ATOM     90  O   UNL A   1      41.999  34.476  36.493  1.00  0.00    -0.744 OA
ENDBRANCH  83  87
ENDBRANCH  57  80
ENDBRANCH  31  32
ENDBRANCH  24  26
ENDBRANCH  23  24
ENDBRANCH  22  23
ENDBRANCH   1  22
TORSDOF 19
ENDMDL
MODEL 3
REMARK VINA RESULT:     -11.3      3.178      4.094
REMARK SMILES Cc1ccc(C)c(NC(=O)/C=C\C(=O)OCCOCCOC(=O)c2ccc(-c3c4nc(c(-c5cc(S(=O)(=O)[O-])ccc5F)c5ccc([nH]5)c(-c5cc(S(=O)(=O)[O-])ccc5F)c5nc(c(-c6cc(S(=O)(=O)[O-])ccc6F)c6ccc3[nH]6)C=C5)C=C4)cc2)c1
REMARK SMILES IDX 19 1 18 2 17 3 16 4 15 5 13 6 14 7 12 8 11 9 9 10 8 11 10 13
REMARK SMILES IDX 7 14 1 15 2 16 3 17 87 18 4 19 5 20 6 21 20 22 21 23 22 24
REMARK SMILES IDX 23 25 24 26 25 27 86 28 26 29 85 30 27 31 28 32 29 33 79 34
REMARK SMILES IDX 30 35 84 36 78 37 80 38 31 39 83 40 77 41 76 42 32 44 64 45
REMARK SMILES IDX 44 46 63 47 45 48 48 49 62 50 81 51 46 52 47 53 61 55 82 56
REMARK SMILES IDX 49 57 33 58 34 59 42 60 35 61 41 62 43 63 40 64 36 65 37 66
REMARK SMILES IDX 38 67 39 68 65 69 66 70 74 71 67 72 73 73 75 74 72 75 68 76
REMARK SMILES IDX 69 77 70 78 71 79 50 80 51 81 59 82 52 83 58 84 60 85 57 86
REMARK SMILES IDX 53 87 54 88 55 89 56 90
REMARK H PARENT 8 12 80 43 48 54
REMARK Flexibility Score: inf
ROOT
ATOM      1  C   UNL A   1      37.414  21.418  24.574  1.00  0.00     0.202 C 
ENDROOT
BRANCH   1   2
ATOM      2  O   UNL A   1      36.463  20.653  25.303  1.00  0.00    -0.374 OA
BRANCH   2   3
ATOM      3  C   UNL A   1      35.255  21.290  25.694  1.00  0.00     0.202 C 
BRANCH   3   4
ATOM      4  C   UNL A   1      34.102  20.849  24.773  1.00  0.00     0.261 C 
BRANCH   4   5
ATOM      5  O   UNL A   1      33.855  21.910  23.834  1.00  0.00    -0.460 OA
BRANCH   5   6
ATOM      6  C   UNL A   1      33.226  23.001  24.382  1.00  0.00     0.331 C 
ATOM      7  O   UNL A   1      33.576  24.137  24.210  1.00  0.00    -0.247 OA
BRANCH   6   8
ATOM      8  C   UNL A   1      31.922  22.466  24.909  1.00  0.00     0.099 C 
ATOM      9  C   UNL A   1      30.859  22.791  25.672  1.00  0.00     0.079 C 
BRANCH   9  10
ATOM     10  C   UNL A   1      30.324  23.770  26.674  1.00  0.00     0.248 C 
ATOM     11  N   UNL A   1      30.191  25.132  26.621  1.00  0.00    -0.322 N 
ATOM     12  H   UNL A   1      29.439  25.395  27.199  1.00  0.00     0.170 HD
ATOM     13  O   UNL A   1      29.572  23.230  27.506  1.00  0.00    -0.270 OA
BRANCH  11  14
ATOM     14  C   UNL A   1      30.744  26.303  26.035  1.00  0.00     0.044 A 
ATOM     15  C   UNL A   1      33.666  28.701  26.863  1.00  0.00     0.044 C 
ATOM     16  C   UNL A   1      32.518  28.032  26.173  1.00  0.00    -0.049 A 
ATOM     17  C   UNL A   1      32.285  28.393  24.856  1.00  0.00     0.004 A 
ATOM     18  C   UNL A   1      31.766  26.975  26.746  1.00  0.00     0.029 A 
ATOM     19  C   UNL A   1      31.262  27.774  24.171  1.00  0.00     0.006 A 
ATOM     20  C   UNL A   1      30.475  26.769  24.761  1.00  0.00    -0.027 A 
ATOM     21  C   UNL A   1      29.416  26.159  23.951  1.00  0.00     0.046 C 
ENDBRANCH  11  14
ENDBRANCH   9  10
ENDBRANCH   6   8
ENDBRANCH   5   6
ENDBRANCH   4   5
ENDBRANCH   3   4
ENDBRANCH   2   3
ENDBRANCH   1   2
BRANCH   1  22
ATOM     22  C   UNL A   1      38.014  22.637  25.267  1.00  0.00     0.261 C 
BRANCH  22  23
ATOM     23  O   UNL A   1      38.707  22.461  26.531  1.00  0.00    -0.460 OA
BRANCH  23  24
ATOM     24  C   UNL A   1      39.992  22.890  26.693  1.00  0.00     0.338 C 
ATOM     25  O   UNL A   1      40.944  22.399  26.109  1.00  0.00    -0.246 OA
BRANCH  24  26
ATOM     26  C   UNL A   1      40.081  24.048  27.620  1.00  0.00     0.060 A 
ATOM     27  C   UNL A   1      39.051  24.992  27.694  1.00  0.00     0.016 A 
ATOM     28  C   UNL A   1      41.294  24.318  28.235  1.00  0.00     0.016 A 
ATOM     29  C   UNL A   1      39.329  26.300  28.157  1.00  0.00     0.010 A 
ATOM     30  C   UNL A   1      41.563  25.622  28.642  1.00  0.00     0.010 A 
ATOM     31  C   UNL A   1      40.633  26.679  28.526  1.00  0.00    -0.014 A 
BRANCH  31  32
ATOM     32  C   UNL A   1      40.936  27.915  29.339  1.00  0.00     0.031 A 
ATOM     33  C   UNL A   1      42.018  28.561  28.568  1.00  0.00     0.074 A 
ATOM     34  C   UNL A   1      40.462  28.524  30.476  1.00  0.00     0.049 A 
ATOM     35  N   UNL A   1      43.271  28.329  28.799  1.00  0.00    -0.248 NA
ATOM     36  C   UNL A   1      41.764  29.111  27.223  1.00  0.00     0.031 C 
ATOM     37  C   UNL A   1      39.581  28.014  31.515  1.00  0.00     0.029 A 
ATOM     38  N   UNL A   1      40.647  29.827  30.959  1.00  0.00    -0.354 N 
ATOM     39  C   UNL A   1      43.919  29.081  27.845  1.00  0.00     0.074 A 
ATOM     40  C   UNL A   1      43.009  29.177  26.744  1.00  0.00     0.031 C 
ATOM     41  C   UNL A   1      39.056  28.989  32.292  1.00  0.00     0.029 A 
ATOM     42  C   UNL A   1      39.700  30.243  31.947  1.00  0.00     0.049 A 
ATOM     43  H   UNL A   1      41.374  30.411  30.642  1.00  0.00     0.167 HD
ATOM     44  C   UNL A   1      44.826  29.990  28.284  1.00  0.00     0.034 A 
ATOM     45  C   UNL A   1      39.629  31.362  32.750  1.00  0.00     0.034 A 
ATOM     46  C   UNL A   1      45.293  29.641  29.619  1.00  0.00     0.049 A 
ATOM     47  C   UNL A   1      41.009  31.808  32.926  1.00  0.00     0.074 A 
ATOM     48  C   UNL A   1      45.886  28.541  30.208  1.00  0.00     0.029 A 
ATOM     49  N   UNL A   1      44.716  30.365  30.633  1.00  0.00    -0.354 N 
ATOM     50  N   UNL A   1      41.861  31.160  33.667  1.00  0.00    -0.248 NA
ATOM     51  C   UNL A   1      41.576  32.685  31.920  1.00  0.00     0.031 C 
ATOM     52  C   UNL A   1      45.447  28.527  31.567  1.00  0.00     0.029 A 
ATOM     53  C   UNL A   1      44.673  29.661  31.806  1.00  0.00     0.049 A 
ATOM     54  H   UNL A   1      44.376  31.283  30.529  1.00  0.00     0.167 HD
ATOM     55  C   UNL A   1      43.011  31.151  32.906  1.00  0.00     0.074 A 
ATOM     56  C   UNL A   1      42.834  32.239  31.943  1.00  0.00     0.031 C 
ATOM     57  C   UNL A   1      43.828  30.056  32.921  1.00  0.00     0.034 A 
BRANCH  44  58
ATOM     58  C   UNL A   1      44.823  31.429  27.791  1.00  0.00     0.023 A 
ATOM     59  C   UNL A   1      46.007  31.876  27.191  1.00  0.00     0.031 A 
ATOM     60  C   UNL A   1      43.887  32.446  28.127  1.00  0.00     0.131 A 
ATOM     61  C   UNL A   1      46.251  33.249  27.024  1.00  0.00     0.055 A 
ATOM     62  C   UNL A   1      44.112  33.803  27.904  1.00  0.00     0.041 A 
ATOM     63  F   UNL A   1      42.737  32.224  28.768  1.00  0.00    -0.206 F 
ATOM     64  C   UNL A   1      45.312  34.216  27.371  1.00  0.00     0.022 A 
BRANCH  61  65
ATOM     65  S   UNL A   1      47.894  33.756  26.479  1.00  0.00     0.124 S 
ATOM     66  O   UNL A   1      47.594  34.358  25.186  1.00  0.00    -0.237 OA
ATOM     67  O   UNL A   1      48.291  34.671  27.544  1.00  0.00    -0.237 OA
ATOM     68  O   UNL A   1      48.634  32.497  26.431  1.00  0.00    -0.744 OA
ENDBRANCH  61  65
ENDBRANCH  44  58
BRANCH  45  69
ATOM     69  C   UNL A   1      38.455  32.209  33.196  1.00  0.00     0.023 A 
ATOM     70  C   UNL A   1      37.295  32.508  32.421  1.00  0.00     0.031 A 
ATOM     71  C   UNL A   1      38.354  32.529  34.555  1.00  0.00     0.131 A 
ATOM     72  C   UNL A   1      36.119  33.045  33.034  1.00  0.00     0.055 A 
ATOM     73  C   UNL A   1      37.199  33.053  35.150  1.00  0.00     0.041 A 
ATOM     74  F   UNL A   1      39.371  32.253  35.368  1.00  0.00    -0.206 F 
ATOM     75  C   UNL A   1      36.066  33.284  34.402  1.00  0.00     0.022 A 
BRANCH  72  76
ATOM     76  S   UNL A   1      34.577  33.382  32.103  1.00  0.00     0.124 S 
ATOM     77  O   UNL A   1      34.599  32.346  31.078  1.00  0.00    -0.237 OA
ATOM     78  O   UNL A   1      33.548  33.269  33.128  1.00  0.00    -0.237 OA
ATOM     79  O   UNL A   1      34.774  34.743  31.594  1.00  0.00    -0.744 OA
ENDBRANCH  72  76
ENDBRANCH  45  69
BRANCH  57  80
ATOM     80  C   UNL A   1      43.799  29.179  34.160  1.00  0.00     0.023 A 
ATOM     81  C   UNL A   1      42.817  28.216  34.493  1.00  0.00     0.031 A 
ATOM     82  C   UNL A   1      44.871  29.345  35.056  1.00  0.00     0.131 A 
ATOM     83  C   UNL A   1      42.932  27.477  35.691  1.00  0.00     0.055 A 
ATOM     84  C   UNL A   1      44.994  28.598  36.224  1.00  0.00     0.041 A 
ATOM     85  F   UNL A   1      45.837  30.243  34.801  1.00  0.00    -0.206 F 
ATOM     86  C   UNL A   1      44.019  27.665  36.551  1.00  0.00     0.022 A 
BRANCH  83  87
ATOM     87  S   UNL A   1      41.642  26.288  36.198  1.00  0.00     0.124 S 
ATOM     88  O   UNL A   1      40.808  26.164  35.008  1.00  0.00    -0.237 OA
ATOM     89  O   UNL A   1      42.424  25.109  36.560  1.00  0.00    -0.237 OA
ATOM     90  O   UNL A   1      40.994  26.952  37.331  1.00  0.00    -0.744 OA
ENDBRANCH  83  87
ENDBRANCH  57  80
ENDBRANCH  31  32
ENDBRANCH  24  26
ENDBRANCH  23  24
ENDBRANCH  22  23
ENDBRANCH   1  22
TORSDOF 19
ENDMDL
