MODEL 1
REMARK VINA RESULT:     -10.3      0.000      0.000
REMARK SMILES C=CC[N@@H+](CC(=O)Nc1ccccc1)CC(=O)OCCOCCOC(=O)c1ccc(-c2c3nc(c(-c4cc(S(=O)(=O)[O-])ccc4F)c4ccc([nH]4)c(-c4cc(S(=O)(=O)[O-])ccc4F)c4nc(c(-c5cc(S(=O)(=O)[O-])ccc5F)c5ccc2[nH]5)C=C4)C=C3)cc1
REMARK SMILES IDX 20 1 19 2 18 3 16 4 17 5 15 6 4 7 3 9 2 10 1 11 5 12 6 13
REMARK SMILES IDX 7 14 8 15 9 17 10 18 14 19 11 20 13 21 12 22 21 23 22 24
REMARK SMILES IDX 23 25 24 26 25 27 26 28 27 29 28 30 89 31 29 32 88 33 30 34
REMARK SMILES IDX 31 35 32 36 82 37 33 38 87 39 81 40 83 41 34 42 86 43 80 44
REMARK SMILES IDX 79 45 35 47 67 48 47 49 66 50 48 51 51 52 65 53 84 54 49 55
REMARK SMILES IDX 50 56 64 58 85 59 52 60 36 61 37 62 45 63 38 64 44 65 46 66
REMARK SMILES IDX 43 67 39 68 40 69 41 70 42 71 68 72 69 73 77 74 70 75 76 76
REMARK SMILES IDX 78 77 75 78 71 79 72 80 73 81 74 82 53 83 54 84 62 85 55 86
REMARK SMILES IDX 61 87 63 88 60 89 56 90 57 91 58 92 59 93
REMARK H PARENT 4 8 8 16 83 46 51 57
REMARK Flexibility Score: inf
ROOT
ATOM      1  C   UNL A   1      33.007  28.563  25.455  1.00  0.00     0.202 C 
ENDROOT
BRANCH   1   2
ATOM      2  C   UNL A   1      33.368  27.256  26.156  1.00  0.00     0.261 C 
BRANCH   2   3
ATOM      3  O   UNL A   1      32.691  26.120  25.589  1.00  0.00    -0.459 OA
BRANCH   3   4
ATOM      4  C   UNL A   1      31.338  26.101  25.634  1.00  0.00     0.361 C 
ATOM      5  O   UNL A   1      30.654  26.469  26.581  1.00  0.00    -0.245 OA
BRANCH   4   6
ATOM      6  C   UNL A   1      30.773  25.466  24.373  1.00  0.00     0.387 C 
BRANCH   6   7
ATOM      7  N   UNL A   1      30.713  26.286  23.159  1.00  0.00    -0.315 N 
ATOM      8  H   UNL A   1      29.756  26.017  22.930  1.00  0.00     0.349 HD
BRANCH   7   9
ATOM      9  C   UNL A   1      30.728  27.709  23.317  1.00  0.00     0.291 C 
BRANCH   9  10
ATOM     10  C   UNL A   1      29.835  28.616  22.548  1.00  0.00     0.025 C 
ATOM     11  C   UNL A   1      28.558  28.799  22.913  1.00  0.00     0.010 C 
ENDBRANCH   9  10
ENDBRANCH   7   9
BRANCH   7  12
ATOM     12  C   UNL A   1      31.519  25.888  21.980  1.00  0.00     0.364 C 
BRANCH  12  13
ATOM     13  C   UNL A   1      33.004  25.568  22.167  1.00  0.00     0.279 C 
ATOM     14  O   UNL A   1      33.832  26.408  21.772  1.00  0.00    -0.268 OA
ATOM     15  N   UNL A   1      33.571  24.544  22.862  1.00  0.00    -0.321 N 
ATOM     16  H   UNL A   1      34.494  24.809  23.078  1.00  0.00     0.170 HD
BRANCH  15  17
ATOM     17  C   UNL A   1      33.363  23.252  23.397  1.00  0.00     0.041 A 
ATOM     18  C   UNL A   1      32.726  22.334  22.542  1.00  0.00     0.026 A 
ATOM     19  C   UNL A   1      33.563  22.813  24.696  1.00  0.00     0.026 A 
ATOM     20  C   UNL A   1      32.231  21.100  22.981  1.00  0.00     0.002 A 
ATOM     21  C   UNL A   1      33.046  21.591  25.164  1.00  0.00     0.002 A 
ATOM     22  C   UNL A   1      32.367  20.737  24.310  1.00  0.00     0.000 A 
ENDBRANCH  15  17
ENDBRANCH  12  13
ENDBRANCH   7  12
ENDBRANCH   6   7
ENDBRANCH   4   6
ENDBRANCH   3   4
ENDBRANCH   2   3
ENDBRANCH   1   2
BRANCH   1  23
ATOM     23  O   UNL A   1      32.332  29.493  26.304  1.00  0.00    -0.374 OA
BRANCH  23  24
ATOM     24  C   UNL A   1      31.516  30.443  25.616  1.00  0.00     0.202 C 
BRANCH  24  25
ATOM     25  C   UNL A   1      31.417  31.792  26.340  1.00  0.00     0.261 C 
BRANCH  25  26
ATOM     26  O   UNL A   1      32.224  31.783  27.536  1.00  0.00    -0.460 OA
BRANCH  26  27
ATOM     27  C   UNL A   1      33.085  32.819  27.671  1.00  0.00     0.338 C 
ATOM     28  O   UNL A   1      32.805  34.010  27.650  1.00  0.00    -0.246 OA
BRANCH  27  29
ATOM     29  C   UNL A   1      34.426  32.310  28.032  1.00  0.00     0.060 A 
ATOM     30  C   UNL A   1      34.540  30.954  28.345  1.00  0.00     0.016 A 
ATOM     31  C   UNL A   1      35.554  33.131  28.100  1.00  0.00     0.016 A 
ATOM     32  C   UNL A   1      35.759  30.443  28.788  1.00  0.00     0.010 A 
ATOM     33  C   UNL A   1      36.790  32.608  28.485  1.00  0.00     0.010 A 
ATOM     34  C   UNL A   1      36.885  31.274  28.898  1.00  0.00    -0.014 A 
BRANCH  34  35
ATOM     35  C   UNL A   1      38.098  30.781  29.602  1.00  0.00     0.031 A 
ATOM     36  C   UNL A   1      38.335  31.193  31.034  1.00  0.00     0.074 A 
ATOM     37  C   UNL A   1      38.940  29.924  28.995  1.00  0.00     0.049 A 
ATOM     38  N   UNL A   1      39.275  30.814  31.862  1.00  0.00    -0.248 NA
ATOM     39  C   UNL A   1      37.399  32.173  31.605  1.00  0.00     0.031 C 
ATOM     40  C   UNL A   1      38.818  29.459  27.614  1.00  0.00     0.029 A 
ATOM     41  N   UNL A   1      40.055  29.280  29.469  1.00  0.00    -0.354 N 
ATOM     42  C   UNL A   1      39.039  31.503  33.048  1.00  0.00     0.074 A 
ATOM     43  C   UNL A   1      37.913  32.376  32.807  1.00  0.00     0.031 C 
ATOM     44  C   UNL A   1      39.800  28.576  27.364  1.00  0.00     0.029 A 
ATOM     45  C   UNL A   1      40.641  28.440  28.551  1.00  0.00     0.049 A 
ATOM     46  H   UNL A   1      40.403  29.407  30.381  1.00  0.00     0.167 HD
ATOM     47  C   UNL A   1      39.683  31.398  34.236  1.00  0.00     0.034 A 
ATOM     48  C   UNL A   1      41.732  27.655  28.656  1.00  0.00     0.034 A 
ATOM     49  C   UNL A   1      40.805  30.521  34.462  1.00  0.00     0.049 A 
ATOM     50  C   UNL A   1      42.473  27.602  29.971  1.00  0.00     0.074 A 
ATOM     51  C   UNL A   1      41.505  30.305  35.636  1.00  0.00     0.029 A 
ATOM     52  N   UNL A   1      41.404  29.728  33.491  1.00  0.00    -0.354 N 
ATOM     53  N   UNL A   1      42.205  28.220  31.099  1.00  0.00    -0.248 NA
ATOM     54  C   UNL A   1      43.656  26.735  30.029  1.00  0.00     0.031 C 
ATOM     55  C   UNL A   1      42.578  29.452  35.356  1.00  0.00     0.029 A 
ATOM     56  C   UNL A   1      42.493  29.057  34.030  1.00  0.00     0.049 A 
ATOM     57  H   UNL A   1      41.101  29.653  32.558  1.00  0.00     0.167 HD
ATOM     58  C   UNL A   1      43.168  27.786  32.008  1.00  0.00     0.074 A 
ATOM     59  C   UNL A   1      44.010  26.845  31.301  1.00  0.00     0.031 C 
ATOM     60  C   UNL A   1      43.336  28.130  33.312  1.00  0.00     0.034 A 
BRANCH  47  61
ATOM     61  C   UNL A   1      39.211  32.284  35.367  1.00  0.00     0.023 A 
ATOM     62  C   UNL A   1      39.641  33.617  35.497  1.00  0.00     0.031 A 
ATOM     63  C   UNL A   1      38.334  31.780  36.344  1.00  0.00     0.131 A 
ATOM     64  C   UNL A   1      39.256  34.372  36.615  1.00  0.00     0.055 A 
ATOM     65  C   UNL A   1      37.884  32.565  37.406  1.00  0.00     0.041 A 
ATOM     66  F   UNL A   1      37.909  30.507  36.290  1.00  0.00    -0.206 F 
ATOM     67  C   UNL A   1      38.356  33.865  37.556  1.00  0.00     0.022 A 
BRANCH  64  68
ATOM     68  S   UNL A   1      40.068  35.968  36.907  1.00  0.00     0.124 S 
ATOM     69  O   UNL A   1      39.791  36.672  35.657  1.00  0.00    -0.237 OA
ATOM     70  O   UNL A   1      39.373  36.465  38.088  1.00  0.00    -0.237 OA
ATOM     71  O   UNL A   1      41.469  35.607  37.111  1.00  0.00    -0.744 OA
ENDBRANCH  64  68
ENDBRANCH  47  61
BRANCH  48  72
ATOM     72  C   UNL A   1      42.205  26.861  27.484  1.00  0.00     0.023 A 
ATOM     73  C   UNL A   1      41.912  25.493  27.363  1.00  0.00     0.031 A 
ATOM     74  C   UNL A   1      43.009  27.452  26.492  1.00  0.00     0.131 A 
ATOM     75  C   UNL A   1      42.458  24.751  26.304  1.00  0.00     0.055 A 
ATOM     76  C   UNL A   1      43.500  26.723  25.408  1.00  0.00     0.041 A 
ATOM     77  F   UNL A   1      43.325  28.755  26.561  1.00  0.00    -0.206 F 
ATOM     78  C   UNL A   1      43.236  25.361  25.317  1.00  0.00     0.022 A 
BRANCH  75  79
ATOM     79  S   UNL A   1      42.220  22.953  26.287  1.00  0.00     0.124 S 
ATOM     80  O   UNL A   1      43.027  22.537  27.428  1.00  0.00    -0.237 OA
ATOM     81  O   UNL A   1      40.774  22.838  26.445  1.00  0.00    -0.237 OA
ATOM     82  O   UNL A   1      42.735  22.554  24.979  1.00  0.00    -0.744 OA
ENDBRANCH  75  79
ENDBRANCH  48  72
BRANCH  60  83
ATOM     83  C   UNL A   1      44.450  27.445  34.071  1.00  0.00     0.023 A 
ATOM     84  C   UNL A   1      44.241  26.253  34.783  1.00  0.00     0.031 A 
ATOM     85  C   UNL A   1      45.742  28.003  34.083  1.00  0.00     0.131 A 
ATOM     86  C   UNL A   1      45.290  25.688  35.525  1.00  0.00     0.055 A 
ATOM     87  C   UNL A   1      46.799  27.398  34.765  1.00  0.00     0.041 A 
ATOM     88  F   UNL A   1      46.001  29.144  33.422  1.00  0.00    -0.206 F 
ATOM     89  C   UNL A   1      46.572  26.242  35.503  1.00  0.00     0.022 A 
BRANCH  86  90
ATOM     90  S   UNL A   1      44.932  24.275  36.605  1.00  0.00     0.124 S 
ATOM     91  O   UNL A   1      46.271  23.794  36.930  1.00  0.00    -0.237 OA
ATOM     92  O   UNL A   1      44.196  24.898  37.700  1.00  0.00    -0.237 OA
ATOM     93  O   UNL A   1      44.142  23.384  35.756  1.00  0.00    -0.744 OA
ENDBRANCH  86  90
ENDBRANCH  60  83
ENDBRANCH  34  35
ENDBRANCH  27  29
ENDBRANCH  26  27
ENDBRANCH  25  26
ENDBRANCH  24  25
ENDBRANCH  23  24
ENDBRANCH   1  23
TORSDOF 23
ENDMDL
MODEL 2
REMARK VINA RESULT:      -9.8      1.461      2.257
REMARK SMILES C=CC[N@@H+](CC(=O)Nc1ccccc1)CC(=O)OCCOCCOC(=O)c1ccc(-c2c3nc(c(-c4cc(S(=O)(=O)[O-])ccc4F)c4ccc([nH]4)c(-c4cc(S(=O)(=O)[O-])ccc4F)c4nc(c(-c5cc(S(=O)(=O)[O-])ccc5F)c5ccc2[nH]5)C=C4)C=C3)cc1
REMARK SMILES IDX 20 1 19 2 18 3 16 4 17 5 15 6 4 7 3 9 2 10 1 11 5 12 6 13
REMARK SMILES IDX 7 14 8 15 9 17 10 18 14 19 11 20 13 21 12 22 21 23 22 24
REMARK SMILES IDX 23 25 24 26 25 27 26 28 27 29 28 30 89 31 29 32 88 33 30 34
REMARK SMILES IDX 31 35 32 36 82 37 33 38 87 39 81 40 83 41 34 42 86 43 80 44
REMARK SMILES IDX 79 45 35 47 67 48 47 49 66 50 48 51 51 52 65 53 84 54 49 55
REMARK SMILES IDX 50 56 64 58 85 59 52 60 36 61 37 62 45 63 38 64 44 65 46 66
REMARK SMILES IDX 43 67 39 68 40 69 41 70 42 71 68 72 69 73 77 74 70 75 76 76
REMARK SMILES IDX 78 77 75 78 71 79 72 80 73 81 74 82 53 83 54 84 62 85 55 86
REMARK SMILES IDX 61 87 63 88 60 89 56 90 57 91 58 92 59 93
REMARK H PARENT 4 8 8 16 83 46 51 57
REMARK Flexibility Score: inf
ROOT
ATOM      1  C   UNL A   1      33.496  27.639  23.573  1.00  0.00     0.202 C 
ENDROOT
BRANCH   1   2
ATOM      2  C   UNL A   1      33.828  26.169  23.815  1.00  0.00     0.261 C 
BRANCH   2   3
ATOM      3  O   UNL A   1      33.624  25.358  22.644  1.00  0.00    -0.459 OA
BRANCH   3   4
ATOM      4  C   UNL A   1      33.883  24.032  22.737  1.00  0.00     0.361 C 
ATOM      5  O   UNL A   1      34.985  23.513  22.598  1.00  0.00    -0.245 OA
BRANCH   4   6
ATOM      6  C   UNL A   1      32.596  23.251  22.947  1.00  0.00     0.387 C 
BRANCH   6   7
ATOM      7  N   UNL A   1      31.670  23.721  23.983  1.00  0.00    -0.315 N 
ATOM      8  H   UNL A   1      32.283  24.472  24.302  1.00  0.00     0.349 HD
BRANCH   7   9
ATOM      9  C   UNL A   1      30.445  24.325  23.556  1.00  0.00     0.291 C 
BRANCH   9  10
ATOM     10  C   UNL A   1      30.119  25.754  23.807  1.00  0.00     0.025 C 
ATOM     11  C   UNL A   1      29.901  26.203  25.052  1.00  0.00     0.010 C 
ENDBRANCH   9  10
ENDBRANCH   7   9
BRANCH   7  12
ATOM     12  C   UNL A   1      31.441  22.876  25.180  1.00  0.00     0.364 C 
BRANCH  12  13
ATOM     13  C   UNL A   1      32.211  23.183  26.466  1.00  0.00     0.279 C 
ATOM     14  O   UNL A   1      31.572  23.643  27.428  1.00  0.00    -0.268 OA
ATOM     15  N   UNL A   1      33.499  22.874  26.778  1.00  0.00    -0.321 N 
ATOM     16  H   UNL A   1      33.577  22.888  27.759  1.00  0.00     0.170 HD
BRANCH  15  17
ATOM     17  C   UNL A   1      34.770  22.540  26.255  1.00  0.00     0.041 A 
ATOM     18  C   UNL A   1      35.679  23.607  26.137  1.00  0.00     0.026 A 
ATOM     19  C   UNL A   1      35.189  21.340  25.705  1.00  0.00     0.026 A 
ATOM     20  C   UNL A   1      36.883  23.509  25.428  1.00  0.00     0.002 A 
ATOM     21  C   UNL A   1      36.378  21.230  24.961  1.00  0.00     0.002 A 
ATOM     22  C   UNL A   1      37.222  22.318  24.810  1.00  0.00     0.000 A 
ENDBRANCH  15  17
ENDBRANCH  12  13
ENDBRANCH   7  12
ENDBRANCH   6   7
ENDBRANCH   4   6
ENDBRANCH   3   4
ENDBRANCH   2   3
ENDBRANCH   1   2
BRANCH   1  23
ATOM     23  O   UNL A   1      33.120  28.338  24.761  1.00  0.00    -0.374 OA
BRANCH  23  24
ATOM     24  C   UNL A   1      31.966  29.169  24.623  1.00  0.00     0.202 C 
BRANCH  24  25
ATOM     25  C   UNL A   1      31.713  30.060  25.845  1.00  0.00     0.261 C 
BRANCH  25  26
ATOM     26  O   UNL A   1      32.804  29.953  26.783  1.00  0.00    -0.460 OA
BRANCH  26  27
ATOM     27  C   UNL A   1      33.354  31.124  27.179  1.00  0.00     0.338 C 
ATOM     28  O   UNL A   1      32.776  32.194  27.318  1.00  0.00    -0.246 OA
BRANCH  27  29
ATOM     29  C   UNL A   1      34.753  30.900  27.605  1.00  0.00     0.060 A 
ATOM     30  C   UNL A   1      35.275  29.614  27.459  1.00  0.00     0.016 A 
ATOM     31  C   UNL A   1      35.543  31.905  28.167  1.00  0.00     0.016 A 
ATOM     32  C   UNL A   1      36.553  29.323  27.936  1.00  0.00     0.010 A 
ATOM     33  C   UNL A   1      36.846  31.632  28.589  1.00  0.00     0.010 A 
ATOM     34  C   UNL A   1      37.334  30.321  28.539  1.00  0.00    -0.014 A 
BRANCH  34  35
ATOM     35  C   UNL A   1      38.578  29.945  29.261  1.00  0.00     0.031 A 
ATOM     36  C   UNL A   1      38.812  30.482  30.651  1.00  0.00     0.074 A 
ATOM     37  C   UNL A   1      39.454  29.084  28.711  1.00  0.00     0.049 A 
ATOM     38  N   UNL A   1      39.780  30.216  31.491  1.00  0.00    -0.248 NA
ATOM     39  C   UNL A   1      37.836  31.459  31.158  1.00  0.00     0.031 C 
ATOM     40  C   UNL A   1      39.338  28.503  27.373  1.00  0.00     0.029 A 
ATOM     41  N   UNL A   1      40.606  28.535  29.217  1.00  0.00    -0.354 N 
ATOM     42  C   UNL A   1      39.525  30.987  32.622  1.00  0.00     0.074 A 
ATOM     43  C   UNL A   1      38.353  31.783  32.331  1.00  0.00     0.031 C 
ATOM     44  C   UNL A   1      40.359  27.652  27.179  1.00  0.00     0.029 A 
ATOM     45  C   UNL A   1      41.221  27.653  28.359  1.00  0.00     0.049 A 
ATOM     46  H   UNL A   1      40.958  28.751  30.110  1.00  0.00     0.167 HD
ATOM     47  C   UNL A   1      40.187  31.009  33.805  1.00  0.00     0.034 A 
ATOM     48  C   UNL A   1      42.350  26.932  28.510  1.00  0.00     0.034 A 
ATOM     49  C   UNL A   1      41.354  30.208  34.082  1.00  0.00     0.049 A 
ATOM     50  C   UNL A   1      43.109  27.021  29.812  1.00  0.00     0.074 A 
ATOM     51  C   UNL A   1      42.078  30.121  35.258  1.00  0.00     0.029 A 
ATOM     52  N   UNL A   1      41.979  29.370  33.168  1.00  0.00    -0.354 N 
ATOM     53  N   UNL A   1      42.824  27.714  30.892  1.00  0.00    -0.248 NA
ATOM     54  C   UNL A   1      44.334  26.219  29.921  1.00  0.00     0.031 C 
ATOM     55  C   UNL A   1      43.188  29.302  35.030  1.00  0.00     0.029 A 
ATOM     56  C   UNL A   1      43.106  28.798  33.741  1.00  0.00     0.049 A 
ATOM     57  H   UNL A   1      41.669  29.205  32.249  1.00  0.00     0.167 HD
ATOM     58  C   UNL A   1      43.819  27.402  31.817  1.00  0.00     0.074 A 
ATOM     59  C   UNL A   1      44.697  26.449  31.174  1.00  0.00     0.031 C 
ATOM     60  C   UNL A   1      43.985  27.857  33.086  1.00  0.00     0.034 A 
BRANCH  47  61
ATOM     61  C   UNL A   1      39.686  31.960  34.869  1.00  0.00     0.023 A 
ATOM     62  C   UNL A   1      40.183  33.270  34.990  1.00  0.00     0.031 A 
ATOM     63  C   UNL A   1      38.710  31.540  35.791  1.00  0.00     0.131 A 
ATOM     64  C   UNL A   1      39.761  34.084  36.052  1.00  0.00     0.055 A 
ATOM     65  C   UNL A   1      38.230  32.386  36.792  1.00  0.00     0.041 A 
ATOM     66  F   UNL A   1      38.216  30.293  35.744  1.00  0.00    -0.206 F 
ATOM     67  C   UNL A   1      38.766  33.662  36.936  1.00  0.00     0.022 A 
BRANCH  64  68
ATOM     68  S   UNL A   1      40.642  35.641  36.356  1.00  0.00     0.124 S 
ATOM     69  O   UNL A   1      41.782  35.515  35.451  1.00  0.00    -0.237 OA
ATOM     70  O   UNL A   1      39.647  36.643  35.995  1.00  0.00    -0.237 OA
ATOM     71  O   UNL A   1      40.976  35.574  37.777  1.00  0.00    -0.744 OA
ENDBRANCH  64  68
ENDBRANCH  47  61
BRANCH  48  72
ATOM     72  C   UNL A   1      42.848  26.070  27.397  1.00  0.00     0.023 A 
ATOM     73  C   UNL A   1      42.558  24.697  27.352  1.00  0.00     0.031 A 
ATOM     74  C   UNL A   1      43.672  26.602  26.389  1.00  0.00     0.131 A 
ATOM     75  C   UNL A   1      43.126  23.894  26.351  1.00  0.00     0.055 A 
ATOM     76  C   UNL A   1      44.186  25.810  25.360  1.00  0.00     0.041 A 
ATOM     77  F   UNL A   1      43.987  27.907  26.386  1.00  0.00    -0.206 F 
ATOM     78  C   UNL A   1      43.924  24.445  25.346  1.00  0.00     0.022 A 
BRANCH  75  79
ATOM     79  S   UNL A   1      42.888  22.098  26.436  1.00  0.00     0.124 S 
ATOM     80  O   UNL A   1      42.598  21.905  27.853  1.00  0.00    -0.237 OA
ATOM     81  O   UNL A   1      41.771  21.896  25.519  1.00  0.00    -0.237 OA
ATOM     82  O   UNL A   1      44.169  21.562  25.981  1.00  0.00    -0.744 OA
ENDBRANCH  75  79
ENDBRANCH  48  72
BRANCH  60  83
ATOM     83  C   UNL A   1      45.141  27.291  33.879  1.00  0.00     0.023 A 
ATOM     84  C   UNL A   1      45.070  26.033  34.502  1.00  0.00     0.031 A 
ATOM     85  C   UNL A   1      46.332  28.027  34.016  1.00  0.00     0.131 A 
ATOM     86  C   UNL A   1      46.144  25.576  35.281  1.00  0.00     0.055 A 
ATOM     87  C   UNL A   1      47.424  27.537  34.733  1.00  0.00     0.041 A 
ATOM     88  F   UNL A   1      46.457  29.238  33.445  1.00  0.00    -0.206 F 
ATOM     89  C   UNL A   1      47.328  26.312  35.383  1.00  0.00     0.022 A 
BRANCH  86  90
ATOM     90  S   UNL A   1      45.937  24.055  36.247  1.00  0.00     0.124 S 
ATOM     91  O   UNL A   1      46.630  24.386  37.487  1.00  0.00    -0.237 OA
ATOM     92  O   UNL A   1      44.485  23.939  36.339  1.00  0.00    -0.237 OA
ATOM     93  O   UNL A   1      46.587  23.035  35.425  1.00  0.00    -0.744 OA
ENDBRANCH  86  90
ENDBRANCH  60  83
ENDBRANCH  34  35
ENDBRANCH  27  29
ENDBRANCH  26  27
ENDBRANCH  25  26
ENDBRANCH  24  25
ENDBRANCH  23  24
ENDBRANCH   1  23
TORSDOF 23
ENDMDL
MODEL 3
REMARK VINA RESULT:      -9.7      4.824     10.113
REMARK SMILES C=CC[N@@H+](CC(=O)Nc1ccccc1)CC(=O)OCCOCCOC(=O)c1ccc(-c2c3nc(c(-c4cc(S(=O)(=O)[O-])ccc4F)c4ccc([nH]4)c(-c4cc(S(=O)(=O)[O-])ccc4F)c4nc(c(-c5cc(S(=O)(=O)[O-])ccc5F)c5ccc2[nH]5)C=C4)C=C3)cc1
REMARK SMILES IDX 20 1 19 2 18 3 16 4 17 5 15 6 4 7 3 9 2 10 1 11 5 12 6 13
REMARK SMILES IDX 7 14 8 15 9 17 10 18 14 19 11 20 13 21 12 22 21 23 22 24
REMARK SMILES IDX 23 25 24 26 25 27 26 28 27 29 28 30 89 31 29 32 88 33 30 34
REMARK SMILES IDX 31 35 32 36 82 37 33 38 87 39 81 40 83 41 34 42 86 43 80 44
REMARK SMILES IDX 79 45 35 47 67 48 47 49 66 50 48 51 51 52 65 53 84 54 49 55
REMARK SMILES IDX 50 56 64 58 85 59 52 60 36 61 37 62 45 63 38 64 44 65 46 66
REMARK SMILES IDX 43 67 39 68 40 69 41 70 42 71 68 72 69 73 77 74 70 75 76 76
REMARK SMILES IDX 78 77 75 78 71 79 72 80 73 81 74 82 53 83 54 84 62 85 55 86
REMARK SMILES IDX 61 87 63 88 60 89 56 90 57 91 58 92 59 93
REMARK H PARENT 4 8 8 16 83 46 51 57
REMARK Flexibility Score: inf
ROOT
ATOM      1  C   UNL A   1      34.612  20.435  24.733  1.00  0.00     0.202 C 
ENDROOT
BRANCH   1   2
ATOM      2  C   UNL A   1      33.919  21.759  24.422  1.00  0.00     0.261 C 
BRANCH   2   3
ATOM      3  O   UNL A   1      34.034  22.708  25.497  1.00  0.00    -0.459 OA
BRANCH   3   4
ATOM      4  C   UNL A   1      33.260  23.817  25.451  1.00  0.00     0.361 C 
ATOM      5  O   UNL A   1      32.044  23.841  25.601  1.00  0.00    -0.245 OA
BRANCH   4   6
ATOM      6  C   UNL A   1      34.095  25.034  25.088  1.00  0.00     0.387 C 
BRANCH   6   7
ATOM      7  N   UNL A   1      33.393  26.235  24.624  1.00  0.00    -0.315 N 
ATOM      8  H   UNL A   1      32.474  25.791  24.617  1.00  0.00     0.349 HD
BRANCH   7   9
ATOM      9  C   UNL A   1      33.319  27.350  25.519  1.00  0.00     0.291 C 
BRANCH   9  10
ATOM     10  C   UNL A   1      32.120  27.638  26.351  1.00  0.00     0.025 C 
ATOM     11  C   UNL A   1      31.787  28.897  26.668  1.00  0.00     0.010 C 
ENDBRANCH   9  10
ENDBRANCH   7   9
BRANCH   7  12
ATOM     12  C   UNL A   1      33.606  26.702  23.233  1.00  0.00     0.364 C 
BRANCH  12  13
ATOM     13  C   UNL A   1      33.254  28.147  22.871  1.00  0.00     0.279 C 
ATOM     14  O   UNL A   1      34.191  28.951  22.722  1.00  0.00    -0.268 OA
ATOM     15  N   UNL A   1      32.043  28.665  22.525  1.00  0.00    -0.321 N 
ATOM     16  H   UNL A   1      32.210  29.500  22.031  1.00  0.00     0.170 HD
BRANCH  15  17
ATOM     17  C   UNL A   1      30.643  28.482  22.592  1.00  0.00     0.041 A 
ATOM     18  C   UNL A   1      29.865  29.554  22.119  1.00  0.00     0.026 A 
ATOM     19  C   UNL A   1      29.934  27.456  23.197  1.00  0.00     0.026 A 
ATOM     20  C   UNL A   1      28.483  29.644  22.327  1.00  0.00     0.002 A 
ATOM     21  C   UNL A   1      28.552  27.543  23.444  1.00  0.00     0.002 A 
ATOM     22  C   UNL A   1      27.825  28.643  23.021  1.00  0.00     0.000 A 
ENDBRANCH  15  17
ENDBRANCH  12  13
ENDBRANCH   7  12
ENDBRANCH   6   7
ENDBRANCH   4   6
ENDBRANCH   3   4
ENDBRANCH   2   3
ENDBRANCH   1   2
BRANCH   1  23
ATOM     23  O   UNL A   1      35.827  20.590  25.469  1.00  0.00    -0.374 OA
BRANCH  23  24
ATOM     24  C   UNL A   1      36.993  20.764  24.662  1.00  0.00     0.202 C 
BRANCH  24  25
ATOM     25  C   UNL A   1      37.706  22.099  24.909  1.00  0.00     0.261 C 
BRANCH  25  26
ATOM     26  O   UNL A   1      38.065  22.230  26.301  1.00  0.00    -0.460 OA
BRANCH  26  27
ATOM     27  C   UNL A   1      39.365  22.516  26.546  1.00  0.00     0.338 C 
ATOM     28  O   UNL A   1      40.331  21.812  26.286  1.00  0.00    -0.246 OA
BRANCH  27  29
ATOM     29  C   UNL A   1      39.486  23.910  27.026  1.00  0.00     0.060 A 
ATOM     30  C   UNL A   1      39.706  24.905  26.073  1.00  0.00     0.016 A 
ATOM     31  C   UNL A   1      39.420  24.253  28.379  1.00  0.00     0.016 A 
ATOM     32  C   UNL A   1      39.927  26.222  26.479  1.00  0.00     0.010 A 
ATOM     33  C   UNL A   1      39.580  25.580  28.783  1.00  0.00     0.010 A 
ATOM     34  C   UNL A   1      39.903  26.563  27.840  1.00  0.00    -0.014 A 
BRANCH  34  35
ATOM     35  C   UNL A   1      40.384  27.901  28.271  1.00  0.00     0.031 A 
ATOM     36  C   UNL A   1      41.835  28.263  28.068  1.00  0.00     0.074 A 
ATOM     37  C   UNL A   1      39.525  28.807  28.775  1.00  0.00     0.049 A 
ATOM     38  N   UNL A   1      42.446  29.399  28.289  1.00  0.00    -0.248 NA
ATOM     39  C   UNL A   1      42.718  27.200  27.563  1.00  0.00     0.031 C 
ATOM     40  C   UNL A   1      38.102  28.571  29.023  1.00  0.00     0.029 A 
ATOM     41  N   UNL A   1      39.720  30.112  29.153  1.00  0.00    -0.354 N 
ATOM     42  C   UNL A   1      43.778  29.188  27.945  1.00  0.00     0.074 A 
ATOM     43  C   UNL A   1      43.898  27.796  27.571  1.00  0.00     0.031 C 
ATOM     44  C   UNL A   1      37.547  29.707  29.479  1.00  0.00     0.029 A 
ATOM     45  C   UNL A   1      38.576  30.737  29.591  1.00  0.00     0.049 A 
ATOM     46  H   UNL A   1      40.597  30.557  29.114  1.00  0.00     0.167 HD
ATOM     47  C   UNL A   1      44.801  30.077  27.917  1.00  0.00     0.034 A 
ATOM     48  C   UNL A   1      38.384  31.997  30.033  1.00  0.00     0.034 A 
ATOM     49  C   UNL A   1      44.666  31.463  28.291  1.00  0.00     0.049 A 
ATOM     50  C   UNL A   1      39.553  32.953  30.053  1.00  0.00     0.074 A 
ATOM     51  C   UNL A   1      45.625  32.460  28.259  1.00  0.00     0.029 A 
ATOM     52  N   UNL A   1      43.504  32.045  28.783  1.00  0.00    -0.354 N 
ATOM     53  N   UNL A   1      40.795  32.752  29.675  1.00  0.00    -0.248 NA
ATOM     54  C   UNL A   1      39.289  34.309  30.549  1.00  0.00     0.031 C 
ATOM     55  C   UNL A   1      45.071  33.618  28.814  1.00  0.00     0.029 A 
ATOM     56  C   UNL A   1      43.737  33.375  29.101  1.00  0.00     0.049 A 
ATOM     57  H   UNL A   1      42.642  31.582  28.890  1.00  0.00     0.167 HD
ATOM     58  C   UNL A   1      41.448  33.969  29.855  1.00  0.00     0.074 A 
ATOM     59  C   UNL A   1      40.460  34.899  30.360  1.00  0.00     0.031 C 
ATOM     60  C   UNL A   1      42.747  34.292  29.617  1.00  0.00     0.034 A 
BRANCH  47  61
ATOM     61  C   UNL A   1      46.162  29.563  27.503  1.00  0.00     0.023 A 
ATOM     62  C   UNL A   1      46.424  29.122  26.194  1.00  0.00     0.031 A 
ATOM     63  C   UNL A   1      47.207  29.491  28.441  1.00  0.00     0.131 A 
ATOM     64  C   UNL A   1      47.672  28.561  25.879  1.00  0.00     0.055 A 
ATOM     65  C   UNL A   1      48.473  29.014  28.098  1.00  0.00     0.041 A 
ATOM     66  F   UNL A   1      47.012  29.871  29.714  1.00  0.00    -0.206 F 
ATOM     67  C   UNL A   1      48.708  28.531  26.815  1.00  0.00     0.022 A 
BRANCH  64  68
ATOM     68  S   UNL A   1      47.871  27.729  24.279  1.00  0.00     0.124 S 
ATOM     69  O   UNL A   1      47.320  26.406  24.565  1.00  0.00    -0.237 OA
ATOM     70  O   UNL A   1      47.085  28.570  23.385  1.00  0.00    -0.237 OA
ATOM     71  O   UNL A   1      49.315  27.757  24.056  1.00  0.00    -0.744 OA
ENDBRANCH  64  68
ENDBRANCH  47  61
BRANCH  48  72
ATOM     72  C   UNL A   1      37.037  32.431  30.509  1.00  0.00     0.023 A 
ATOM     73  C   UNL A   1      36.099  32.990  29.627  1.00  0.00     0.031 A 
ATOM     74  C   UNL A   1      36.692  32.344  31.869  1.00  0.00     0.131 A 
ATOM     75  C   UNL A   1      34.881  33.484  30.122  1.00  0.00     0.055 A 
ATOM     76  C   UNL A   1      35.456  32.781  32.347  1.00  0.00     0.041 A 
ATOM     77  F   UNL A   1      37.553  31.822  32.757  1.00  0.00    -0.206 F 
ATOM     78  C   UNL A   1      34.547  33.369  31.473  1.00  0.00     0.022 A 
BRANCH  75  79
ATOM     79  S   UNL A   1      33.778  34.373  28.989  1.00  0.00     0.124 S 
ATOM     80  O   UNL A   1      32.747  34.858  29.900  1.00  0.00    -0.237 OA
ATOM     81  O   UNL A   1      34.668  35.385  28.431  1.00  0.00    -0.237 OA
ATOM     82  O   UNL A   1      33.347  33.339  28.051  1.00  0.00    -0.744 OA
ENDBRANCH  75  79
ENDBRANCH  48  72
BRANCH  60  83
ATOM     83  C   UNL A   1      43.160  35.725  29.859  1.00  0.00     0.023 A 
ATOM     84  C   UNL A   1      42.986  36.724  28.886  1.00  0.00     0.031 A 
ATOM     85  C   UNL A   1      43.744  36.094  31.085  1.00  0.00     0.131 A 
ATOM     86  C   UNL A   1      43.443  38.028  29.132  1.00  0.00     0.055 A 
ATOM     87  C   UNL A   1      44.133  37.408  31.351  1.00  0.00     0.041 A 
ATOM     88  F   UNL A   1      43.939  35.182  32.052  1.00  0.00    -0.206 F 
ATOM     89  C   UNL A   1      43.997  38.380  30.366  1.00  0.00     0.022 A 
BRANCH  86  90
ATOM     90  S   UNL A   1      43.402  39.236  27.780  1.00  0.00     0.124 S 
ATOM     91  O   UNL A   1      44.008  40.409  28.402  1.00  0.00    -0.237 OA
ATOM     92  O   UNL A   1      44.198  38.579  26.749  1.00  0.00    -0.237 OA
ATOM     93  O   UNL A   1      41.977  39.362  27.475  1.00  0.00    -0.744 OA
ENDBRANCH  86  90
ENDBRANCH  60  83
ENDBRANCH  34  35
ENDBRANCH  27  29
ENDBRANCH  26  27
ENDBRANCH  25  26
ENDBRANCH  24  25
ENDBRANCH  23  24
ENDBRANCH   1  23
TORSDOF 23
ENDMDL
