MODEL 1
REMARK VINA RESULT:     -10.4      0.000      0.000
REMARK SMILES CCCC[C@H](C(=O)OCCOCCOC(=O)c1ccc(-c2c3nc(c(-c4cc(S(=O)(=O)[O-])ccc4F)c4ccc([nH]4)c(-c4cc(S(=O)(=O)[O-])ccc4F)c4nc(c(-c5cc(S(=O)(=O)[O-])ccc5F)c5ccc2[nH]5)C=C4)C=C3)cc1)[C@H](O)c1ccc(C(F)(F)F)cc1
REMARK SMILES IDX 11 1 10 2 9 3 8 4 6 5 7 6 5 7 4 8 3 9 2 10 1 11 80 12 82 13
REMARK SMILES IDX 83 14 91 15 84 16 90 17 85 18 86 19 87 20 88 21 89 22 81 23
REMARK SMILES IDX 12 25 13 26 14 27 15 28 16 29 17 30 18 31 79 32 19 33 78 34
REMARK SMILES IDX 20 35 21 36 22 37 72 38 23 39 77 40 71 41 73 42 24 43 76 44
REMARK SMILES IDX 70 45 69 46 25 48 57 49 37 50 56 51 38 52 41 53 55 54 74 55
REMARK SMILES IDX 39 56 40 57 54 59 75 60 42 61 26 62 27 63 35 64 28 65 34 66
REMARK SMILES IDX 36 67 33 68 29 69 30 70 31 71 32 72 58 73 59 74 67 75 60 76
REMARK SMILES IDX 66 77 68 78 65 79 61 80 62 81 63 82 64 83 43 84 44 85 52 86
REMARK SMILES IDX 45 87 51 88 53 89 50 90 46 91 47 92 48 93 49 94
REMARK H PARENT 81 24 73 47 41 58
REMARK Flexibility Score: inf
ROOT
ATOM      1  O   UNL A   1      31.245  29.602  23.885  1.00  0.00    -0.374 OA
ENDROOT
BRANCH   1   2
ATOM      2  C   UNL A   1      32.095  28.762  23.116  1.00  0.00     0.202 C 
BRANCH   2   3
ATOM      3  C   UNL A   1      33.567  28.600  23.523  1.00  0.00     0.261 C 
BRANCH   3   4
ATOM      4  O   UNL A   1      34.028  27.246  23.542  1.00  0.00    -0.463 OA
BRANCH   4   5
ATOM      5  C   UNL A   1      33.817  26.590  24.724  1.00  0.00     0.312 C 
ATOM      6  O   UNL A   1      33.804  27.133  25.817  1.00  0.00    -0.252 OA
BRANCH   5   7
ATOM      7  C   UNL A   1      33.643  25.098  24.468  1.00  0.00     0.132 C 
BRANCH   7   8
ATOM      8  C   UNL A   1      34.810  24.250  25.040  1.00  0.00     0.018 C 
BRANCH   8   9
ATOM      9  C   UNL A   1      35.804  23.574  24.079  1.00  0.00     0.001 C 
BRANCH   9  10
ATOM     10  C   UNL A   1      36.152  22.097  24.298  1.00  0.00    -0.003 C 
ATOM     11  C   UNL A   1      35.656  21.500  25.602  1.00  0.00     0.004 C 
ENDBRANCH   9  10
ENDBRANCH   8   9
ENDBRANCH   7   8
BRANCH   7  12
ATOM     12  C   UNL A   1      32.253  24.515  24.882  1.00  0.00     0.158 C 
BRANCH  12  13
ATOM     13  C   UNL A   1      32.040  23.038  24.603  1.00  0.00    -0.019 A 
ATOM     14  C   UNL A   1      31.827  22.103  25.623  1.00  0.00     0.007 A 
ATOM     15  C   UNL A   1      32.288  22.571  23.301  1.00  0.00     0.007 A 
ATOM     16  C   UNL A   1      32.037  20.742  25.381  1.00  0.00     0.013 A 
ATOM     17  C   UNL A   1      32.499  21.213  23.061  1.00  0.00     0.013 A 
ATOM     18  C   UNL A   1      32.433  20.292  24.113  1.00  0.00     0.056 A 
BRANCH  18  19
ATOM     19  C   UNL A   1      32.882  18.867  23.914  1.00  0.00     0.416 C 
ATOM     20  F   UNL A   1      34.238  18.746  23.869  1.00  0.00    -0.166 F 
ATOM     21  F   UNL A   1      32.468  18.038  24.913  1.00  0.00    -0.166 F 
ATOM     22  F   UNL A   1      32.423  18.307  22.758  1.00  0.00    -0.166 F 
ENDBRANCH  18  19
ENDBRANCH  12  13
BRANCH  12  23
ATOM     23  O   UNL A   1      32.006  24.781  26.271  1.00  0.00    -0.388 OA
ATOM     24  H   UNL A   1      31.670  25.686  26.372  1.00  0.00     0.211 HD
ENDBRANCH  12  23
ENDBRANCH   7  12
ENDBRANCH   5   7
ENDBRANCH   4   5
ENDBRANCH   3   4
ENDBRANCH   2   3
ENDBRANCH   1   2
BRANCH   1  25
ATOM     25  C   UNL A   1      31.275  29.508  25.305  1.00  0.00     0.202 C 
BRANCH  25  26
ATOM     26  C   UNL A   1      31.727  30.699  26.153  1.00  0.00     0.261 C 
BRANCH  26  27
ATOM     27  O   UNL A   1      32.892  30.427  26.941  1.00  0.00    -0.460 OA
BRANCH  27  28
ATOM     28  C   UNL A   1      33.524  31.533  27.398  1.00  0.00     0.338 C 
ATOM     29  O   UNL A   1      33.031  32.632  27.613  1.00  0.00    -0.246 OA
BRANCH  28  30
ATOM     30  C   UNL A   1      34.901  31.193  27.772  1.00  0.00     0.060 A 
ATOM     31  C   UNL A   1      35.215  29.849  28.012  1.00  0.00     0.016 A 
ATOM     32  C   UNL A   1      35.836  32.204  27.995  1.00  0.00     0.016 A 
ATOM     33  C   UNL A   1      36.465  29.511  28.521  1.00  0.00     0.010 A 
ATOM     34  C   UNL A   1      37.081  31.866  28.521  1.00  0.00     0.010 A 
ATOM     35  C   UNL A   1      37.385  30.523  28.818  1.00  0.00    -0.014 A 
BRANCH  35  36
ATOM     36  C   UNL A   1      38.590  30.223  29.621  1.00  0.00     0.031 A 
ATOM     37  C   UNL A   1      39.565  29.214  29.084  1.00  0.00     0.074 A 
ATOM     38  C   UNL A   1      38.787  30.815  30.810  1.00  0.00     0.049 A 
ATOM     39  N   UNL A   1      40.588  28.653  29.671  1.00  0.00    -0.248 NA
ATOM     40  C   UNL A   1      39.342  28.771  27.699  1.00  0.00     0.031 C 
ATOM     41  C   UNL A   1      37.937  31.857  31.384  1.00  0.00     0.029 A 
ATOM     42  N   UNL A   1      39.754  30.605  31.759  1.00  0.00    -0.354 N 
ATOM     43  C   UNL A   1      41.123  27.776  28.733  1.00  0.00     0.074 A 
ATOM     44  C   UNL A   1      40.295  27.863  27.550  1.00  0.00     0.031 C 
ATOM     45  C   UNL A   1      38.405  32.175  32.603  1.00  0.00     0.029 A 
ATOM     46  C   UNL A   1      39.551  31.323  32.913  1.00  0.00     0.049 A 
ATOM     47  H   UNL A   1      40.518  30.000  31.626  1.00  0.00     0.167 HD
ATOM     48  C   UNL A   1      42.209  26.974  28.856  1.00  0.00     0.034 A 
ATOM     49  C   UNL A   1      40.192  31.258  34.098  1.00  0.00     0.034 A 
ATOM     50  C   UNL A   1      43.003  26.898  30.056  1.00  0.00     0.049 A 
ATOM     51  C   UNL A   1      41.335  30.282  34.250  1.00  0.00     0.074 A 
ATOM     52  C   UNL A   1      44.120  26.120  30.306  1.00  0.00     0.029 A 
ATOM     53  N   UNL A   1      42.755  27.622  31.216  1.00  0.00    -0.354 N 
ATOM     54  N   UNL A   1      41.825  29.440  33.368  1.00  0.00    -0.248 NA
ATOM     55  C   UNL A   1      42.012  30.248  35.553  1.00  0.00     0.031 C 
ATOM     56  C   UNL A   1      44.504  26.322  31.636  1.00  0.00     0.029 A 
ATOM     57  C   UNL A   1      43.679  27.288  32.192  1.00  0.00     0.049 A 
ATOM     58  H   UNL A   1      42.028  28.277  31.328  1.00  0.00     0.167 HD
ATOM     59  C   UNL A   1      42.893  28.807  33.998  1.00  0.00     0.074 A 
ATOM     60  C   UNL A   1      42.974  29.361  35.335  1.00  0.00     0.031 C 
ATOM     61  C   UNL A   1      43.741  27.863  33.515  1.00  0.00     0.034 A 
BRANCH  48  62
ATOM     62  C   UNL A   1      42.546  26.078  27.689  1.00  0.00     0.023 A 
ATOM     63  C   UNL A   1      41.977  24.801  27.547  1.00  0.00     0.031 A 
ATOM     64  C   UNL A   1      43.484  26.492  26.726  1.00  0.00     0.131 A 
ATOM     65  C   UNL A   1      42.404  23.956  26.510  1.00  0.00     0.055 A 
ATOM     66  C   UNL A   1      43.844  25.679  25.651  1.00  0.00     0.041 A 
ATOM     67  F   UNL A   1      44.081  27.690  26.825  1.00  0.00    -0.206 F 
ATOM     68  C   UNL A   1      43.314  24.396  25.546  1.00  0.00     0.022 A 
BRANCH  65  69
ATOM     69  S   UNL A   1      41.864  22.224  26.525  1.00  0.00     0.124 S 
ATOM     70  O   UNL A   1      42.591  21.680  25.382  1.00  0.00    -0.237 OA
ATOM     71  O   UNL A   1      42.302  21.769  27.839  1.00  0.00    -0.237 OA
ATOM     72  O   UNL A   1      40.416  22.316  26.346  1.00  0.00    -0.744 OA
ENDBRANCH  65  69
ENDBRANCH  48  62
BRANCH  49  73
ATOM     73  C   UNL A   1      39.743  32.096  35.246  1.00  0.00     0.023 A 
ATOM     74  C   UNL A   1      38.938  31.559  36.263  1.00  0.00     0.031 A 
ATOM     75  C   UNL A   1      40.077  33.460  35.321  1.00  0.00     0.131 A 
ATOM     76  C   UNL A   1      38.457  32.390  37.286  1.00  0.00     0.055 A 
ATOM     77  C   UNL A   1      39.641  34.271  36.372  1.00  0.00     0.041 A 
ATOM     78  F   UNL A   1      40.844  34.026  34.376  1.00  0.00    -0.206 F 
ATOM     79  C   UNL A   1      38.814  33.739  37.356  1.00  0.00     0.022 A 
BRANCH  76  80
ATOM     80  S   UNL A   1      37.281  31.701  38.482  1.00  0.00     0.124 S 
ATOM     81  O   UNL A   1      36.169  32.638  38.378  1.00  0.00    -0.237 OA
ATOM     82  O   UNL A   1      37.049  30.366  37.941  1.00  0.00    -0.237 OA
ATOM     83  O   UNL A   1      38.016  31.740  39.744  1.00  0.00    -0.744 OA
ENDBRANCH  76  80
ENDBRANCH  49  73
BRANCH  61  84
ATOM     84  C   UNL A   1      44.874  27.426  34.410  1.00  0.00     0.023 A 
ATOM     85  C   UNL A   1      44.762  26.324  35.272  1.00  0.00     0.031 A 
ATOM     86  C   UNL A   1      46.101  28.114  34.363  1.00  0.00     0.131 A 
ATOM     87  C   UNL A   1      45.851  25.961  36.080  1.00  0.00     0.055 A 
ATOM     88  C   UNL A   1      47.195  27.716  35.128  1.00  0.00     0.041 A 
ATOM     89  F   UNL A   1      46.259  29.174  33.554  1.00  0.00    -0.206 F 
ATOM     90  C   UNL A   1      47.072  26.638  36.000  1.00  0.00     0.022 A 
BRANCH  87  91
ATOM     91  S   UNL A   1      45.638  24.619  37.282  1.00  0.00     0.124 S 
ATOM     92  O   UNL A   1      45.938  23.440  36.476  1.00  0.00    -0.237 OA
ATOM     93  O   UNL A   1      46.621  24.957  38.306  1.00  0.00    -0.237 OA
ATOM     94  O   UNL A   1      44.243  24.748  37.697  1.00  0.00    -0.744 OA
ENDBRANCH  87  91
ENDBRANCH  61  84
ENDBRANCH  35  36
ENDBRANCH  28  30
ENDBRANCH  27  28
ENDBRANCH  26  27
ENDBRANCH  25  26
ENDBRANCH   1  25
TORSDOF 24
ENDMDL
MODEL 2
REMARK VINA RESULT:     -10.2      1.306      2.040
REMARK SMILES CCCC[C@H](C(=O)OCCOCCOC(=O)c1ccc(-c2c3nc(c(-c4cc(S(=O)(=O)[O-])ccc4F)c4ccc([nH]4)c(-c4cc(S(=O)(=O)[O-])ccc4F)c4nc(c(-c5cc(S(=O)(=O)[O-])ccc5F)c5ccc2[nH]5)C=C4)C=C3)cc1)[C@H](O)c1ccc(C(F)(F)F)cc1
REMARK SMILES IDX 11 1 10 2 9 3 8 4 6 5 7 6 5 7 4 8 3 9 2 10 1 11 80 12 82 13
REMARK SMILES IDX 83 14 91 15 84 16 90 17 85 18 86 19 87 20 88 21 89 22 81 23
REMARK SMILES IDX 12 25 13 26 14 27 15 28 16 29 17 30 18 31 79 32 19 33 78 34
REMARK SMILES IDX 20 35 21 36 22 37 72 38 23 39 77 40 71 41 73 42 24 43 76 44
REMARK SMILES IDX 70 45 69 46 25 48 57 49 37 50 56 51 38 52 41 53 55 54 74 55
REMARK SMILES IDX 39 56 40 57 54 59 75 60 42 61 26 62 27 63 35 64 28 65 34 66
REMARK SMILES IDX 36 67 33 68 29 69 30 70 31 71 32 72 58 73 59 74 67 75 60 76
REMARK SMILES IDX 66 77 68 78 65 79 61 80 62 81 63 82 64 83 43 84 44 85 52 86
REMARK SMILES IDX 45 87 51 88 53 89 50 90 46 91 47 92 48 93 49 94
REMARK H PARENT 81 24 73 47 41 58
REMARK Flexibility Score: inf
ROOT
ATOM      1  O   UNL A   1      32.197  29.308  24.759  1.00  0.00    -0.374 OA
ENDROOT
BRANCH   1   2
ATOM      2  C   UNL A   1      33.480  28.779  24.454  1.00  0.00     0.202 C 
BRANCH   2   3
ATOM      3  C   UNL A   1      33.587  27.463  23.669  1.00  0.00     0.261 C 
BRANCH   3   4
ATOM      4  O   UNL A   1      32.877  27.458  22.426  1.00  0.00    -0.463 OA
BRANCH   4   5
ATOM      5  C   UNL A   1      31.616  26.935  22.494  1.00  0.00     0.312 C 
ATOM      6  O   UNL A   1      30.653  27.385  21.892  1.00  0.00    -0.252 OA
BRANCH   5   7
ATOM      7  C   UNL A   1      31.594  25.750  23.451  1.00  0.00     0.132 C 
BRANCH   7   8
ATOM      8  C   UNL A   1      30.532  25.902  24.572  1.00  0.00     0.018 C 
BRANCH   8   9
ATOM      9  C   UNL A   1      30.948  25.729  26.044  1.00  0.00     0.001 C 
BRANCH   9  10
ATOM     10  C   UNL A   1      31.763  24.493  26.440  1.00  0.00    -0.003 C 
ATOM     11  C   UNL A   1      33.270  24.671  26.407  1.00  0.00     0.004 C 
ENDBRANCH   9  10
ENDBRANCH   8   9
ENDBRANCH   7   8
BRANCH   7  12
ATOM     12  C   UNL A   1      31.505  24.348  22.763  1.00  0.00     0.158 C 
BRANCH  12  13
ATOM     13  C   UNL A   1      32.667  23.405  23.019  1.00  0.00    -0.019 A 
ATOM     14  C   UNL A   1      32.505  22.165  23.647  1.00  0.00     0.007 A 
ATOM     15  C   UNL A   1      33.969  23.895  22.820  1.00  0.00     0.007 A 
ATOM     16  C   UNL A   1      33.605  21.521  24.220  1.00  0.00     0.013 A 
ATOM     17  C   UNL A   1      35.066  23.253  23.393  1.00  0.00     0.013 A 
ATOM     18  C   UNL A   1      34.886  22.089  24.150  1.00  0.00     0.056 A 
BRANCH  18  19
ATOM     19  C   UNL A   1      36.020  21.518  24.962  1.00  0.00     0.416 C 
ATOM     20  F   UNL A   1      36.267  22.234  26.094  1.00  0.00    -0.166 F 
ATOM     21  F   UNL A   1      35.786  20.240  25.373  1.00  0.00    -0.166 F 
ATOM     22  F   UNL A   1      37.205  21.476  24.287  1.00  0.00    -0.166 F 
ENDBRANCH  18  19
ENDBRANCH  12  13
BRANCH  12  23
ATOM     23  O   UNL A   1      30.275  23.703  23.126  1.00  0.00    -0.388 OA
ATOM     24  H   UNL A   1      29.842  23.360  22.328  1.00  0.00     0.211 HD
ENDBRANCH  12  23
ENDBRANCH   7  12
ENDBRANCH   5   7
ENDBRANCH   4   5
ENDBRANCH   3   4
ENDBRANCH   2   3
ENDBRANCH   1   2
BRANCH   1  25
ATOM     25  C   UNL A   1      31.788  29.401  26.119  1.00  0.00     0.202 C 
BRANCH  25  26
ATOM     26  C   UNL A   1      32.185  30.609  26.970  1.00  0.00     0.261 C 
BRANCH  26  27
ATOM     27  O   UNL A   1      33.492  31.114  26.666  1.00  0.00    -0.460 OA
BRANCH  27  28
ATOM     28  C   UNL A   1      34.018  31.908  27.628  1.00  0.00     0.338 C 
ATOM     29  O   UNL A   1      33.443  32.785  28.260  1.00  0.00    -0.246 OA
BRANCH  28  30
ATOM     30  C   UNL A   1      35.377  31.460  27.946  1.00  0.00     0.060 A 
ATOM     31  C   UNL A   1      35.610  30.086  28.093  1.00  0.00     0.016 A 
ATOM     32  C   UNL A   1      36.379  32.394  28.208  1.00  0.00     0.016 A 
ATOM     33  C   UNL A   1      36.847  29.639  28.548  1.00  0.00     0.010 A 
ATOM     34  C   UNL A   1      37.611  31.946  28.680  1.00  0.00     0.010 A 
ATOM     35  C   UNL A   1      37.835  30.571  28.885  1.00  0.00    -0.014 A 
BRANCH  35  36
ATOM     36  C   UNL A   1      39.035  30.145  29.637  1.00  0.00     0.031 A 
ATOM     37  C   UNL A   1      39.895  29.066  29.045  1.00  0.00     0.074 A 
ATOM     38  C   UNL A   1      39.326  30.689  30.830  1.00  0.00     0.049 A 
ATOM     39  N   UNL A   1      40.883  28.402  29.583  1.00  0.00    -0.248 NA
ATOM     40  C   UNL A   1      39.586  28.677  27.660  1.00  0.00     0.031 C 
ATOM     41  C   UNL A   1      38.593  31.789  31.456  1.00  0.00     0.029 A 
ATOM     42  N   UNL A   1      40.301  30.371  31.739  1.00  0.00    -0.354 N 
ATOM     43  C   UNL A   1      41.305  27.503  28.609  1.00  0.00     0.074 A 
ATOM     44  C   UNL A   1      40.447  27.691  27.459  1.00  0.00     0.031 C 
ATOM     45  C   UNL A   1      39.130  32.036  32.663  1.00  0.00     0.029 A 
ATOM     46  C   UNL A   1      40.204  31.077  32.914  1.00  0.00     0.049 A 
ATOM     47  H   UNL A   1      41.003  29.703  31.566  1.00  0.00     0.167 HD
ATOM     48  C   UNL A   1      42.317  26.604  28.676  1.00  0.00     0.034 A 
ATOM     49  C   UNL A   1      40.877  30.927  34.073  1.00  0.00     0.034 A 
ATOM     50  C   UNL A   1      43.142  26.429  29.844  1.00  0.00     0.049 A 
ATOM     51  C   UNL A   1      41.932  29.850  34.164  1.00  0.00     0.074 A 
ATOM     52  C   UNL A   1      44.192  25.549  30.037  1.00  0.00     0.029 A 
ATOM     53  N   UNL A   1      43.000  27.145  31.027  1.00  0.00    -0.354 N 
ATOM     54  N   UNL A   1      42.313  28.988  33.248  1.00  0.00    -0.248 NA
ATOM     55  C   UNL A   1      42.647  29.724  35.441  1.00  0.00     0.031 C 
ATOM     56  C   UNL A   1      44.638  25.684  31.356  1.00  0.00     0.029 A 
ATOM     57  C   UNL A   1      43.923  26.707  31.962  1.00  0.00     0.049 A 
ATOM     58  H   UNL A   1      42.339  27.859  31.178  1.00  0.00     0.167 HD
ATOM     59  C   UNL A   1      43.341  28.247  33.826  1.00  0.00     0.074 A 
ATOM     60  C   UNL A   1      43.517  28.761  35.169  1.00  0.00     0.031 C 
ATOM     61  C   UNL A   1      44.083  27.243  33.293  1.00  0.00     0.034 A 
BRANCH  48  62
ATOM     62  C   UNL A   1      42.532  25.710  27.479  1.00  0.00     0.023 A 
ATOM     63  C   UNL A   1      41.973  24.421  27.407  1.00  0.00     0.031 A 
ATOM     64  C   UNL A   1      43.343  26.135  26.413  1.00  0.00     0.131 A 
ATOM     65  C   UNL A   1      42.291  23.580  26.329  1.00  0.00     0.055 A 
ATOM     66  C   UNL A   1      43.590  25.324  25.304  1.00  0.00     0.041 A 
ATOM     67  F   UNL A   1      43.926  27.345  26.438  1.00  0.00    -0.206 F 
ATOM     68  C   UNL A   1      43.075  24.032  25.265  1.00  0.00     0.022 A 
BRANCH  65  69
ATOM     69  S   UNL A   1      41.788  21.839  26.411  1.00  0.00     0.124 S 
ATOM     70  O   UNL A   1      40.360  21.932  26.121  1.00  0.00    -0.237 OA
ATOM     71  O   UNL A   1      42.612  21.224  25.377  1.00  0.00    -0.237 OA
ATOM     72  O   UNL A   1      42.114  21.453  27.783  1.00  0.00    -0.744 OA
ENDBRANCH  65  69
ENDBRANCH  48  62
BRANCH  49  73
ATOM     73  C   UNL A   1      40.545  31.775  35.254  1.00  0.00     0.023 A 
ATOM     74  C   UNL A   1      39.456  31.465  36.084  1.00  0.00     0.031 A 
ATOM     75  C   UNL A   1      41.286  32.935  35.544  1.00  0.00     0.131 A 
ATOM     76  C   UNL A   1      39.113  32.327  37.137  1.00  0.00     0.055 A 
ATOM     77  C   UNL A   1      40.974  33.760  36.627  1.00  0.00     0.041 A 
ATOM     78  F   UNL A   1      42.336  33.279  34.783  1.00  0.00    -0.206 F 
ATOM     79  C   UNL A   1      39.871  33.464  37.423  1.00  0.00     0.022 A 
BRANCH  76  80
ATOM     80  S   UNL A   1      37.601  31.985  38.078  1.00  0.00     0.124 S 
ATOM     81  O   UNL A   1      36.648  32.890  37.446  1.00  0.00    -0.237 OA
ATOM     82  O   UNL A   1      37.401  30.563  37.822  1.00  0.00    -0.237 OA
ATOM     83  O   UNL A   1      37.969  32.325  39.450  1.00  0.00    -0.744 OA
ENDBRANCH  76  80
ENDBRANCH  49  73
BRANCH  61  84
ATOM     84  C   UNL A   1      45.202  26.686  34.137  1.00  0.00     0.023 A 
ATOM     85  C   UNL A   1      45.060  25.501  34.877  1.00  0.00     0.031 A 
ATOM     86  C   UNL A   1      46.445  27.344  34.164  1.00  0.00     0.131 A 
ATOM     87  C   UNL A   1      46.137  25.027  35.643  1.00  0.00     0.055 A 
ATOM     88  C   UNL A   1      47.527  26.840  34.883  1.00  0.00     0.041 A 
ATOM     89  F   UNL A   1      46.632  28.480  33.473  1.00  0.00    -0.206 F 
ATOM     90  C   UNL A   1      47.374  25.679  35.635  1.00  0.00     0.022 A 
BRANCH  87  91
ATOM     91  S   UNL A   1      45.888  23.571  36.694  1.00  0.00     0.124 S 
ATOM     92  O   UNL A   1      45.431  24.174  37.943  1.00  0.00    -0.237 OA
ATOM     93  O   UNL A   1      44.887  22.814  35.949  1.00  0.00    -0.237 OA
ATOM     94  O   UNL A   1      47.212  22.956  36.750  1.00  0.00    -0.744 OA
ENDBRANCH  87  91
ENDBRANCH  61  84
ENDBRANCH  35  36
ENDBRANCH  28  30
ENDBRANCH  27  28
ENDBRANCH  26  27
ENDBRANCH  25  26
ENDBRANCH   1  25
TORSDOF 24
ENDMDL
MODEL 3
REMARK VINA RESULT:     -10.2      5.058     10.860
REMARK SMILES CCCC[C@H](C(=O)OCCOCCOC(=O)c1ccc(-c2c3nc(c(-c4cc(S(=O)(=O)[O-])ccc4F)c4ccc([nH]4)c(-c4cc(S(=O)(=O)[O-])ccc4F)c4nc(c(-c5cc(S(=O)(=O)[O-])ccc5F)c5ccc2[nH]5)C=C4)C=C3)cc1)[C@H](O)c1ccc(C(F)(F)F)cc1
REMARK SMILES IDX 11 1 10 2 9 3 8 4 6 5 7 6 5 7 4 8 3 9 2 10 1 11 80 12 82 13
REMARK SMILES IDX 83 14 91 15 84 16 90 17 85 18 86 19 87 20 88 21 89 22 81 23
REMARK SMILES IDX 12 25 13 26 14 27 15 28 16 29 17 30 18 31 79 32 19 33 78 34
REMARK SMILES IDX 20 35 21 36 22 37 72 38 23 39 77 40 71 41 73 42 24 43 76 44
REMARK SMILES IDX 70 45 69 46 25 48 57 49 37 50 56 51 38 52 41 53 55 54 74 55
REMARK SMILES IDX 39 56 40 57 54 59 75 60 42 61 26 62 27 63 35 64 28 65 34 66
REMARK SMILES IDX 36 67 33 68 29 69 30 70 31 71 32 72 58 73 59 74 67 75 60 76
REMARK SMILES IDX 66 77 68 78 65 79 61 80 62 81 63 82 64 83 43 84 44 85 52 86
REMARK SMILES IDX 45 87 51 88 53 89 50 90 46 91 47 92 48 93 49 94
REMARK H PARENT 81 24 73 47 41 58
REMARK Flexibility Score: inf
ROOT
ATOM      1  O   UNL A   1      32.902  35.985  29.585  1.00  0.00    -0.374 OA
ENDROOT
BRANCH   1   2
ATOM      2  C   UNL A   1      33.219  37.138  30.353  1.00  0.00     0.202 C 
BRANCH   2   3
ATOM      3  C   UNL A   1      33.173  37.061  31.886  1.00  0.00     0.261 C 
BRANCH   3   4
ATOM      4  O   UNL A   1      34.310  36.425  32.479  1.00  0.00    -0.463 OA
BRANCH   4   5
ATOM      5  C   UNL A   1      34.181  35.074  32.648  1.00  0.00     0.312 C 
ATOM      6  O   UNL A   1      33.115  34.478  32.627  1.00  0.00    -0.252 OA
BRANCH   5   7
ATOM      7  C   UNL A   1      35.547  34.448  32.902  1.00  0.00     0.132 C 
BRANCH   7   8
ATOM      8  C   UNL A   1      35.557  33.509  34.136  1.00  0.00     0.018 C 
BRANCH   8   9
ATOM      9  C   UNL A   1      36.387  33.888  35.377  1.00  0.00     0.001 C 
BRANCH   9  10
ATOM     10  C   UNL A   1      37.665  33.097  35.679  1.00  0.00    -0.003 C 
ATOM     11  C   UNL A   1      37.743  31.723  35.040  1.00  0.00     0.004 C 
ENDBRANCH   9  10
ENDBRANCH   8   9
ENDBRANCH   7   8
BRANCH   7  12
ATOM     12  C   UNL A   1      36.202  33.766  31.656  1.00  0.00     0.158 C 
BRANCH  12  13
ATOM     13  C   UNL A   1      37.609  34.220  31.311  1.00  0.00    -0.019 A 
ATOM     14  C   UNL A   1      38.080  34.274  29.994  1.00  0.00     0.007 A 
ATOM     15  C   UNL A   1      38.528  34.374  32.363  1.00  0.00     0.007 A 
ATOM     16  C   UNL A   1      39.455  34.298  29.742  1.00  0.00     0.013 A 
ATOM     17  C   UNL A   1      39.900  34.397  32.111  1.00  0.00     0.013 A 
ATOM     18  C   UNL A   1      40.378  34.300  30.799  1.00  0.00     0.056 A 
BRANCH  18  19
ATOM     19  C   UNL A   1      41.846  34.091  30.531  1.00  0.00     0.416 C 
ATOM     20  F   UNL A   1      42.163  34.226  29.213  1.00  0.00    -0.166 F 
ATOM     21  F   UNL A   1      42.637  34.980  31.196  1.00  0.00    -0.166 F 
ATOM     22  F   UNL A   1      42.296  32.856  30.894  1.00  0.00    -0.166 F 
ENDBRANCH  18  19
ENDBRANCH  12  13
BRANCH  12  23
ATOM     23  O   UNL A   1      36.184  32.339  31.815  1.00  0.00    -0.388 OA
ATOM     24  H   UNL A   1      35.968  32.119  32.735  1.00  0.00     0.211 HD
ENDBRANCH  12  23
ENDBRANCH   7  12
ENDBRANCH   5   7
ENDBRANCH   4   5
ENDBRANCH   3   4
ENDBRANCH   2   3
ENDBRANCH   1   2
BRANCH   1  25
ATOM     25  C   UNL A   1      33.948  35.275  28.931  1.00  0.00     0.202 C 
BRANCH  25  26
ATOM     26  C   UNL A   1      33.699  33.879  28.356  1.00  0.00     0.261 C 
BRANCH  26  27
ATOM     27  O   UNL A   1      34.864  33.045  28.361  1.00  0.00    -0.460 OA
BRANCH  27  28
ATOM     28  C   UNL A   1      34.614  31.740  28.104  1.00  0.00     0.338 C 
ATOM     29  O   UNL A   1      33.576  31.257  27.670  1.00  0.00    -0.246 OA
BRANCH  28  30
ATOM     30  C   UNL A   1      35.846  30.962  28.264  1.00  0.00     0.060 A 
ATOM     31  C   UNL A   1      35.742  29.617  28.645  1.00  0.00     0.016 A 
ATOM     32  C   UNL A   1      37.088  31.586  28.153  1.00  0.00     0.016 A 
ATOM     33  C   UNL A   1      36.890  28.896  28.959  1.00  0.00     0.010 A 
ATOM     34  C   UNL A   1      38.235  30.868  28.485  1.00  0.00     0.010 A 
ATOM     35  C   UNL A   1      38.136  29.534  28.922  1.00  0.00    -0.014 A 
BRANCH  35  36
ATOM     36  C   UNL A   1      39.321  28.887  29.525  1.00  0.00     0.031 A 
ATOM     37  C   UNL A   1      39.901  29.491  30.771  1.00  0.00     0.074 A 
ATOM     38  C   UNL A   1      39.878  27.806  28.952  1.00  0.00     0.049 A 
ATOM     39  N   UNL A   1      41.025  29.224  31.380  1.00  0.00    -0.248 NA
ATOM     40  C   UNL A   1      39.105  30.553  31.407  1.00  0.00     0.031 C 
ATOM     41  C   UNL A   1      39.350  27.105  27.783  1.00  0.00     0.029 A 
ATOM     42  N   UNL A   1      41.027  27.128  29.265  1.00  0.00    -0.354 N 
ATOM     43  C   UNL A   1      41.083  30.095  32.462  1.00  0.00     0.074 A 
ATOM     44  C   UNL A   1      39.892  30.915  32.409  1.00  0.00     0.031 C 
ATOM     45  C   UNL A   1      40.191  26.109  27.459  1.00  0.00     0.029 A 
ATOM     46  C   UNL A   1      41.339  26.139  28.363  1.00  0.00     0.049 A 
ATOM     47  H   UNL A   1      41.574  27.328  30.058  1.00  0.00     0.167 HD
ATOM     48  C   UNL A   1      42.046  30.196  33.410  1.00  0.00     0.034 A 
ATOM     49  C   UNL A   1      42.451  25.382  28.257  1.00  0.00     0.034 A 
ATOM     50  C   UNL A   1      43.230  29.375  33.424  1.00  0.00     0.049 A 
ATOM     51  C   UNL A   1      43.561  25.580  29.262  1.00  0.00     0.074 A 
ATOM     52  C   UNL A   1      44.279  29.386  34.326  1.00  0.00     0.029 A 
ATOM     53  N   UNL A   1      43.526  28.398  32.480  1.00  0.00    -0.354 N 
ATOM     54  N   UNL A   1      43.620  26.420  30.272  1.00  0.00    -0.248 NA
ATOM     55  C   UNL A   1      44.750  24.732  29.117  1.00  0.00     0.031 C 
ATOM     56  C   UNL A   1      45.240  28.468  33.889  1.00  0.00     0.029 A 
ATOM     57  C   UNL A   1      44.754  27.822  32.761  1.00  0.00     0.049 A 
ATOM     58  H   UNL A   1      42.948  28.152  31.722  1.00  0.00     0.167 HD
ATOM     59  C   UNL A   1      44.835  26.170  30.905  1.00  0.00     0.074 A 
ATOM     60  C   UNL A   1      45.478  25.105  30.161  1.00  0.00     0.031 C 
ATOM     61  C   UNL A   1      45.368  26.755  32.007  1.00  0.00     0.034 A 
BRANCH  48  62
ATOM     62  C   UNL A   1      41.880  31.271  34.457  1.00  0.00     0.023 A 
ATOM     63  C   UNL A   1      42.322  32.588  34.243  1.00  0.00     0.031 A 
ATOM     64  C   UNL A   1      41.309  30.963  35.704  1.00  0.00     0.131 A 
ATOM     65  C   UNL A   1      42.253  33.527  35.284  1.00  0.00     0.055 A 
ATOM     66  C   UNL A   1      41.168  31.923  36.708  1.00  0.00     0.041 A 
ATOM     67  F   UNL A   1      40.893  29.716  35.977  1.00  0.00    -0.206 F 
ATOM     68  C   UNL A   1      41.655  33.211  36.506  1.00  0.00     0.022 A 
BRANCH  65  69
ATOM     69  S   UNL A   1      43.087  35.124  35.068  1.00  0.00     0.124 S 
ATOM     70  O   UNL A   1      42.030  35.928  34.463  1.00  0.00    -0.237 OA
ATOM     71  O   UNL A   1      43.455  35.474  36.435  1.00  0.00    -0.237 OA
ATOM     72  O   UNL A   1      44.205  34.808  34.181  1.00  0.00    -0.744 OA
ENDBRANCH  65  69
ENDBRANCH  48  62
BRANCH  49  73
ATOM     73  C   UNL A   1      42.597  24.409  27.136  1.00  0.00     0.023 A 
ATOM     74  C   UNL A   1      42.048  23.120  27.221  1.00  0.00     0.031 A 
ATOM     75  C   UNL A   1      43.327  24.740  25.981  1.00  0.00     0.131 A 
ATOM     76  C   UNL A   1      42.274  22.196  26.189  1.00  0.00     0.055 A 
ATOM     77  C   UNL A   1      43.503  23.834  24.933  1.00  0.00     0.041 A 
ATOM     78  F   UNL A   1      43.874  25.959  25.847  1.00  0.00    -0.206 F 
ATOM     79  C   UNL A   1      42.986  22.547  25.040  1.00  0.00     0.022 A 
BRANCH  76  80
ATOM     80  S   UNL A   1      41.697  20.491  26.413  1.00  0.00     0.124 S 
ATOM     81  O   UNL A   1      42.098  20.221  27.789  1.00  0.00    -0.237 OA
ATOM     82  O   UNL A   1      40.263  20.625  26.176  1.00  0.00    -0.237 OA
ATOM     83  O   UNL A   1      42.429  19.747  25.391  1.00  0.00    -0.744 OA
ENDBRANCH  76  80
ENDBRANCH  49  73
BRANCH  61  84
ATOM     84  C   UNL A   1      46.675  26.205  32.521  1.00  0.00     0.023 A 
ATOM     85  C   UNL A   1      47.915  26.671  32.055  1.00  0.00     0.031 A 
ATOM     86  C   UNL A   1      46.667  25.218  33.523  1.00  0.00     0.131 A 
ATOM     87  C   UNL A   1      49.101  26.124  32.572  1.00  0.00     0.055 A 
ATOM     88  C   UNL A   1      47.847  24.718  34.070  1.00  0.00     0.041 A 
ATOM     89  F   UNL A   1      45.507  24.740  34.003  1.00  0.00    -0.206 F 
ATOM     90  C   UNL A   1      49.074  25.165  33.589  1.00  0.00     0.022 A 
BRANCH  87  91
ATOM     91  S   UNL A   1      50.685  26.645  31.860  1.00  0.00     0.124 S 
ATOM     92  O   UNL A   1      50.264  27.634  30.873  1.00  0.00    -0.237 OA
ATOM     93  O   UNL A   1      51.394  27.169  33.023  1.00  0.00    -0.237 OA
ATOM     94  O   UNL A   1      51.235  25.410  31.305  1.00  0.00    -0.744 OA
ENDBRANCH  87  91
ENDBRANCH  61  84
ENDBRANCH  35  36
ENDBRANCH  28  30
ENDBRANCH  27  28
ENDBRANCH  26  27
ENDBRANCH  25  26
ENDBRANCH   1  25
TORSDOF 24
ENDMDL
