MODEL 1
REMARK VINA RESULT:     -10.3      0.000      0.000
REMARK SMILES CC1=C(C)C(=O)N(C[C@H](CC(C)C)C(=O)OCCOCCOC(=O)c2ccc(-c3c4nc(c(-c5cc(S(=O)(=O)[O-])ccc5F)c5ccc([nH]5)c(-c5cc(S(=O)(=O)[O-])ccc5F)c5nc(c(-c6cc(S(=O)(=O)[O-])ccc6F)c6ccc3[nH]6)C=C5)C=C4)cc2)C1=O
REMARK SMILES IDX 20 1 19 2 18 3 17 4 16 5 14 6 15 7 9 8 8 9 7 10 1 11 2 12
REMARK SMILES IDX 3 13 88 14 4 15 5 16 89 17 6 18 10 19 11 20 12 21 13 22
REMARK SMILES IDX 21 23 22 24 23 25 24 26 25 27 26 28 87 29 27 30 86 31 28 32
REMARK SMILES IDX 29 33 30 34 80 35 31 36 85 37 79 38 81 39 32 40 84 41 78 42
REMARK SMILES IDX 77 43 33 45 65 46 45 47 64 48 46 49 49 50 63 51 82 52 47 53
REMARK SMILES IDX 48 54 62 56 83 57 50 58 34 59 35 60 43 61 36 62 42 63 44 64
REMARK SMILES IDX 41 65 37 66 38 67 39 68 40 69 66 70 67 71 75 72 68 73 74 74
REMARK SMILES IDX 76 75 73 76 69 77 70 78 71 79 72 80 51 81 52 82 60 83 53 84
REMARK SMILES IDX 59 85 61 86 58 87 54 88 55 89 56 90 57 91
REMARK H PARENT 81 44 49 55
REMARK Flexibility Score: inf
ROOT
ATOM      1  C   UNL A   1      31.391  30.808  25.758  1.00  0.00     0.202 C 
ENDROOT
BRANCH   1   2
ATOM      2  O   UNL A   1      32.552  30.094  25.347  1.00  0.00    -0.374 OA
BRANCH   2   3
ATOM      3  C   UNL A   1      32.815  28.837  25.970  1.00  0.00     0.202 C 
BRANCH   3   4
ATOM      4  C   UNL A   1      33.708  27.855  25.207  1.00  0.00     0.261 C 
BRANCH   4   5
ATOM      5  O   UNL A   1      33.884  28.239  23.830  1.00  0.00    -0.463 OA
BRANCH   5   6
ATOM      6  C   UNL A   1      33.619  27.287  22.894  1.00  0.00     0.310 C 
ATOM      7  O   UNL A   1      33.809  27.401  21.690  1.00  0.00    -0.252 OA
BRANCH   6   8
ATOM      8  C   UNL A   1      33.027  26.027  23.507  1.00  0.00     0.119 C 
BRANCH   8   9
ATOM      9  C   UNL A   1      33.909  24.825  23.093  1.00  0.00     0.144 C 
BRANCH   9  10
ATOM     10  N   UNL A   1      33.772  23.671  23.968  1.00  0.00    -0.274 N 
ATOM     11  C   UNL A   1      33.654  22.225  27.326  1.00  0.00     0.051 C 
ATOM     12  C   UNL A   1      33.624  22.430  25.862  1.00  0.00     0.023 C 
ATOM     13  C   UNL A   1      33.018  21.733  24.894  1.00  0.00     0.023 C 
ATOM     14  C   UNL A   1      34.266  23.592  25.231  1.00  0.00     0.256 C 
ATOM     15  C   UNL A   1      32.245  20.476  24.977  1.00  0.00     0.051 C 
ATOM     16  C   UNL A   1      33.123  22.522  23.653  1.00  0.00     0.256 C 
ATOM     17  O   UNL A   1      35.064  24.322  25.778  1.00  0.00    -0.269 OA
ATOM     18  O   UNL A   1      32.652  22.197  22.577  1.00  0.00    -0.269 OA
ENDBRANCH   9  10
ENDBRANCH   8   9
BRANCH   8  19
ATOM     19  C   UNL A   1      31.515  25.840  23.228  1.00  0.00     0.020 C 
BRANCH  19  20
ATOM     20  C   UNL A   1      30.576  26.160  24.410  1.00  0.00    -0.017 C 
ATOM     21  C   UNL A   1      29.130  26.396  23.984  1.00  0.00     0.007 C 
ATOM     22  C   UNL A   1      30.632  25.002  25.416  1.00  0.00     0.007 C 
ENDBRANCH  19  20
ENDBRANCH   8  19
ENDBRANCH   6   8
ENDBRANCH   5   6
ENDBRANCH   4   5
ENDBRANCH   3   4
ENDBRANCH   2   3
ENDBRANCH   1   2
BRANCH   1  23
ATOM     23  C   UNL A   1      31.597  32.135  26.502  1.00  0.00     0.261 C 
BRANCH  23  24
ATOM     24  O   UNL A   1      32.458  32.031  27.644  1.00  0.00    -0.460 OA
BRANCH  24  25
ATOM     25  C   UNL A   1      33.407  32.998  27.702  1.00  0.00     0.338 C 
ATOM     26  O   UNL A   1      33.235  34.203  27.619  1.00  0.00    -0.246 OA
BRANCH  25  27
ATOM     27  C   UNL A   1      34.713  32.408  28.043  1.00  0.00     0.060 A 
ATOM     28  C   UNL A   1      34.747  31.032  28.294  1.00  0.00     0.016 A 
ATOM     29  C   UNL A   1      35.853  33.196  28.214  1.00  0.00     0.016 A 
ATOM     30  C   UNL A   1      35.913  30.444  28.774  1.00  0.00     0.010 A 
ATOM     31  C   UNL A   1      37.023  32.603  28.698  1.00  0.00     0.010 A 
ATOM     32  C   UNL A   1      37.046  31.232  29.016  1.00  0.00    -0.014 A 
BRANCH  32  33
ATOM     33  C   UNL A   1      38.196  30.643  29.743  1.00  0.00     0.031 A 
ATOM     34  C   UNL A   1      38.440  31.050  31.171  1.00  0.00     0.074 A 
ATOM     35  C   UNL A   1      38.977  29.720  29.152  1.00  0.00     0.049 A 
ATOM     36  N   UNL A   1      39.391  30.683  31.987  1.00  0.00    -0.248 NA
ATOM     37  C   UNL A   1      37.477  31.999  31.756  1.00  0.00     0.031 C 
ATOM     38  C   UNL A   1      38.787  29.205  27.798  1.00  0.00     0.029 A 
ATOM     39  N   UNL A   1      40.079  29.049  29.614  1.00  0.00    -0.354 N 
ATOM     40  C   UNL A   1      39.139  31.343  33.185  1.00  0.00     0.074 A 
ATOM     41  C   UNL A   1      37.974  32.174  32.970  1.00  0.00     0.031 C 
ATOM     42  C   UNL A   1      39.749  28.305  27.532  1.00  0.00     0.029 A 
ATOM     43  C   UNL A   1      40.640  28.203  28.685  1.00  0.00     0.049 A 
ATOM     44  H   UNL A   1      40.437  29.161  30.524  1.00  0.00     0.167 HD
ATOM     45  C   UNL A   1      39.807  31.249  34.362  1.00  0.00     0.034 A 
ATOM     46  C   UNL A   1      41.755  27.448  28.755  1.00  0.00     0.034 A 
ATOM     47  C   UNL A   1      40.974  30.423  34.552  1.00  0.00     0.049 A 
ATOM     48  C   UNL A   1      42.545  27.445  30.044  1.00  0.00     0.074 A 
ATOM     49  C   UNL A   1      41.739  30.260  35.694  1.00  0.00     0.029 A 
ATOM     50  N   UNL A   1      41.548  29.622  33.573  1.00  0.00    -0.354 N 
ATOM     51  N   UNL A   1      42.296  28.079  31.168  1.00  0.00    -0.248 NA
ATOM     52  C   UNL A   1      43.755  26.615  30.079  1.00  0.00     0.031 C 
ATOM     53  C   UNL A   1      42.811  29.415  35.386  1.00  0.00     0.029 A 
ATOM     54  C   UNL A   1      42.672  28.986  34.076  1.00  0.00     0.049 A 
ATOM     55  H   UNL A   1      41.207  29.521  32.655  1.00  0.00     0.167 HD
ATOM     56  C   UNL A   1      43.297  27.687  32.054  1.00  0.00     0.074 A 
ATOM     57  C   UNL A   1      44.141  26.755  31.337  1.00  0.00     0.031 C 
ATOM     58  C   UNL A   1      43.501  28.059  33.344  1.00  0.00     0.034 A 
BRANCH  45  59
ATOM     59  C   UNL A   1      39.312  32.090  35.512  1.00  0.00     0.023 A 
ATOM     60  C   UNL A   1      39.720  33.425  35.678  1.00  0.00     0.031 A 
ATOM     61  C   UNL A   1      38.429  31.547  36.462  1.00  0.00     0.131 A 
ATOM     62  C   UNL A   1      39.292  34.153  36.801  1.00  0.00     0.055 A 
ATOM     63  C   UNL A   1      37.949  32.300  37.535  1.00  0.00     0.041 A 
ATOM     64  F   UNL A   1      38.024  30.271  36.368  1.00  0.00    -0.206 F 
ATOM     65  C   UNL A   1      38.390  33.607  37.715  1.00  0.00     0.022 A 
BRANCH  62  66
ATOM     66  S   UNL A   1      40.030  35.780  37.111  1.00  0.00     0.124 S 
ATOM     67  O   UNL A   1      39.332  36.192  38.327  1.00  0.00    -0.237 OA
ATOM     68  O   UNL A   1      41.445  35.463  37.263  1.00  0.00    -0.237 OA
ATOM     69  O   UNL A   1      39.687  36.545  35.914  1.00  0.00    -0.744 OA
ENDBRANCH  62  66
ENDBRANCH  45  59
BRANCH  46  70
ATOM     70  C   UNL A   1      42.219  26.657  27.579  1.00  0.00     0.023 A 
ATOM     71  C   UNL A   1      41.859  25.309  27.424  1.00  0.00     0.031 A 
ATOM     72  C   UNL A   1      43.101  27.214  26.635  1.00  0.00     0.131 A 
ATOM     73  C   UNL A   1      42.429  24.545  26.393  1.00  0.00     0.055 A 
ATOM     74  C   UNL A   1      43.616  26.467  25.573  1.00  0.00     0.041 A 
ATOM     75  F   UNL A   1      43.478  28.499  26.731  1.00  0.00    -0.206 F 
ATOM     76  C   UNL A   1      43.295  25.118  25.459  1.00  0.00     0.022 A 
BRANCH  73  77
ATOM     77  S   UNL A   1      42.117  22.758  26.366  1.00  0.00     0.124 S 
ATOM     78  O   UNL A   1      42.600  22.394  25.040  1.00  0.00    -0.237 OA
ATOM     79  O   UNL A   1      42.921  22.297  27.493  1.00  0.00    -0.237 OA
ATOM     80  O   UNL A   1      40.670  22.664  26.553  1.00  0.00    -0.744 OA
ENDBRANCH  73  77
ENDBRANCH  46  70
BRANCH  58  81
ATOM     81  C   UNL A   1      44.653  27.408  34.069  1.00  0.00     0.023 A 
ATOM     82  C   UNL A   1      44.484  26.236  34.826  1.00  0.00     0.031 A 
ATOM     83  C   UNL A   1      45.937  27.980  34.010  1.00  0.00     0.131 A 
ATOM     84  C   UNL A   1      45.566  25.707  35.544  1.00  0.00     0.055 A 
ATOM     85  C   UNL A   1      47.024  27.412  34.674  1.00  0.00     0.041 A 
ATOM     86  F   UNL A   1      46.154  29.099  33.302  1.00  0.00    -0.206 F 
ATOM     87  C   UNL A   1      46.839  26.277  35.459  1.00  0.00     0.022 A 
BRANCH  84  88
ATOM     88  S   UNL A   1      45.265  24.317  36.669  1.00  0.00     0.124 S 
ATOM     89  O   UNL A   1      46.623  23.912  37.019  1.00  0.00    -0.237 OA
ATOM     90  O   UNL A   1      44.491  24.941  37.737  1.00  0.00    -0.237 OA
ATOM     91  O   UNL A   1      44.525  23.362  35.845  1.00  0.00    -0.744 OA
ENDBRANCH  84  88
ENDBRANCH  58  81
ENDBRANCH  32  33
ENDBRANCH  25  27
ENDBRANCH  24  25
ENDBRANCH  23  24
ENDBRANCH   1  23
TORSDOF 21
ENDMDL
MODEL 2
REMARK VINA RESULT:     -10.3      4.464     10.044
REMARK SMILES CC1=C(C)C(=O)N(C[C@H](CC(C)C)C(=O)OCCOCCOC(=O)c2ccc(-c3c4nc(c(-c5cc(S(=O)(=O)[O-])ccc5F)c5ccc([nH]5)c(-c5cc(S(=O)(=O)[O-])ccc5F)c5nc(c(-c6cc(S(=O)(=O)[O-])ccc6F)c6ccc3[nH]6)C=C5)C=C4)cc2)C1=O
REMARK SMILES IDX 20 1 19 2 18 3 17 4 16 5 14 6 15 7 9 8 8 9 7 10 1 11 2 12
REMARK SMILES IDX 3 13 88 14 4 15 5 16 89 17 6 18 10 19 11 20 12 21 13 22
REMARK SMILES IDX 21 23 22 24 23 25 24 26 25 27 26 28 87 29 27 30 86 31 28 32
REMARK SMILES IDX 29 33 30 34 80 35 31 36 85 37 79 38 81 39 32 40 84 41 78 42
REMARK SMILES IDX 77 43 33 45 65 46 45 47 64 48 46 49 49 50 63 51 82 52 47 53
REMARK SMILES IDX 48 54 62 56 83 57 50 58 34 59 35 60 43 61 36 62 42 63 44 64
REMARK SMILES IDX 41 65 37 66 38 67 39 68 40 69 66 70 67 71 75 72 68 73 74 74
REMARK SMILES IDX 76 75 73 76 69 77 70 78 71 79 72 80 51 81 52 82 60 83 53 84
REMARK SMILES IDX 59 85 61 86 58 87 54 88 55 89 56 90 57 91
REMARK H PARENT 81 44 49 55
REMARK Flexibility Score: inf
ROOT
ATOM      1  C   UNL A   1      36.298  19.576  24.996  1.00  0.00     0.202 C 
ENDROOT
BRANCH   1   2
ATOM      2  O   UNL A   1      35.400  20.680  24.955  1.00  0.00    -0.374 OA
BRANCH   2   3
ATOM      3  C   UNL A   1      34.016  20.421  25.189  1.00  0.00     0.202 C 
BRANCH   3   4
ATOM      4  C   UNL A   1      33.398  21.025  26.453  1.00  0.00     0.261 C 
BRANCH   4   5
ATOM      5  O   UNL A   1      33.594  22.451  26.524  1.00  0.00    -0.463 OA
BRANCH   5   6
ATOM      6  C   UNL A   1      32.490  23.204  26.780  1.00  0.00     0.310 C 
ATOM      7  O   UNL A   1      31.643  22.958  27.630  1.00  0.00    -0.252 OA
BRANCH   6   8
ATOM      8  C   UNL A   1      32.396  24.416  25.865  1.00  0.00     0.119 C 
BRANCH   8   9
ATOM      9  C   UNL A   1      31.014  25.079  26.080  1.00  0.00     0.144 C 
BRANCH   9  10
ATOM     10  N   UNL A   1      30.948  26.455  25.613  1.00  0.00    -0.274 N 
ATOM     11  C   UNL A   1      32.093  29.926  25.781  1.00  0.00     0.051 C 
ATOM     12  C   UNL A   1      31.408  28.668  25.410  1.00  0.00     0.023 C 
ATOM     13  C   UNL A   1      30.859  28.279  24.254  1.00  0.00     0.023 C 
ATOM     14  C   UNL A   1      31.303  27.542  26.348  1.00  0.00     0.256 C 
ATOM     15  C   UNL A   1      30.689  29.027  22.991  1.00  0.00     0.051 C 
ATOM     16  C   UNL A   1      30.540  26.846  24.380  1.00  0.00     0.256 C 
ATOM     17  O   UNL A   1      31.517  27.611  27.539  1.00  0.00    -0.269 OA
ATOM     18  O   UNL A   1      30.052  26.159  23.499  1.00  0.00    -0.269 OA
ENDBRANCH   9  10
ENDBRANCH   8   9
BRANCH   8  19
ATOM     19  C   UNL A   1      32.742  24.118  24.385  1.00  0.00     0.020 C 
BRANCH  19  20
ATOM     20  C   UNL A   1      34.011  24.811  23.847  1.00  0.00    -0.017 C 
ATOM     21  C   UNL A   1      35.151  23.839  23.556  1.00  0.00     0.007 C 
ATOM     22  C   UNL A   1      33.652  25.578  22.567  1.00  0.00     0.007 C 
ENDBRANCH  19  20
ENDBRANCH   8  19
ENDBRANCH   6   8
ENDBRANCH   5   6
ENDBRANCH   4   5
ENDBRANCH   3   4
ENDBRANCH   2   3
ENDBRANCH   1   2
BRANCH   1  23
ATOM     23  C   UNL A   1      37.791  19.865  24.786  1.00  0.00     0.261 C 
BRANCH  23  24
ATOM     24  O   UNL A   1      38.247  21.058  25.436  1.00  0.00    -0.460 OA
BRANCH  24  25
ATOM     25  C   UNL A   1      39.410  20.898  26.116  1.00  0.00     0.338 C 
ATOM     26  O   UNL A   1      40.125  19.910  26.128  1.00  0.00    -0.246 OA
BRANCH  25  27
ATOM     27  C   UNL A   1      39.805  22.167  26.751  1.00  0.00     0.060 A 
ATOM     28  C   UNL A   1      39.151  23.327  26.322  1.00  0.00     0.016 A 
ATOM     29  C   UNL A   1      40.859  22.235  27.665  1.00  0.00     0.016 A 
ATOM     30  C   UNL A   1      39.587  24.572  26.765  1.00  0.00     0.010 A 
ATOM     31  C   UNL A   1      41.296  23.487  28.107  1.00  0.00     0.010 A 
ATOM     32  C   UNL A   1      40.687  24.662  27.629  1.00  0.00    -0.014 A 
BRANCH  32  33
ATOM     33  C   UNL A   1      41.285  25.991  27.905  1.00  0.00     0.031 A 
ATOM     34  C   UNL A   1      42.685  26.271  27.430  1.00  0.00     0.074 A 
ATOM     35  C   UNL A   1      40.568  26.947  28.522  1.00  0.00     0.049 A 
ATOM     36  N   UNL A   1      43.411  27.347  27.578  1.00  0.00    -0.248 NA
ATOM     37  C   UNL A   1      43.353  25.190  26.685  1.00  0.00     0.031 C 
ATOM     38  C   UNL A   1      39.182  26.804  28.961  1.00  0.00     0.029 A 
ATOM     39  N   UNL A   1      40.901  28.228  28.881  1.00  0.00    -0.354 N 
ATOM     40  C   UNL A   1      44.617  27.081  26.937  1.00  0.00     0.074 A 
ATOM     41  C   UNL A   1      44.542  25.722  26.445  1.00  0.00     0.031 C 
ATOM     42  C   UNL A   1      38.784  27.948  29.543  1.00  0.00     0.029 A 
ATOM     43  C   UNL A   1      39.897  28.895  29.545  1.00  0.00     0.049 A 
ATOM     44  H   UNL A   1      41.777  28.632  28.684  1.00  0.00     0.167 HD
ATOM     45  C   UNL A   1      45.681  27.903  26.759  1.00  0.00     0.034 A 
ATOM     46  C   UNL A   1      39.888  30.120  30.104  1.00  0.00     0.034 A 
ATOM     47  C   UNL A   1      45.741  29.251  27.268  1.00  0.00     0.049 A 
ATOM     48  C   UNL A   1      41.127  30.978  29.987  1.00  0.00     0.074 A 
ATOM     49  C   UNL A   1      46.771  30.169  27.160  1.00  0.00     0.029 A 
ATOM     50  N   UNL A   1      44.728  29.874  27.985  1.00  0.00    -0.354 N 
ATOM     51  N   UNL A   1      42.263  30.710  29.381  1.00  0.00    -0.248 NA
ATOM     52  C   UNL A   1      41.079  32.304  30.614  1.00  0.00     0.031 C 
ATOM     53  C   UNL A   1      46.408  31.321  27.867  1.00  0.00     0.029 A 
ATOM     54  C   UNL A   1      45.120  31.153  28.349  1.00  0.00     0.049 A 
ATOM     55  H   UNL A   1      43.858  29.468  28.202  1.00  0.00     0.167 HD
ATOM     56  C   UNL A   1      43.045  31.854  29.521  1.00  0.00     0.074 A 
ATOM     57  C   UNL A   1      42.247  32.815  30.253  1.00  0.00     0.031 C 
ATOM     58  C   UNL A   1      44.307  32.096  29.081  1.00  0.00     0.034 A 
BRANCH  45  59
ATOM     59  C   UNL A   1      46.873  27.347  26.021  1.00  0.00     0.023 A 
ATOM     60  C   UNL A   1      47.911  26.678  26.693  1.00  0.00     0.031 A 
ATOM     61  C   UNL A   1      46.981  27.498  24.626  1.00  0.00     0.131 A 
ATOM     62  C   UNL A   1      49.037  26.237  25.979  1.00  0.00     0.055 A 
ATOM     63  C   UNL A   1      48.068  26.992  23.913  1.00  0.00     0.041 A 
ATOM     64  F   UNL A   1      46.032  28.149  23.935  1.00  0.00    -0.206 F 
ATOM     65  C   UNL A   1      49.110  26.367  24.591  1.00  0.00     0.022 A 
BRANCH  62  66
ATOM     66  S   UNL A   1      50.459  25.602  26.909  1.00  0.00     0.124 S 
ATOM     67  O   UNL A   1      49.872  24.452  27.592  1.00  0.00    -0.237 OA
ATOM     68  O   UNL A   1      51.418  25.299  25.854  1.00  0.00    -0.237 OA
ATOM     69  O   UNL A   1      50.822  26.717  27.782  1.00  0.00    -0.744 OA
ENDBRANCH  62  66
ENDBRANCH  45  59
BRANCH  46  70
ATOM     70  C   UNL A   1      38.694  30.613  30.851  1.00  0.00     0.023 A 
ATOM     71  C   UNL A   1      37.598  31.173  30.176  1.00  0.00     0.031 A 
ATOM     72  C   UNL A   1      38.667  30.608  32.257  1.00  0.00     0.131 A 
ATOM     73  C   UNL A   1      36.554  31.765  30.906  1.00  0.00     0.055 A 
ATOM     74  C   UNL A   1      37.597  31.141  32.979  1.00  0.00     0.041 A 
ATOM     75  F   UNL A   1      39.687  30.083  32.956  1.00  0.00    -0.206 F 
ATOM     76  C   UNL A   1      36.540  31.742  32.302  1.00  0.00     0.022 A 
BRANCH  73  77
ATOM     77  S   UNL A   1      35.275  32.678  30.000  1.00  0.00     0.124 S 
ATOM     78  O   UNL A   1      34.223  32.787  31.003  1.00  0.00    -0.237 OA
ATOM     79  O   UNL A   1      35.972  33.914  29.661  1.00  0.00    -0.237 OA
ATOM     80  O   UNL A   1      34.972  31.803  28.868  1.00  0.00    -0.744 OA
ENDBRANCH  73  77
ENDBRANCH  46  70
BRANCH  58  81
ATOM     81  C   UNL A   1      44.870  33.471  29.338  1.00  0.00     0.023 A 
ATOM     82  C   UNL A   1      45.609  33.764  30.497  1.00  0.00     0.031 A 
ATOM     83  C   UNL A   1      44.652  34.507  28.411  1.00  0.00     0.131 A 
ATOM     84  C   UNL A   1      46.050  35.075  30.731  1.00  0.00     0.055 A 
ATOM     85  C   UNL A   1      45.149  35.794  28.619  1.00  0.00     0.041 A 
ATOM     86  F   UNL A   1      43.953  34.282  27.288  1.00  0.00    -0.206 F 
ATOM     87  C   UNL A   1      45.841  36.087  29.791  1.00  0.00     0.022 A 
BRANCH  84  88
ATOM     88  S   UNL A   1      46.819  35.461  32.327  1.00  0.00     0.124 S 
ATOM     89  O   UNL A   1      46.146  34.525  33.222  1.00  0.00    -0.237 OA
ATOM     90  O   UNL A   1      48.230  35.193  32.068  1.00  0.00    -0.237 OA
ATOM     91  O   UNL A   1      46.485  36.869  32.537  1.00  0.00    -0.744 OA
ENDBRANCH  84  88
ENDBRANCH  58  81
ENDBRANCH  32  33
ENDBRANCH  25  27
ENDBRANCH  24  25
ENDBRANCH  23  24
ENDBRANCH   1  23
TORSDOF 21
ENDMDL
MODEL 3
REMARK VINA RESULT:     -10.3      4.658     10.268
REMARK SMILES CC1=C(C)C(=O)N(C[C@H](CC(C)C)C(=O)OCCOCCOC(=O)c2ccc(-c3c4nc(c(-c5cc(S(=O)(=O)[O-])ccc5F)c5ccc([nH]5)c(-c5cc(S(=O)(=O)[O-])ccc5F)c5nc(c(-c6cc(S(=O)(=O)[O-])ccc6F)c6ccc3[nH]6)C=C5)C=C4)cc2)C1=O
REMARK SMILES IDX 20 1 19 2 18 3 17 4 16 5 14 6 15 7 9 8 8 9 7 10 1 11 2 12
REMARK SMILES IDX 3 13 88 14 4 15 5 16 89 17 6 18 10 19 11 20 12 21 13 22
REMARK SMILES IDX 21 23 22 24 23 25 24 26 25 27 26 28 87 29 27 30 86 31 28 32
REMARK SMILES IDX 29 33 30 34 80 35 31 36 85 37 79 38 81 39 32 40 84 41 78 42
REMARK SMILES IDX 77 43 33 45 65 46 45 47 64 48 46 49 49 50 63 51 82 52 47 53
REMARK SMILES IDX 48 54 62 56 83 57 50 58 34 59 35 60 43 61 36 62 42 63 44 64
REMARK SMILES IDX 41 65 37 66 38 67 39 68 40 69 66 70 67 71 75 72 68 73 74 74
REMARK SMILES IDX 76 75 73 76 69 77 70 78 71 79 72 80 51 81 52 82 60 83 53 84
REMARK SMILES IDX 59 85 61 86 58 87 54 88 55 89 56 90 57 91
REMARK H PARENT 81 44 49 55
REMARK Flexibility Score: inf
ROOT
ATOM      1  C   UNL A   1      36.003  20.467  24.769  1.00  0.00     0.202 C 
ENDROOT
BRANCH   1   2
ATOM      2  O   UNL A   1      35.806  21.831  24.413  1.00  0.00    -0.374 OA
BRANCH   2   3
ATOM      3  C   UNL A   1      34.595  22.459  24.831  1.00  0.00     0.202 C 
BRANCH   3   4
ATOM      4  C   UNL A   1      34.121  23.668  24.019  1.00  0.00     0.261 C 
BRANCH   4   5
ATOM      5  O   UNL A   1      32.723  23.946  24.228  1.00  0.00    -0.463 OA
BRANCH   5   6
ATOM      6  C   UNL A   1      32.405  24.662  25.342  1.00  0.00     0.310 C 
ATOM      7  O   UNL A   1      32.332  24.211  26.479  1.00  0.00    -0.252 OA
BRANCH   6   8
ATOM      8  C   UNL A   1      32.124  26.122  25.026  1.00  0.00     0.119 C 
BRANCH   8   9
ATOM      9  C   UNL A   1      31.556  26.208  23.588  1.00  0.00     0.144 C 
BRANCH   9  10
ATOM     10  N   UNL A   1      30.600  27.288  23.401  1.00  0.00    -0.274 N 
ATOM     11  C   UNL A   1      29.557  30.347  21.689  1.00  0.00     0.051 C 
ATOM     12  C   UNL A   1      29.623  29.156  22.564  1.00  0.00     0.023 C 
ATOM     13  C   UNL A   1      28.651  28.432  23.129  1.00  0.00     0.023 C 
ATOM     14  C   UNL A   1      30.902  28.511  22.894  1.00  0.00     0.256 C 
ATOM     15  C   UNL A   1      27.189  28.645  23.123  1.00  0.00     0.051 C 
ATOM     16  C   UNL A   1      29.277  27.222  23.692  1.00  0.00     0.256 C 
ATOM     17  O   UNL A   1      31.992  29.007  22.715  1.00  0.00    -0.269 OA
ATOM     18  O   UNL A   1      28.677  26.324  24.258  1.00  0.00    -0.269 OA
ENDBRANCH   9  10
ENDBRANCH   8   9
BRANCH   8  19
ATOM     19  C   UNL A   1      33.319  27.069  25.301  1.00  0.00     0.020 C 
BRANCH  19  20
ATOM     20  C   UNL A   1      33.270  27.828  26.643  1.00  0.00    -0.017 C 
ATOM     21  C   UNL A   1      34.158  29.068  26.666  1.00  0.00     0.007 C 
ATOM     22  C   UNL A   1      31.817  28.233  26.931  1.00  0.00     0.007 C 
ENDBRANCH  19  20
ENDBRANCH   8  19
ENDBRANCH   6   8
ENDBRANCH   5   6
ENDBRANCH   4   5
ENDBRANCH   3   4
ENDBRANCH   2   3
ENDBRANCH   1   2
BRANCH   1  23
ATOM     23  C   UNL A   1      37.417  20.038  25.189  1.00  0.00     0.261 C 
BRANCH  23  24
ATOM     24  O   UNL A   1      38.362  21.115  25.223  1.00  0.00    -0.460 OA
BRANCH  24  25
ATOM     25  C   UNL A   1      39.415  20.890  26.048  1.00  0.00     0.338 C 
ATOM     26  O   UNL A   1      40.042  19.851  26.174  1.00  0.00    -0.246 OA
BRANCH  25  27
ATOM     27  C   UNL A   1      39.831  22.146  26.695  1.00  0.00     0.060 A 
ATOM     28  C   UNL A   1      39.144  23.310  26.332  1.00  0.00     0.016 A 
ATOM     29  C   UNL A   1      40.931  22.202  27.554  1.00  0.00     0.016 A 
ATOM     30  C   UNL A   1      39.589  24.547  26.785  1.00  0.00     0.010 A 
ATOM     31  C   UNL A   1      41.377  23.447  28.007  1.00  0.00     0.010 A 
ATOM     32  C   UNL A   1      40.732  24.627  27.593  1.00  0.00    -0.014 A 
BRANCH  32  33
ATOM     33  C   UNL A   1      41.331  25.955  27.873  1.00  0.00     0.031 A 
ATOM     34  C   UNL A   1      42.730  26.236  27.398  1.00  0.00     0.074 A 
ATOM     35  C   UNL A   1      40.614  26.909  28.493  1.00  0.00     0.049 A 
ATOM     36  N   UNL A   1      43.457  27.312  27.550  1.00  0.00    -0.248 NA
ATOM     37  C   UNL A   1      43.398  25.158  26.650  1.00  0.00     0.031 C 
ATOM     38  C   UNL A   1      39.227  26.765  28.932  1.00  0.00     0.029 A 
ATOM     39  N   UNL A   1      40.947  28.189  28.857  1.00  0.00    -0.354 N 
ATOM     40  C   UNL A   1      44.663  27.048  26.908  1.00  0.00     0.074 A 
ATOM     41  C   UNL A   1      44.587  25.690  26.412  1.00  0.00     0.031 C 
ATOM     42  C   UNL A   1      38.830  27.907  29.518  1.00  0.00     0.029 A 
ATOM     43  C   UNL A   1      39.943  28.853  29.523  1.00  0.00     0.049 A 
ATOM     44  H   UNL A   1      41.823  28.594  28.660  1.00  0.00     0.167 HD
ATOM     45  C   UNL A   1      45.726  27.870  26.733  1.00  0.00     0.034 A 
ATOM     46  C   UNL A   1      39.934  30.077  30.086  1.00  0.00     0.034 A 
ATOM     47  C   UNL A   1      45.786  29.217  27.245  1.00  0.00     0.049 A 
ATOM     48  C   UNL A   1      41.174  30.935  29.972  1.00  0.00     0.074 A 
ATOM     49  C   UNL A   1      46.817  30.135  27.141  1.00  0.00     0.029 A 
ATOM     50  N   UNL A   1      44.773  29.838  27.965  1.00  0.00    -0.354 N 
ATOM     51  N   UNL A   1      42.309  30.670  29.365  1.00  0.00    -0.248 NA
ATOM     52  C   UNL A   1      41.126  32.260  30.603  1.00  0.00     0.031 C 
ATOM     53  C   UNL A   1      46.453  31.284  27.851  1.00  0.00     0.029 A 
ATOM     54  C   UNL A   1      45.165  31.116  28.333  1.00  0.00     0.049 A 
ATOM     55  H   UNL A   1      43.903  29.431  28.181  1.00  0.00     0.167 HD
ATOM     56  C   UNL A   1      43.091  31.813  29.508  1.00  0.00     0.074 A 
ATOM     57  C   UNL A   1      42.293  32.771  30.243  1.00  0.00     0.031 C 
ATOM     58  C   UNL A   1      44.353  32.056  29.068  1.00  0.00     0.034 A 
BRANCH  45  59
ATOM     59  C   UNL A   1      46.918  27.317  25.992  1.00  0.00     0.023 A 
ATOM     60  C   UNL A   1      47.957  26.648  26.662  1.00  0.00     0.031 A 
ATOM     61  C   UNL A   1      47.024  27.470  24.598  1.00  0.00     0.131 A 
ATOM     62  C   UNL A   1      49.083  26.209  25.946  1.00  0.00     0.055 A 
ATOM     63  C   UNL A   1      48.111  26.966  23.883  1.00  0.00     0.041 A 
ATOM     64  F   UNL A   1      46.074  28.121  23.909  1.00  0.00    -0.206 F 
ATOM     65  C   UNL A   1      49.155  26.341  24.559  1.00  0.00     0.022 A 
BRANCH  62  66
ATOM     66  S   UNL A   1      50.506  25.574  26.874  1.00  0.00     0.124 S 
ATOM     67  O   UNL A   1      51.411  25.186  25.795  1.00  0.00    -0.237 OA
ATOM     68  O   UNL A   1      50.912  26.731  27.664  1.00  0.00    -0.237 OA
ATOM     69  O   UNL A   1      49.947  24.462  27.639  1.00  0.00    -0.744 OA
ENDBRANCH  62  66
ENDBRANCH  45  59
BRANCH  46  70
ATOM     70  C   UNL A   1      38.740  30.568  30.834  1.00  0.00     0.023 A 
ATOM     71  C   UNL A   1      37.666  31.177  30.167  1.00  0.00     0.031 A 
ATOM     72  C   UNL A   1      38.693  30.510  32.239  1.00  0.00     0.131 A 
ATOM     73  C   UNL A   1      36.625  31.764  30.904  1.00  0.00     0.055 A 
ATOM     74  C   UNL A   1      37.624  31.039  32.966  1.00  0.00     0.041 A 
ATOM     75  F   UNL A   1      39.690  29.936  32.931  1.00  0.00    -0.206 F 
ATOM     76  C   UNL A   1      36.591  31.688  32.298  1.00  0.00     0.022 A 
BRANCH  73  77
ATOM     77  S   UNL A   1      35.379  32.739  30.016  1.00  0.00     0.124 S 
ATOM     78  O   UNL A   1      34.965  31.808  28.973  1.00  0.00    -0.237 OA
ATOM     79  O   UNL A   1      34.402  33.004  31.066  1.00  0.00    -0.237 OA
ATOM     80  O   UNL A   1      36.129  33.905  29.553  1.00  0.00    -0.744 OA
ENDBRANCH  73  77
ENDBRANCH  46  70
BRANCH  58  81
ATOM     81  C   UNL A   1      44.916  33.431  29.330  1.00  0.00     0.023 A 
ATOM     82  C   UNL A   1      44.830  34.459  28.376  1.00  0.00     0.031 A 
ATOM     83  C   UNL A   1      45.560  33.709  30.549  1.00  0.00     0.131 A 
ATOM     84  C   UNL A   1      45.432  35.700  28.631  1.00  0.00     0.055 A 
ATOM     85  C   UNL A   1      46.100  34.965  30.823  1.00  0.00     0.041 A 
ATOM     86  F   UNL A   1      45.670  32.763  31.495  1.00  0.00    -0.206 F 
ATOM     87  C   UNL A   1      46.051  35.966  29.856  1.00  0.00     0.022 A 
BRANCH  84  88
ATOM     88  S   UNL A   1      45.480  36.933  27.302  1.00  0.00     0.124 S 
ATOM     89  O   UNL A   1      44.070  37.280  27.161  1.00  0.00    -0.237 OA
ATOM     90  O   UNL A   1      46.338  37.969  27.868  1.00  0.00    -0.237 OA
ATOM     91  O   UNL A   1      46.055  36.200  26.175  1.00  0.00    -0.744 OA
ENDBRANCH  84  88
ENDBRANCH  58  81
ENDBRANCH  32  33
ENDBRANCH  25  27
ENDBRANCH  24  25
ENDBRANCH  23  24
ENDBRANCH   1  23
TORSDOF 21
ENDMDL
