MODEL 1
REMARK VINA RESULT:     -11.6      0.000      0.000
REMARK SMILES CC1(C)[C@H](C(=O)OCCOCCOC(=O)c2ccc(-c3c4nc(c(-c5cc(S(=O)(=O)[O-])ccc5F)c5ccc([nH]5)c(-c5cc(S(=O)(=O)[O-])ccc5F)c5nc(c(-c6cc(S(=O)(=O)[O-])ccc6F)c6ccc3[nH]6)C=C5)C=C4)cc2)[C@@H]1C(=O)Nc1ccc(Cl)c(Br)c1
REMARK SMILES IDX 11 1 10 2 9 3 8 4 7 5 5 6 6 7 4 8 1 9 2 10 3 11 79 12 80 13
REMARK SMILES IDX 81 14 82 15 83 17 84 18 90 19 85 20 88 21 86 22 89 23 87 24
REMARK SMILES IDX 12 25 13 26 14 27 15 28 16 29 17 30 78 31 18 32 77 33 19 34
REMARK SMILES IDX 20 35 21 36 71 37 22 38 76 39 70 40 72 41 23 42 75 43 69 44
REMARK SMILES IDX 68 45 24 47 56 48 36 49 55 50 37 51 40 52 54 53 73 54 38 55
REMARK SMILES IDX 39 56 53 58 74 59 41 60 25 61 26 62 34 63 27 64 33 65 35 66
REMARK SMILES IDX 32 67 28 68 29 69 30 70 31 71 57 72 58 73 66 74 59 75 65 76
REMARK SMILES IDX 67 77 64 78 60 79 61 80 62 81 63 82 42 83 43 84 51 85 44 86
REMARK SMILES IDX 50 87 52 88 49 89 45 90 46 91 47 92 48 93
REMARK H PARENT 82 16 72 46 40 57
REMARK Flexibility Score: inf
ROOT
ATOM      1  C   UNL A   1      36.511  20.208  25.011  1.00  0.00     0.202 C 
ENDROOT
BRANCH   1   2
ATOM      2  O   UNL A   1      35.924  21.190  25.854  1.00  0.00    -0.374 OA
BRANCH   2   3
ATOM      3  C   UNL A   1      34.522  21.199  26.072  1.00  0.00     0.202 C 
BRANCH   3   4
ATOM      4  C   UNL A   1      33.543  21.180  24.885  1.00  0.00     0.261 C 
BRANCH   4   5
ATOM      5  O   UNL A   1      33.861  22.004  23.761  1.00  0.00    -0.463 OA
BRANCH   5   6
ATOM      6  C   UNL A   1      32.769  22.510  23.137  1.00  0.00     0.310 C 
ATOM      7  O   UNL A   1      32.315  22.100  22.078  1.00  0.00    -0.252 OA
BRANCH   6   8
ATOM      8  C   UNL A   1      32.046  23.573  23.870  1.00  0.00     0.118 C 
ATOM      9  C   UNL A   1      31.809  24.906  26.039  1.00  0.00     0.013 C 
ATOM     10  C   UNL A   1      32.611  24.637  24.784  1.00  0.00    -0.009 C 
ATOM     11  C   UNL A   1      34.099  24.768  25.012  1.00  0.00     0.013 C 
ATOM     12  C   UNL A   1      31.990  25.018  23.422  1.00  0.00     0.100 C 
BRANCH  12  13
ATOM     13  C   UNL A   1      32.852  25.689  22.412  1.00  0.00     0.228 C 
ATOM     14  O   UNL A   1      33.295  25.016  21.484  1.00  0.00    -0.274 OA
ATOM     15  N   UNL A   1      33.142  27.029  22.464  1.00  0.00    -0.326 N 
ATOM     16  H   UNL A   1      33.561  27.385  21.647  1.00  0.00     0.169 HD
BRANCH  15  17
ATOM     17  C   UNL A   1      32.947  27.982  23.472  1.00  0.00     0.042 A 
ATOM     18  C   UNL A   1      31.762  28.720  23.422  1.00  0.00     0.028 A 
ATOM     19  C   UNL A   1      33.841  28.186  24.524  1.00  0.00     0.043 A 
ATOM     20  C   UNL A   1      31.397  29.537  24.497  1.00  0.00     0.024 A 
ATOM     21  C   UNL A   1      33.485  29.018  25.597  1.00  0.00     0.038 A 
ATOM     22  C   UNL A   1      32.243  29.664  25.601  1.00  0.00     0.055 A 
ATOM     23  Br  UNL A   1      34.709  29.141  27.046  1.00  0.00    -0.049 Br
ATOM     24  Cl  UNL A   1      31.679  30.602  26.936  1.00  0.00    -0.083 Cl
ENDBRANCH  15  17
ENDBRANCH  12  13
ENDBRANCH   6   8
ENDBRANCH   5   6
ENDBRANCH   4   5
ENDBRANCH   3   4
ENDBRANCH   2   3
ENDBRANCH   1   2
BRANCH   1  25
ATOM     25  C   UNL A   1      38.022  19.964  25.052  1.00  0.00     0.261 C 
BRANCH  25  26
ATOM     26  O   UNL A   1      38.795  21.153  25.279  1.00  0.00    -0.460 OA
BRANCH  26  27
ATOM     27  C   UNL A   1      39.799  20.989  26.178  1.00  0.00     0.338 C 
ATOM     28  O   UNL A   1      40.533  20.021  26.286  1.00  0.00    -0.246 OA
BRANCH  27  29
ATOM     29  C   UNL A   1      40.032  22.232  26.932  1.00  0.00     0.060 A 
ATOM     30  C   UNL A   1      39.300  23.363  26.552  1.00  0.00     0.016 A 
ATOM     31  C   UNL A   1      41.054  22.326  27.879  1.00  0.00     0.016 A 
ATOM     32  C   UNL A   1      39.636  24.612  27.063  1.00  0.00     0.010 A 
ATOM     33  C   UNL A   1      41.397  23.585  28.384  1.00  0.00     0.010 A 
ATOM     34  C   UNL A   1      40.723  24.736  27.938  1.00  0.00    -0.014 A 
BRANCH  34  35
ATOM     35  C   UNL A   1      41.270  26.090  28.205  1.00  0.00     0.031 A 
ATOM     36  C   UNL A   1      42.654  26.418  27.712  1.00  0.00     0.074 A 
ATOM     37  C   UNL A   1      40.523  27.027  28.815  1.00  0.00     0.049 A 
ATOM     38  N   UNL A   1      43.334  27.530  27.817  1.00  0.00    -0.248 NA
ATOM     39  C   UNL A   1      43.366  25.342  27.003  1.00  0.00     0.031 C 
ATOM     40  C   UNL A   1      39.152  26.836  29.287  1.00  0.00     0.029 A 
ATOM     41  N   UNL A   1      40.813  28.329  29.135  1.00  0.00    -0.354 N 
ATOM     42  C   UNL A   1      44.552  27.290  27.189  1.00  0.00     0.074 A 
ATOM     43  C   UNL A   1      44.532  25.914  26.744  1.00  0.00     0.031 C 
ATOM     44  C   UNL A   1      38.722  27.982  29.844  1.00  0.00     0.029 A 
ATOM     45  C   UNL A   1      39.794  28.973  29.796  1.00  0.00     0.049 A 
ATOM     46  H   UNL A   1      41.669  28.760  28.913  1.00  0.00     0.167 HD
ATOM     47  C   UNL A   1      45.587  28.145  26.990  1.00  0.00     0.034 A 
ATOM     48  C   UNL A   1      39.746  30.214  30.320  1.00  0.00     0.034 A 
ATOM     49  C   UNL A   1      45.595  29.511  27.452  1.00  0.00     0.049 A 
ATOM     50  C   UNL A   1      40.944  31.121  30.164  1.00  0.00     0.074 A 
ATOM     51  C   UNL A   1      46.583  30.468  27.302  1.00  0.00     0.029 A 
ATOM     52  N   UNL A   1      44.568  30.114  28.168  1.00  0.00    -0.354 N 
ATOM     53  N   UNL A   1      42.087  30.886  29.560  1.00  0.00    -0.248 NA
ATOM     54  C   UNL A   1      40.840  32.461  30.753  1.00  0.00     0.031 C 
ATOM     55  C   UNL A   1      46.187  31.622  27.987  1.00  0.00     0.029 A 
ATOM     56  C   UNL A   1      44.915  31.416  28.496  1.00  0.00     0.049 A 
ATOM     57  H   UNL A   1      43.717  29.681  28.408  1.00  0.00     0.167 HD
ATOM     58  C   UNL A   1      42.825  32.063  29.672  1.00  0.00     0.074 A 
ATOM     59  C   UNL A   1      41.990  33.008  30.385  1.00  0.00     0.031 C 
ATOM     60  C   UNL A   1      44.075  32.341  29.223  1.00  0.00     0.034 A 
BRANCH  47  61
ATOM     61  C   UNL A   1      46.810  27.600  26.292  1.00  0.00     0.023 A 
ATOM     62  C   UNL A   1      47.116  27.933  24.961  1.00  0.00     0.031 A 
ATOM     63  C   UNL A   1      47.664  26.703  26.958  1.00  0.00     0.131 A 
ATOM     64  C   UNL A   1      48.201  27.320  24.317  1.00  0.00     0.055 A 
ATOM     65  C   UNL A   1      48.789  26.157  26.338  1.00  0.00     0.041 A 
ATOM     66  F   UNL A   1      47.411  26.328  28.222  1.00  0.00    -0.206 F 
ATOM     67  C   UNL A   1      49.055  26.453  25.003  1.00  0.00     0.022 A 
BRANCH  64  68
ATOM     68  S   UNL A   1      48.399  27.559  22.530  1.00  0.00     0.124 S 
ATOM     69  O   UNL A   1      48.458  26.181  22.052  1.00  0.00    -0.237 OA
ATOM     70  O   UNL A   1      47.198  28.308  22.178  1.00  0.00    -0.237 OA
ATOM     71  O   UNL A   1      49.653  28.304  22.421  1.00  0.00    -0.744 OA
ENDBRANCH  64  68
ENDBRANCH  47  61
BRANCH  48  72
ATOM     72  C   UNL A   1      38.543  30.669  31.074  1.00  0.00     0.023 A 
ATOM     73  C   UNL A   1      37.494  31.348  30.436  1.00  0.00     0.031 A 
ATOM     74  C   UNL A   1      38.455  30.480  32.466  1.00  0.00     0.131 A 
ATOM     75  C   UNL A   1      36.426  31.856  31.193  1.00  0.00     0.055 A 
ATOM     76  C   UNL A   1      37.366  30.940  33.207  1.00  0.00     0.041 A 
ATOM     77  F   UNL A   1      39.431  29.836  33.126  1.00  0.00    -0.206 F 
ATOM     78  C   UNL A   1      36.350  31.645  32.572  1.00  0.00     0.022 A 
BRANCH  75  79
ATOM     79  S   UNL A   1      35.176  32.872  30.360  1.00  0.00     0.124 S 
ATOM     80  O   UNL A   1      35.966  34.016  29.922  1.00  0.00    -0.237 OA
ATOM     81  O   UNL A   1      34.710  31.973  29.309  1.00  0.00    -0.237 OA
ATOM     82  O   UNL A   1      34.205  33.149  31.416  1.00  0.00    -0.744 OA
ENDBRANCH  75  79
ENDBRANCH  48  72
BRANCH  60  83
ATOM     83  C   UNL A   1      44.593  33.741  29.459  1.00  0.00     0.023 A 
ATOM     84  C   UNL A   1      44.358  34.781  28.543  1.00  0.00     0.031 A 
ATOM     85  C   UNL A   1      45.348  34.032  30.609  1.00  0.00     0.131 A 
ATOM     86  C   UNL A   1      44.923  36.048  28.763  1.00  0.00     0.055 A 
ATOM     87  C   UNL A   1      45.853  35.309  30.854  1.00  0.00     0.041 A 
ATOM     88  F   UNL A   1      45.605  33.076  31.518  1.00  0.00    -0.206 F 
ATOM     89  C   UNL A   1      45.655  36.322  29.921  1.00  0.00     0.022 A 
BRANCH  86  90
ATOM     90  S   UNL A   1      44.775  37.305  27.464  1.00  0.00     0.124 S 
ATOM     91  O   UNL A   1      44.870  38.544  28.230  1.00  0.00    -0.237 OA
ATOM     92  O   UNL A   1      45.911  36.999  26.602  1.00  0.00    -0.237 OA
ATOM     93  O   UNL A   1      43.463  37.040  26.878  1.00  0.00    -0.744 OA
ENDBRANCH  86  90
ENDBRANCH  60  83
ENDBRANCH  34  35
ENDBRANCH  27  29
ENDBRANCH  26  27
ENDBRANCH  25  26
ENDBRANCH   1  25
TORSDOF 19
ENDMDL
MODEL 2
REMARK VINA RESULT:     -11.5      5.173      8.055
REMARK SMILES CC1(C)[C@H](C(=O)OCCOCCOC(=O)c2ccc(-c3c4nc(c(-c5cc(S(=O)(=O)[O-])ccc5F)c5ccc([nH]5)c(-c5cc(S(=O)(=O)[O-])ccc5F)c5nc(c(-c6cc(S(=O)(=O)[O-])ccc6F)c6ccc3[nH]6)C=C5)C=C4)cc2)[C@@H]1C(=O)Nc1ccc(Cl)c(Br)c1
REMARK SMILES IDX 11 1 10 2 9 3 8 4 7 5 5 6 6 7 4 8 1 9 2 10 3 11 79 12 80 13
REMARK SMILES IDX 81 14 82 15 83 17 84 18 90 19 85 20 88 21 86 22 89 23 87 24
REMARK SMILES IDX 12 25 13 26 14 27 15 28 16 29 17 30 78 31 18 32 77 33 19 34
REMARK SMILES IDX 20 35 21 36 71 37 22 38 76 39 70 40 72 41 23 42 75 43 69 44
REMARK SMILES IDX 68 45 24 47 56 48 36 49 55 50 37 51 40 52 54 53 73 54 38 55
REMARK SMILES IDX 39 56 53 58 74 59 41 60 25 61 26 62 34 63 27 64 33 65 35 66
REMARK SMILES IDX 32 67 28 68 29 69 30 70 31 71 57 72 58 73 66 74 59 75 65 76
REMARK SMILES IDX 67 77 64 78 60 79 61 80 62 81 63 82 42 83 43 84 51 85 44 86
REMARK SMILES IDX 50 87 52 88 49 89 45 90 46 91 47 92 48 93
REMARK H PARENT 82 16 72 46 40 57
REMARK Flexibility Score: inf
ROOT
ATOM      1  C   UNL A   1      31.078  30.237  25.264  1.00  0.00     0.202 C 
ENDROOT
BRANCH   1   2
ATOM      2  O   UNL A   1      30.147  30.454  24.212  1.00  0.00    -0.374 OA
BRANCH   2   3
ATOM      3  C   UNL A   1      30.259  29.727  22.999  1.00  0.00     0.202 C 
BRANCH   3   4
ATOM      4  C   UNL A   1      29.724  28.288  22.893  1.00  0.00     0.261 C 
BRANCH   4   5
ATOM      5  O   UNL A   1      30.474  27.262  23.547  1.00  0.00    -0.463 OA
BRANCH   5   6
ATOM      6  C   UNL A   1      29.794  26.097  23.679  1.00  0.00     0.310 C 
ATOM      7  O   UNL A   1      28.590  26.007  23.879  1.00  0.00    -0.252 OA
BRANCH   6   8
ATOM      8  C   UNL A   1      30.584  24.865  23.463  1.00  0.00     0.118 C 
ATOM      9  C   UNL A   1      32.734  23.825  22.550  1.00  0.00     0.013 C 
ATOM     10  C   UNL A   1      32.075  24.662  23.623  1.00  0.00    -0.009 C 
ATOM     11  C   UNL A   1      32.970  25.776  24.117  1.00  0.00     0.013 C 
ATOM     12  C   UNL A   1      31.079  23.974  24.582  1.00  0.00     0.100 C 
BRANCH  12  13
ATOM     13  C   UNL A   1      31.153  24.295  26.034  1.00  0.00     0.228 C 
ATOM     14  O   UNL A   1      30.322  25.069  26.502  1.00  0.00    -0.274 OA
ATOM     15  N   UNL A   1      32.090  23.736  26.865  1.00  0.00    -0.326 N 
ATOM     16  H   UNL A   1      31.919  23.882  27.824  1.00  0.00     0.169 HD
BRANCH  15  17
ATOM     17  C   UNL A   1      33.247  22.996  26.594  1.00  0.00     0.042 A 
ATOM     18  C   UNL A   1      33.084  21.622  26.390  1.00  0.00     0.028 A 
ATOM     19  C   UNL A   1      34.517  23.562  26.474  1.00  0.00     0.043 A 
ATOM     20  C   UNL A   1      34.149  20.852  25.912  1.00  0.00     0.024 A 
ATOM     21  C   UNL A   1      35.591  22.788  26.010  1.00  0.00     0.038 A 
ATOM     22  C   UNL A   1      35.397  21.439  25.691  1.00  0.00     0.055 A 
ATOM     23  Br  UNL A   1      37.256  23.670  25.757  1.00  0.00    -0.049 Br
ATOM     24  Cl  UNL A   1      36.633  20.451  24.999  1.00  0.00    -0.083 Cl
ENDBRANCH  15  17
ENDBRANCH  12  13
ENDBRANCH   6   8
ENDBRANCH   5   6
ENDBRANCH   4   5
ENDBRANCH   3   4
ENDBRANCH   2   3
ENDBRANCH   1   2
BRANCH   1  25
ATOM     25  C   UNL A   1      31.477  31.391  26.186  1.00  0.00     0.261 C 
BRANCH  25  26
ATOM     26  O   UNL A   1      32.496  31.047  27.139  1.00  0.00    -0.460 OA
BRANCH  26  27
ATOM     27  C   UNL A   1      33.304  32.083  27.475  1.00  0.00     0.338 C 
ATOM     28  O   UNL A   1      32.975  33.249  27.625  1.00  0.00    -0.246 OA
BRANCH  27  29
ATOM     29  C   UNL A   1      34.650  31.604  27.826  1.00  0.00     0.060 A 
ATOM     30  C   UNL A   1      34.789  30.245  28.137  1.00  0.00     0.016 A 
ATOM     31  C   UNL A   1      35.715  32.489  28.002  1.00  0.00     0.016 A 
ATOM     32  C   UNL A   1      35.974  29.778  28.695  1.00  0.00     0.010 A 
ATOM     33  C   UNL A   1      36.902  32.019  28.575  1.00  0.00     0.010 A 
ATOM     34  C   UNL A   1      37.015  30.674  28.970  1.00  0.00    -0.014 A 
BRANCH  34  35
ATOM     35  C   UNL A   1      38.119  30.232  29.857  1.00  0.00     0.031 A 
ATOM     36  C   UNL A   1      39.118  29.239  29.323  1.00  0.00     0.074 A 
ATOM     37  C   UNL A   1      38.269  30.755  31.086  1.00  0.00     0.049 A 
ATOM     38  N   UNL A   1      40.166  28.718  29.905  1.00  0.00    -0.248 NA
ATOM     39  C   UNL A   1      38.901  28.773  27.944  1.00  0.00     0.031 C 
ATOM     40  C   UNL A   1      37.393  31.762  31.685  1.00  0.00     0.029 A 
ATOM     41  N   UNL A   1      39.216  30.516  32.049  1.00  0.00    -0.354 N 
ATOM     42  C   UNL A   1      40.735  27.863  28.967  1.00  0.00     0.074 A 
ATOM     43  C   UNL A   1      39.890  27.905  27.794  1.00  0.00     0.031 C 
ATOM     44  C   UNL A   1      37.843  32.049  32.919  1.00  0.00     0.029 A 
ATOM     45  C   UNL A   1      39.015  31.226  33.208  1.00  0.00     0.049 A 
ATOM     46  H   UNL A   1      39.968  29.894  31.921  1.00  0.00     0.167 HD
ATOM     47  C   UNL A   1      41.866  27.121  29.070  1.00  0.00     0.034 A 
ATOM     48  C   UNL A   1      39.690  31.196  34.375  1.00  0.00     0.034 A 
ATOM     49  C   UNL A   1      42.691  27.082  30.252  1.00  0.00     0.049 A 
ATOM     50  C   UNL A   1      40.897  30.296  34.498  1.00  0.00     0.074 A 
ATOM     51  C   UNL A   1      43.860  26.374  30.466  1.00  0.00     0.029 A 
ATOM     52  N   UNL A   1      42.426  27.771  31.429  1.00  0.00    -0.354 N 
ATOM     53  N   UNL A   1      41.430  29.499  33.600  1.00  0.00    -0.248 NA
ATOM     54  C   UNL A   1      41.596  30.300  35.789  1.00  0.00     0.031 C 
ATOM     55  C   UNL A   1      44.261  26.577  31.792  1.00  0.00     0.029 A 
ATOM     56  C   UNL A   1      43.389  27.477  32.382  1.00  0.00     0.049 A 
ATOM     57  H   UNL A   1      41.666  28.381  31.567  1.00  0.00     0.167 HD
ATOM     58  C   UNL A   1      42.546  28.930  34.211  1.00  0.00     0.074 A 
ATOM     59  C   UNL A   1      42.616  29.490  35.545  1.00  0.00     0.031 C 
ATOM     60  C   UNL A   1      43.436  28.032  33.716  1.00  0.00     0.034 A 
BRANCH  47  61
ATOM     61  C   UNL A   1      42.236  26.255  27.890  1.00  0.00     0.023 A 
ATOM     62  C   UNL A   1      41.766  24.936  27.759  1.00  0.00     0.031 A 
ATOM     63  C   UNL A   1      43.103  26.745  26.896  1.00  0.00     0.131 A 
ATOM     64  C   UNL A   1      42.220  24.132  26.703  1.00  0.00     0.055 A 
ATOM     65  C   UNL A   1      43.489  25.965  25.804  1.00  0.00     0.041 A 
ATOM     66  F   UNL A   1      43.604  27.987  26.979  1.00  0.00    -0.206 F 
ATOM     67  C   UNL A   1      43.060  24.644  25.711  1.00  0.00     0.022 A 
BRANCH  64  68
ATOM     68  S   UNL A   1      41.815  22.364  26.722  1.00  0.00     0.124 S 
ATOM     69  O   UNL A   1      40.384  22.392  27.015  1.00  0.00    -0.237 OA
ATOM     70  O   UNL A   1      42.185  21.942  25.376  1.00  0.00    -0.237 OA
ATOM     71  O   UNL A   1      42.654  21.831  27.795  1.00  0.00    -0.744 OA
ENDBRANCH  64  68
ENDBRANCH  47  61
BRANCH  48  72
ATOM     72  C   UNL A   1      39.228  32.009  35.536  1.00  0.00     0.023 A 
ATOM     73  C   UNL A   1      38.541  31.424  36.610  1.00  0.00     0.031 A 
ATOM     74  C   UNL A   1      39.421  33.403  35.557  1.00  0.00     0.131 A 
ATOM     75  C   UNL A   1      38.028  32.235  37.636  1.00  0.00     0.055 A 
ATOM     76  C   UNL A   1      38.955  34.198  36.605  1.00  0.00     0.041 A 
ATOM     77  F   UNL A   1      40.073  34.013  34.555  1.00  0.00    -0.206 F 
ATOM     78  C   UNL A   1      38.241  33.615  37.647  1.00  0.00     0.022 A 
BRANCH  75  79
ATOM     79  S   UNL A   1      37.001  31.466  38.919  1.00  0.00     0.124 S 
ATOM     80  O   UNL A   1      35.801  32.292  38.874  1.00  0.00    -0.237 OA
ATOM     81  O   UNL A   1      36.862  30.103  38.415  1.00  0.00    -0.237 OA
ATOM     82  O   UNL A   1      37.810  31.601  40.128  1.00  0.00    -0.744 OA
ENDBRANCH  75  79
ENDBRANCH  48  72
BRANCH  60  83
ATOM     83  C   UNL A   1      44.583  27.635  34.615  1.00  0.00     0.023 A 
ATOM     84  C   UNL A   1      44.505  26.518  35.465  1.00  0.00     0.031 A 
ATOM     85  C   UNL A   1      45.764  28.398  34.633  1.00  0.00     0.131 A 
ATOM     86  C   UNL A   1      45.564  26.230  36.341  1.00  0.00     0.055 A 
ATOM     87  C   UNL A   1      46.839  28.069  35.460  1.00  0.00     0.041 A 
ATOM     88  F   UNL A   1      45.893  29.477  33.843  1.00  0.00    -0.206 F 
ATOM     89  C   UNL A   1      46.737  26.989  36.331  1.00  0.00     0.022 A 
BRANCH  86  90
ATOM     90  S   UNL A   1      45.347  24.910  37.565  1.00  0.00     0.124 S 
ATOM     91  O   UNL A   1      45.060  23.756  36.718  1.00  0.00    -0.237 OA
ATOM     92  O   UNL A   1      46.639  24.898  38.243  1.00  0.00    -0.237 OA
ATOM     93  O   UNL A   1      44.225  25.376  38.377  1.00  0.00    -0.744 OA
ENDBRANCH  86  90
ENDBRANCH  60  83
ENDBRANCH  34  35
ENDBRANCH  27  29
ENDBRANCH  26  27
ENDBRANCH  25  26
ENDBRANCH   1  25
TORSDOF 19
ENDMDL
MODEL 3
REMARK VINA RESULT:     -11.4      4.952     10.368
REMARK SMILES CC1(C)[C@H](C(=O)OCCOCCOC(=O)c2ccc(-c3c4nc(c(-c5cc(S(=O)(=O)[O-])ccc5F)c5ccc([nH]5)c(-c5cc(S(=O)(=O)[O-])ccc5F)c5nc(c(-c6cc(S(=O)(=O)[O-])ccc6F)c6ccc3[nH]6)C=C5)C=C4)cc2)[C@@H]1C(=O)Nc1ccc(Cl)c(Br)c1
REMARK SMILES IDX 11 1 10 2 9 3 8 4 7 5 5 6 6 7 4 8 1 9 2 10 3 11 79 12 80 13
REMARK SMILES IDX 81 14 82 15 83 17 84 18 90 19 85 20 88 21 86 22 89 23 87 24
REMARK SMILES IDX 12 25 13 26 14 27 15 28 16 29 17 30 78 31 18 32 77 33 19 34
REMARK SMILES IDX 20 35 21 36 71 37 22 38 76 39 70 40 72 41 23 42 75 43 69 44
REMARK SMILES IDX 68 45 24 47 56 48 36 49 55 50 37 51 40 52 54 53 73 54 38 55
REMARK SMILES IDX 39 56 53 58 74 59 41 60 25 61 26 62 34 63 27 64 33 65 35 66
REMARK SMILES IDX 32 67 28 68 29 69 30 70 31 71 57 72 58 73 66 74 59 75 65 76
REMARK SMILES IDX 67 77 64 78 60 79 61 80 62 81 63 82 42 83 43 84 51 85 44 86
REMARK SMILES IDX 50 87 52 88 49 89 45 90 46 91 47 92 48 93
REMARK H PARENT 82 16 72 46 40 57
REMARK Flexibility Score: inf
ROOT
ATOM      1  C   UNL A   1      30.674  31.497  25.599  1.00  0.00     0.202 C 
ENDROOT
BRANCH   1   2
ATOM      2  O   UNL A   1      29.866  31.970  24.530  1.00  0.00    -0.374 OA
BRANCH   2   3
ATOM      3  C   UNL A   1      28.976  31.089  23.863  1.00  0.00     0.202 C 
BRANCH   3   4
ATOM      4  C   UNL A   1      29.431  30.308  22.616  1.00  0.00     0.261 C 
BRANCH   4   5
ATOM      5  O   UNL A   1      30.556  29.439  22.763  1.00  0.00    -0.463 OA
BRANCH   5   6
ATOM      6  C   UNL A   1      30.264  28.282  23.406  1.00  0.00     0.310 C 
ATOM      7  O   UNL A   1      29.164  27.747  23.419  1.00  0.00    -0.252 OA
BRANCH   6   8
ATOM      8  C   UNL A   1      31.408  27.599  24.048  1.00  0.00     0.118 C 
ATOM      9  C   UNL A   1      32.217  26.084  25.943  1.00  0.00     0.013 C 
ATOM     10  C   UNL A   1      31.463  26.207  24.637  1.00  0.00    -0.009 C 
ATOM     11  C   UNL A   1      30.274  25.276  24.568  1.00  0.00     0.013 C 
ATOM     12  C   UNL A   1      32.260  26.554  23.360  1.00  0.00     0.100 C 
BRANCH  12  13
ATOM     13  C   UNL A   1      31.953  25.813  22.107  1.00  0.00     0.228 C 
ATOM     14  O   UNL A   1      31.296  26.383  21.239  1.00  0.00    -0.274 OA
ATOM     15  N   UNL A   1      32.400  24.536  21.877  1.00  0.00    -0.326 N 
ATOM     16  H   UNL A   1      32.290  24.230  20.947  1.00  0.00     0.169 HD
BRANCH  15  17
ATOM     17  C   UNL A   1      32.985  23.591  22.728  1.00  0.00     0.042 A 
ATOM     18  C   UNL A   1      32.174  22.532  23.148  1.00  0.00     0.028 A 
ATOM     19  C   UNL A   1      34.322  23.633  23.126  1.00  0.00     0.043 A 
ATOM     20  C   UNL A   1      32.735  21.444  23.823  1.00  0.00     0.024 A 
ATOM     21  C   UNL A   1      34.883  22.548  23.818  1.00  0.00     0.038 A 
ATOM     22  C   UNL A   1      34.097  21.434  24.133  1.00  0.00     0.055 A 
ATOM     23  Br  UNL A   1      36.741  22.634  24.211  1.00  0.00    -0.049 Br
ATOM     24  Cl  UNL A   1      34.739  20.011  24.870  1.00  0.00    -0.083 Cl
ENDBRANCH  15  17
ENDBRANCH  12  13
ENDBRANCH   6   8
ENDBRANCH   5   6
ENDBRANCH   4   5
ENDBRANCH   3   4
ENDBRANCH   2   3
ENDBRANCH   1   2
BRANCH   1  25
ATOM     25  C   UNL A   1      31.391  32.490  26.516  1.00  0.00     0.261 C 
BRANCH  25  26
ATOM     26  O   UNL A   1      32.514  31.927  27.214  1.00  0.00    -0.460 OA
BRANCH  26  27
ATOM     27  C   UNL A   1      33.372  32.855  27.708  1.00  0.00     0.338 C 
ATOM     28  O   UNL A   1      33.092  33.978  28.095  1.00  0.00    -0.246 OA
BRANCH  27  29
ATOM     29  C   UNL A   1      34.713  32.278  27.897  1.00  0.00     0.060 A 
ATOM     30  C   UNL A   1      34.799  30.890  28.066  1.00  0.00     0.016 A 
ATOM     31  C   UNL A   1      35.836  33.089  28.065  1.00  0.00     0.016 A 
ATOM     32  C   UNL A   1      35.995  30.313  28.476  1.00  0.00     0.010 A 
ATOM     33  C   UNL A   1      37.037  32.507  28.488  1.00  0.00     0.010 A 
ATOM     34  C   UNL A   1      37.104  31.126  28.745  1.00  0.00    -0.014 A 
BRANCH  34  35
ATOM     35  C   UNL A   1      38.249  30.545  29.489  1.00  0.00     0.031 A 
ATOM     36  C   UNL A   1      38.462  30.962  30.920  1.00  0.00     0.074 A 
ATOM     37  C   UNL A   1      39.039  29.616  28.925  1.00  0.00     0.049 A 
ATOM     38  N   UNL A   1      39.382  30.583  31.769  1.00  0.00    -0.248 NA
ATOM     39  C   UNL A   1      37.506  31.939  31.465  1.00  0.00     0.031 C 
ATOM     40  C   UNL A   1      38.892  29.099  27.564  1.00  0.00     0.029 A 
ATOM     41  N   UNL A   1      40.120  28.938  29.428  1.00  0.00    -0.354 N 
ATOM     42  C   UNL A   1      39.117  31.274  32.948  1.00  0.00     0.074 A 
ATOM     43  C   UNL A   1      37.976  32.125  32.689  1.00  0.00     0.031 C 
ATOM     44  C   UNL A   1      39.855  28.187  27.341  1.00  0.00     0.029 A 
ATOM     45  C   UNL A   1      40.701  28.080  28.527  1.00  0.00     0.049 A 
ATOM     46  H   UNL A   1      40.447  29.056  30.349  1.00  0.00     0.167 HD
ATOM     47  C   UNL A   1      39.759  31.195  34.141  1.00  0.00     0.034 A 
ATOM     48  C   UNL A   1      41.805  27.313  28.642  1.00  0.00     0.034 A 
ATOM     49  C   UNL A   1      40.903  30.349  34.378  1.00  0.00     0.049 A 
ATOM     50  C   UNL A   1      42.556  27.307  29.952  1.00  0.00     0.074 A 
ATOM     51  C   UNL A   1      41.627  30.183  35.545  1.00  0.00     0.029 A 
ATOM     52  N   UNL A   1      41.500  29.534  33.424  1.00  0.00    -0.354 N 
ATOM     53  N   UNL A   1      42.290  27.957  31.063  1.00  0.00    -0.248 NA
ATOM     54  C   UNL A   1      43.750  26.456  30.025  1.00  0.00     0.031 C 
ATOM     55  C   UNL A   1      42.702  29.328  35.279  1.00  0.00     0.029 A 
ATOM     56  C   UNL A   1      42.603  28.893  33.966  1.00  0.00     0.049 A 
ATOM     57  H   UNL A   1      41.186  29.427  32.497  1.00  0.00     0.167 HD
ATOM     58  C   UNL A   1      43.269  27.568  31.975  1.00  0.00     0.074 A 
ATOM     59  C   UNL A   1      44.117  26.615  31.289  1.00  0.00     0.031 C 
ATOM     60  C   UNL A   1      43.450  27.956  33.263  1.00  0.00     0.034 A 
BRANCH  47  61
ATOM     61  C   UNL A   1      39.265  32.088  35.253  1.00  0.00     0.023 A 
ATOM     62  C   UNL A   1      39.721  33.410  35.402  1.00  0.00     0.031 A 
ATOM     63  C   UNL A   1      38.351  31.598  36.202  1.00  0.00     0.131 A 
ATOM     64  C   UNL A   1      39.319  34.169  36.511  1.00  0.00     0.055 A 
ATOM     65  C   UNL A   1      37.892  32.385  37.260  1.00  0.00     0.041 A 
ATOM     66  F   UNL A   1      37.898  30.337  36.127  1.00  0.00    -0.206 F 
ATOM     67  C   UNL A   1      38.388  33.675  37.428  1.00  0.00     0.022 A 
BRANCH  64  68
ATOM     68  S   UNL A   1      40.137  35.759  36.819  1.00  0.00     0.124 S 
ATOM     69  O   UNL A   1      39.649  36.564  35.702  1.00  0.00    -0.237 OA
ATOM     70  O   UNL A   1      39.633  36.122  38.138  1.00  0.00    -0.237 OA
ATOM     71  O   UNL A   1      41.561  35.428  36.764  1.00  0.00    -0.744 OA
ENDBRANCH  64  68
ENDBRANCH  47  61
BRANCH  48  72
ATOM     72  C   UNL A   1      42.295  26.516  27.482  1.00  0.00     0.023 A 
ATOM     73  C   UNL A   1      41.981  25.155  27.346  1.00  0.00     0.031 A 
ATOM     74  C   UNL A   1      43.139  27.097  26.518  1.00  0.00     0.131 A 
ATOM     75  C   UNL A   1      42.545  24.408  26.299  1.00  0.00     0.055 A 
ATOM     76  C   UNL A   1      43.656  26.363  25.449  1.00  0.00     0.041 A 
ATOM     77  F   UNL A   1      43.470  28.395  26.599  1.00  0.00    -0.206 F 
ATOM     78  C   UNL A   1      43.370  25.006  25.344  1.00  0.00     0.022 A 
BRANCH  75  79
ATOM     79  S   UNL A   1      42.253  22.618  26.254  1.00  0.00     0.124 S 
ATOM     80  O   UNL A   1      42.798  22.195  27.537  1.00  0.00    -0.237 OA
ATOM     81  O   UNL A   1      40.802  22.554  26.119  1.00  0.00    -0.237 OA
ATOM     82  O   UNL A   1      43.005  22.182  25.080  1.00  0.00    -0.744 OA
ENDBRANCH  75  79
ENDBRANCH  48  72
BRANCH  60  83
ATOM     83  C   UNL A   1      44.588  27.314  34.020  1.00  0.00     0.023 A 
ATOM     84  C   UNL A   1      44.446  26.067  34.653  1.00  0.00     0.031 A 
ATOM     85  C   UNL A   1      45.828  27.970  34.124  1.00  0.00     0.131 A 
ATOM     86  C   UNL A   1      45.505  25.542  35.411  1.00  0.00     0.055 A 
ATOM     87  C   UNL A   1      46.898  27.414  34.826  1.00  0.00     0.041 A 
ATOM     88  F   UNL A   1      46.020  29.165  33.541  1.00  0.00    -0.206 F 
ATOM     89  C   UNL A   1      46.735  26.200  35.487  1.00  0.00     0.022 A 
BRANCH  86  90
ATOM     90  S   UNL A   1      45.219  24.037  36.381  1.00  0.00     0.124 S 
ATOM     91  O   UNL A   1      45.133  24.564  37.740  1.00  0.00    -0.237 OA
ATOM     92  O   UNL A   1      43.974  23.531  35.813  1.00  0.00    -0.237 OA
ATOM     93  O   UNL A   1      46.401  23.222  36.107  1.00  0.00    -0.744 OA
ENDBRANCH  86  90
ENDBRANCH  60  83
ENDBRANCH  34  35
ENDBRANCH  27  29
ENDBRANCH  26  27
ENDBRANCH  25  26
ENDBRANCH   1  25
TORSDOF 19
ENDMDL
