MODEL 1
REMARK VINA RESULT:      -9.8      0.000      0.000
REMARK SMILES O=C(Cn1ccc(C(=O)NCCC[NH+]2CCOCC2)n1)OCCOCCOC(=O)c1ccc(-c2c3nc(c(-c4cc(S(=O)(=O)[O-])ccc4F)c4ccc([nH]4)c(-c4cc(S(=O)(=O)[O-])ccc4F)c4nc(c(-c5cc(S(=O)(=O)[O-])ccc5F)c5ccc2[nH]5)C=C4)C=C3)cc1
REMARK SMILES IDX 22 1 21 2 2 3 1 4 3 5 4 6 5 7 20 8 6 9 7 10 8 11 9 12 10 13
REMARK SMILES IDX 11 15 12 16 13 17 14 18 15 19 19 20 16 22 18 23 17 24 23 25
REMARK SMILES IDX 24 26 25 27 26 28 27 29 28 30 29 31 30 32 31 33 92 34 32 35
REMARK SMILES IDX 91 36 33 37 34 38 35 39 85 40 36 41 90 42 84 43 86 44 37 45
REMARK SMILES IDX 89 46 83 47 82 48 38 50 70 51 50 52 69 53 51 54 54 55 68 56
REMARK SMILES IDX 87 57 52 58 53 59 67 61 88 62 55 63 39 64 40 65 48 66 41 67
REMARK SMILES IDX 47 68 49 69 46 70 42 71 43 72 44 73 45 74 71 75 72 76 80 77
REMARK SMILES IDX 73 78 79 79 81 80 78 81 74 82 75 83 76 84 77 85 56 86 57 87
REMARK SMILES IDX 65 88 58 89 64 90 66 91 63 92 59 93 60 94 61 95 62 96
REMARK H PARENT 10 14 14 21 86 49 54 60
REMARK Flexibility Score: inf
ROOT
ATOM      1  C   UNL A   1      38.443  21.421  26.082  1.00  0.00     0.261 C 
ENDROOT
BRANCH   1   2
ATOM      2  O   UNL A   1      37.726  22.333  25.250  1.00  0.00    -0.462 OA
BRANCH   2   3
ATOM      3  C   UNL A   1      37.310  23.546  25.689  1.00  0.00     0.327 C 
ATOM      4  O   UNL A   1      38.012  24.168  26.485  1.00  0.00    -0.250 OA
BRANCH   3   5
ATOM      5  C   UNL A   1      35.926  24.011  25.357  1.00  0.00     0.266 C 
BRANCH   5   6
ATOM      6  N   UNL A   1      34.914  22.986  25.216  1.00  0.00    -0.261 N 
ATOM      7  C   UNL A   1      33.839  22.770  26.042  1.00  0.00     0.110 A 
ATOM      8  N   UNL A   1      34.705  22.502  23.983  1.00  0.00    -0.167 NA
ATOM      9  C   UNL A   1      32.864  22.182  25.274  1.00  0.00     0.056 A 
ATOM     10  C   UNL A   1      33.388  22.234  23.965  1.00  0.00     0.150 A 
BRANCH  10  11
ATOM     11  C   UNL A   1      32.624  22.201  22.727  1.00  0.00     0.271 C 
ATOM     12  O   UNL A   1      32.080  21.186  22.298  1.00  0.00    -0.267 OA
ATOM     13  N   UNL A   1      32.415  23.405  22.089  1.00  0.00    -0.350 N 
ATOM     14  H   UNL A   1      31.954  23.345  21.221  1.00  0.00     0.163 HD
BRANCH  13  15
ATOM     15  C   UNL A   1      32.778  24.757  22.513  1.00  0.00     0.122 C 
BRANCH  15  16
ATOM     16  C   UNL A   1      31.590  25.525  23.069  1.00  0.00     0.083 C 
BRANCH  16  17
ATOM     17  C   UNL A   1      31.822  26.213  24.420  1.00  0.00     0.264 C 
BRANCH  17  18
ATOM     18  N   UNL A   1      32.203  27.637  24.339  1.00  0.00    -0.331 N 
ATOM     19  C   UNL A   1      33.584  27.939  24.789  1.00  0.00     0.291 C 
ATOM     20  C   UNL A   1      31.307  28.460  25.191  1.00  0.00     0.291 C 
ATOM     21  H   UNL A   1      32.127  27.860  23.346  1.00  0.00     0.348 HD
ATOM     22  C   UNL A   1      33.816  27.758  26.298  1.00  0.00     0.221 C 
ATOM     23  C   UNL A   1      31.550  28.267  26.701  1.00  0.00     0.221 C 
ATOM     24  O   UNL A   1      32.907  28.560  27.057  1.00  0.00    -0.370 OA
ENDBRANCH  17  18
ENDBRANCH  16  17
ENDBRANCH  15  16
ENDBRANCH  13  15
ENDBRANCH  10  11
ENDBRANCH   5   6
ENDBRANCH   3   5
ENDBRANCH   2   3
ENDBRANCH   1   2
BRANCH   1  25
ATOM     25  C   UNL A   1      39.965  21.577  26.077  1.00  0.00     0.202 C 
BRANCH  25  26
ATOM     26  O   UNL A   1      40.679  21.556  27.312  1.00  0.00    -0.374 OA
BRANCH  26  27
ATOM     27  C   UNL A   1      42.012  21.028  27.364  1.00  0.00     0.202 C 
BRANCH  27  28
ATOM     28  C   UNL A   1      42.374  19.920  26.394  1.00  0.00     0.261 C 
BRANCH  28  29
ATOM     29  O   UNL A   1      42.773  20.499  25.171  1.00  0.00    -0.460 OA
BRANCH  29  30
ATOM     30  C   UNL A   1      44.085  20.415  24.888  1.00  0.00     0.338 C 
ATOM     31  O   UNL A   1      44.730  19.410  24.606  1.00  0.00    -0.246 OA
BRANCH  30  32
ATOM     32  C   UNL A   1      44.623  21.769  25.005  1.00  0.00     0.060 A 
ATOM     33  C   UNL A   1      45.594  21.934  25.987  1.00  0.00     0.016 A 
ATOM     34  C   UNL A   1      43.877  22.836  24.479  1.00  0.00     0.016 A 
ATOM     35  C   UNL A   1      45.563  23.102  26.699  1.00  0.00     0.010 A 
ATOM     36  C   UNL A   1      43.803  23.975  25.227  1.00  0.00     0.010 A 
ATOM     37  C   UNL A   1      44.578  24.041  26.380  1.00  0.00    -0.014 A 
BRANCH  37  38
ATOM     38  C   UNL A   1      44.417  25.167  27.258  1.00  0.00     0.031 A 
ATOM     39  C   UNL A   1      45.578  26.061  27.224  1.00  0.00     0.074 A 
ATOM     40  C   UNL A   1      43.286  25.416  27.932  1.00  0.00     0.049 A 
ATOM     41  N   UNL A   1      46.554  26.098  28.066  1.00  0.00    -0.248 NA
ATOM     42  C   UNL A   1      45.818  26.806  25.979  1.00  0.00     0.031 C 
ATOM     43  C   UNL A   1      41.975  24.786  27.778  1.00  0.00     0.029 A 
ATOM     44  N   UNL A   1      43.063  26.398  28.838  1.00  0.00    -0.354 N 
ATOM     45  C   UNL A   1      47.398  27.080  27.573  1.00  0.00     0.074 A 
ATOM     46  C   UNL A   1      47.066  27.222  26.183  1.00  0.00     0.031 C 
ATOM     47  C   UNL A   1      41.050  25.551  28.403  1.00  0.00     0.029 A 
ATOM     48  C   UNL A   1      41.724  26.647  29.087  1.00  0.00     0.049 A 
ATOM     49  H   UNL A   1      43.790  26.891  29.282  1.00  0.00     0.167 HD
ATOM     50  C   UNL A   1      48.060  27.919  28.411  1.00  0.00     0.034 A 
ATOM     51  C   UNL A   1      41.228  27.743  29.717  1.00  0.00     0.034 A 
ATOM     52  C   UNL A   1      48.043  27.412  29.769  1.00  0.00     0.049 A 
ATOM     53  C   UNL A   1      42.340  28.330  30.517  1.00  0.00     0.074 A 
ATOM     54  C   UNL A   1      48.446  26.228  30.361  1.00  0.00     0.029 A 
ATOM     55  N   UNL A   1      47.184  28.005  30.671  1.00  0.00    -0.354 N 
ATOM     56  N   UNL A   1      42.894  27.727  31.535  1.00  0.00    -0.248 NA
ATOM     57  C   UNL A   1      43.164  29.366  29.905  1.00  0.00     0.031 C 
ATOM     58  C   UNL A   1      47.458  25.950  31.352  1.00  0.00     0.029 A 
ATOM     59  C   UNL A   1      46.543  27.005  31.365  1.00  0.00     0.049 A 
ATOM     60  H   UNL A   1      47.054  28.972  30.796  1.00  0.00     0.167 HD
ATOM     61  C   UNL A   1      44.253  27.987  31.423  1.00  0.00     0.074 A 
ATOM     62  C   UNL A   1      44.345  29.091  30.471  1.00  0.00     0.031 C 
ATOM     63  C   UNL A   1      45.186  27.098  31.879  1.00  0.00     0.034 A 
BRANCH  50  64
ATOM     64  C   UNL A   1      48.380  29.359  28.082  1.00  0.00     0.023 A 
ATOM     65  C   UNL A   1      47.283  30.204  27.845  1.00  0.00     0.031 A 
ATOM     66  C   UNL A   1      49.646  29.891  27.737  1.00  0.00     0.131 A 
ATOM     67  C   UNL A   1      47.453  31.442  27.205  1.00  0.00     0.055 A 
ATOM     68  C   UNL A   1      49.816  31.156  27.172  1.00  0.00     0.041 A 
ATOM     69  F   UNL A   1      50.788  29.201  27.831  1.00  0.00    -0.206 F 
ATOM     70  C   UNL A   1      48.712  31.926  26.869  1.00  0.00     0.022 A 
BRANCH  67  71
ATOM     71  S   UNL A   1      45.971  32.318  26.656  1.00  0.00     0.124 S 
ATOM     72  O   UNL A   1      45.317  32.612  27.927  1.00  0.00    -0.237 OA
ATOM     73  O   UNL A   1      46.546  33.458  25.947  1.00  0.00    -0.237 OA
ATOM     74  O   UNL A   1      45.292  31.336  25.814  1.00  0.00    -0.744 OA
ENDBRANCH  67  71
ENDBRANCH  50  64
BRANCH  51  75
ATOM     75  C   UNL A   1      39.970  28.461  29.383  1.00  0.00     0.023 A 
ATOM     76  C   UNL A   1      39.069  28.901  30.371  1.00  0.00     0.031 A 
ATOM     77  C   UNL A   1      39.742  28.926  28.066  1.00  0.00     0.131 A 
ATOM     78  C   UNL A   1      37.997  29.755  30.026  1.00  0.00     0.055 A 
ATOM     79  C   UNL A   1      38.672  29.755  27.727  1.00  0.00     0.041 A 
ATOM     80  F   UNL A   1      40.604  28.660  27.071  1.00  0.00    -0.206 F 
ATOM     81  C   UNL A   1      37.797  30.181  28.711  1.00  0.00     0.022 A 
BRANCH  78  82
ATOM     82  S   UNL A   1      36.902  30.418  31.321  1.00  0.00     0.124 S 
ATOM     83  O   UNL A   1      37.689  31.524  31.854  1.00  0.00    -0.237 OA
ATOM     84  O   UNL A   1      35.706  30.776  30.567  1.00  0.00    -0.237 OA
ATOM     85  O   UNL A   1      36.733  29.287  32.234  1.00  0.00    -0.744 OA
ENDBRANCH  78  82
ENDBRANCH  51  75
BRANCH  63  86
ATOM     86  C   UNL A   1      44.732  25.993  32.813  1.00  0.00     0.023 A 
ATOM     87  C   UNL A   1      44.476  26.158  34.193  1.00  0.00     0.031 A 
ATOM     88  C   UNL A   1      44.431  24.743  32.241  1.00  0.00     0.131 A 
ATOM     89  C   UNL A   1      43.949  25.089  34.946  1.00  0.00     0.055 A 
ATOM     90  C   UNL A   1      43.891  23.695  32.986  1.00  0.00     0.041 A 
ATOM     91  F   UNL A   1      44.623  24.531  30.928  1.00  0.00    -0.206 F 
ATOM     92  C   UNL A   1      43.654  23.862  34.344  1.00  0.00     0.022 A 
BRANCH  89  93
ATOM     93  S   UNL A   1      43.647  25.274  36.733  1.00  0.00     0.124 S 
ATOM     94  O   UNL A   1      42.286  24.781  36.902  1.00  0.00    -0.237 OA
ATOM     95  O   UNL A   1      44.703  24.450  37.317  1.00  0.00    -0.237 OA
ATOM     96  O   UNL A   1      43.807  26.712  36.958  1.00  0.00    -0.744 OA
ENDBRANCH  89  93
ENDBRANCH  63  86
ENDBRANCH  37  38
ENDBRANCH  30  32
ENDBRANCH  29  30
ENDBRANCH  28  29
ENDBRANCH  27  28
ENDBRANCH  26  27
ENDBRANCH  25  26
ENDBRANCH   1  25
TORSDOF 23
ENDMDL
MODEL 2
REMARK VINA RESULT:      -9.8      3.483      4.900
REMARK SMILES O=C(Cn1ccc(C(=O)NCCC[NH+]2CCOCC2)n1)OCCOCCOC(=O)c1ccc(-c2c3nc(c(-c4cc(S(=O)(=O)[O-])ccc4F)c4ccc([nH]4)c(-c4cc(S(=O)(=O)[O-])ccc4F)c4nc(c(-c5cc(S(=O)(=O)[O-])ccc5F)c5ccc2[nH]5)C=C4)C=C3)cc1
REMARK SMILES IDX 22 1 21 2 2 3 1 4 3 5 4 6 5 7 20 8 6 9 7 10 8 11 9 12 10 13
REMARK SMILES IDX 11 15 12 16 13 17 14 18 15 19 19 20 16 22 18 23 17 24 23 25
REMARK SMILES IDX 24 26 25 27 26 28 27 29 28 30 29 31 30 32 31 33 92 34 32 35
REMARK SMILES IDX 91 36 33 37 34 38 35 39 85 40 36 41 90 42 84 43 86 44 37 45
REMARK SMILES IDX 89 46 83 47 82 48 38 50 70 51 50 52 69 53 51 54 54 55 68 56
REMARK SMILES IDX 87 57 52 58 53 59 67 61 88 62 55 63 39 64 40 65 48 66 41 67
REMARK SMILES IDX 47 68 49 69 46 70 42 71 43 72 44 73 45 74 71 75 72 76 80 77
REMARK SMILES IDX 73 78 79 79 81 80 78 81 74 82 75 83 76 84 77 85 56 86 57 87
REMARK SMILES IDX 65 88 58 89 64 90 66 91 63 92 59 93 60 94 61 95 62 96
REMARK H PARENT 10 14 14 21 86 49 54 60
REMARK Flexibility Score: inf
ROOT
ATOM      1  C   UNL A   1      37.336  21.839  24.953  1.00  0.00     0.261 C 
ENDROOT
BRANCH   1   2
ATOM      2  O   UNL A   1      36.185  22.611  25.295  1.00  0.00    -0.462 OA
BRANCH   2   3
ATOM      3  C   UNL A   1      34.933  22.091  25.294  1.00  0.00     0.327 C 
ATOM      4  O   UNL A   1      34.783  20.890  25.517  1.00  0.00    -0.250 OA
BRANCH   3   5
ATOM      5  C   UNL A   1      33.788  22.936  24.830  1.00  0.00     0.266 C 
BRANCH   5   6
ATOM      6  N   UNL A   1      33.825  24.337  25.196  1.00  0.00    -0.261 N 
ATOM      7  C   UNL A   1      34.114  25.396  24.373  1.00  0.00     0.110 A 
ATOM      8  N   UNL A   1      33.091  24.708  26.255  1.00  0.00    -0.167 NA
ATOM      9  C   UNL A   1      33.468  26.489  24.895  1.00  0.00     0.056 A 
ATOM     10  C   UNL A   1      32.687  25.951  25.940  1.00  0.00     0.150 A 
BRANCH  10  11
ATOM     11  C   UNL A   1      31.481  26.537  26.506  1.00  0.00     0.271 C 
ATOM     12  O   UNL A   1      31.487  27.275  27.489  1.00  0.00    -0.267 OA
ATOM     13  N   UNL A   1      30.305  26.336  25.816  1.00  0.00    -0.350 N 
ATOM     14  H   UNL A   1      29.496  26.685  26.255  1.00  0.00     0.163 HD
BRANCH  13  15
ATOM     15  C   UNL A   1      30.084  25.680  24.527  1.00  0.00     0.122 C 
BRANCH  15  16
ATOM     16  C   UNL A   1      30.082  26.667  23.371  1.00  0.00     0.083 C 
BRANCH  16  17
ATOM     17  C   UNL A   1      28.780  27.453  23.176  1.00  0.00     0.264 C 
BRANCH  17  18
ATOM     18  N   UNL A   1      28.800  28.835  23.696  1.00  0.00    -0.331 N 
ATOM     19  C   UNL A   1      27.785  29.739  23.101  1.00  0.00     0.291 C 
ATOM     20  C   UNL A   1      30.116  29.467  23.429  1.00  0.00     0.291 C 
ATOM     21  H   UNL A   1      28.600  28.730  24.691  1.00  0.00     0.348 HD
ATOM     22  C   UNL A   1      28.026  30.081  21.622  1.00  0.00     0.221 C 
ATOM     23  C   UNL A   1      30.345  29.804  21.943  1.00  0.00     0.221 C 
ATOM     24  O   UNL A   1      29.318  30.665  21.434  1.00  0.00    -0.370 OA
ENDBRANCH  17  18
ENDBRANCH  16  17
ENDBRANCH  15  16
ENDBRANCH  13  15
ENDBRANCH  10  11
ENDBRANCH   5   6
ENDBRANCH   3   5
ENDBRANCH   2   3
ENDBRANCH   1   2
BRANCH   1  25
ATOM     25  C   UNL A   1      38.566  22.058  25.836  1.00  0.00     0.202 C 
BRANCH  25  26
ATOM     26  O   UNL A   1      39.450  20.969  26.097  1.00  0.00    -0.374 OA
BRANCH  26  27
ATOM     27  C   UNL A   1      40.645  21.178  26.863  1.00  0.00     0.202 C 
BRANCH  27  28
ATOM     28  C   UNL A   1      41.892  21.620  26.122  1.00  0.00     0.261 C 
BRANCH  28  29
ATOM     29  O   UNL A   1      41.764  22.984  25.787  1.00  0.00    -0.460 OA
BRANCH  29  30
ATOM     30  C   UNL A   1      42.644  23.814  26.375  1.00  0.00     0.338 C 
ATOM     31  O   UNL A   1      43.829  23.971  26.095  1.00  0.00    -0.246 OA
BRANCH  30  32
ATOM     32  C   UNL A   1      41.923  24.491  27.450  1.00  0.00     0.060 A 
ATOM     33  C   UNL A   1      40.778  25.173  27.053  1.00  0.00     0.016 A 
ATOM     34  C   UNL A   1      42.607  24.773  28.644  1.00  0.00     0.016 A 
ATOM     35  C   UNL A   1      40.529  26.373  27.662  1.00  0.00     0.010 A 
ATOM     36  C   UNL A   1      42.397  25.997  29.210  1.00  0.00     0.010 A 
ATOM     37  C   UNL A   1      41.425  26.813  28.641  1.00  0.00    -0.014 A 
BRANCH  37  38
ATOM     38  C   UNL A   1      41.278  28.156  29.128  1.00  0.00     0.031 A 
ATOM     39  C   UNL A   1      42.236  29.075  28.508  1.00  0.00     0.074 A 
ATOM     40  C   UNL A   1      40.299  28.529  29.964  1.00  0.00     0.049 A 
ATOM     41  N   UNL A   1      43.354  29.483  29.005  1.00  0.00    -0.248 NA
ATOM     42  C   UNL A   1      42.066  29.358  27.075  1.00  0.00     0.031 C 
ATOM     43  C   UNL A   1      39.110  27.780  30.370  1.00  0.00     0.029 A 
ATOM     44  N   UNL A   1      40.121  29.743  30.540  1.00  0.00    -0.354 N 
ATOM     45  C   UNL A   1      43.891  30.297  28.022  1.00  0.00     0.074 A 
ATOM     46  C   UNL A   1      43.241  29.921  26.800  1.00  0.00     0.031 C 
ATOM     47  C   UNL A   1      38.232  28.636  30.943  1.00  0.00     0.029 A 
ATOM     48  C   UNL A   1      38.848  29.952  31.042  1.00  0.00     0.049 A 
ATOM     49  H   UNL A   1      40.836  30.417  30.596  1.00  0.00     0.167 HD
ATOM     50  C   UNL A   1      44.573  31.427  28.346  1.00  0.00     0.034 A 
ATOM     51  C   UNL A   1      38.328  31.154  31.402  1.00  0.00     0.034 A 
ATOM     52  C   UNL A   1      44.942  31.423  29.748  1.00  0.00     0.049 A 
ATOM     53  C   UNL A   1      39.476  32.071  31.651  1.00  0.00     0.074 A 
ATOM     54  C   UNL A   1      45.658  30.556  30.554  1.00  0.00     0.029 A 
ATOM     55  N   UNL A   1      44.219  32.220  30.611  1.00  0.00    -0.354 N 
ATOM     56  N   UNL A   1      40.334  31.907  32.623  1.00  0.00    -0.248 NA
ATOM     57  C   UNL A   1      39.959  32.895  30.549  1.00  0.00     0.031 C 
ATOM     58  C   UNL A   1      44.975  30.560  31.806  1.00  0.00     0.029 A 
ATOM     59  C   UNL A   1      43.923  31.474  31.728  1.00  0.00     0.049 A 
ATOM     60  H   UNL A   1      43.959  33.156  30.454  1.00  0.00     0.167 HD
ATOM     61  C   UNL A   1      41.572  32.223  32.078  1.00  0.00     0.074 A 
ATOM     62  C   UNL A   1      41.265  32.932  30.838  1.00  0.00     0.031 C 
ATOM     63  C   UNL A   1      42.718  31.628  32.527  1.00  0.00     0.034 A 
BRANCH  50  64
ATOM     64  C   UNL A   1      44.567  32.685  27.508  1.00  0.00     0.023 A 
ATOM     65  C   UNL A   1      43.899  33.794  28.052  1.00  0.00     0.031 A 
ATOM     66  C   UNL A   1      44.929  32.798  26.143  1.00  0.00     0.131 A 
ATOM     67  C   UNL A   1      43.532  34.882  27.243  1.00  0.00     0.055 A 
ATOM     68  C   UNL A   1      44.630  33.916  25.363  1.00  0.00     0.041 A 
ATOM     69  F   UNL A   1      45.508  31.813  25.448  1.00  0.00    -0.206 F 
ATOM     70  C   UNL A   1      43.895  34.952  25.902  1.00  0.00     0.022 A 
BRANCH  67  71
ATOM     71  S   UNL A   1      42.408  36.112  27.941  1.00  0.00     0.124 S 
ATOM     72  O   UNL A   1      41.213  35.311  28.183  1.00  0.00    -0.237 OA
ATOM     73  O   UNL A   1      43.143  36.549  29.123  1.00  0.00    -0.237 OA
ATOM     74  O   UNL A   1      42.292  37.104  26.875  1.00  0.00    -0.744 OA
ENDBRANCH  67  71
ENDBRANCH  50  64
BRANCH  51  75
ATOM     75  C   UNL A   1      36.926  31.605  31.205  1.00  0.00     0.023 A 
ATOM     76  C   UNL A   1      36.184  32.227  32.226  1.00  0.00     0.031 A 
ATOM     77  C   UNL A   1      36.359  31.626  29.908  1.00  0.00     0.131 A 
ATOM     78  C   UNL A   1      34.935  32.823  31.937  1.00  0.00     0.055 A 
ATOM     79  C   UNL A   1      35.117  32.200  29.630  1.00  0.00     0.041 A 
ATOM     80  F   UNL A   1      37.032  31.162  28.843  1.00  0.00    -0.206 F 
ATOM     81  C   UNL A   1      34.402  32.811  30.646  1.00  0.00     0.022 A 
BRANCH  78  82
ATOM     82  S   UNL A   1      34.032  33.730  33.232  1.00  0.00     0.124 S 
ATOM     83  O   UNL A   1      34.855  33.486  34.410  1.00  0.00    -0.237 OA
ATOM     84  O   UNL A   1      34.026  35.093  32.714  1.00  0.00    -0.237 OA
ATOM     85  O   UNL A   1      32.722  33.078  33.251  1.00  0.00    -0.744 OA
ENDBRANCH  78  82
ENDBRANCH  51  75
BRANCH  63  86
ATOM     86  C   UNL A   1      42.673  30.882  33.847  1.00  0.00     0.023 A 
ATOM     87  C   UNL A   1      42.246  29.544  34.003  1.00  0.00     0.031 A 
ATOM     88  C   UNL A   1      43.206  31.529  34.976  1.00  0.00     0.131 A 
ATOM     89  C   UNL A   1      42.351  28.911  35.257  1.00  0.00     0.055 A 
ATOM     90  C   UNL A   1      43.327  30.893  36.211  1.00  0.00     0.041 A 
ATOM     91  F   UNL A   1      43.658  32.792  34.888  1.00  0.00    -0.206 F 
ATOM     92  C   UNL A   1      42.893  29.582  36.358  1.00  0.00     0.022 A 
BRANCH  89  93
ATOM     93  S   UNL A   1      41.771  27.198  35.483  1.00  0.00     0.124 S 
ATOM     94  O   UNL A   1      42.990  26.407  35.367  1.00  0.00    -0.237 OA
ATOM     95  O   UNL A   1      41.163  27.246  36.811  1.00  0.00    -0.237 OA
ATOM     96  O   UNL A   1      40.818  27.014  34.387  1.00  0.00    -0.744 OA
ENDBRANCH  89  93
ENDBRANCH  63  86
ENDBRANCH  37  38
ENDBRANCH  30  32
ENDBRANCH  29  30
ENDBRANCH  28  29
ENDBRANCH  27  28
ENDBRANCH  26  27
ENDBRANCH  25  26
ENDBRANCH   1  25
TORSDOF 23
ENDMDL
MODEL 3
REMARK VINA RESULT:      -9.4      3.521      4.882
REMARK SMILES O=C(Cn1ccc(C(=O)NCCC[NH+]2CCOCC2)n1)OCCOCCOC(=O)c1ccc(-c2c3nc(c(-c4cc(S(=O)(=O)[O-])ccc4F)c4ccc([nH]4)c(-c4cc(S(=O)(=O)[O-])ccc4F)c4nc(c(-c5cc(S(=O)(=O)[O-])ccc5F)c5ccc2[nH]5)C=C4)C=C3)cc1
REMARK SMILES IDX 22 1 21 2 2 3 1 4 3 5 4 6 5 7 20 8 6 9 7 10 8 11 9 12 10 13
REMARK SMILES IDX 11 15 12 16 13 17 14 18 15 19 19 20 16 22 18 23 17 24 23 25
REMARK SMILES IDX 24 26 25 27 26 28 27 29 28 30 29 31 30 32 31 33 92 34 32 35
REMARK SMILES IDX 91 36 33 37 34 38 35 39 85 40 36 41 90 42 84 43 86 44 37 45
REMARK SMILES IDX 89 46 83 47 82 48 38 50 70 51 50 52 69 53 51 54 54 55 68 56
REMARK SMILES IDX 87 57 52 58 53 59 67 61 88 62 55 63 39 64 40 65 48 66 41 67
REMARK SMILES IDX 47 68 49 69 46 70 42 71 43 72 44 73 45 74 71 75 72 76 80 77
REMARK SMILES IDX 73 78 79 79 81 80 78 81 74 82 75 83 76 84 77 85 56 86 57 87
REMARK SMILES IDX 65 88 58 89 64 90 66 91 63 92 59 93 60 94 61 95 62 96
REMARK H PARENT 10 14 14 21 86 49 54 60
REMARK Flexibility Score: inf
ROOT
ATOM      1  C   UNL A   1      36.207  20.571  24.948  1.00  0.00     0.261 C 
ENDROOT
BRANCH   1   2
ATOM      2  O   UNL A   1      35.389  21.228  25.915  1.00  0.00    -0.462 OA
BRANCH   2   3
ATOM      3  C   UNL A   1      34.072  21.473  25.708  1.00  0.00     0.327 C 
ATOM      4  O   UNL A   1      33.306  20.525  25.536  1.00  0.00    -0.250 OA
BRANCH   3   5
ATOM      5  C   UNL A   1      33.612  22.882  25.494  1.00  0.00     0.266 C 
BRANCH   5   6
ATOM      6  N   UNL A   1      32.842  23.137  24.294  1.00  0.00    -0.261 N 
ATOM      7  C   UNL A   1      31.478  23.257  24.201  1.00  0.00     0.110 A 
ATOM      8  N   UNL A   1      33.471  23.761  23.288  1.00  0.00    -0.167 NA
ATOM      9  C   UNL A   1      31.226  24.063  23.119  1.00  0.00     0.056 A 
ATOM     10  C   UNL A   1      32.506  24.507  22.724  1.00  0.00     0.150 A 
BRANCH  10  11
ATOM     11  C   UNL A   1      32.805  25.714  21.969  1.00  0.00     0.271 C 
ATOM     12  O   UNL A   1      33.212  25.701  20.809  1.00  0.00    -0.267 OA
ATOM     13  N   UNL A   1      32.494  26.918  22.565  1.00  0.00    -0.350 N 
ATOM     14  H   UNL A   1      32.769  27.719  22.062  1.00  0.00     0.163 HD
BRANCH  13  15
ATOM     15  C   UNL A   1      31.817  27.179  23.835  1.00  0.00     0.122 C 
BRANCH  15  16
ATOM     16  C   UNL A   1      30.441  27.793  23.639  1.00  0.00     0.083 C 
BRANCH  16  17
ATOM     17  C   UNL A   1      30.414  29.320  23.494  1.00  0.00     0.264 C 
BRANCH  17  18
ATOM     18  N   UNL A   1      29.607  29.826  22.365  1.00  0.00    -0.331 N 
ATOM     19  C   UNL A   1      29.231  31.257  22.462  1.00  0.00     0.291 C 
ATOM     20  C   UNL A   1      28.331  29.073  22.265  1.00  0.00     0.291 C 
ATOM     21  H   UNL A   1      30.210  29.701  21.552  1.00  0.00     0.348 HD
ATOM     22  C   UNL A   1      28.227  31.577  23.581  1.00  0.00     0.221 C 
ATOM     23  C   UNL A   1      27.335  29.403  23.394  1.00  0.00     0.221 C 
ATOM     24  O   UNL A   1      27.032  30.804  23.436  1.00  0.00    -0.370 OA
ENDBRANCH  17  18
ENDBRANCH  16  17
ENDBRANCH  15  16
ENDBRANCH  13  15
ENDBRANCH  10  11
ENDBRANCH   5   6
ENDBRANCH   3   5
ENDBRANCH   2   3
ENDBRANCH   1   2
BRANCH   1  25
ATOM     25  C   UNL A   1      37.630  21.116  24.804  1.00  0.00     0.202 C 
BRANCH  25  26
ATOM     26  O   UNL A   1      38.374  21.460  25.972  1.00  0.00    -0.374 OA
BRANCH  26  27
ATOM     27  C   UNL A   1      39.701  20.948  26.157  1.00  0.00     0.202 C 
BRANCH  27  28
ATOM     28  C   UNL A   1      40.832  21.949  26.304  1.00  0.00     0.261 C 
BRANCH  28  29
ATOM     29  O   UNL A   1      40.447  22.936  27.236  1.00  0.00    -0.460 OA
BRANCH  29  30
ATOM     30  C   UNL A   1      41.417  23.367  28.061  1.00  0.00     0.338 C 
ATOM     31  O   UNL A   1      41.964  22.746  28.967  1.00  0.00    -0.246 OA
BRANCH  30  32
ATOM     32  C   UNL A   1      41.691  24.754  27.691  1.00  0.00     0.060 A 
ATOM     33  C   UNL A   1      42.877  25.276  28.199  1.00  0.00     0.016 A 
ATOM     34  C   UNL A   1      40.623  25.558  27.259  1.00  0.00     0.016 A 
ATOM     35  C   UNL A   1      42.851  26.580  28.615  1.00  0.00     0.010 A 
ATOM     36  C   UNL A   1      40.576  26.838  27.729  1.00  0.00     0.010 A 
ATOM     37  C   UNL A   1      41.653  27.289  28.484  1.00  0.00    -0.014 A 
BRANCH  37  38
ATOM     38  C   UNL A   1      41.570  28.582  29.105  1.00  0.00     0.031 A 
ATOM     39  C   UNL A   1      42.587  29.505  28.593  1.00  0.00     0.074 A 
ATOM     40  C   UNL A   1      40.599  28.922  29.964  1.00  0.00     0.049 A 
ATOM     41  N   UNL A   1      43.717  29.797  29.140  1.00  0.00    -0.248 NA
ATOM     42  C   UNL A   1      42.456  29.942  27.195  1.00  0.00     0.031 C 
ATOM     43  C   UNL A   1      39.366  28.202  30.278  1.00  0.00     0.029 A 
ATOM     44  N   UNL A   1      40.479  30.078  30.659  1.00  0.00    -0.354 N 
ATOM     45  C   UNL A   1      44.314  30.677  28.253  1.00  0.00     0.074 A 
ATOM     46  C   UNL A   1      43.664  30.464  26.991  1.00  0.00     0.031 C 
ATOM     47  C   UNL A   1      38.526  29.042  30.926  1.00  0.00     0.029 A 
ATOM     48  C   UNL A   1      39.210  30.306  31.167  1.00  0.00     0.049 A 
ATOM     49  H   UNL A   1      41.228  30.703  30.792  1.00  0.00     0.167 HD
ATOM     50  C   UNL A   1      45.050  31.728  28.698  1.00  0.00     0.034 A 
ATOM     51  C   UNL A   1      38.750  31.491  31.642  1.00  0.00     0.034 A 
ATOM     52  C   UNL A   1      45.395  31.561  30.096  1.00  0.00     0.049 A 
ATOM     53  C   UNL A   1      39.941  32.314  31.997  1.00  0.00     0.074 A 
ATOM     54  C   UNL A   1      46.050  30.579  30.816  1.00  0.00     0.029 A 
ATOM     55  N   UNL A   1      44.702  32.305  31.028  1.00  0.00    -0.354 N 
ATOM     56  N   UNL A   1      40.774  32.004  32.955  1.00  0.00    -0.248 NA
ATOM     57  C   UNL A   1      40.486  33.217  30.990  1.00  0.00     0.031 C 
ATOM     58  C   UNL A   1      45.348  30.492  32.055  1.00  0.00     0.029 A 
ATOM     59  C   UNL A   1      44.348  31.467  32.059  1.00  0.00     0.049 A 
ATOM     60  H   UNL A   1      44.495  33.265  30.966  1.00  0.00     0.167 HD
ATOM     61  C   UNL A   1      42.035  32.305  32.459  1.00  0.00     0.074 A 
ATOM     62  C   UNL A   1      41.788  33.152  31.296  1.00  0.00     0.031 C 
ATOM     63  C   UNL A   1      43.140  31.605  32.857  1.00  0.00     0.034 A 
BRANCH  50  64
ATOM     64  C   UNL A   1      45.125  33.063  27.993  1.00  0.00     0.023 A 
ATOM     65  C   UNL A   1      44.182  34.029  28.382  1.00  0.00     0.031 A 
ATOM     66  C   UNL A   1      45.861  33.365  26.821  1.00  0.00     0.131 A 
ATOM     67  C   UNL A   1      43.931  35.154  27.580  1.00  0.00     0.055 A 
ATOM     68  C   UNL A   1      45.660  34.524  26.070  1.00  0.00     0.041 A 
ATOM     69  F   UNL A   1      46.748  32.530  26.270  1.00  0.00    -0.206 F 
ATOM     70  C   UNL A   1      44.665  35.411  26.428  1.00  0.00     0.022 A 
BRANCH  67  71
ATOM     71  S   UNL A   1      42.494  36.173  27.982  1.00  0.00     0.124 S 
ATOM     72  O   UNL A   1      42.266  36.867  26.719  1.00  0.00    -0.237 OA
ATOM     73  O   UNL A   1      41.508  35.163  28.352  1.00  0.00    -0.237 OA
ATOM     74  O   UNL A   1      42.973  37.011  29.079  1.00  0.00    -0.744 OA
ENDBRANCH  67  71
ENDBRANCH  50  64
BRANCH  51  75
ATOM     75  C   UNL A   1      37.378  32.037  31.477  1.00  0.00     0.023 A 
ATOM     76  C   UNL A   1      36.819  32.301  30.213  1.00  0.00     0.031 A 
ATOM     77  C   UNL A   1      36.498  32.102  32.584  1.00  0.00     0.131 A 
ATOM     78  C   UNL A   1      35.447  32.621  30.094  1.00  0.00     0.055 A 
ATOM     79  C   UNL A   1      35.148  32.436  32.464  1.00  0.00     0.041 A 
ATOM     80  F   UNL A   1      36.900  31.759  33.819  1.00  0.00    -0.206 F 
ATOM     81  C   UNL A   1      34.614  32.689  31.213  1.00  0.00     0.022 A 
BRANCH  78  82
ATOM     82  S   UNL A   1      34.699  32.846  28.449  1.00  0.00     0.124 S 
ATOM     83  O   UNL A   1      33.796  33.968  28.672  1.00  0.00    -0.237 OA
ATOM     84  O   UNL A   1      35.863  33.104  27.609  1.00  0.00    -0.237 OA
ATOM     85  O   UNL A   1      34.038  31.564  28.198  1.00  0.00    -0.744 OA
ENDBRANCH  78  82
ENDBRANCH  51  75
BRANCH  63  86
ATOM     86  C   UNL A   1      43.034  30.732  34.093  1.00  0.00     0.023 A 
ATOM     87  C   UNL A   1      42.805  29.337  34.078  1.00  0.00     0.031 A 
ATOM     88  C   UNL A   1      43.300  31.333  35.337  1.00  0.00     0.131 A 
ATOM     89  C   UNL A   1      42.836  28.603  35.280  1.00  0.00     0.055 A 
ATOM     90  C   UNL A   1      43.349  30.600  36.522  1.00  0.00     0.041 A 
ATOM     91  F   UNL A   1      43.555  32.650  35.416  1.00  0.00    -0.206 F 
ATOM     92  C   UNL A   1      43.110  29.231  36.499  1.00  0.00     0.022 A 
BRANCH  89  93
ATOM     93  S   UNL A   1      42.507  26.811  35.282  1.00  0.00     0.124 S 
ATOM     94  O   UNL A   1      41.052  26.730  35.318  1.00  0.00    -0.237 OA
ATOM     95  O   UNL A   1      43.143  26.374  34.042  1.00  0.00    -0.237 OA
ATOM     96  O   UNL A   1      43.173  26.345  36.501  1.00  0.00    -0.744 OA
ENDBRANCH  89  93
ENDBRANCH  63  86
ENDBRANCH  37  38
ENDBRANCH  30  32
ENDBRANCH  29  30
ENDBRANCH  28  29
ENDBRANCH  27  28
ENDBRANCH  26  27
ENDBRANCH  25  26
ENDBRANCH   1  25
TORSDOF 23
ENDMDL
