MODEL 1
REMARK VINA RESULT:     -11.1      0.000      0.000
REMARK SMILES O=C(OCCOCCOC(=O)c1cc(-c2cccc(Cl)c2)oc1C(F)(F)F)c1ccc(-c2c3nc(c(-c4cc(S(=O)(=O)[O-])ccc4F)c4ccc([nH]4)c(-c4cc(S(=O)(=O)[O-])ccc4F)c4nc(c(-c5cc(S(=O)(=O)[O-])ccc5F)c5ccc2[nH]5)C=C4)C=C3)cc1
REMARK SMILES IDX 5 1 4 2 3 3 2 4 1 5 28 6 29 7 90 8 30 9 89 10 31 11 32 12
REMARK SMILES IDX 33 13 83 14 34 15 88 16 82 17 84 18 35 19 87 20 81 21 80 22
REMARK SMILES IDX 36 24 68 25 48 26 67 27 49 28 52 29 66 30 85 31 50 32 51 33
REMARK SMILES IDX 65 35 86 36 53 37 37 38 38 39 46 40 39 41 45 42 47 43 44 44
REMARK SMILES IDX 40 45 41 46 42 47 43 48 69 49 70 50 78 51 71 52 77 53 79 54
REMARK SMILES IDX 76 55 72 56 73 57 74 58 75 59 54 60 55 61 63 62 56 63 62 64
REMARK SMILES IDX 64 65 61 66 57 67 58 68 59 69 60 70 6 71 7 72 8 73 9 74
REMARK SMILES IDX 10 75 11 76 12 77 13 78 23 79 14 80 22 81 24 82 25 83 26 84
REMARK SMILES IDX 27 85 15 86 16 87 21 88 17 89 19 90 18 91 20 92
REMARK H PARENT 84 23 52 34
REMARK Flexibility Score: inf
ROOT
ATOM      1  C   UNL A   1      36.380  22.080  24.124  1.00  0.00     0.202 C 
ENDROOT
BRANCH   1   2
ATOM      2  C   UNL A   1      36.806  21.393  25.422  1.00  0.00     0.261 C 
BRANCH   2   3
ATOM      3  O   UNL A   1      38.115  20.824  25.269  1.00  0.00    -0.460 OA
BRANCH   3   4
ATOM      4  C   UNL A   1      39.198  20.994  26.066  1.00  0.00     0.338 C 
ATOM      5  O   UNL A   1      39.808  19.988  26.429  1.00  0.00    -0.246 OA
BRANCH   4   6
ATOM      6  C   UNL A   1      39.720  22.325  26.515  1.00  0.00     0.060 A 
ATOM      7  C   UNL A   1      39.252  23.571  26.091  1.00  0.00     0.016 A 
ATOM      8  C   UNL A   1      40.715  22.305  27.510  1.00  0.00     0.016 A 
ATOM      9  C   UNL A   1      39.780  24.754  26.588  1.00  0.00     0.010 A 
ATOM     10  C   UNL A   1      41.237  23.493  28.036  1.00  0.00     0.010 A 
ATOM     11  C   UNL A   1      40.780  24.722  27.554  1.00  0.00    -0.014 A 
BRANCH  11  12
ATOM     12  C   UNL A   1      41.412  26.005  27.910  1.00  0.00     0.031 A 
ATOM     13  C   UNL A   1      42.785  26.280  27.379  1.00  0.00     0.074 A 
ATOM     14  C   UNL A   1      40.687  26.949  28.538  1.00  0.00     0.049 A 
ATOM     15  N   UNL A   1      43.527  27.345  27.506  1.00  0.00    -0.248 NA
ATOM     16  C   UNL A   1      43.395  25.209  26.573  1.00  0.00     0.031 C 
ATOM     17  C   UNL A   1      39.294  26.792  28.962  1.00  0.00     0.029 A 
ATOM     18  N   UNL A   1      40.998  28.237  28.882  1.00  0.00    -0.354 N 
ATOM     19  C   UNL A   1      44.700  27.069  26.811  1.00  0.00     0.074 A 
ATOM     20  C   UNL A   1      44.574  25.730  26.279  1.00  0.00     0.031 C 
ATOM     21  C   UNL A   1      38.860  27.953  29.479  1.00  0.00     0.029 A 
ATOM     22  C   UNL A   1      39.958  28.912  29.480  1.00  0.00     0.049 A 
ATOM     23  H   UNL A   1      41.879  28.641  28.718  1.00  0.00     0.167 HD
ATOM     24  C   UNL A   1      45.782  27.866  26.646  1.00  0.00     0.034 A 
ATOM     25  C   UNL A   1      39.920  30.161  29.986  1.00  0.00     0.034 A 
ATOM     26  C   UNL A   1      45.871  29.186  27.220  1.00  0.00     0.049 A 
ATOM     27  C   UNL A   1      41.175  30.991  29.878  1.00  0.00     0.074 A 
ATOM     28  C   UNL A   1      46.939  30.063  27.225  1.00  0.00     0.029 A 
ATOM     29  N   UNL A   1      44.834  29.815  27.905  1.00  0.00    -0.354 N 
ATOM     30  N   UNL A   1      42.317  30.692  29.298  1.00  0.00    -0.248 NA
ATOM     31  C   UNL A   1      41.142  32.321  30.495  1.00  0.00     0.031 C 
ATOM     32  C   UNL A   1      46.567  31.196  27.961  1.00  0.00     0.029 A 
ATOM     33  C   UNL A   1      45.243  31.059  28.355  1.00  0.00     0.049 A 
ATOM     34  H   UNL A   1      43.939  29.431  28.048  1.00  0.00     0.167 HD
ATOM     35  C   UNL A   1      43.132  31.806  29.463  1.00  0.00     0.074 A 
ATOM     36  C   UNL A   1      42.339  32.791  30.177  1.00  0.00     0.031 C 
ATOM     37  C   UNL A   1      44.418  32.006  29.070  1.00  0.00     0.034 A 
BRANCH  24  38
ATOM     38  C   UNL A   1      46.962  27.263  25.922  1.00  0.00     0.023 A 
ATOM     39  C   UNL A   1      47.964  26.542  26.598  1.00  0.00     0.031 A 
ATOM     40  C   UNL A   1      47.147  27.520  24.552  1.00  0.00     0.131 A 
ATOM     41  C   UNL A   1      49.144  26.187  25.925  1.00  0.00     0.055 A 
ATOM     42  C   UNL A   1      48.287  27.092  23.870  1.00  0.00     0.041 A 
ATOM     43  F   UNL A   1      46.242  28.232  23.863  1.00  0.00    -0.206 F 
ATOM     44  C   UNL A   1      49.303  26.437  24.559  1.00  0.00     0.022 A 
BRANCH  41  45
ATOM     45  S   UNL A   1      50.544  25.555  26.894  1.00  0.00     0.124 S 
ATOM     46  O   UNL A   1      49.923  24.453  27.626  1.00  0.00    -0.237 OA
ATOM     47  O   UNL A   1      51.499  25.176  25.860  1.00  0.00    -0.237 OA
ATOM     48  O   UNL A   1      50.936  26.697  27.718  1.00  0.00    -0.744 OA
ENDBRANCH  41  45
ENDBRANCH  24  38
BRANCH  25  49
ATOM     49  C   UNL A   1      38.700  30.673  30.679  1.00  0.00     0.023 A 
ATOM     50  C   UNL A   1      37.668  31.317  29.976  1.00  0.00     0.031 A 
ATOM     51  C   UNL A   1      38.569  30.567  32.077  1.00  0.00     0.131 A 
ATOM     52  C   UNL A   1      36.576  31.863  30.674  1.00  0.00     0.055 A 
ATOM     53  C   UNL A   1      37.457  31.062  32.760  1.00  0.00     0.041 A 
ATOM     54  F   UNL A   1      39.526  29.969  32.806  1.00  0.00    -0.206 F 
ATOM     55  C   UNL A   1      36.459  31.727  32.060  1.00  0.00     0.022 A 
BRANCH  52  56
ATOM     56  S   UNL A   1      35.352  32.842  29.760  1.00  0.00     0.124 S 
ATOM     57  O   UNL A   1      34.283  32.979  30.743  1.00  0.00    -0.237 OA
ATOM     58  O   UNL A   1      36.103  34.055  29.453  1.00  0.00    -0.237 OA
ATOM     59  O   UNL A   1      35.034  32.001  28.608  1.00  0.00    -0.744 OA
ENDBRANCH  52  56
ENDBRANCH  25  49
BRANCH  37  60
ATOM     60  C   UNL A   1      45.009  33.357  29.377  1.00  0.00     0.023 A 
ATOM     61  C   UNL A   1      44.958  34.410  28.448  1.00  0.00     0.031 A 
ATOM     62  C   UNL A   1      45.647  33.583  30.609  1.00  0.00     0.131 A 
ATOM     63  C   UNL A   1      45.594  35.624  28.740  1.00  0.00     0.055 A 
ATOM     64  C   UNL A   1      46.224  34.813  30.919  1.00  0.00     0.041 A 
ATOM     65  F   UNL A   1      45.721  32.608  31.529  1.00  0.00    -0.206 F 
ATOM     66  C   UNL A   1      46.213  35.838  29.975  1.00  0.00     0.022 A 
BRANCH  63  67
ATOM     67  S   UNL A   1      45.691  36.887  27.443  1.00  0.00     0.124 S 
ATOM     68  O   UNL A   1      46.446  37.946  28.105  1.00  0.00    -0.237 OA
ATOM     69  O   UNL A   1      46.389  36.180  26.373  1.00  0.00    -0.237 OA
ATOM     70  O   UNL A   1      44.292  37.202  27.166  1.00  0.00    -0.744 OA
ENDBRANCH  63  67
ENDBRANCH  37  60
ENDBRANCH  11  12
ENDBRANCH   4   6
ENDBRANCH   3   4
ENDBRANCH   2   3
ENDBRANCH   1   2
BRANCH   1  71
ATOM     71  O   UNL A   1      35.645  23.282  24.339  1.00  0.00    -0.374 OA
BRANCH  71  72
ATOM     72  C   UNL A   1      35.642  23.808  25.666  1.00  0.00     0.202 C 
BRANCH  72  73
ATOM     73  C   UNL A   1      34.302  24.508  25.903  1.00  0.00     0.261 C 
BRANCH  73  74
ATOM     74  O   UNL A   1      33.554  23.741  26.858  1.00  0.00    -0.460 OA
BRANCH  74  75
ATOM     75  C   UNL A   1      32.388  23.202  26.395  1.00  0.00     0.342 C 
ATOM     76  O   UNL A   1      31.270  23.656  26.579  1.00  0.00    -0.246 OA
BRANCH  75  77
ATOM     77  C   UNL A   1      32.662  22.024  25.606  1.00  0.00     0.111 A 
ATOM     78  C   UNL A   1      33.210  20.806  26.089  1.00  0.00     0.067 A 
ATOM     79  C   UNL A   1      32.475  21.850  24.242  1.00  0.00     0.223 A 
ATOM     80  C   UNL A   1      33.218  19.931  25.033  1.00  0.00     0.135 A 
ATOM     81  O   UNL A   1      32.831  20.563  23.894  1.00  0.00    -0.451 OA
BRANCH  79  82
ATOM     82  C   UNL A   1      32.027  22.722  23.121  1.00  0.00     0.450 C 
ATOM     83  F   UNL A   1      32.655  23.930  23.175  1.00  0.00    -0.163 F 
ATOM     84  F   UNL A   1      32.322  22.185  21.910  1.00  0.00    -0.163 F 
ATOM     85  F   UNL A   1      30.702  22.989  23.123  1.00  0.00    -0.163 F 
ENDBRANCH  79  82
BRANCH  80  86
ATOM     86  C   UNL A   1      33.424  18.501  24.968  1.00  0.00     0.019 A 
ATOM     87  C   UNL A   1      34.535  18.032  24.249  1.00  0.00     0.012 A 
ATOM     88  C   UNL A   1      32.552  17.590  25.566  1.00  0.00     0.032 A 
ATOM     89  C   UNL A   1      34.779  16.668  24.123  1.00  0.00     0.002 A 
ATOM     90  C   UNL A   1      32.794  16.222  25.424  1.00  0.00     0.041 A 
ATOM     91  C   UNL A   1      33.902  15.760  24.710  1.00  0.00     0.020 A 
ATOM     92  Cl  UNL A   1      31.711  15.083  26.126  1.00  0.00    -0.084 Cl
ENDBRANCH  80  86
ENDBRANCH  75  77
ENDBRANCH  74  75
ENDBRANCH  73  74
ENDBRANCH  72  73
ENDBRANCH  71  72
ENDBRANCH   1  71
TORSDOF 19
ENDMDL
MODEL 2
REMARK VINA RESULT:     -11.1      3.636      8.998
REMARK SMILES O=C(OCCOCCOC(=O)c1cc(-c2cccc(Cl)c2)oc1C(F)(F)F)c1ccc(-c2c3nc(c(-c4cc(S(=O)(=O)[O-])ccc4F)c4ccc([nH]4)c(-c4cc(S(=O)(=O)[O-])ccc4F)c4nc(c(-c5cc(S(=O)(=O)[O-])ccc5F)c5ccc2[nH]5)C=C4)C=C3)cc1
REMARK SMILES IDX 5 1 4 2 3 3 2 4 1 5 28 6 29 7 90 8 30 9 89 10 31 11 32 12
REMARK SMILES IDX 33 13 83 14 34 15 88 16 82 17 84 18 35 19 87 20 81 21 80 22
REMARK SMILES IDX 36 24 68 25 48 26 67 27 49 28 52 29 66 30 85 31 50 32 51 33
REMARK SMILES IDX 65 35 86 36 53 37 37 38 38 39 46 40 39 41 45 42 47 43 44 44
REMARK SMILES IDX 40 45 41 46 42 47 43 48 69 49 70 50 78 51 71 52 77 53 79 54
REMARK SMILES IDX 76 55 72 56 73 57 74 58 75 59 54 60 55 61 63 62 56 63 62 64
REMARK SMILES IDX 64 65 61 66 57 67 58 68 59 69 60 70 6 71 7 72 8 73 9 74
REMARK SMILES IDX 10 75 11 76 12 77 13 78 23 79 14 80 22 81 24 82 25 83 26 84
REMARK SMILES IDX 27 85 15 86 16 87 21 88 17 89 19 90 18 91 20 92
REMARK H PARENT 84 23 52 34
REMARK Flexibility Score: inf
ROOT
ATOM      1  C   UNL A   1      35.230  20.635  24.858  1.00  0.00     0.202 C 
ENDROOT
BRANCH   1   2
ATOM      2  C   UNL A   1      36.328  21.341  25.654  1.00  0.00     0.261 C 
BRANCH   2   3
ATOM      3  O   UNL A   1      37.616  20.832  25.271  1.00  0.00    -0.460 OA
BRANCH   3   4
ATOM      4  C   UNL A   1      38.806  21.020  25.890  1.00  0.00     0.338 C 
ATOM      5  O   UNL A   1      39.467  20.022  26.178  1.00  0.00    -0.246 OA
BRANCH   4   6
ATOM      6  C   UNL A   1      39.386  22.360  26.226  1.00  0.00     0.060 A 
ATOM      7  C   UNL A   1      38.838  23.596  25.876  1.00  0.00     0.016 A 
ATOM      8  C   UNL A   1      40.540  22.361  27.031  1.00  0.00     0.016 A 
ATOM      9  C   UNL A   1      39.433  24.790  26.260  1.00  0.00     0.010 A 
ATOM     10  C   UNL A   1      41.135  23.559  27.443  1.00  0.00     0.010 A 
ATOM     11  C   UNL A   1      40.588  24.778  27.035  1.00  0.00    -0.014 A 
BRANCH  11  12
ATOM     12  C   UNL A   1      41.260  26.070  27.261  1.00  0.00     0.031 A 
ATOM     13  C   UNL A   1      40.585  27.064  28.157  1.00  0.00     0.074 A 
ATOM     14  C   UNL A   1      42.516  26.251  26.814  1.00  0.00     0.049 A 
ATOM     15  N   UNL A   1      40.991  28.239  28.549  1.00  0.00    -0.248 NA
ATOM     16  C   UNL A   1      39.276  26.662  28.700  1.00  0.00     0.031 C 
ATOM     17  C   UNL A   1      43.284  25.264  26.050  1.00  0.00     0.029 A 
ATOM     18  N   UNL A   1      43.385  27.296  26.978  1.00  0.00    -0.354 N 
ATOM     19  C   UNL A   1      39.983  28.727  29.374  1.00  0.00     0.074 A 
ATOM     20  C   UNL A   1      38.941  27.725  29.410  1.00  0.00     0.031 C 
ATOM     21  C   UNL A   1      44.522  25.739  25.841  1.00  0.00     0.029 A 
ATOM     22  C   UNL A   1      44.616  27.084  26.400  1.00  0.00     0.049 A 
ATOM     23  H   UNL A   1      43.151  28.120  27.462  1.00  0.00     0.167 HD
ATOM     24  C   UNL A   1      39.939  29.911  30.030  1.00  0.00     0.034 A 
ATOM     25  C   UNL A   1      45.683  27.903  26.322  1.00  0.00     0.034 A 
ATOM     26  C   UNL A   1      40.993  30.890  29.940  1.00  0.00     0.049 A 
ATOM     27  C   UNL A   1      45.568  29.257  26.975  1.00  0.00     0.074 A 
ATOM     28  C   UNL A   1      41.041  32.169  30.462  1.00  0.00     0.029 A 
ATOM     29  N   UNL A   1      42.197  30.687  29.269  1.00  0.00    -0.354 N 
ATOM     30  N   UNL A   1      44.573  29.753  27.680  1.00  0.00    -0.248 NA
ATOM     31  C   UNL A   1      46.709  30.164  26.821  1.00  0.00     0.031 C 
ATOM     32  C   UNL A   1      42.246  32.759  30.057  1.00  0.00     0.029 A 
ATOM     33  C   UNL A   1      42.984  31.824  29.344  1.00  0.00     0.049 A 
ATOM     34  H   UNL A   1      42.451  29.856  28.807  1.00  0.00     0.167 HD
ATOM     35  C   UNL A   1      44.979  31.023  28.071  1.00  0.00     0.074 A 
ATOM     36  C   UNL A   1      46.318  31.206  27.542  1.00  0.00     0.031 C 
ATOM     37  C   UNL A   1      44.313  31.962  28.794  1.00  0.00     0.034 A 
BRANCH  24  38
ATOM     38  C   UNL A   1      38.665  30.221  30.779  1.00  0.00     0.023 A 
ATOM     39  C   UNL A   1      37.586  30.891  30.173  1.00  0.00     0.031 A 
ATOM     40  C   UNL A   1      38.580  29.949  32.156  1.00  0.00     0.131 A 
ATOM     41  C   UNL A   1      36.516  31.348  30.959  1.00  0.00     0.055 A 
ATOM     42  C   UNL A   1      37.474  30.334  32.916  1.00  0.00     0.041 A 
ATOM     43  F   UNL A   1      39.593  29.344  32.796  1.00  0.00    -0.206 F 
ATOM     44  C   UNL A   1      36.442  31.054  32.323  1.00  0.00     0.022 A 
BRANCH  41  45
ATOM     45  S   UNL A   1      35.310  32.484  30.215  1.00  0.00     0.124 S 
ATOM     46  O   UNL A   1      34.389  32.706  31.328  1.00  0.00    -0.237 OA
ATOM     47  O   UNL A   1      36.138  33.621  29.836  1.00  0.00    -0.237 OA
ATOM     48  O   UNL A   1      34.755  31.716  29.102  1.00  0.00    -0.744 OA
ENDBRANCH  41  45
ENDBRANCH  24  38
BRANCH  25  49
ATOM     49  C   UNL A   1      46.906  27.502  25.563  1.00  0.00     0.023 A 
ATOM     50  C   UNL A   1      47.081  27.844  24.211  1.00  0.00     0.031 A 
ATOM     51  C   UNL A   1      47.907  26.720  26.172  1.00  0.00     0.131 A 
ATOM     52  C   UNL A   1      48.204  27.374  23.507  1.00  0.00     0.055 A 
ATOM     53  C   UNL A   1      49.047  26.302  25.484  1.00  0.00     0.041 A 
ATOM     54  F   UNL A   1      47.793  26.353  27.459  1.00  0.00    -0.206 F 
ATOM     55  C   UNL A   1      49.193  26.618  24.139  1.00  0.00     0.022 A 
BRANCH  52  56
ATOM     56  S   UNL A   1      48.312  27.684  21.722  1.00  0.00     0.124 S 
ATOM     57  O   UNL A   1      48.594  26.351  21.204  1.00  0.00    -0.237 OA
ATOM     58  O   UNL A   1      46.986  28.221  21.429  1.00  0.00    -0.237 OA
ATOM     59  O   UNL A   1      49.408  28.644  21.608  1.00  0.00    -0.744 OA
ENDBRANCH  52  56
ENDBRANCH  25  49
BRANCH  37  60
ATOM     60  C   UNL A   1      45.058  33.241  29.078  1.00  0.00     0.023 A 
ATOM     61  C   UNL A   1      45.843  33.394  30.233  1.00  0.00     0.031 A 
ATOM     62  C   UNL A   1      44.962  34.323  28.187  1.00  0.00     0.131 A 
ATOM     63  C   UNL A   1      46.451  34.628  30.500  1.00  0.00     0.055 A 
ATOM     64  C   UNL A   1      45.620  35.529  28.427  1.00  0.00     0.041 A 
ATOM     65  F   UNL A   1      44.225  34.226  27.069  1.00  0.00    -0.206 F 
ATOM     66  C   UNL A   1      46.358  35.691  29.597  1.00  0.00     0.022 A 
BRANCH  63  67
ATOM     67  S   UNL A   1      47.282  34.859  32.095  1.00  0.00     0.124 S 
ATOM     68  O   UNL A   1      46.861  33.670  32.831  1.00  0.00    -0.237 OA
ATOM     69  O   UNL A   1      48.689  34.903  31.709  1.00  0.00    -0.237 OA
ATOM     70  O   UNL A   1      46.734  36.120  32.588  1.00  0.00    -0.744 OA
ENDBRANCH  63  67
ENDBRANCH  37  60
ENDBRANCH  11  12
ENDBRANCH   4   6
ENDBRANCH   3   4
ENDBRANCH   2   3
ENDBRANCH   1   2
BRANCH   1  71
ATOM     71  O   UNL A   1      33.921  21.109  25.165  1.00  0.00    -0.374 OA
BRANCH  71  72
ATOM     72  C   UNL A   1      33.131  21.575  24.071  1.00  0.00     0.202 C 
BRANCH  72  73
ATOM     73  C   UNL A   1      33.685  22.929  23.622  1.00  0.00     0.261 C 
BRANCH  73  74
ATOM     74  O   UNL A   1      32.579  23.789  23.310  1.00  0.00    -0.460 OA
BRANCH  74  75
ATOM     75  C   UNL A   1      32.894  24.923  22.618  1.00  0.00     0.342 C 
ATOM     76  O   UNL A   1      33.630  24.986  21.646  1.00  0.00    -0.246 OA
BRANCH  75  77
ATOM     77  C   UNL A   1      32.190  26.057  23.172  1.00  0.00     0.111 A 
ATOM     78  C   UNL A   1      31.285  26.899  22.473  1.00  0.00     0.067 A 
ATOM     79  C   UNL A   1      32.269  26.561  24.463  1.00  0.00     0.223 A 
ATOM     80  C   UNL A   1      30.781  27.784  23.391  1.00  0.00     0.135 A 
ATOM     81  O   UNL A   1      31.408  27.632  24.586  1.00  0.00    -0.451 OA
BRANCH  79  82
ATOM     82  C   UNL A   1      33.070  26.231  25.674  1.00  0.00     0.450 C 
ATOM     83  F   UNL A   1      32.529  25.167  26.331  1.00  0.00    -0.163 F 
ATOM     84  F   UNL A   1      34.345  25.886  25.360  1.00  0.00    -0.163 F 
ATOM     85  F   UNL A   1      33.143  27.232  26.580  1.00  0.00    -0.163 F 
ENDBRANCH  79  82
BRANCH  80  86
ATOM     86  C   UNL A   1      29.663  28.700  23.333  1.00  0.00     0.019 A 
ATOM     87  C   UNL A   1      28.379  28.154  23.169  1.00  0.00     0.012 A 
ATOM     88  C   UNL A   1      29.822  30.084  23.405  1.00  0.00     0.032 A 
ATOM     89  C   UNL A   1      27.262  28.977  23.078  1.00  0.00     0.002 A 
ATOM     90  C   UNL A   1      28.697  30.906  23.300  1.00  0.00     0.041 A 
ATOM     91  C   UNL A   1      27.422  30.358  23.139  1.00  0.00     0.020 A 
ATOM     92  Cl  UNL A   1      28.878  32.616  23.354  1.00  0.00    -0.084 Cl
ENDBRANCH  80  86
ENDBRANCH  75  77
ENDBRANCH  74  75
ENDBRANCH  73  74
ENDBRANCH  72  73
ENDBRANCH  71  72
ENDBRANCH   1  71
TORSDOF 19
ENDMDL
MODEL 3
REMARK VINA RESULT:     -11.1      5.914     11.027
REMARK SMILES O=C(OCCOCCOC(=O)c1cc(-c2cccc(Cl)c2)oc1C(F)(F)F)c1ccc(-c2c3nc(c(-c4cc(S(=O)(=O)[O-])ccc4F)c4ccc([nH]4)c(-c4cc(S(=O)(=O)[O-])ccc4F)c4nc(c(-c5cc(S(=O)(=O)[O-])ccc5F)c5ccc2[nH]5)C=C4)C=C3)cc1
REMARK SMILES IDX 5 1 4 2 3 3 2 4 1 5 28 6 29 7 90 8 30 9 89 10 31 11 32 12
REMARK SMILES IDX 33 13 83 14 34 15 88 16 82 17 84 18 35 19 87 20 81 21 80 22
REMARK SMILES IDX 36 24 68 25 48 26 67 27 49 28 52 29 66 30 85 31 50 32 51 33
REMARK SMILES IDX 65 35 86 36 53 37 37 38 38 39 46 40 39 41 45 42 47 43 44 44
REMARK SMILES IDX 40 45 41 46 42 47 43 48 69 49 70 50 78 51 71 52 77 53 79 54
REMARK SMILES IDX 76 55 72 56 73 57 74 58 75 59 54 60 55 61 63 62 56 63 62 64
REMARK SMILES IDX 64 65 61 66 57 67 58 68 59 69 60 70 6 71 7 72 8 73 9 74
REMARK SMILES IDX 10 75 11 76 12 77 13 78 23 79 14 80 22 81 24 82 25 83 26 84
REMARK SMILES IDX 27 85 15 86 16 87 21 88 17 89 19 90 18 91 20 92
REMARK H PARENT 84 23 52 34
REMARK Flexibility Score: inf
ROOT
ATOM      1  C   UNL A   1      31.574  31.168  26.506  1.00  0.00     0.202 C 
ENDROOT
BRANCH   1   2
ATOM      2  C   UNL A   1      31.781  32.682  26.431  1.00  0.00     0.261 C 
BRANCH   2   3
ATOM      3  O   UNL A   1      32.221  33.181  27.703  1.00  0.00    -0.460 OA
BRANCH   3   4
ATOM      4  C   UNL A   1      33.404  33.767  28.007  1.00  0.00     0.338 C 
ATOM      5  O   UNL A   1      33.499  34.984  27.852  1.00  0.00    -0.246 OA
BRANCH   4   6
ATOM      6  C   UNL A   1      34.600  33.039  28.542  1.00  0.00     0.060 A 
ATOM      7  C   UNL A   1      34.592  31.757  29.098  1.00  0.00     0.016 A 
ATOM      8  C   UNL A   1      35.844  33.680  28.395  1.00  0.00     0.016 A 
ATOM      9  C   UNL A   1      35.759  31.150  29.542  1.00  0.00     0.010 A 
ATOM     10  C   UNL A   1      37.029  33.067  28.818  1.00  0.00     0.010 A 
ATOM     11  C   UNL A   1      36.980  31.804  29.413  1.00  0.00    -0.014 A 
BRANCH  11  12
ATOM     12  C   UNL A   1      38.149  31.179  30.057  1.00  0.00     0.031 A 
ATOM     13  C   UNL A   1      38.382  31.461  31.510  1.00  0.00     0.074 A 
ATOM     14  C   UNL A   1      38.856  30.249  29.388  1.00  0.00     0.049 A 
ATOM     15  N   UNL A   1      39.302  30.997  32.309  1.00  0.00    -0.248 NA
ATOM     16  C   UNL A   1      37.430  32.383  32.152  1.00  0.00     0.031 C 
ATOM     17  C   UNL A   1      38.592  29.827  28.011  1.00  0.00     0.029 A 
ATOM     18  N   UNL A   1      39.900  29.459  29.786  1.00  0.00    -0.354 N 
ATOM     19  C   UNL A   1      39.051  31.580  33.547  1.00  0.00     0.074 A 
ATOM     20  C   UNL A   1      37.903  32.444  33.385  1.00  0.00     0.031 C 
ATOM     21  C   UNL A   1      39.432  28.829  27.690  1.00  0.00     0.029 A 
ATOM     22  C   UNL A   1      40.330  28.585  28.814  1.00  0.00     0.049 A 
ATOM     23  H   UNL A   1      40.304  29.510  30.682  1.00  0.00     0.167 HD
ATOM     24  C   UNL A   1      39.731  31.409  34.706  1.00  0.00     0.034 A 
ATOM     25  C   UNL A   1      41.351  27.706  28.836  1.00  0.00     0.034 A 
ATOM     26  C   UNL A   1      40.888  30.556  34.809  1.00  0.00     0.049 A 
ATOM     27  C   UNL A   1      42.156  27.610  30.108  1.00  0.00     0.074 A 
ATOM     28  C   UNL A   1      41.736  30.365  35.884  1.00  0.00     0.029 A 
ATOM     29  N   UNL A   1      41.362  29.748  33.779  1.00  0.00    -0.354 N 
ATOM     30  N   UNL A   1      41.971  28.233  31.252  1.00  0.00    -0.248 NA
ATOM     31  C   UNL A   1      43.307  26.703  30.095  1.00  0.00     0.031 C 
ATOM     32  C   UNL A   1      42.753  29.489  35.485  1.00  0.00     0.029 A 
ATOM     33  C   UNL A   1      42.502  29.074  34.184  1.00  0.00     0.049 A 
ATOM     34  H   UNL A   1      40.947  29.667  32.890  1.00  0.00     0.167 HD
ATOM     35  C   UNL A   1      42.971  27.776  32.102  1.00  0.00     0.074 A 
ATOM     36  C   UNL A   1      43.741  26.807  31.343  1.00  0.00     0.031 C 
ATOM     37  C   UNL A   1      43.242  28.120  33.389  1.00  0.00     0.034 A 
BRANCH  24  38
ATOM     38  C   UNL A   1      39.292  32.253  35.877  1.00  0.00     0.023 A 
ATOM     39  C   UNL A   1      39.866  33.509  36.151  1.00  0.00     0.031 A 
ATOM     40  C   UNL A   1      38.369  31.737  36.804  1.00  0.00     0.131 A 
ATOM     41  C   UNL A   1      39.584  34.158  37.364  1.00  0.00     0.055 A 
ATOM     42  C   UNL A   1      38.030  32.426  37.969  1.00  0.00     0.041 A 
ATOM     43  F   UNL A   1      37.814  30.529  36.615  1.00  0.00    -0.206 F 
ATOM     44  C   UNL A   1      38.652  33.636  38.265  1.00  0.00     0.022 A 
BRANCH  41  45
ATOM     45  S   UNL A   1      40.581  35.601  37.833  1.00  0.00     0.124 S 
ATOM     46  O   UNL A   1      39.795  36.698  37.272  1.00  0.00    -0.237 OA
ATOM     47  O   UNL A   1      40.604  35.511  39.287  1.00  0.00    -0.237 OA
ATOM     48  O   UNL A   1      41.863  35.363  37.172  1.00  0.00    -0.744 OA
ENDBRANCH  41  45
ENDBRANCH  24  38
BRANCH  25  49
ATOM     49  C   UNL A   1      41.705  26.906  27.624  1.00  0.00     0.023 A 
ATOM     50  C   UNL A   1      41.467  25.523  27.559  1.00  0.00     0.031 A 
ATOM     51  C   UNL A   1      42.337  27.513  26.522  1.00  0.00     0.131 A 
ATOM     52  C   UNL A   1      41.893  24.790  26.437  1.00  0.00     0.055 A 
ATOM     53  C   UNL A   1      42.708  26.791  25.387  1.00  0.00     0.041 A 
ATOM     54  F   UNL A   1      42.598  28.830  26.528  1.00  0.00    -0.206 F 
ATOM     55  C   UNL A   1      42.499  25.418  25.346  1.00  0.00     0.022 A 
BRANCH  52  56
ATOM     56  S   UNL A   1      41.731  22.983  26.458  1.00  0.00     0.124 S 
ATOM     57  O   UNL A   1      42.377  22.610  25.205  1.00  0.00    -0.237 OA
ATOM     58  O   UNL A   1      42.448  22.630  27.681  1.00  0.00    -0.237 OA
ATOM     59  O   UNL A   1      40.287  22.769  26.504  1.00  0.00    -0.744 OA
ENDBRANCH  52  56
ENDBRANCH  25  49
BRANCH  37  60
ATOM     60  C   UNL A   1      44.392  27.404  34.046  1.00  0.00     0.023 A 
ATOM     61  C   UNL A   1      44.205  26.202  34.749  1.00  0.00     0.031 A 
ATOM     62  C   UNL A   1      45.688  27.945  33.981  1.00  0.00     0.131 A 
ATOM     63  C   UNL A   1      45.288  25.613  35.417  1.00  0.00     0.055 A 
ATOM     64  C   UNL A   1      46.773  27.321  34.595  1.00  0.00     0.041 A 
ATOM     65  F   UNL A   1      45.917  29.091  33.320  1.00  0.00    -0.206 F 
ATOM     66  C   UNL A   1      46.573  26.155  35.331  1.00  0.00     0.022 A 
BRANCH  63  67
ATOM     67  S   UNL A   1      44.973  24.182  36.485  1.00  0.00     0.124 S 
ATOM     68  O   UNL A   1      44.103  23.363  35.647  1.00  0.00    -0.237 OA
ATOM     69  O   UNL A   1      46.318  23.659  36.709  1.00  0.00    -0.237 OA
ATOM     70  O   UNL A   1      44.332  24.766  37.660  1.00  0.00    -0.744 OA
ENDBRANCH  63  67
ENDBRANCH  37  60
ENDBRANCH  11  12
ENDBRANCH   4   6
ENDBRANCH   3   4
ENDBRANCH   2   3
ENDBRANCH   1   2
BRANCH   1  71
ATOM     71  O   UNL A   1      32.680  30.478  27.083  1.00  0.00    -0.374 OA
BRANCH  71  72
ATOM     72  C   UNL A   1      33.448  29.650  26.210  1.00  0.00     0.202 C 
BRANCH  72  73
ATOM     73  C   UNL A   1      33.247  28.193  26.630  1.00  0.00     0.261 C 
BRANCH  73  74
ATOM     74  O   UNL A   1      33.286  27.374  25.451  1.00  0.00    -0.460 OA
BRANCH  74  75
ATOM     75  C   UNL A   1      32.127  26.713  25.156  1.00  0.00     0.342 C 
ATOM     76  O   UNL A   1      31.734  25.689  25.691  1.00  0.00    -0.246 OA
BRANCH  75  77
ATOM     77  C   UNL A   1      31.392  27.427  24.138  1.00  0.00     0.111 A 
ATOM     78  C   UNL A   1      30.519  28.526  24.355  1.00  0.00     0.067 A 
ATOM     79  C   UNL A   1      31.367  27.178  22.772  1.00  0.00     0.223 A 
ATOM     80  C   UNL A   1      30.107  28.953  23.119  1.00  0.00     0.135 A 
ATOM     81  O   UNL A   1      30.565  28.114  22.154  1.00  0.00    -0.451 OA
BRANCH  79  82
ATOM     82  C   UNL A   1      31.966  26.146  21.880  1.00  0.00     0.450 C 
ATOM     83  F   UNL A   1      31.820  24.904  22.420  1.00  0.00    -0.163 F 
ATOM     84  F   UNL A   1      31.361  26.115  20.665  1.00  0.00    -0.163 F 
ATOM     85  F   UNL A   1      33.289  26.305  21.659  1.00  0.00    -0.163 F 
ENDBRANCH  79  82
BRANCH  80  86
ATOM     86  C   UNL A   1      29.427  30.156  22.693  1.00  0.00     0.019 A 
ATOM     87  C   UNL A   1      29.201  31.154  23.655  1.00  0.00     0.012 A 
ATOM     88  C   UNL A   1      28.972  30.338  21.387  1.00  0.00     0.032 A 
ATOM     89  C   UNL A   1      28.528  32.325  23.321  1.00  0.00     0.002 A 
ATOM     90  C   UNL A   1      28.285  31.510  21.061  1.00  0.00     0.041 A 
ATOM     91  C   UNL A   1      28.065  32.501  22.021  1.00  0.00     0.020 A 
ATOM     92  Cl  UNL A   1      27.688  31.737  19.463  1.00  0.00    -0.084 Cl
ENDBRANCH  80  86
ENDBRANCH  75  77
ENDBRANCH  74  75
ENDBRANCH  73  74
ENDBRANCH  72  73
ENDBRANCH  71  72
ENDBRANCH   1  71
TORSDOF 19
ENDMDL
