MODEL 1
REMARK VINA RESULT:     -12.1      0.000      0.000
REMARK SMILES Cc1c(Cl)cccc1NC(=O)NCc1cn([C@@H]2C[NH2+][C@H](C(=O)OCCOCCOC(=O)c3ccc(-c4c5nc(c(-c6cc(S(=O)(=O)[O-])ccc6F)c6ccc([nH]6)c(-c6cc(S(=O)(=O)[O-])ccc6F)c6nc(c(-c7cc(S(=O)(=O)[O-])ccc7F)c7ccc4[nH]7)C=C6)C=C5)cc3)C2)nn1
REMARK SMILES IDX 25 1 24 2 23 3 21 4 22 5 20 6 17 7 18 8 95 9 19 10 16 13
REMARK SMILES IDX 14 14 15 15 97 16 96 17 13 18 12 19 9 20 10 21 11 23 8 25
REMARK SMILES IDX 1 26 2 27 3 28 4 29 5 30 7 31 6 32 26 33 27 34 28 35 29 36
REMARK SMILES IDX 30 37 31 38 32 39 33 40 94 41 34 42 93 43 35 44 36 45 37 46
REMARK SMILES IDX 87 47 38 48 92 49 86 50 88 51 39 52 91 53 85 54 84 55 40 57
REMARK SMILES IDX 72 58 52 59 71 60 53 61 56 62 70 63 89 64 54 65 55 66 69 68
REMARK SMILES IDX 90 69 57 70 41 71 42 72 50 73 43 74 49 75 51 76 48 77 44 78
REMARK SMILES IDX 45 79 46 80 47 81 73 82 74 83 82 84 75 85 81 86 83 87 80 88
REMARK SMILES IDX 76 89 77 90 78 91 79 92 58 93 59 94 67 95 60 96 66 97 68 98
REMARK SMILES IDX 65 99 61 100 62 101 63 102 64 103
REMARK H PARENT 19 11 19 12 9 22 12 24 88 56 56 67
REMARK Flexibility Score: inf
ROOT
ATOM      1  C   UNL A   1      39.182  21.561  26.015  1.00  0.00     0.202 C 
ENDROOT
BRANCH   1   2
ATOM      2  C   UNL A   1      38.302  22.809  25.966  1.00  0.00     0.261 C 
BRANCH   2   3
ATOM      3  O   UNL A   1      37.374  22.763  24.873  1.00  0.00    -0.459 OA
BRANCH   3   4
ATOM      4  C   UNL A   1      36.073  23.011  25.190  1.00  0.00     0.365 C 
ATOM      5  O   UNL A   1      35.629  24.117  25.482  1.00  0.00    -0.245 OA
BRANCH   4   6
ATOM      6  C   UNL A   1      35.185  21.767  24.984  1.00  0.00     0.295 C 
ATOM      7  C   UNL A   1      32.833  21.891  25.610  1.00  0.00     0.170 C 
ATOM      8  C   UNL A   1      33.725  21.544  26.803  1.00  0.00     0.289 C 
ATOM      9  C   UNL A   1      33.802  22.141  24.454  1.00  0.00     0.110 C 
ATOM     10  N   UNL A   1      34.963  21.007  26.234  1.00  0.00    -0.333 N 
ATOM     11  H   UNL A   1      34.861  20.011  26.032  1.00  0.00     0.347 HD
ATOM     12  H   UNL A   1      35.748  21.098  26.879  1.00  0.00     0.347 HD
BRANCH   7  13
ATOM     13  N   UNL A   1      31.988  23.032  25.877  1.00  0.00    -0.243 N 
ATOM     14  C   UNL A   1      30.743  24.785  25.688  1.00  0.00     0.102 A 
ATOM     15  C   UNL A   1      31.404  23.832  24.951  1.00  0.00     0.137 A 
ATOM     16  N   UNL A   1      30.885  24.495  27.019  1.00  0.00    -0.134 NA
ATOM     17  N   UNL A   1      31.651  23.408  27.123  1.00  0.00    -0.067 NA
BRANCH  14  18
ATOM     18  C   UNL A   1      29.972  25.896  25.104  1.00  0.00     0.178 C 
BRANCH  18  19
ATOM     19  N   UNL A   1      30.210  26.162  23.717  1.00  0.00    -0.332 N 
ATOM     20  N   UNL A   1      31.857  27.898  23.419  1.00  0.00    -0.308 N 
ATOM     21  C   UNL A   1      31.103  26.860  23.021  1.00  0.00     0.319 C 
ATOM     22  H   UNL A   1      32.441  28.201  22.686  1.00  0.00     0.171 HD
ATOM     23  O   UNL A   1      31.188  26.571  21.817  1.00  0.00    -0.248 OA
ATOM     24  H   UNL A   1      29.550  25.719  23.136  1.00  0.00     0.165 HD
BRANCH  20  25
ATOM     25  C   UNL A   1      32.062  28.684  24.571  1.00  0.00     0.047 A 
ATOM     26  C   UNL A   1      33.842  27.035  25.425  1.00  0.00     0.048 C 
ATOM     27  C   UNL A   1      33.095  28.346  25.480  1.00  0.00    -0.009 A 
ATOM     28  C   UNL A   1      33.393  29.246  26.533  1.00  0.00     0.046 A 
ATOM     29  Cl  UNL A   1      34.643  28.924  27.687  1.00  0.00    -0.084 Cl
ATOM     30  C   UNL A   1      32.673  30.426  26.703  1.00  0.00     0.021 A 
ATOM     31  C   UNL A   1      31.225  29.745  24.913  1.00  0.00     0.026 A 
ATOM     32  C   UNL A   1      31.556  30.655  25.918  1.00  0.00     0.004 A 
ENDBRANCH  20  25
ENDBRANCH  18  19
ENDBRANCH  14  18
ENDBRANCH   7  13
ENDBRANCH   4   6
ENDBRANCH   3   4
ENDBRANCH   2   3
ENDBRANCH   1   2
BRANCH   1  33
ATOM     33  O   UNL A   1      40.598  21.724  26.103  1.00  0.00    -0.374 OA
BRANCH  33  34
ATOM     34  C   UNL A   1      41.168  22.683  26.989  1.00  0.00     0.202 C 
BRANCH  34  35
ATOM     35  C   UNL A   1      42.007  23.826  26.432  1.00  0.00     0.261 C 
BRANCH  35  36
ATOM     36  O   UNL A   1      41.650  25.071  27.003  1.00  0.00    -0.460 OA
BRANCH  36  37
ATOM     37  C   UNL A   1      41.251  25.983  26.095  1.00  0.00     0.338 C 
ATOM     38  O   UNL A   1      41.651  26.093  24.934  1.00  0.00    -0.246 OA
BRANCH  37  39
ATOM     39  C   UNL A   1      40.340  26.928  26.736  1.00  0.00     0.060 A 
ATOM     40  C   UNL A   1      40.625  28.269  26.481  1.00  0.00     0.016 A 
ATOM     41  C   UNL A   1      39.628  26.504  27.868  1.00  0.00     0.016 A 
ATOM     42  C   UNL A   1      40.524  29.141  27.532  1.00  0.00     0.010 A 
ATOM     43  C   UNL A   1      39.554  27.370  28.925  1.00  0.00     0.010 A 
ATOM     44  C   UNL A   1      40.108  28.638  28.769  1.00  0.00    -0.014 A 
BRANCH  44  45
ATOM     45  C   UNL A   1      40.153  29.527  29.902  1.00  0.00     0.031 A 
ATOM     46  C   UNL A   1      38.899  30.289  30.028  1.00  0.00     0.074 A 
ATOM     47  C   UNL A   1      41.190  29.559  30.756  1.00  0.00     0.049 A 
ATOM     48  N   UNL A   1      38.723  31.538  29.761  1.00  0.00    -0.248 NA
ATOM     49  C   UNL A   1      37.649  29.530  30.204  1.00  0.00     0.031 C 
ATOM     50  C   UNL A   1      42.360  28.680  30.816  1.00  0.00     0.029 A 
ATOM     51  N   UNL A   1      41.357  30.353  31.842  1.00  0.00    -0.354 N 
ATOM     52  C   UNL A   1      37.376  31.771  29.990  1.00  0.00     0.074 A 
ATOM     53  C   UNL A   1      36.744  30.482  29.986  1.00  0.00     0.031 C 
ATOM     54  C   UNL A   1      42.966  28.835  32.018  1.00  0.00     0.029 A 
ATOM     55  C   UNL A   1      42.294  29.893  32.758  1.00  0.00     0.049 A 
ATOM     56  H   UNL A   1      40.853  31.189  31.971  1.00  0.00     0.167 HD
ATOM     57  C   UNL A   1      36.949  32.976  30.448  1.00  0.00     0.034 A 
ATOM     58  C   UNL A   1      42.417  30.298  34.052  1.00  0.00     0.034 A 
ATOM     59  C   UNL A   1      37.974  33.982  30.269  1.00  0.00     0.049 A 
ATOM     60  C   UNL A   1      41.758  31.634  34.140  1.00  0.00     0.074 A 
ATOM     61  C   UNL A   1      38.636  34.488  29.168  1.00  0.00     0.029 A 
ATOM     62  N   UNL A   1      38.749  34.316  31.360  1.00  0.00    -0.354 N 
ATOM     63  N   UNL A   1      42.222  32.691  33.524  1.00  0.00    -0.248 NA
ATOM     64  C   UNL A   1      40.331  31.682  34.439  1.00  0.00     0.031 C 
ATOM     65  C   UNL A   1      39.986  34.653  29.593  1.00  0.00     0.029 A 
ATOM     66  C   UNL A   1      40.062  34.334  30.952  1.00  0.00     0.049 A 
ATOM     67  H   UNL A   1      38.422  34.507  32.269  1.00  0.00     0.167 HD
ATOM     68  C   UNL A   1      41.107  33.311  32.974  1.00  0.00     0.074 A 
ATOM     69  C   UNL A   1      39.962  32.698  33.649  1.00  0.00     0.031 C 
ATOM     70  C   UNL A   1      41.193  34.029  31.812  1.00  0.00     0.034 A 
BRANCH  57  71
ATOM     71  C   UNL A   1      35.793  33.159  31.403  1.00  0.00     0.023 A 
ATOM     72  C   UNL A   1      34.791  34.059  31.004  1.00  0.00     0.031 A 
ATOM     73  C   UNL A   1      35.751  32.753  32.758  1.00  0.00     0.131 A 
ATOM     74  C   UNL A   1      33.902  34.607  31.941  1.00  0.00     0.055 A 
ATOM     75  C   UNL A   1      34.817  33.248  33.671  1.00  0.00     0.041 A 
ATOM     76  F   UNL A   1      36.652  31.934  33.310  1.00  0.00    -0.206 F 
ATOM     77  C   UNL A   1      33.909  34.210  33.274  1.00  0.00     0.022 A 
BRANCH  74  78
ATOM     78  S   UNL A   1      32.867  35.994  31.416  1.00  0.00     0.124 S 
ATOM     79  O   UNL A   1      33.767  37.123  31.621  1.00  0.00    -0.237 OA
ATOM     80  O   UNL A   1      32.580  35.641  30.030  1.00  0.00    -0.237 OA
ATOM     81  O   UNL A   1      31.729  35.928  32.328  1.00  0.00    -0.744 OA
ENDBRANCH  74  78
ENDBRANCH  57  71
BRANCH  58  82
ATOM     82  C   UNL A   1      42.737  29.434  35.231  1.00  0.00     0.023 A 
ATOM     83  C   UNL A   1      42.082  28.213  35.508  1.00  0.00     0.031 A 
ATOM     84  C   UNL A   1      43.885  29.716  36.013  1.00  0.00     0.131 A 
ATOM     85  C   UNL A   1      42.569  27.352  36.528  1.00  0.00     0.055 A 
ATOM     86  C   UNL A   1      44.354  28.868  37.018  1.00  0.00     0.041 A 
ATOM     87  F   UNL A   1      44.647  30.792  35.770  1.00  0.00    -0.206 F 
ATOM     88  C   UNL A   1      43.702  27.677  37.276  1.00  0.00     0.022 A 
BRANCH  85  89
ATOM     89  S   UNL A   1      41.780  25.736  36.850  1.00  0.00     0.124 S 
ATOM     90  O   UNL A   1      40.984  25.533  35.647  1.00  0.00    -0.237 OA
ATOM     91  O   UNL A   1      42.929  24.855  37.027  1.00  0.00    -0.237 OA
ATOM     92  O   UNL A   1      41.002  25.973  38.067  1.00  0.00    -0.744 OA
ENDBRANCH  85  89
ENDBRANCH  58  82
BRANCH  70  93
ATOM     93  C   UNL A   1      42.569  34.354  31.260  1.00  0.00     0.023 A 
ATOM     94  C   UNL A   1      43.188  33.683  30.179  1.00  0.00     0.031 A 
ATOM     95  C   UNL A   1      43.212  35.497  31.767  1.00  0.00     0.131 A 
ATOM     96  C   UNL A   1      44.405  34.162  29.654  1.00  0.00     0.055 A 
ATOM     97  C   UNL A   1      44.402  35.983  31.228  1.00  0.00     0.041 A 
ATOM     98  F   UNL A   1      42.662  36.196  32.774  1.00  0.00    -0.206 F 
ATOM     99  C   UNL A   1      45.007  35.313  30.171  1.00  0.00     0.022 A 
BRANCH  96 100
ATOM    100  S   UNL A   1      45.241  33.286  28.291  1.00  0.00     0.124 S 
ATOM    101  O   UNL A   1      45.518  34.344  27.326  1.00  0.00    -0.237 OA
ATOM    102  O   UNL A   1      46.405  32.704  28.953  1.00  0.00    -0.237 OA
ATOM    103  O   UNL A   1      44.243  32.309  27.852  1.00  0.00    -0.744 OA
ENDBRANCH  96 100
ENDBRANCH  70  93
ENDBRANCH  44  45
ENDBRANCH  37  39
ENDBRANCH  36  37
ENDBRANCH  35  36
ENDBRANCH  34  35
ENDBRANCH  33  34
ENDBRANCH   1  33
TORSDOF 21
ENDMDL
MODEL 2
REMARK VINA RESULT:     -11.6      4.329     10.370
REMARK SMILES Cc1c(Cl)cccc1NC(=O)NCc1cn([C@@H]2C[NH2+][C@H](C(=O)OCCOCCOC(=O)c3ccc(-c4c5nc(c(-c6cc(S(=O)(=O)[O-])ccc6F)c6ccc([nH]6)c(-c6cc(S(=O)(=O)[O-])ccc6F)c6nc(c(-c7cc(S(=O)(=O)[O-])ccc7F)c7ccc4[nH]7)C=C6)C=C5)cc3)C2)nn1
REMARK SMILES IDX 25 1 24 2 23 3 21 4 22 5 20 6 17 7 18 8 95 9 19 10 16 13
REMARK SMILES IDX 14 14 15 15 97 16 96 17 13 18 12 19 9 20 10 21 11 23 8 25
REMARK SMILES IDX 1 26 2 27 3 28 4 29 5 30 7 31 6 32 26 33 27 34 28 35 29 36
REMARK SMILES IDX 30 37 31 38 32 39 33 40 94 41 34 42 93 43 35 44 36 45 37 46
REMARK SMILES IDX 87 47 38 48 92 49 86 50 88 51 39 52 91 53 85 54 84 55 40 57
REMARK SMILES IDX 72 58 52 59 71 60 53 61 56 62 70 63 89 64 54 65 55 66 69 68
REMARK SMILES IDX 90 69 57 70 41 71 42 72 50 73 43 74 49 75 51 76 48 77 44 78
REMARK SMILES IDX 45 79 46 80 47 81 73 82 74 83 82 84 75 85 81 86 83 87 80 88
REMARK SMILES IDX 76 89 77 90 78 91 79 92 58 93 59 94 67 95 60 96 66 97 68 98
REMARK SMILES IDX 65 99 61 100 62 101 63 102 64 103
REMARK H PARENT 19 11 19 12 9 22 12 24 88 56 56 67
REMARK Flexibility Score: inf
ROOT
ATOM      1  C   UNL A   1      33.983  29.846  26.150  1.00  0.00     0.202 C 
ENDROOT
BRANCH   1   2
ATOM      2  C   UNL A   1      33.504  28.445  25.772  1.00  0.00     0.261 C 
BRANCH   2   3
ATOM      3  O   UNL A   1      32.076  28.332  25.849  1.00  0.00    -0.459 OA
BRANCH   3   4
ATOM      4  C   UNL A   1      31.414  28.369  24.659  1.00  0.00     0.365 C 
ATOM      5  O   UNL A   1      31.542  29.257  23.822  1.00  0.00    -0.245 OA
BRANCH   4   6
ATOM      6  C   UNL A   1      30.603  27.080  24.412  1.00  0.00     0.295 C 
ATOM      7  C   UNL A   1      31.800  25.033  23.850  1.00  0.00     0.170 C 
ATOM      8  C   UNL A   1      31.541  25.902  22.619  1.00  0.00     0.289 C 
ATOM      9  C   UNL A   1      31.282  25.859  25.029  1.00  0.00     0.110 C 
ATOM     10  N   UNL A   1      30.425  26.780  22.975  1.00  0.00    -0.333 N 
ATOM     11  H   UNL A   1      29.534  26.308  22.817  1.00  0.00     0.347 HD
ATOM     12  H   UNL A   1      30.414  27.629  22.408  1.00  0.00     0.347 HD
BRANCH   7  13
ATOM     13  N   UNL A   1      33.196  24.690  23.990  1.00  0.00    -0.243 N 
ATOM     14  C   UNL A   1      35.157  23.824  23.746  1.00  0.00     0.102 A 
ATOM     15  C   UNL A   1      33.903  23.856  23.188  1.00  0.00     0.137 A 
ATOM     16  N   UNL A   1      35.193  24.683  24.812  1.00  0.00    -0.134 NA
ATOM     17  N   UNL A   1      33.978  25.216  24.950  1.00  0.00    -0.067 NA
BRANCH  14  18
ATOM     18  C   UNL A   1      36.276  23.020  23.223  1.00  0.00     0.178 C 
BRANCH  18  19
ATOM     19  N   UNL A   1      37.161  22.466  24.203  1.00  0.00    -0.332 N 
ATOM     20  N   UNL A   1      36.069  20.766  25.519  1.00  0.00    -0.308 N 
ATOM     21  C   UNL A   1      37.133  21.426  25.031  1.00  0.00     0.319 C 
ATOM     22  H   UNL A   1      36.360  20.024  26.098  1.00  0.00     0.171 HD
ATOM     23  O   UNL A   1      38.232  21.070  25.483  1.00  0.00    -0.248 OA
ATOM     24  H   UNL A   1      37.996  22.981  24.283  1.00  0.00     0.165 HD
BRANCH  20  25
ATOM     25  C   UNL A   1      34.662  20.819  25.452  1.00  0.00     0.047 A 
ATOM     26  C   UNL A   1      34.589  22.389  27.489  1.00  0.00     0.048 C 
ATOM     27  C   UNL A   1      33.949  21.689  26.314  1.00  0.00    -0.009 A 
ATOM     28  C   UNL A   1      32.557  21.854  26.110  1.00  0.00     0.046 A 
ATOM     29  Cl  UNL A   1      31.602  22.902  27.106  1.00  0.00    -0.084 Cl
ATOM     30  C   UNL A   1      31.884  21.158  25.109  1.00  0.00     0.021 A 
ATOM     31  C   UNL A   1      33.918  19.977  24.628  1.00  0.00     0.026 A 
ATOM     32  C   UNL A   1      32.557  20.182  24.394  1.00  0.00     0.004 A 
ENDBRANCH  20  25
ENDBRANCH  18  19
ENDBRANCH  14  18
ENDBRANCH   7  13
ENDBRANCH   4   6
ENDBRANCH   3   4
ENDBRANCH   2   3
ENDBRANCH   1   2
BRANCH   1  33
ATOM     33  O   UNL A   1      33.613  30.376  27.422  1.00  0.00    -0.374 OA
BRANCH  33  34
ATOM     34  C   UNL A   1      34.311  31.485  27.981  1.00  0.00     0.202 C 
BRANCH  34  35
ATOM     35  C   UNL A   1      35.226  31.279  29.182  1.00  0.00     0.261 C 
BRANCH  35  36
ATOM     36  O   UNL A   1      35.854  30.011  29.157  1.00  0.00    -0.460 OA
BRANCH  36  37
ATOM     37  C   UNL A   1      37.110  30.024  29.645  1.00  0.00     0.338 C 
ATOM     38  O   UNL A   1      37.581  30.831  30.449  1.00  0.00    -0.246 OA
BRANCH  37  39
ATOM     39  C   UNL A   1      37.894  28.991  28.973  1.00  0.00     0.060 A 
ATOM     40  C   UNL A   1      38.436  28.031  29.828  1.00  0.00     0.016 A 
ATOM     41  C   UNL A   1      38.436  29.278  27.712  1.00  0.00     0.016 A 
ATOM     42  C   UNL A   1      39.721  27.628  29.582  1.00  0.00     0.010 A 
ATOM     43  C   UNL A   1      39.730  28.897  27.482  1.00  0.00     0.010 A 
ATOM     44  C   UNL A   1      40.383  28.172  28.476  1.00  0.00    -0.014 A 
BRANCH  44  45
ATOM     45  C   UNL A   1      41.780  27.863  28.314  1.00  0.00     0.031 A 
ATOM     46  C   UNL A   1      41.961  26.568  27.635  1.00  0.00     0.074 A 
ATOM     47  C   UNL A   1      42.757  28.714  28.671  1.00  0.00     0.049 A 
ATOM     48  N   UNL A   1      42.350  25.462  28.170  1.00  0.00    -0.248 NA
ATOM     49  C   UNL A   1      41.390  26.415  26.286  1.00  0.00     0.031 C 
ATOM     50  C   UNL A   1      42.645  30.096  29.142  1.00  0.00     0.029 A 
ATOM     51  N   UNL A   1      44.097  28.536  28.583  1.00  0.00    -0.354 N 
ATOM     52  C   UNL A   1      42.315  24.530  27.144  1.00  0.00     0.074 A 
ATOM     53  C   UNL A   1      41.478  25.096  26.124  1.00  0.00     0.031 C 
ATOM     54  C   UNL A   1      43.859  30.691  29.053  1.00  0.00     0.029 A 
ATOM     55  C   UNL A   1      44.843  29.707  28.625  1.00  0.00     0.049 A 
ATOM     56  H   UNL A   1      44.511  27.645  28.496  1.00  0.00     0.167 HD
ATOM     57  C   UNL A   1      43.208  23.508  27.105  1.00  0.00     0.034 A 
ATOM     58  C   UNL A   1      46.139  29.848  28.233  1.00  0.00     0.034 A 
ATOM     59  C   UNL A   1      43.848  23.340  28.392  1.00  0.00     0.049 A 
ATOM     60  C   UNL A   1      46.740  28.482  28.263  1.00  0.00     0.074 A 
ATOM     61  C   UNL A   1      43.383  23.060  29.663  1.00  0.00     0.029 A 
ATOM     62  N   UNL A   1      45.108  23.875  28.562  1.00  0.00    -0.354 N 
ATOM     63  N   UNL A   1      46.907  27.810  29.373  1.00  0.00    -0.248 NA
ATOM     64  C   UNL A   1      46.644  27.658  27.063  1.00  0.00     0.031 C 
ATOM     65  C   UNL A   1      44.160  23.883  30.528  1.00  0.00     0.029 A 
ATOM     66  C   UNL A   1      45.119  24.549  29.760  1.00  0.00     0.049 A 
ATOM     67  H   UNL A   1      45.864  23.790  27.937  1.00  0.00     0.167 HD
ATOM     68  C   UNL A   1      46.498  26.515  29.081  1.00  0.00     0.074 A 
ATOM     69  C   UNL A   1      46.436  26.459  27.620  1.00  0.00     0.031 C 
ATOM     70  C   UNL A   1      45.950  25.708  30.041  1.00  0.00     0.034 A 
BRANCH  57  71
ATOM     71  C   UNL A   1      43.785  22.935  25.832  1.00  0.00     0.023 A 
ATOM     72  C   UNL A   1      43.734  21.538  25.698  1.00  0.00     0.031 A 
ATOM     73  C   UNL A   1      44.618  23.612  24.909  1.00  0.00     0.131 A 
ATOM     74  C   UNL A   1      44.568  20.872  24.787  1.00  0.00     0.055 A 
ATOM     75  C   UNL A   1      45.392  22.948  23.956  1.00  0.00     0.041 A 
ATOM     76  F   UNL A   1      44.812  24.935  24.925  1.00  0.00    -0.206 F 
ATOM     77  C   UNL A   1      45.400  21.567  23.915  1.00  0.00     0.022 A 
BRANCH  74  78
ATOM     78  S   UNL A   1      44.683  19.072  24.904  1.00  0.00     0.124 S 
ATOM     79  O   UNL A   1      44.854  18.698  23.504  1.00  0.00    -0.237 OA
ATOM     80  O   UNL A   1      45.849  18.904  25.764  1.00  0.00    -0.237 OA
ATOM     81  O   UNL A   1      43.405  18.692  25.501  1.00  0.00    -0.744 OA
ENDBRANCH  74  78
ENDBRANCH  57  71
BRANCH  58  82
ATOM     82  C   UNL A   1      46.730  31.015  27.506  1.00  0.00     0.023 A 
ATOM     83  C   UNL A   1      45.961  32.058  26.944  1.00  0.00     0.031 A 
ATOM     84  C   UNL A   1      48.131  31.224  27.543  1.00  0.00     0.131 A 
ATOM     85  C   UNL A   1      46.594  33.228  26.444  1.00  0.00     0.055 A 
ATOM     86  C   UNL A   1      48.747  32.373  27.045  1.00  0.00     0.041 A 
ATOM     87  F   UNL A   1      48.951  30.351  28.148  1.00  0.00    -0.206 F 
ATOM     88  C   UNL A   1      47.980  33.385  26.498  1.00  0.00     0.022 A 
BRANCH  85  89
ATOM     89  S   UNL A   1      45.613  34.618  25.781  1.00  0.00     0.124 S 
ATOM     90  O   UNL A   1      45.824  34.492  24.345  1.00  0.00    -0.237 OA
ATOM     91  O   UNL A   1      44.272  34.318  26.271  1.00  0.00    -0.237 OA
ATOM     92  O   UNL A   1      46.234  35.795  26.391  1.00  0.00    -0.744 OA
ENDBRANCH  85  89
ENDBRANCH  58  82
BRANCH  70  93
ATOM     93  C   UNL A   1      46.020  26.154  31.491  1.00  0.00     0.023 A 
ATOM     94  C   UNL A   1      44.954  26.745  32.209  1.00  0.00     0.031 A 
ATOM     95  C   UNL A   1      47.182  25.822  32.209  1.00  0.00     0.131 A 
ATOM     96  C   UNL A   1      45.084  26.987  33.592  1.00  0.00     0.055 A 
ATOM     97  C   UNL A   1      47.296  26.038  33.581  1.00  0.00     0.041 A 
ATOM     98  F   UNL A   1      48.219  25.232  31.591  1.00  0.00    -0.206 F 
ATOM     99  C   UNL A   1      46.248  26.626  34.279  1.00  0.00     0.022 A 
BRANCH  96 100
ATOM    100  S   UNL A   1      43.740  27.788  34.528  1.00  0.00     0.124 S 
ATOM    101  O   UNL A   1      43.775  27.112  35.820  1.00  0.00    -0.237 OA
ATOM    102  O   UNL A   1      44.146  29.190  34.530  1.00  0.00    -0.237 OA
ATOM    103  O   UNL A   1      42.549  27.504  33.724  1.00  0.00    -0.744 OA
ENDBRANCH  96 100
ENDBRANCH  70  93
ENDBRANCH  44  45
ENDBRANCH  37  39
ENDBRANCH  36  37
ENDBRANCH  35  36
ENDBRANCH  34  35
ENDBRANCH  33  34
ENDBRANCH   1  33
TORSDOF 21
ENDMDL
MODEL 3
REMARK VINA RESULT:     -11.6      4.051      8.765
REMARK SMILES Cc1c(Cl)cccc1NC(=O)NCc1cn([C@@H]2C[NH2+][C@H](C(=O)OCCOCCOC(=O)c3ccc(-c4c5nc(c(-c6cc(S(=O)(=O)[O-])ccc6F)c6ccc([nH]6)c(-c6cc(S(=O)(=O)[O-])ccc6F)c6nc(c(-c7cc(S(=O)(=O)[O-])ccc7F)c7ccc4[nH]7)C=C6)C=C5)cc3)C2)nn1
REMARK SMILES IDX 25 1 24 2 23 3 21 4 22 5 20 6 17 7 18 8 95 9 19 10 16 13
REMARK SMILES IDX 14 14 15 15 97 16 96 17 13 18 12 19 9 20 10 21 11 23 8 25
REMARK SMILES IDX 1 26 2 27 3 28 4 29 5 30 7 31 6 32 26 33 27 34 28 35 29 36
REMARK SMILES IDX 30 37 31 38 32 39 33 40 94 41 34 42 93 43 35 44 36 45 37 46
REMARK SMILES IDX 87 47 38 48 92 49 86 50 88 51 39 52 91 53 85 54 84 55 40 57
REMARK SMILES IDX 72 58 52 59 71 60 53 61 56 62 70 63 89 64 54 65 55 66 69 68
REMARK SMILES IDX 90 69 57 70 41 71 42 72 50 73 43 74 49 75 51 76 48 77 44 78
REMARK SMILES IDX 45 79 46 80 47 81 73 82 74 83 82 84 75 85 81 86 83 87 80 88
REMARK SMILES IDX 76 89 77 90 78 91 79 92 58 93 59 94 67 95 60 96 66 97 68 98
REMARK SMILES IDX 65 99 61 100 62 101 63 102 64 103
REMARK H PARENT 19 11 19 12 9 22 12 24 88 56 56 67
REMARK Flexibility Score: inf
ROOT
ATOM      1  C   UNL A   1      39.794  21.593  26.572  1.00  0.00     0.202 C 
ENDROOT
BRANCH   1   2
ATOM      2  C   UNL A   1      38.559  21.783  25.694  1.00  0.00     0.261 C 
BRANCH   2   3
ATOM      3  O   UNL A   1      37.818  22.955  26.063  1.00  0.00    -0.459 OA
BRANCH   3   4
ATOM      4  C   UNL A   1      36.482  22.919  25.801  1.00  0.00     0.365 C 
ATOM      5  O   UNL A   1      35.682  23.775  26.165  1.00  0.00    -0.245 OA
BRANCH   4   6
ATOM      6  C   UNL A   1      36.114  21.757  24.856  1.00  0.00     0.295 C 
ATOM      7  C   UNL A   1      33.793  21.510  24.155  1.00  0.00     0.170 C 
ATOM      8  C   UNL A   1      34.056  20.847  25.508  1.00  0.00     0.289 C 
ATOM      9  C   UNL A   1      35.111  22.193  23.789  1.00  0.00     0.110 C 
ATOM     10  N   UNL A   1      35.501  20.613  25.564  1.00  0.00    -0.333 N 
ATOM     11  H   UNL A   1      35.739  19.736  25.099  1.00  0.00     0.347 HD
ATOM     12  H   UNL A   1      35.836  20.537  26.525  1.00  0.00     0.347 HD
BRANCH   7  13
ATOM     13  N   UNL A   1      32.688  22.439  24.211  1.00  0.00    -0.243 N 
ATOM     14  C   UNL A   1      31.243  23.914  24.838  1.00  0.00     0.102 A 
ATOM     15  C   UNL A   1      32.387  23.268  25.241  1.00  0.00     0.137 A 
ATOM     16  N   UNL A   1      30.931  23.516  23.565  1.00  0.00    -0.134 NA
ATOM     17  N   UNL A   1      31.833  22.609  23.187  1.00  0.00    -0.067 NA
BRANCH  14  18
ATOM     18  C   UNL A   1      30.525  24.909  25.653  1.00  0.00     0.178 C 
BRANCH  18  19
ATOM     19  N   UNL A   1      29.641  25.782  24.939  1.00  0.00    -0.332 N 
ATOM     20  N   UNL A   1      30.745  27.827  24.298  1.00  0.00    -0.308 N 
ATOM     21  C   UNL A   1      29.773  26.903  24.236  1.00  0.00     0.319 C 
ATOM     22  H   UNL A   1      30.584  28.543  23.641  1.00  0.00     0.171 HD
ATOM     23  O   UNL A   1      28.827  27.176  23.481  1.00  0.00    -0.248 OA
ATOM     24  H   UNL A   1      28.706  25.477  24.980  1.00  0.00     0.165 HD
BRANCH  20  25
ATOM     25  C   UNL A   1      31.926  28.081  25.025  1.00  0.00     0.047 A 
ATOM     26  C   UNL A   1      31.184  30.507  25.452  1.00  0.00     0.048 C 
ATOM     27  C   UNL A   1      32.093  29.324  25.686  1.00  0.00    -0.009 A 
ATOM     28  C   UNL A   1      33.203  29.489  26.549  1.00  0.00     0.046 A 
ATOM     29  Cl  UNL A   1      33.486  30.967  27.407  1.00  0.00    -0.084 Cl
ATOM     30  C   UNL A   1      34.138  28.472  26.730  1.00  0.00     0.021 A 
ATOM     31  C   UNL A   1      32.997  27.189  25.052  1.00  0.00     0.026 A 
ATOM     32  C   UNL A   1      34.060  27.335  25.945  1.00  0.00     0.004 A 
ENDBRANCH  20  25
ENDBRANCH  18  19
ENDBRANCH  14  18
ENDBRANCH   7  13
ENDBRANCH   4   6
ENDBRANCH   3   4
ENDBRANCH   2   3
ENDBRANCH   1   2
BRANCH   1  33
ATOM     33  O   UNL A   1      41.082  21.599  25.955  1.00  0.00    -0.374 OA
BRANCH  33  34
ATOM     34  C   UNL A   1      42.166  20.870  26.522  1.00  0.00     0.202 C 
BRANCH  34  35
ATOM     35  C   UNL A   1      42.812  19.736  25.736  1.00  0.00     0.261 C 
BRANCH  35  36
ATOM     36  O   UNL A   1      44.202  19.941  25.558  1.00  0.00    -0.460 OA
BRANCH  36  37
ATOM     37  C   UNL A   1      44.522  20.425  24.341  1.00  0.00     0.338 C 
ATOM     38  O   UNL A   1      44.502  19.810  23.273  1.00  0.00    -0.246 OA
BRANCH  37  39
ATOM     39  C   UNL A   1      45.028  21.787  24.488  1.00  0.00     0.060 A 
ATOM     40  C   UNL A   1      46.019  21.933  25.459  1.00  0.00     0.016 A 
ATOM     41  C   UNL A   1      44.215  22.849  24.065  1.00  0.00     0.016 A 
ATOM     42  C   UNL A   1      45.949  23.039  26.263  1.00  0.00     0.010 A 
ATOM     43  C   UNL A   1      44.129  23.940  24.888  1.00  0.00     0.010 A 
ATOM     44  C   UNL A   1      44.920  23.958  26.033  1.00  0.00    -0.014 A 
BRANCH  44  45
ATOM     45  C   UNL A   1      44.761  25.034  26.977  1.00  0.00     0.031 A 
ATOM     46  C   UNL A   1      45.940  25.917  26.978  1.00  0.00     0.074 A 
ATOM     47  C   UNL A   1      43.630  25.220  27.680  1.00  0.00     0.049 A 
ATOM     48  N   UNL A   1      46.848  25.993  27.891  1.00  0.00    -0.248 NA
ATOM     49  C   UNL A   1      46.300  26.584  25.715  1.00  0.00     0.031 C 
ATOM     50  C   UNL A   1      42.351  24.518  27.565  1.00  0.00     0.029 A 
ATOM     51  N   UNL A   1      43.365  26.178  28.601  1.00  0.00    -0.354 N 
ATOM     52  C   UNL A   1      47.762  26.921  27.417  1.00  0.00     0.074 A 
ATOM     53  C   UNL A   1      47.522  27.029  26.005  1.00  0.00     0.031 C 
ATOM     54  C   UNL A   1      41.394  25.239  28.199  1.00  0.00     0.029 A 
ATOM     55  C   UNL A   1      42.014  26.385  28.849  1.00  0.00     0.049 A 
ATOM     56  H   UNL A   1      44.073  26.687  29.058  1.00  0.00     0.167 HD
ATOM     57  C   UNL A   1      48.438  27.729  28.274  1.00  0.00     0.034 A 
ATOM     58  C   UNL A   1      41.466  27.476  29.454  1.00  0.00     0.034 A 
ATOM     59  C   UNL A   1      48.361  27.217  29.625  1.00  0.00     0.049 A 
ATOM     60  C   UNL A   1      42.561  28.114  30.242  1.00  0.00     0.074 A 
ATOM     61  C   UNL A   1      48.750  26.034  30.225  1.00  0.00     0.029 A 
ATOM     62  N   UNL A   1      47.441  27.787  30.481  1.00  0.00    -0.354 N 
ATOM     63  N   UNL A   1      43.118  27.534  31.273  1.00  0.00    -0.248 NA
ATOM     64  C   UNL A   1      43.397  29.111  29.580  1.00  0.00     0.031 C 
ATOM     65  C   UNL A   1      47.700  25.721  31.136  1.00  0.00     0.029 A 
ATOM     66  C   UNL A   1      46.775  26.768  31.119  1.00  0.00     0.049 A 
ATOM     67  H   UNL A   1      47.289  28.751  30.611  1.00  0.00     0.167 HD
ATOM     68  C   UNL A   1      44.482  27.753  31.124  1.00  0.00     0.074 A 
ATOM     69  C   UNL A   1      44.586  28.809  30.116  1.00  0.00     0.031 C 
ATOM     70  C   UNL A   1      45.402  26.854  31.590  1.00  0.00     0.034 A 
BRANCH  57  71
ATOM     71  C   UNL A   1      48.819  29.158  27.970  1.00  0.00     0.023 A 
ATOM     72  C   UNL A   1      47.769  30.091  27.944  1.00  0.00     0.031 A 
ATOM     73  C   UNL A   1      50.050  29.604  27.433  1.00  0.00     0.131 A 
ATOM     74  C   UNL A   1      47.921  31.328  27.299  1.00  0.00     0.055 A 
ATOM     75  C   UNL A   1      50.216  30.865  26.856  1.00  0.00     0.041 A 
ATOM     76  F   UNL A   1      51.137  28.830  27.344  1.00  0.00    -0.206 F 
ATOM     77  C   UNL A   1      49.138  31.722  26.752  1.00  0.00     0.022 A 
BRANCH  74  78
ATOM     78  S   UNL A   1      46.440  32.326  27.021  1.00  0.00     0.124 S 
ATOM     79  O   UNL A   1      46.985  33.678  27.067  1.00  0.00    -0.237 OA
ATOM     80  O   UNL A   1      46.002  31.850  25.713  1.00  0.00    -0.237 OA
ATOM     81  O   UNL A   1      45.575  31.963  28.141  1.00  0.00    -0.744 OA
ENDBRANCH  74  78
ENDBRANCH  57  71
BRANCH  58  82
ATOM     82  C   UNL A   1      40.187  28.155  29.080  1.00  0.00     0.023 A 
ATOM     83  C   UNL A   1      39.296  28.719  30.020  1.00  0.00     0.031 A 
ATOM     84  C   UNL A   1      39.924  28.449  27.719  1.00  0.00     0.131 A 
ATOM     85  C   UNL A   1      38.204  29.518  29.585  1.00  0.00     0.055 A 
ATOM     86  C   UNL A   1      38.846  29.229  27.298  1.00  0.00     0.041 A 
ATOM     87  F   UNL A   1      40.760  28.056  26.746  1.00  0.00    -0.206 F 
ATOM     88  C   UNL A   1      37.984  29.774  28.231  1.00  0.00     0.022 A 
BRANCH  85  89
ATOM     89  S   UNL A   1      37.086  30.317  30.788  1.00  0.00     0.124 S 
ATOM     90  O   UNL A   1      36.504  31.397  30.002  1.00  0.00    -0.237 OA
ATOM     91  O   UNL A   1      36.192  29.225  31.159  1.00  0.00    -0.237 OA
ATOM     92  O   UNL A   1      37.989  30.753  31.855  1.00  0.00    -0.744 OA
ENDBRANCH  85  89
ENDBRANCH  58  82
BRANCH  70  93
ATOM     93  C   UNL A   1      44.927  25.733  32.497  1.00  0.00     0.023 A 
ATOM     94  C   UNL A   1      44.676  25.864  33.884  1.00  0.00     0.031 A 
ATOM     95  C   UNL A   1      44.573  24.518  31.885  1.00  0.00     0.131 A 
ATOM     96  C   UNL A   1      44.097  24.797  34.600  1.00  0.00     0.055 A 
ATOM     97  C   UNL A   1      43.977  23.475  32.592  1.00  0.00     0.041 A 
ATOM     98  F   UNL A   1      44.759  24.341  30.567  1.00  0.00    -0.206 F 
ATOM     99  C   UNL A   1      43.741  23.608  33.955  1.00  0.00     0.022 A 
BRANCH  96 100
ATOM    100  S   UNL A   1      43.807  24.928  36.395  1.00  0.00     0.124 S 
ATOM    101  O   UNL A   1      44.652  23.878  36.954  1.00  0.00    -0.237 OA
ATOM    102  O   UNL A   1      44.217  26.299  36.683  1.00  0.00    -0.237 OA
ATOM    103  O   UNL A   1      42.369  24.686  36.526  1.00  0.00    -0.744 OA
ENDBRANCH  96 100
ENDBRANCH  70  93
ENDBRANCH  44  45
ENDBRANCH  37  39
ENDBRANCH  36  37
ENDBRANCH  35  36
ENDBRANCH  34  35
ENDBRANCH  33  34
ENDBRANCH   1  33
TORSDOF 21
ENDMDL
