MODEL 1
REMARK VINA RESULT:     -10.4      0.000      0.000
REMARK SMILES CC(C)n1ccc(C#CC(=O)OCCOCCOC(=O)c2ccc(-c3c4nc(c(-c5cc(S(=O)(=O)[O-])ccc5F)c5ccc([nH]5)c(-c5cc(S(=O)(=O)[O-])ccc5F)c5nc(c(-c6cc(S(=O)(=O)[O-])ccc6F)c6ccc3[nH]6)C=C5)C=C4)cc2)n1
REMARK SMILES IDX 16 1 15 2 14 3 13 4 12 5 10 6 11 7 9 8 8 9 7 10 4 11 5 12
REMARK SMILES IDX 84 13 6 14 2 15 1 16 3 17 17 18 18 19 19 20 20 21 21 22
REMARK SMILES IDX 22 23 83 24 23 25 82 26 24 27 25 28 26 29 76 30 27 31 81 32
REMARK SMILES IDX 75 33 77 34 28 35 80 36 74 37 73 38 29 40 61 41 41 42 60 43
REMARK SMILES IDX 42 44 45 45 59 46 78 47 43 48 44 49 58 51 79 52 46 53 30 54
REMARK SMILES IDX 31 55 39 56 32 57 38 58 40 59 37 60 33 61 34 62 35 63 36 64
REMARK SMILES IDX 62 65 63 66 71 67 64 68 70 69 72 70 69 71 65 72 66 73 67 74
REMARK SMILES IDX 68 75 47 76 48 77 56 78 49 79 55 80 57 81 54 82 50 83 51 84
REMARK SMILES IDX 52 85 53 86
REMARK H PARENT 77 39 45 50
REMARK Flexibility Score: inf
ROOT
ATOM      1  C   UNL A   1      34.749  34.685  27.870  1.00  0.00     0.202 C 
ENDROOT
BRANCH   1   2
ATOM      2  O   UNL A   1      34.248  35.891  28.445  1.00  0.00    -0.374 OA
BRANCH   2   3
ATOM      3  C   UNL A   1      32.938  35.907  29.011  1.00  0.00     0.202 C 
BRANCH   3   4
ATOM      4  C   UNL A   1      32.842  36.031  30.530  1.00  0.00     0.262 C 
BRANCH   4   5
ATOM      5  O   UNL A   1      33.029  37.385  30.965  1.00  0.00    -0.454 OA
BRANCH   5   6
ATOM      6  C   UNL A   1      33.702  37.525  32.135  1.00  0.00     0.384 C 
ATOM      7  O   UNL A   1      33.709  38.509  32.862  1.00  0.00    -0.236 OA
BRANCH   6   8
ATOM      8  C   UNL A   1      34.376  36.333  32.540  1.00  0.00     0.024 C 
ATOM      9  C   UNL A   1      35.058  35.405  32.920  1.00  0.00    -0.033 C 
BRANCH   9  10
ATOM     10  C   UNL A   1      35.963  34.410  33.351  1.00  0.00     0.135 A 
ATOM     11  N   UNL A   1      37.786  33.619  34.074  1.00  0.00    -0.269 N 
ATOM     12  C   UNL A   1      36.901  32.572  34.109  1.00  0.00     0.110 A 
ATOM     13  N   UNL A   1      37.231  34.748  33.583  1.00  0.00    -0.164 NA
ATOM     14  C   UNL A   1      35.700  33.064  33.651  1.00  0.00     0.059 A 
BRANCH  11  15
ATOM     15  C   UNL A   1      39.198  33.615  34.461  1.00  0.00     0.101 C 
ATOM     16  C   UNL A   1      39.809  32.207  34.418  1.00  0.00     0.033 C 
ATOM     17  C   UNL A   1      40.058  34.552  33.604  1.00  0.00     0.033 C 
ENDBRANCH  11  15
ENDBRANCH   9  10
ENDBRANCH   6   8
ENDBRANCH   5   6
ENDBRANCH   4   5
ENDBRANCH   3   4
ENDBRANCH   2   3
ENDBRANCH   1   2
BRANCH   1  18
ATOM     18  C   UNL A   1      34.260  33.360  28.438  1.00  0.00     0.261 C 
BRANCH  18  19
ATOM     19  O   UNL A   1      35.285  32.670  29.137  1.00  0.00    -0.460 OA
BRANCH  19  20
ATOM     20  C   UNL A   1      35.869  31.678  28.425  1.00  0.00     0.338 C 
ATOM     21  O   UNL A   1      35.539  31.274  27.323  1.00  0.00    -0.246 OA
BRANCH  20  22
ATOM     22  C   UNL A   1      36.905  31.062  29.258  1.00  0.00     0.060 A 
ATOM     23  C   UNL A   1      38.151  31.691  29.258  1.00  0.00     0.016 A 
ATOM     24  C   UNL A   1      36.724  29.758  29.747  1.00  0.00     0.016 A 
ATOM     25  C   UNL A   1      39.261  30.925  29.524  1.00  0.00     0.010 A 
ATOM     26  C   UNL A   1      37.834  28.991  29.991  1.00  0.00     0.010 A 
ATOM     27  C   UNL A   1      39.086  29.563  29.783  1.00  0.00    -0.014 A 
BRANCH  27  28
ATOM     28  C   UNL A   1      40.266  28.741  29.908  1.00  0.00     0.031 A 
ATOM     29  C   UNL A   1      40.709  28.599  31.308  1.00  0.00     0.074 A 
ATOM     30  C   UNL A   1      40.816  28.104  28.859  1.00  0.00     0.049 A 
ATOM     31  N   UNL A   1      41.750  29.118  31.863  1.00  0.00    -0.248 NA
ATOM     32  C   UNL A   1      39.764  27.987  32.258  1.00  0.00     0.031 C 
ATOM     33  C   UNL A   1      40.285  27.963  27.501  1.00  0.00     0.029 A 
ATOM     34  N   UNL A   1      41.939  27.345  28.826  1.00  0.00    -0.354 N 
ATOM     35  C   UNL A   1      41.718  28.683  33.180  1.00  0.00     0.074 A 
ATOM     36  C   UNL A   1      40.379  28.222  33.415  1.00  0.00     0.031 C 
ATOM     37  C   UNL A   1      40.962  26.981  26.861  1.00  0.00     0.029 A 
ATOM     38  C   UNL A   1      42.045  26.517  27.716  1.00  0.00     0.049 A 
ATOM     39  H   UNL A   1      42.625  27.379  29.532  1.00  0.00     0.167 HD
ATOM     40  C   UNL A   1      42.868  28.478  33.877  1.00  0.00     0.034 A 
ATOM     41  C   UNL A   1      42.904  25.471  27.569  1.00  0.00     0.034 A 
ATOM     42  C   UNL A   1      43.979  29.162  33.251  1.00  0.00     0.049 A 
ATOM     43  C   UNL A   1      44.013  25.691  28.539  1.00  0.00     0.074 A 
ATOM     44  C   UNL A   1      44.238  30.483  32.933  1.00  0.00     0.029 A 
ATOM     45  N   UNL A   1      44.854  28.422  32.485  1.00  0.00    -0.354 N 
ATOM     46  N   UNL A   1      44.850  26.690  28.454  1.00  0.00    -0.248 NA
ATOM     47  C   UNL A   1      43.879  25.116  29.872  1.00  0.00     0.031 C 
ATOM     48  C   UNL A   1      44.872  30.437  31.656  1.00  0.00     0.029 A 
ATOM     49  C   UNL A   1      45.044  29.097  31.302  1.00  0.00     0.049 A 
ATOM     50  H   UNL A   1      45.268  27.565  32.739  1.00  0.00     0.167 HD
ATOM     51  C   UNL A   1      45.009  27.144  29.756  1.00  0.00     0.074 A 
ATOM     52  C   UNL A   1      44.459  26.080  30.595  1.00  0.00     0.031 C 
ATOM     53  C   UNL A   1      45.297  28.455  30.024  1.00  0.00     0.034 A 
BRANCH  40  54
ATOM     54  C   UNL A   1      43.055  27.367  34.885  1.00  0.00     0.023 A 
ATOM     55  C   UNL A   1      43.764  26.232  34.457  1.00  0.00     0.031 A 
ATOM     56  C   UNL A   1      42.361  27.228  36.113  1.00  0.00     0.131 A 
ATOM     57  C   UNL A   1      43.682  25.020  35.163  1.00  0.00     0.055 A 
ATOM     58  C   UNL A   1      42.341  26.041  36.848  1.00  0.00     0.041 A 
ATOM     59  F   UNL A   1      41.588  28.186  36.632  1.00  0.00    -0.206 F 
ATOM     60  C   UNL A   1      42.975  24.916  36.357  1.00  0.00     0.022 A 
BRANCH  57  61
ATOM     61  S   UNL A   1      44.362  23.534  34.389  1.00  0.00     0.124 S 
ATOM     62  O   UNL A   1      45.324  24.104  33.451  1.00  0.00    -0.237 OA
ATOM     63  O   UNL A   1      44.921  22.828  35.538  1.00  0.00    -0.237 OA
ATOM     64  O   UNL A   1      43.193  22.905  33.780  1.00  0.00    -0.744 OA
ENDBRANCH  57  61
ENDBRANCH  40  54
BRANCH  41  65
ATOM     65  C   UNL A   1      42.599  24.151  26.944  1.00  0.00     0.023 A 
ATOM     66  C   UNL A   1      43.514  23.450  26.128  1.00  0.00     0.031 A 
ATOM     67  C   UNL A   1      41.443  23.440  27.344  1.00  0.00     0.131 A 
ATOM     68  C   UNL A   1      43.252  22.110  25.746  1.00  0.00     0.055 A 
ATOM     69  C   UNL A   1      41.187  22.122  26.962  1.00  0.00     0.041 A 
ATOM     70  F   UNL A   1      40.557  23.975  28.199  1.00  0.00    -0.206 F 
ATOM     71  C   UNL A   1      42.097  21.447  26.165  1.00  0.00     0.022 A 
BRANCH  68  72
ATOM     72  S   UNL A   1      44.461  21.168  24.757  1.00  0.00     0.124 S 
ATOM     73  O   UNL A   1      45.663  21.247  25.579  1.00  0.00    -0.237 OA
ATOM     74  O   UNL A   1      43.829  19.859  24.652  1.00  0.00    -0.237 OA
ATOM     75  O   UNL A   1      44.530  21.914  23.500  1.00  0.00    -0.744 OA
ENDBRANCH  68  72
ENDBRANCH  41  65
BRANCH  53  76
ATOM     76  C   UNL A   1      45.712  29.355  28.874  1.00  0.00     0.023 A 
ATOM     77  C   UNL A   1      44.904  30.367  28.301  1.00  0.00     0.031 A 
ATOM     78  C   UNL A   1      47.042  29.259  28.429  1.00  0.00     0.131 A 
ATOM     79  C   UNL A   1      45.438  31.224  27.316  1.00  0.00     0.055 A 
ATOM     80  C   UNL A   1      47.573  30.123  27.472  1.00  0.00     0.041 A 
ATOM     81  F   UNL A   1      47.870  28.338  28.950  1.00  0.00    -0.206 F 
ATOM     82  C   UNL A   1      46.770  31.107  26.906  1.00  0.00     0.022 A 
BRANCH  79  83
ATOM     83  S   UNL A   1      44.405  32.504  26.529  1.00  0.00     0.124 S 
ATOM     84  O   UNL A   1      43.788  33.189  27.659  1.00  0.00    -0.237 OA
ATOM     85  O   UNL A   1      45.383  33.277  25.769  1.00  0.00    -0.237 OA
ATOM     86  O   UNL A   1      43.472  31.730  25.706  1.00  0.00    -0.744 OA
ENDBRANCH  79  83
ENDBRANCH  53  76
ENDBRANCH  27  28
ENDBRANCH  20  22
ENDBRANCH  19  20
ENDBRANCH  18  19
ENDBRANCH   1  18
TORSDOF 19
ENDMDL
MODEL 2
REMARK VINA RESULT:     -10.3      3.985      9.061
REMARK SMILES CC(C)n1ccc(C#CC(=O)OCCOCCOC(=O)c2ccc(-c3c4nc(c(-c5cc(S(=O)(=O)[O-])ccc5F)c5ccc([nH]5)c(-c5cc(S(=O)(=O)[O-])ccc5F)c5nc(c(-c6cc(S(=O)(=O)[O-])ccc6F)c6ccc3[nH]6)C=C5)C=C4)cc2)n1
REMARK SMILES IDX 16 1 15 2 14 3 13 4 12 5 10 6 11 7 9 8 8 9 7 10 4 11 5 12
REMARK SMILES IDX 84 13 6 14 2 15 1 16 3 17 17 18 18 19 19 20 20 21 21 22
REMARK SMILES IDX 22 23 83 24 23 25 82 26 24 27 25 28 26 29 76 30 27 31 81 32
REMARK SMILES IDX 75 33 77 34 28 35 80 36 74 37 73 38 29 40 61 41 41 42 60 43
REMARK SMILES IDX 42 44 45 45 59 46 78 47 43 48 44 49 58 51 79 52 46 53 30 54
REMARK SMILES IDX 31 55 39 56 32 57 38 58 40 59 37 60 33 61 34 62 35 63 36 64
REMARK SMILES IDX 62 65 63 66 71 67 64 68 70 69 72 70 69 71 65 72 66 73 67 74
REMARK SMILES IDX 68 75 47 76 48 77 56 78 49 79 55 80 57 81 54 82 50 83 51 84
REMARK SMILES IDX 52 85 53 86
REMARK H PARENT 77 39 45 50
REMARK Flexibility Score: inf
ROOT
ATOM      1  C   UNL A   1      34.085  30.908  27.703  1.00  0.00     0.202 C 
ENDROOT
BRANCH   1   2
ATOM      2  O   UNL A   1      32.960  31.103  26.849  1.00  0.00    -0.374 OA
BRANCH   2   3
ATOM      3  C   UNL A   1      31.852  30.207  26.931  1.00  0.00     0.202 C 
BRANCH   3   4
ATOM      4  C   UNL A   1      31.806  29.069  25.913  1.00  0.00     0.262 C 
BRANCH   4   5
ATOM      5  O   UNL A   1      31.764  27.787  26.553  1.00  0.00    -0.454 OA
BRANCH   5   6
ATOM      6  C   UNL A   1      31.352  26.763  25.763  1.00  0.00     0.384 C 
ATOM      7  O   UNL A   1      30.360  26.745  25.047  1.00  0.00    -0.236 OA
BRANCH   6   8
ATOM      8  C   UNL A   1      32.264  25.665  25.748  1.00  0.00     0.024 C 
ATOM      9  C   UNL A   1      33.122  24.811  25.821  1.00  0.00    -0.033 C 
BRANCH   9  10
ATOM     10  C   UNL A   1      34.208  23.918  25.950  1.00  0.00     0.135 A 
ATOM     11  N   UNL A   1      36.228  23.295  25.932  1.00  0.00    -0.269 N 
ATOM     12  C   UNL A   1      35.532  22.240  26.464  1.00  0.00     0.110 A 
ATOM     13  N   UNL A   1      35.423  24.322  25.586  1.00  0.00    -0.164 NA
ATOM     14  C   UNL A   1      34.211  22.624  26.497  1.00  0.00     0.059 A 
BRANCH  11  15
ATOM     15  C   UNL A   1      37.669  23.389  25.688  1.00  0.00     0.101 C 
ATOM     16  C   UNL A   1      38.378  24.274  26.723  1.00  0.00     0.033 C 
ATOM     17  C   UNL A   1      38.363  22.021  25.650  1.00  0.00     0.033 C 
ENDBRANCH  11  15
ENDBRANCH   9  10
ENDBRANCH   6   8
ENDBRANCH   5   6
ENDBRANCH   4   5
ENDBRANCH   3   4
ENDBRANCH   2   3
ENDBRANCH   1   2
BRANCH   1  18
ATOM     18  C   UNL A   1      35.061  29.790  27.364  1.00  0.00     0.261 C 
BRANCH  18  19
ATOM     19  O   UNL A   1      35.788  29.354  28.502  1.00  0.00    -0.460 OA
BRANCH  19  20
ATOM     20  C   UNL A   1      36.967  29.993  28.685  1.00  0.00     0.338 C 
ATOM     21  O   UNL A   1      37.127  31.155  29.018  1.00  0.00    -0.246 OA
BRANCH  20  22
ATOM     22  C   UNL A   1      38.048  29.089  28.287  1.00  0.00     0.060 A 
ATOM     23  C   UNL A   1      38.472  28.173  29.251  1.00  0.00     0.016 A 
ATOM     24  C   UNL A   1      38.800  29.364  27.133  1.00  0.00     0.016 A 
ATOM     25  C   UNL A   1      39.765  27.712  29.179  1.00  0.00     0.010 A 
ATOM     26  C   UNL A   1      40.096  28.921  27.076  1.00  0.00     0.010 A 
ATOM     27  C   UNL A   1      40.585  28.180  28.149  1.00  0.00    -0.014 A 
BRANCH  27  28
ATOM     28  C   UNL A   1      41.980  27.810  28.173  1.00  0.00     0.031 A 
ATOM     29  C   UNL A   1      42.234  26.523  27.499  1.00  0.00     0.074 A 
ATOM     30  C   UNL A   1      42.931  28.621  28.670  1.00  0.00     0.049 A 
ATOM     31  N   UNL A   1      42.553  25.398  28.042  1.00  0.00    -0.248 NA
ATOM     32  C   UNL A   1      41.880  26.424  26.073  1.00  0.00     0.031 C 
ATOM     33  C   UNL A   1      42.806  30.016  29.096  1.00  0.00     0.029 A 
ATOM     34  N   UNL A   1      44.261  28.383  28.796  1.00  0.00    -0.354 N 
ATOM     35  C   UNL A   1      42.682  24.506  26.986  1.00  0.00     0.074 A 
ATOM     36  C   UNL A   1      42.024  25.117  25.866  1.00  0.00     0.031 C 
ATOM     37  C   UNL A   1      44.041  30.559  29.204  1.00  0.00     0.029 A 
ATOM     38  C   UNL A   1      45.037  29.521  28.978  1.00  0.00     0.049 A 
ATOM     39  H   UNL A   1      44.645  27.477  28.762  1.00  0.00     0.167 HD
ATOM     40  C   UNL A   1      43.563  23.472  27.049  1.00  0.00     0.034 A 
ATOM     41  C   UNL A   1      46.390  29.602  28.854  1.00  0.00     0.034 A 
ATOM     42  C   UNL A   1      43.950  23.206  28.418  1.00  0.00     0.049 A 
ATOM     43  C   UNL A   1      46.916  28.217  29.002  1.00  0.00     0.074 A 
ATOM     44  C   UNL A   1      43.252  22.871  29.565  1.00  0.00     0.029 A 
ATOM     45  N   UNL A   1      45.172  23.670  28.854  1.00  0.00    -0.354 N 
ATOM     46  N   UNL A   1      46.827  27.533  30.112  1.00  0.00    -0.248 NA
ATOM     47  C   UNL A   1      47.069  27.411  27.798  1.00  0.00     0.031 C 
ATOM     48  C   UNL A   1      43.880  23.614  30.607  1.00  0.00     0.029 A 
ATOM     49  C   UNL A   1      44.973  24.293  30.064  1.00  0.00     0.049 A 
ATOM     50  H   UNL A   1      46.031  23.573  28.384  1.00  0.00     0.167 HD
ATOM     51  C   UNL A   1      46.477  26.248  29.722  1.00  0.00     0.074 A 
ATOM     52  C   UNL A   1      46.730  26.211  28.282  1.00  0.00     0.031 C 
ATOM     53  C   UNL A   1      45.743  25.431  30.536  1.00  0.00     0.034 A 
BRANCH  40  54
ATOM     54  C   UNL A   1      44.352  22.965  25.863  1.00  0.00     0.023 A 
ATOM     55  C   UNL A   1      44.361  21.576  25.650  1.00  0.00     0.031 A 
ATOM     56  C   UNL A   1      45.301  23.704  25.115  1.00  0.00     0.131 A 
ATOM     57  C   UNL A   1      45.330  20.977  24.829  1.00  0.00     0.055 A 
ATOM     58  C   UNL A   1      46.217  23.110  24.243  1.00  0.00     0.041 A 
ATOM     59  F   UNL A   1      45.471  25.024  25.243  1.00  0.00    -0.206 F 
ATOM     60  C   UNL A   1      46.259  21.734  24.122  1.00  0.00     0.022 A 
BRANCH  57  61
ATOM     61  S   UNL A   1      45.471  19.174  24.851  1.00  0.00     0.124 S 
ATOM     62  O   UNL A   1      45.528  18.866  23.425  1.00  0.00    -0.237 OA
ATOM     63  O   UNL A   1      46.706  18.981  25.603  1.00  0.00    -0.237 OA
ATOM     64  O   UNL A   1      44.252  18.748  25.533  1.00  0.00    -0.744 OA
ENDBRANCH  57  61
ENDBRANCH  40  54
BRANCH  41  65
ATOM     65  C   UNL A   1      47.160  30.720  28.232  1.00  0.00     0.023 A 
ATOM     66  C   UNL A   1      46.569  31.699  27.404  1.00  0.00     0.031 A 
ATOM     67  C   UNL A   1      48.489  30.967  28.646  1.00  0.00     0.131 A 
ATOM     68  C   UNL A   1      47.303  32.852  27.024  1.00  0.00     0.055 A 
ATOM     69  C   UNL A   1      49.209  32.101  28.267  1.00  0.00     0.041 A 
ATOM     70  F   UNL A   1      49.112  30.152  29.513  1.00  0.00    -0.206 F 
ATOM     71  C   UNL A   1      48.614  33.055  27.458  1.00  0.00     0.022 A 
BRANCH  68  72
ATOM     72  S   UNL A   1      46.527  34.162  26.019  1.00  0.00     0.124 S 
ATOM     73  O   UNL A   1      45.460  33.439  25.338  1.00  0.00    -0.237 OA
ATOM     74  O   UNL A   1      46.117  35.131  27.028  1.00  0.00    -0.237 OA
ATOM     75  O   UNL A   1      47.614  34.612  25.148  1.00  0.00    -0.744 OA
ENDBRANCH  68  72
ENDBRANCH  41  65
BRANCH  53  76
ATOM     76  C   UNL A   1      45.543  25.840  31.984  1.00  0.00     0.023 A 
ATOM     77  C   UNL A   1      44.342  26.361  32.525  1.00  0.00     0.031 A 
ATOM     78  C   UNL A   1      46.591  25.566  32.881  1.00  0.00     0.131 A 
ATOM     79  C   UNL A   1      44.233  26.594  33.911  1.00  0.00     0.055 A 
ATOM     80  C   UNL A   1      46.471  25.776  34.254  1.00  0.00     0.041 A 
ATOM     81  F   UNL A   1      47.747  25.046  32.438  1.00  0.00    -0.206 F 
ATOM     82  C   UNL A   1      45.293  26.297  34.775  1.00  0.00     0.022 A 
BRANCH  79  83
ATOM     83  S   UNL A   1      42.715  27.307  34.625  1.00  0.00     0.124 S 
ATOM     84  O   UNL A   1      41.977  26.141  35.095  1.00  0.00    -0.237 OA
ATOM     85  O   UNL A   1      43.238  28.194  35.660  1.00  0.00    -0.237 OA
ATOM     86  O   UNL A   1      42.097  27.998  33.490  1.00  0.00    -0.744 OA
ENDBRANCH  79  83
ENDBRANCH  53  76
ENDBRANCH  27  28
ENDBRANCH  20  22
ENDBRANCH  19  20
ENDBRANCH  18  19
ENDBRANCH   1  18
TORSDOF 19
ENDMDL
MODEL 3
REMARK VINA RESULT:     -10.2      3.546     11.334
REMARK SMILES CC(C)n1ccc(C#CC(=O)OCCOCCOC(=O)c2ccc(-c3c4nc(c(-c5cc(S(=O)(=O)[O-])ccc5F)c5ccc([nH]5)c(-c5cc(S(=O)(=O)[O-])ccc5F)c5nc(c(-c6cc(S(=O)(=O)[O-])ccc6F)c6ccc3[nH]6)C=C5)C=C4)cc2)n1
REMARK SMILES IDX 16 1 15 2 14 3 13 4 12 5 10 6 11 7 9 8 8 9 7 10 4 11 5 12
REMARK SMILES IDX 84 13 6 14 2 15 1 16 3 17 17 18 18 19 19 20 20 21 21 22
REMARK SMILES IDX 22 23 83 24 23 25 82 26 24 27 25 28 26 29 76 30 27 31 81 32
REMARK SMILES IDX 75 33 77 34 28 35 80 36 74 37 73 38 29 40 61 41 41 42 60 43
REMARK SMILES IDX 42 44 45 45 59 46 78 47 43 48 44 49 58 51 79 52 46 53 30 54
REMARK SMILES IDX 31 55 39 56 32 57 38 58 40 59 37 60 33 61 34 62 35 63 36 64
REMARK SMILES IDX 62 65 63 66 71 67 64 68 70 69 72 70 69 71 65 72 66 73 67 74
REMARK SMILES IDX 68 75 47 76 48 77 56 78 49 79 55 80 57 81 54 82 50 83 51 84
REMARK SMILES IDX 52 85 53 86
REMARK H PARENT 77 39 45 50
REMARK Flexibility Score: inf
ROOT
ATOM      1  C   UNL A   1      43.419  23.715  25.112  1.00  0.00     0.202 C 
ENDROOT
BRANCH   1   2
ATOM      2  O   UNL A   1      43.917  22.494  25.653  1.00  0.00    -0.374 OA
BRANCH   2   3
ATOM      3  C   UNL A   1      44.615  21.582  24.804  1.00  0.00     0.202 C 
BRANCH   3   4
ATOM      4  C   UNL A   1      44.688  20.127  25.262  1.00  0.00     0.262 C 
BRANCH   4   5
ATOM      5  O   UNL A   1      43.575  19.363  24.779  1.00  0.00    -0.454 OA
BRANCH   5   6
ATOM      6  C   UNL A   1      42.752  18.874  25.742  1.00  0.00     0.384 C 
ATOM      7  O   UNL A   1      42.921  17.857  26.401  1.00  0.00    -0.236 OA
BRANCH   6   8
ATOM      8  C   UNL A   1      41.645  19.731  26.020  1.00  0.00     0.024 C 
ATOM      9  C   UNL A   1      40.733  20.523  26.132  1.00  0.00    -0.033 C 
BRANCH   9  10
ATOM     10  C   UNL A   1      39.736  21.522  26.164  1.00  0.00     0.135 A 
ATOM     11  N   UNL A   1      37.805  22.353  25.936  1.00  0.00    -0.269 N 
ATOM     12  C   UNL A   1      38.539  23.320  26.573  1.00  0.00     0.110 A 
ATOM     13  N   UNL A   1      38.536  21.253  25.653  1.00  0.00    -0.164 NA
ATOM     14  C   UNL A   1      39.801  22.799  26.744  1.00  0.00     0.059 A 
BRANCH  11  15
ATOM     15  C   UNL A   1      36.399  22.414  25.528  1.00  0.00     0.101 C 
ATOM     16  C   UNL A   1      36.117  23.597  24.592  1.00  0.00     0.033 C 
ATOM     17  C   UNL A   1      35.914  21.125  24.854  1.00  0.00     0.033 C 
ENDBRANCH  11  15
ENDBRANCH   9  10
ENDBRANCH   6   8
ENDBRANCH   5   6
ENDBRANCH   4   5
ENDBRANCH   3   4
ENDBRANCH   2   3
ENDBRANCH   1   2
BRANCH   1  18
ATOM     18  C   UNL A   1      43.515  24.972  25.965  1.00  0.00     0.261 C 
BRANCH  18  19
ATOM     19  O   UNL A   1      42.331  25.199  26.714  1.00  0.00    -0.460 OA
BRANCH  19  20
ATOM     20  C   UNL A   1      41.337  25.792  26.012  1.00  0.00     0.338 C 
ATOM     21  O   UNL A   1      41.096  25.657  24.825  1.00  0.00    -0.246 OA
BRANCH  20  22
ATOM     22  C   UNL A   1      40.656  26.745  26.892  1.00  0.00     0.060 A 
ATOM     23  C   UNL A   1      40.792  28.095  26.563  1.00  0.00     0.016 A 
ATOM     24  C   UNL A   1      40.184  26.323  28.145  1.00  0.00     0.016 A 
ATOM     25  C   UNL A   1      40.687  29.020  27.575  1.00  0.00     0.010 A 
ATOM     26  C   UNL A   1      40.101  27.246  29.157  1.00  0.00     0.010 A 
ATOM     27  C   UNL A   1      40.446  28.564  28.874  1.00  0.00    -0.014 A 
BRANCH  27  28
ATOM     28  C   UNL A   1      40.490  29.528  29.947  1.00  0.00     0.031 A 
ATOM     29  C   UNL A   1      39.223  30.270  30.093  1.00  0.00     0.074 A 
ATOM     30  C   UNL A   1      41.546  29.639  30.773  1.00  0.00     0.049 A 
ATOM     31  N   UNL A   1      38.996  31.505  29.806  1.00  0.00    -0.248 NA
ATOM     32  C   UNL A   1      38.010  29.487  30.386  1.00  0.00     0.031 C 
ATOM     33  C   UNL A   1      42.715  28.763  30.877  1.00  0.00     0.029 A 
ATOM     34  N   UNL A   1      41.738  30.523  31.784  1.00  0.00    -0.354 N 
ATOM     35  C   UNL A   1      37.661  31.715  30.124  1.00  0.00     0.074 A 
ATOM     36  C   UNL A   1      37.067  30.412  30.226  1.00  0.00     0.031 C 
ATOM     37  C   UNL A   1      43.360  29.023  32.039  1.00  0.00     0.029 A 
ATOM     38  C   UNL A   1      42.726  30.159  32.691  1.00  0.00     0.049 A 
ATOM     39  H   UNL A   1      41.219  31.356  31.868  1.00  0.00     0.167 HD
ATOM     40  C   UNL A   1      37.227  32.931  30.552  1.00  0.00     0.034 A 
ATOM     41  C   UNL A   1      42.929  30.702  33.922  1.00  0.00     0.034 A 
ATOM     42  C   UNL A   1      38.175  33.968  30.208  1.00  0.00     0.049 A 
ATOM     43  C   UNL A   1      42.277  32.041  33.911  1.00  0.00     0.074 A 
ATOM     44  C   UNL A   1      38.713  34.420  29.016  1.00  0.00     0.029 A 
ATOM     45  N   UNL A   1      39.020  34.435  31.192  1.00  0.00    -0.354 N 
ATOM     46  N   UNL A   1      42.682  33.027  33.155  1.00  0.00    -0.248 NA
ATOM     47  C   UNL A   1      40.886  32.128  34.338  1.00  0.00     0.031 C 
ATOM     48  C   UNL A   1      40.084  34.682  29.307  1.00  0.00     0.029 A 
ATOM     49  C   UNL A   1      40.291  34.461  30.670  1.00  0.00     0.049 A 
ATOM     50  H   UNL A   1      38.759  34.702  32.103  1.00  0.00     0.167 HD
ATOM     51  C   UNL A   1      41.522  33.607  32.661  1.00  0.00     0.074 A 
ATOM     52  C   UNL A   1      40.447  33.070  33.496  1.00  0.00     0.031 C 
ATOM     53  C   UNL A   1      41.500  34.234  31.445  1.00  0.00     0.034 A 
BRANCH  40  54
ATOM     54  C   UNL A   1      36.153  33.119  31.600  1.00  0.00     0.023 A 
ATOM     55  C   UNL A   1      35.016  33.854  31.221  1.00  0.00     0.031 A 
ATOM     56  C   UNL A   1      36.290  32.878  32.989  1.00  0.00     0.131 A 
ATOM     57  C   UNL A   1      34.150  34.394  32.187  1.00  0.00     0.055 A 
ATOM     58  C   UNL A   1      35.387  33.357  33.940  1.00  0.00     0.041 A 
ATOM     59  F   UNL A   1      37.342  32.252  33.525  1.00  0.00    -0.206 F 
ATOM     60  C   UNL A   1      34.327  34.150  33.545  1.00  0.00     0.022 A 
BRANCH  57  61
ATOM     61  S   UNL A   1      32.897  35.578  31.642  1.00  0.00     0.124 S 
ATOM     62  O   UNL A   1      31.801  35.291  32.561  1.00  0.00    -0.237 OA
ATOM     63  O   UNL A   1      33.586  36.850  31.835  1.00  0.00    -0.237 OA
ATOM     64  O   UNL A   1      32.660  35.203  30.251  1.00  0.00    -0.744 OA
ENDBRANCH  57  61
ENDBRANCH  40  54
BRANCH  41  65
ATOM     65  C   UNL A   1      43.291  29.966  35.169  1.00  0.00     0.023 A 
ATOM     66  C   UNL A   1      42.633  28.789  35.591  1.00  0.00     0.031 A 
ATOM     67  C   UNL A   1      44.477  30.304  35.861  1.00  0.00     0.131 A 
ATOM     68  C   UNL A   1      43.161  28.018  36.658  1.00  0.00     0.055 A 
ATOM     69  C   UNL A   1      44.991  29.545  36.913  1.00  0.00     0.041 A 
ATOM     70  F   UNL A   1      45.234  31.345  35.478  1.00  0.00    -0.206 F 
ATOM     71  C   UNL A   1      44.337  28.391  37.312  1.00  0.00     0.022 A 
BRANCH  68  72
ATOM     72  S   UNL A   1      42.365  26.456  37.163  1.00  0.00     0.124 S 
ATOM     73  O   UNL A   1      40.979  26.864  37.359  1.00  0.00    -0.237 OA
ATOM     74  O   UNL A   1      42.633  25.585  36.026  1.00  0.00    -0.237 OA
ATOM     75  O   UNL A   1      43.075  26.093  38.391  1.00  0.00    -0.744 OA
ENDBRANCH  68  72
ENDBRANCH  41  65
BRANCH  53  76
ATOM     76  C   UNL A   1      42.821  34.529  30.758  1.00  0.00     0.023 A 
ATOM     77  C   UNL A   1      43.386  33.756  29.715  1.00  0.00     0.031 A 
ATOM     78  C   UNL A   1      43.469  35.730  31.099  1.00  0.00     0.131 A 
ATOM     79  C   UNL A   1      44.561  34.194  29.068  1.00  0.00     0.055 A 
ATOM     80  C   UNL A   1      44.617  36.170  30.442  1.00  0.00     0.041 A 
ATOM     81  F   UNL A   1      42.970  36.523  32.062  1.00  0.00    -0.206 F 
ATOM     82  C   UNL A   1      45.172  35.400  29.426  1.00  0.00     0.022 A 
BRANCH  79  83
ATOM     83  S   UNL A   1      45.334  33.193  27.755  1.00  0.00     0.124 S 
ATOM     84  O   UNL A   1      44.551  31.963  27.755  1.00  0.00    -0.237 OA
ATOM     85  O   UNL A   1      45.185  34.046  26.579  1.00  0.00    -0.237 OA
ATOM     86  O   UNL A   1      46.716  33.034  28.217  1.00  0.00    -0.744 OA
ENDBRANCH  79  83
ENDBRANCH  53  76
ENDBRANCH  27  28
ENDBRANCH  20  22
ENDBRANCH  19  20
ENDBRANCH  18  19
ENDBRANCH   1  18
TORSDOF 19
ENDMDL
