MODEL 1
REMARK VINA RESULT:     -12.2      0.000      0.000
REMARK SMILES Cc1ccc(S(=O)(=O)n2cc(C(=O)C(=O)N[C@@H](Cc3c[nH]c4ccccc34)C(=O)OCCOCCOC(=O)c3ccc(-c4c5nc(c(-c6cc(S(=O)(=O)[O-])ccc6F)c6ccc([nH]6)c(-c6cc(S(=O)(=O)[O-])ccc6F)c6nc(c(-c7cc(S(=O)(=O)[O-])ccc7F)c7ccc4[nH]7)C=C6)C=C5)cc3)c3ccccc32)cc1
REMARK SMILES IDX 32 1 31 2 30 3 28 4 29 5 17 6 16 7 14 8 15 9 12 11 13 12
REMARK SMILES IDX 11 13 9 14 10 15 107 16 102 17 106 18 103 19 105 20 104 21
REMARK SMILES IDX 6 22 7 23 8 24 5 25 1 26 2 27 3 28 109 29 4 30 108 31 18 32
REMARK SMILES IDX 19 33 20 34 27 35 21 36 22 37 26 38 23 40 25 41 24 42 33 43
REMARK SMILES IDX 34 44 35 45 36 46 37 47 38 48 39 49 40 50 101 51 41 52
REMARK SMILES IDX 100 53 42 54 43 55 44 56 94 57 45 58 99 59 93 60 95 61 46 62
REMARK SMILES IDX 98 63 92 64 91 65 47 67 79 68 59 69 78 70 60 71 63 72 77 73
REMARK SMILES IDX 96 74 61 75 62 76 76 78 97 79 64 80 48 81 49 82 57 83 50 84
REMARK SMILES IDX 56 85 58 86 55 87 51 88 52 89 53 90 54 91 80 92 81 93 89 94
REMARK SMILES IDX 82 95 88 96 90 97 87 98 83 99 84 100 85 101 86 102 65 103
REMARK SMILES IDX 66 104 74 105 67 106 73 107 75 108 72 109 68 110 69 111
REMARK SMILES IDX 70 112 71 113
REMARK H PARENT 16 10 21 39 95 66 63 77
REMARK Flexibility Score: inf
ROOT
ATOM      1  C   UNL A   1      33.888  29.172  27.463  1.00  0.00     0.202 C 
ENDROOT
BRANCH   1   2
ATOM      2  C   UNL A   1      33.527  28.506  26.158  1.00  0.00     0.261 C 
BRANCH   2   3
ATOM      3  O   UNL A   1      32.971  27.226  26.466  1.00  0.00    -0.462 OA
BRANCH   3   4
ATOM      4  C   UNL A   1      31.645  27.111  26.721  1.00  0.00     0.329 C 
ATOM      5  O   UNL A   1      30.983  27.810  27.467  1.00  0.00    -0.250 OA
BRANCH   4   6
ATOM      6  C   UNL A   1      31.090  25.931  25.914  1.00  0.00     0.197 C 
BRANCH   6   7
ATOM      7  N   UNL A   1      30.712  24.822  26.822  1.00  0.00    -0.335 N 
ATOM      8  C   UNL A   1      30.907  23.464  26.633  1.00  0.00     0.293 C 
ATOM      9  O   UNL A   1      30.595  22.625  27.452  1.00  0.00    -0.265 OA
ATOM     10  H   UNL A   1      30.268  25.082  27.662  1.00  0.00     0.164 HD
BRANCH   8  11
ATOM     11  C   UNL A   1      31.557  23.016  25.325  1.00  0.00     0.252 C 
ATOM     12  O   UNL A   1      30.945  23.231  24.288  1.00  0.00    -0.283 OA
BRANCH  11  13
ATOM     13  C   UNL A   1      32.787  22.233  25.338  1.00  0.00     0.054 A 
ATOM     14  N   UNL A   1      34.865  21.456  25.653  1.00  0.00    -0.240 N 
ATOM     15  C   UNL A   1      34.023  22.525  25.912  1.00  0.00     0.117 A 
ATOM     16  C   UNL A   1      34.105  20.411  25.118  1.00  0.00     0.065 A 
ATOM     17  C   UNL A   1      32.931  20.991  24.651  1.00  0.00     0.012 A 
ATOM     18  C   UNL A   1      34.442  19.082  24.807  1.00  0.00     0.028 A 
ATOM     19  C   UNL A   1      32.155  20.287  23.707  1.00  0.00     0.011 A 
ATOM     20  C   UNL A   1      33.677  18.416  23.850  1.00  0.00     0.002 A 
ATOM     21  C   UNL A   1      32.572  19.027  23.273  1.00  0.00     0.001 A 
BRANCH  14  22
ATOM     22  S   UNL A   1      36.441  21.573  24.950  1.00  0.00     0.268 S 
ATOM     23  O   UNL A   1      36.208  22.237  23.680  1.00  0.00    -0.201 OA
ATOM     24  O   UNL A   1      36.938  20.205  25.008  1.00  0.00    -0.201 OA
BRANCH  22  25
ATOM     25  C   UNL A   1      37.731  22.481  25.718  1.00  0.00     0.088 A 
ATOM     26  C   UNL A   1      41.208  23.876  27.848  1.00  0.00     0.044 C 
ATOM     27  C   UNL A   1      40.006  23.433  27.066  1.00  0.00    -0.051 A 
ATOM     28  C   UNL A   1      39.967  22.112  26.637  1.00  0.00     0.005 A 
ATOM     29  C   UNL A   1      38.905  24.274  26.801  1.00  0.00     0.005 A 
ATOM     30  C   UNL A   1      38.848  21.651  25.965  1.00  0.00     0.022 A 
ATOM     31  C   UNL A   1      37.754  23.805  26.126  1.00  0.00     0.022 A 
ENDBRANCH  22  25
ENDBRANCH  14  22
ENDBRANCH  11  13
ENDBRANCH   8  11
ENDBRANCH   6   7
BRANCH   6  32
ATOM     32  C   UNL A   1      29.928  26.368  24.996  1.00  0.00     0.074 C 
BRANCH  32  33
ATOM     33  C   UNL A   1      30.291  27.278  23.856  1.00  0.00    -0.020 A 
ATOM     34  C   UNL A   1      31.542  27.368  23.274  1.00  0.00     0.087 A 
ATOM     35  C   UNL A   1      29.459  28.228  23.176  1.00  0.00     0.003 A 
ATOM     36  N   UNL A   1      31.532  28.403  22.379  1.00  0.00    -0.361 N 
ATOM     37  C   UNL A   1      30.281  28.965  22.322  1.00  0.00     0.046 A 
ATOM     38  C   UNL A   1      28.096  28.585  23.257  1.00  0.00     0.010 A 
ATOM     39  H   UNL A   1      32.309  28.701  21.853  1.00  0.00     0.166 HD
ATOM     40  C   UNL A   1      29.833  30.093  21.622  1.00  0.00     0.026 A 
ATOM     41  C   UNL A   1      27.639  29.726  22.589  1.00  0.00     0.001 A 
ATOM     42  C   UNL A   1      28.503  30.479  21.802  1.00  0.00     0.002 A 
ENDBRANCH  32  33
ENDBRANCH   6  32
ENDBRANCH   4   6
ENDBRANCH   3   4
ENDBRANCH   2   3
ENDBRANCH   1   2
BRANCH   1  43
ATOM     43  O   UNL A   1      34.625  30.355  27.145  1.00  0.00    -0.374 OA
BRANCH  43  44
ATOM     44  C   UNL A   1      33.847  31.544  27.176  1.00  0.00     0.202 C 
BRANCH  44  45
ATOM     45  C   UNL A   1      33.629  32.084  28.595  1.00  0.00     0.261 C 
BRANCH  45  46
ATOM     46  O   UNL A   1      34.381  33.301  28.754  1.00  0.00    -0.460 OA
BRANCH  46  47
ATOM     47  C   UNL A   1      35.039  33.400  29.940  1.00  0.00     0.338 C 
ATOM     48  O   UNL A   1      34.778  34.208  30.814  1.00  0.00    -0.246 OA
BRANCH  47  49
ATOM     49  C   UNL A   1      36.183  32.447  29.969  1.00  0.00     0.060 A 
ATOM     50  C   UNL A   1      36.454  31.721  31.140  1.00  0.00     0.016 A 
ATOM     51  C   UNL A   1      37.088  32.413  28.906  1.00  0.00     0.016 A 
ATOM     52  C   UNL A   1      37.673  31.042  31.279  1.00  0.00     0.010 A 
ATOM     53  C   UNL A   1      38.307  31.777  29.064  1.00  0.00     0.010 A 
ATOM     54  C   UNL A   1      38.622  31.114  30.258  1.00  0.00    -0.014 A 
BRANCH  54  55
ATOM     55  C   UNL A   1      40.014  30.671  30.379  1.00  0.00     0.031 A 
ATOM     56  C   UNL A   1      40.420  29.304  29.975  1.00  0.00     0.074 A 
ATOM     57  C   UNL A   1      40.985  31.582  30.631  1.00  0.00     0.049 A 
ATOM     58  N   UNL A   1      41.591  28.810  30.194  1.00  0.00    -0.248 NA
ATOM     59  C   UNL A   1      39.533  28.343  29.317  1.00  0.00     0.031 C 
ATOM     60  C   UNL A   1      42.421  31.469  30.380  1.00  0.00     0.029 A 
ATOM     61  N   UNL A   1      40.878  32.781  31.344  1.00  0.00    -0.354 N 
ATOM     62  C   UNL A   1      41.743  27.739  29.350  1.00  0.00     0.074 A 
ATOM     63  C   UNL A   1      40.399  27.378  28.984  1.00  0.00     0.031 C 
ATOM     64  C   UNL A   1      43.071  32.313  31.194  1.00  0.00     0.029 A 
ATOM     65  C   UNL A   1      42.075  32.908  32.066  1.00  0.00     0.049 A 
ATOM     66  H   UNL A   1      40.119  33.408  31.340  1.00  0.00     0.167 HD
ATOM     67  C   UNL A   1      42.998  27.422  28.921  1.00  0.00     0.034 A 
ATOM     68  C   UNL A   1      42.090  32.942  33.424  1.00  0.00     0.034 A 
ATOM     69  C   UNL A   1      44.028  28.060  29.759  1.00  0.00     0.049 A 
ATOM     70  C   UNL A   1      42.961  31.825  33.936  1.00  0.00     0.074 A 
ATOM     71  C   UNL A   1      45.063  28.948  29.524  1.00  0.00     0.029 A 
ATOM     72  N   UNL A   1      43.919  27.964  31.154  1.00  0.00    -0.354 N 
ATOM     73  N   UNL A   1      43.205  30.743  33.242  1.00  0.00    -0.248 NA
ATOM     74  C   UNL A   1      43.729  31.883  35.172  1.00  0.00     0.031 C 
ATOM     75  C   UNL A   1      45.479  29.476  30.785  1.00  0.00     0.029 A 
ATOM     76  C   UNL A   1      44.741  28.869  31.792  1.00  0.00     0.049 A 
ATOM     77  H   UNL A   1      43.327  27.328  31.620  1.00  0.00     0.167 HD
ATOM     78  C   UNL A   1      44.212  30.038  33.836  1.00  0.00     0.074 A 
ATOM     79  C   UNL A   1      44.477  30.768  35.066  1.00  0.00     0.031 C 
ATOM     80  C   UNL A   1      44.795  28.946  33.253  1.00  0.00     0.034 A 
BRANCH  67  81
ATOM     81  C   UNL A   1      43.290  26.675  27.623  1.00  0.00     0.023 A 
ATOM     82  C   UNL A   1      44.267  25.653  27.595  1.00  0.00     0.031 A 
ATOM     83  C   UNL A   1      42.735  26.996  26.359  1.00  0.00     0.131 A 
ATOM     84  C   UNL A   1      44.613  24.998  26.388  1.00  0.00     0.055 A 
ATOM     85  C   UNL A   1      43.021  26.294  25.182  1.00  0.00     0.041 A 
ATOM     86  F   UNL A   1      41.943  28.058  26.167  1.00  0.00    -0.206 F 
ATOM     87  C   UNL A   1      43.963  25.285  25.190  1.00  0.00     0.022 A 
BRANCH  84  88
ATOM     88  S   UNL A   1      45.974  23.795  26.363  1.00  0.00     0.124 S 
ATOM     89  O   UNL A   1      46.385  23.831  24.962  1.00  0.00    -0.237 OA
ATOM     90  O   UNL A   1      46.912  24.355  27.328  1.00  0.00    -0.237 OA
ATOM     91  O   UNL A   1      45.334  22.548  26.783  1.00  0.00    -0.744 OA
ENDBRANCH  84  88
ENDBRANCH  67  81
BRANCH  68  92
ATOM     92  C   UNL A   1      40.856  33.557  34.005  1.00  0.00     0.023 A 
ATOM     93  C   UNL A   1      39.960  32.687  34.683  1.00  0.00     0.031 A 
ATOM     94  C   UNL A   1      40.732  34.927  34.263  1.00  0.00     0.131 A 
ATOM     95  C   UNL A   1      39.090  33.168  35.675  1.00  0.00     0.055 A 
ATOM     96  C   UNL A   1      39.828  35.410  35.226  1.00  0.00     0.041 A 
ATOM     97  F   UNL A   1      41.555  35.809  33.681  1.00  0.00    -0.206 F 
ATOM     98  C   UNL A   1      39.035  34.529  35.965  1.00  0.00     0.022 A 
BRANCH  95  99
ATOM     99  S   UNL A   1      38.221  31.988  36.763  1.00  0.00     0.124 S 
ATOM    100  O   UNL A   1      39.099  31.947  37.928  1.00  0.00    -0.237 OA
ATOM    101  O   UNL A   1      36.922  32.616  36.965  1.00  0.00    -0.237 OA
ATOM    102  O   UNL A   1      38.171  30.767  35.963  1.00  0.00    -0.744 OA
ENDBRANCH  95  99
ENDBRANCH  68  92
BRANCH  80 103
ATOM    103  C   UNL A   1      45.569  27.903  34.026  1.00  0.00     0.023 A 
ATOM    104  C   UNL A   1      45.048  26.630  34.299  1.00  0.00     0.031 A 
ATOM    105  C   UNL A   1      46.916  28.106  34.401  1.00  0.00     0.131 A 
ATOM    106  C   UNL A   1      45.792  25.669  35.001  1.00  0.00     0.055 A 
ATOM    107  C   UNL A   1      47.686  27.119  35.023  1.00  0.00     0.041 A 
ATOM    108  F   UNL A   1      47.554  29.261  34.155  1.00  0.00    -0.206 F 
ATOM    109  C   UNL A   1      47.120  25.895  35.345  1.00  0.00     0.022 A 
BRANCH 106 110
ATOM    110  S   UNL A   1      44.953  24.144  35.492  1.00  0.00     0.124 S 
ATOM    111  O   UNL A   1      44.182  23.830  34.291  1.00  0.00    -0.237 OA
ATOM    112  O   UNL A   1      46.066  23.246  35.778  1.00  0.00    -0.237 OA
ATOM    113  O   UNL A   1      44.161  24.544  36.652  1.00  0.00    -0.744 OA
ENDBRANCH 106 110
ENDBRANCH  80 103
ENDBRANCH  54  55
ENDBRANCH  47  49
ENDBRANCH  46  47
ENDBRANCH  45  46
ENDBRANCH  44  45
ENDBRANCH  43  44
ENDBRANCH   1  43
TORSDOF 24
ENDMDL
MODEL 2
REMARK VINA RESULT:     -12.1      1.805      2.161
REMARK SMILES Cc1ccc(S(=O)(=O)n2cc(C(=O)C(=O)N[C@@H](Cc3c[nH]c4ccccc34)C(=O)OCCOCCOC(=O)c3ccc(-c4c5nc(c(-c6cc(S(=O)(=O)[O-])ccc6F)c6ccc([nH]6)c(-c6cc(S(=O)(=O)[O-])ccc6F)c6nc(c(-c7cc(S(=O)(=O)[O-])ccc7F)c7ccc4[nH]7)C=C6)C=C5)cc3)c3ccccc32)cc1
REMARK SMILES IDX 32 1 31 2 30 3 28 4 29 5 17 6 16 7 14 8 15 9 12 11 13 12
REMARK SMILES IDX 11 13 9 14 10 15 107 16 102 17 106 18 103 19 105 20 104 21
REMARK SMILES IDX 6 22 7 23 8 24 5 25 1 26 2 27 3 28 109 29 4 30 108 31 18 32
REMARK SMILES IDX 19 33 20 34 27 35 21 36 22 37 26 38 23 40 25 41 24 42 33 43
REMARK SMILES IDX 34 44 35 45 36 46 37 47 38 48 39 49 40 50 101 51 41 52
REMARK SMILES IDX 100 53 42 54 43 55 44 56 94 57 45 58 99 59 93 60 95 61 46 62
REMARK SMILES IDX 98 63 92 64 91 65 47 67 79 68 59 69 78 70 60 71 63 72 77 73
REMARK SMILES IDX 96 74 61 75 62 76 76 78 97 79 64 80 48 81 49 82 57 83 50 84
REMARK SMILES IDX 56 85 58 86 55 87 51 88 52 89 53 90 54 91 80 92 81 93 89 94
REMARK SMILES IDX 82 95 88 96 90 97 87 98 83 99 84 100 85 101 86 102 65 103
REMARK SMILES IDX 66 104 74 105 67 106 73 107 75 108 72 109 68 110 69 111
REMARK SMILES IDX 70 112 71 113
REMARK H PARENT 16 10 21 39 95 66 63 77
REMARK Flexibility Score: inf
ROOT
ATOM      1  C   UNL A   1      33.545  29.870  27.584  1.00  0.00     0.202 C 
ENDROOT
BRANCH   1   2
ATOM      2  C   UNL A   1      33.512  29.078  26.300  1.00  0.00     0.261 C 
BRANCH   2   3
ATOM      3  O   UNL A   1      33.083  27.754  26.620  1.00  0.00    -0.462 OA
BRANCH   3   4
ATOM      4  C   UNL A   1      31.773  27.511  26.865  1.00  0.00     0.329 C 
ATOM      5  O   UNL A   1      31.050  28.120  27.634  1.00  0.00    -0.250 OA
BRANCH   4   6
ATOM      6  C   UNL A   1      31.326  26.316  26.014  1.00  0.00     0.197 C 
BRANCH   6   7
ATOM      7  N   UNL A   1      31.026  25.152  26.882  1.00  0.00    -0.335 N 
ATOM      8  C   UNL A   1      31.357  23.824  26.669  1.00  0.00     0.293 C 
ATOM      9  O   UNL A   1      31.100  22.938  27.456  1.00  0.00    -0.265 OA
ATOM     10  H   UNL A   1      30.531  25.346  27.711  1.00  0.00     0.164 HD
BRANCH   8  11
ATOM     11  C   UNL A   1      32.090  23.475  25.374  1.00  0.00     0.252 C 
ATOM     12  O   UNL A   1      31.611  23.886  24.326  1.00  0.00    -0.283 OA
BRANCH  11  13
ATOM     13  C   UNL A   1      33.229  22.565  25.390  1.00  0.00     0.054 A 
ATOM     14  N   UNL A   1      35.214  21.573  25.699  1.00  0.00    -0.240 N 
ATOM     15  C   UNL A   1      34.495  22.731  25.946  1.00  0.00     0.117 A 
ATOM     16  C   UNL A   1      34.340  20.608  25.190  1.00  0.00     0.065 A 
ATOM     17  C   UNL A   1      33.230  21.304  24.723  1.00  0.00     0.012 A 
ATOM     18  C   UNL A   1      34.529  19.245  24.899  1.00  0.00     0.028 A 
ATOM     19  C   UNL A   1      32.372  20.671  23.799  1.00  0.00     0.011 A 
ATOM     20  C   UNL A   1      33.687  18.650  23.961  1.00  0.00     0.002 A 
ATOM     21  C   UNL A   1      32.647  19.367  23.384  1.00  0.00     0.001 A 
BRANCH  14  22
ATOM     22  S   UNL A   1      36.786  21.509  24.979  1.00  0.00     0.268 S 
ATOM     23  O   UNL A   1      36.637  22.264  23.748  1.00  0.00    -0.201 OA
ATOM     24  O   UNL A   1      37.089  20.084  24.961  1.00  0.00    -0.201 OA
BRANCH  22  25
ATOM     25  C   UNL A   1      38.195  22.189  25.773  1.00  0.00     0.088 A 
ATOM     26  C   UNL A   1      41.837  22.981  27.936  1.00  0.00     0.044 C 
ATOM     27  C   UNL A   1      40.584  22.747  27.144  1.00  0.00    -0.051 A 
ATOM     28  C   UNL A   1      40.350  21.462  26.672  1.00  0.00     0.005 A 
ATOM     29  C   UNL A   1      39.620  23.751  26.910  1.00  0.00     0.005 A 
ATOM     30  C   UNL A   1      39.176  21.195  25.988  1.00  0.00     0.022 A 
ATOM     31  C   UNL A   1      38.414  23.480  26.224  1.00  0.00     0.022 A 
ENDBRANCH  22  25
ENDBRANCH  14  22
ENDBRANCH  11  13
ENDBRANCH   8  11
ENDBRANCH   6   7
BRANCH   6  32
ATOM     32  C   UNL A   1      30.145  26.687  25.090  1.00  0.00     0.074 C 
BRANCH  32  33
ATOM     33  C   UNL A   1      30.472  27.576  23.923  1.00  0.00    -0.020 A 
ATOM     34  C   UNL A   1      31.736  27.770  23.397  1.00  0.00     0.087 A 
ATOM     35  C   UNL A   1      29.584  28.402  23.158  1.00  0.00     0.003 A 
ATOM     36  N   UNL A   1      31.666  28.756  22.451  1.00  0.00    -0.361 N 
ATOM     37  C   UNL A   1      30.369  29.181  22.307  1.00  0.00     0.046 A 
ATOM     38  C   UNL A   1      28.189  28.618  23.156  1.00  0.00     0.010 A 
ATOM     39  H   UNL A   1      32.435  29.109  21.946  1.00  0.00     0.166 HD
ATOM     40  C   UNL A   1      29.845  30.222  21.530  1.00  0.00     0.026 A 
ATOM     41  C   UNL A   1      27.652  29.672  22.411  1.00  0.00     0.001 A 
ATOM     42  C   UNL A   1      28.474  30.475  21.627  1.00  0.00     0.002 A 
ENDBRANCH  32  33
ENDBRANCH   6  32
ENDBRANCH   4   6
ENDBRANCH   3   4
ENDBRANCH   2   3
ENDBRANCH   1   2
BRANCH   1  43
ATOM     43  O   UNL A   1      34.747  30.642  27.576  1.00  0.00    -0.374 OA
BRANCH  43  44
ATOM     44  C   UNL A   1      34.530  32.047  27.600  1.00  0.00     0.202 C 
BRANCH  44  45
ATOM     45  C   UNL A   1      34.081  32.564  28.972  1.00  0.00     0.261 C 
BRANCH  45  46
ATOM     46  O   UNL A   1      35.178  33.260  29.593  1.00  0.00    -0.460 OA
BRANCH  46  47
ATOM     47  C   UNL A   1      35.527  32.777  30.815  1.00  0.00     0.338 C 
ATOM     48  O   UNL A   1      35.075  33.175  31.875  1.00  0.00    -0.246 OA
BRANCH  47  49
ATOM     49  C   UNL A   1      36.609  31.764  30.672  1.00  0.00     0.060 A 
ATOM     50  C   UNL A   1      36.634  30.648  31.523  1.00  0.00     0.016 A 
ATOM     51  C   UNL A   1      37.691  32.016  29.825  1.00  0.00     0.016 A 
ATOM     52  C   UNL A   1      37.782  29.844  31.593  1.00  0.00     0.010 A 
ATOM     53  C   UNL A   1      38.836  31.246  29.928  1.00  0.00     0.010 A 
ATOM     54  C   UNL A   1      38.903  30.175  30.831  1.00  0.00    -0.014 A 
BRANCH  54  55
ATOM     55  C   UNL A   1      40.232  29.580  30.998  1.00  0.00     0.031 A 
ATOM     56  C   UNL A   1      40.614  28.347  30.267  1.00  0.00     0.074 A 
ATOM     57  C   UNL A   1      41.203  30.281  31.628  1.00  0.00     0.049 A 
ATOM     58  N   UNL A   1      41.708  27.697  30.484  1.00  0.00    -0.248 NA
ATOM     59  C   UNL A   1      39.785  27.703  29.248  1.00  0.00     0.031 C 
ATOM     60  C   UNL A   1      42.651  30.101  31.545  1.00  0.00     0.029 A 
ATOM     61  N   UNL A   1      41.058  31.236  32.640  1.00  0.00    -0.354 N 
ATOM     62  C   UNL A   1      41.925  26.897  29.391  1.00  0.00     0.074 A 
ATOM     63  C   UNL A   1      40.634  26.789  28.763  1.00  0.00     0.031 C 
ATOM     64  C   UNL A   1      43.217  30.613  32.648  1.00  0.00     0.029 A 
ATOM     65  C   UNL A   1      42.135  31.035  33.518  1.00  0.00     0.049 A 
ATOM     66  H   UNL A   1      40.346  31.911  32.721  1.00  0.00     0.167 HD
ATOM     67  C   UNL A   1      43.211  26.589  29.055  1.00  0.00     0.034 A 
ATOM     68  C   UNL A   1      41.943  30.685  34.817  1.00  0.00     0.034 A 
ATOM     69  C   UNL A   1      44.134  26.860  30.170  1.00  0.00     0.049 A 
ATOM     70  C   UNL A   1      42.659  29.388  35.088  1.00  0.00     0.074 A 
ATOM     71  C   UNL A   1      45.243  27.670  30.342  1.00  0.00     0.029 A 
ATOM     72  N   UNL A   1      43.807  26.388  31.449  1.00  0.00    -0.354 N 
ATOM     73  N   UNL A   1      42.944  28.525  34.146  1.00  0.00    -0.248 NA
ATOM     74  C   UNL A   1      43.230  29.019  36.377  1.00  0.00     0.031 C 
ATOM     75  C   UNL A   1      45.490  27.779  31.745  1.00  0.00     0.029 A 
ATOM     76  C   UNL A   1      44.573  26.991  32.425  1.00  0.00     0.049 A 
ATOM     77  H   UNL A   1      43.115  25.709  31.628  1.00  0.00     0.167 HD
ATOM     78  C   UNL A   1      43.805  27.585  34.634  1.00  0.00     0.074 A 
ATOM     79  C   UNL A   1      43.919  27.911  36.048  1.00  0.00     0.031 C 
ATOM     80  C   UNL A   1      44.406  26.649  33.839  1.00  0.00     0.034 A 
BRANCH  67  81
ATOM     81  C   UNL A   1      43.654  26.212  27.645  1.00  0.00     0.023 A 
ATOM     82  C   UNL A   1      44.593  25.172  27.450  1.00  0.00     0.031 A 
ATOM     83  C   UNL A   1      43.288  26.907  26.466  1.00  0.00     0.131 A 
ATOM     84  C   UNL A   1      45.081  24.854  26.159  1.00  0.00     0.055 A 
ATOM     85  C   UNL A   1      43.712  26.539  25.182  1.00  0.00     0.041 A 
ATOM     86  F   UNL A   1      42.564  28.032  26.486  1.00  0.00    -0.206 F 
ATOM     87  C   UNL A   1      44.612  25.505  25.021  1.00  0.00     0.022 A 
BRANCH  84  88
ATOM     88  S   UNL A   1      46.394  23.615  25.962  1.00  0.00     0.124 S 
ATOM     89  O   UNL A   1      47.459  24.165  26.796  1.00  0.00    -0.237 OA
ATOM     90  O   UNL A   1      45.757  22.395  26.445  1.00  0.00    -0.237 OA
ATOM     91  O   UNL A   1      46.669  23.634  24.525  1.00  0.00    -0.744 OA
ENDBRANCH  84  88
ENDBRANCH  67  81
BRANCH  68  92
ATOM     92  C   UNL A   1      40.673  31.232  35.386  1.00  0.00     0.023 A 
ATOM     93  C   UNL A   1      40.737  32.521  35.981  1.00  0.00     0.031 A 
ATOM     94  C   UNL A   1      39.406  30.757  35.029  1.00  0.00     0.131 A 
ATOM     95  C   UNL A   1      39.598  33.338  36.072  1.00  0.00     0.055 A 
ATOM     96  C   UNL A   1      38.260  31.562  35.162  1.00  0.00     0.041 A 
ATOM     97  F   UNL A   1      39.265  29.561  34.442  1.00  0.00    -0.206 F 
ATOM     98  C   UNL A   1      38.358  32.869  35.644  1.00  0.00     0.022 A 
BRANCH  95  99
ATOM     99  S   UNL A   1      39.783  35.101  36.507  1.00  0.00     0.124 S 
ATOM    100  O   UNL A   1      38.886  35.226  37.652  1.00  0.00    -0.237 OA
ATOM    101  O   UNL A   1      41.206  35.225  36.794  1.00  0.00    -0.237 OA
ATOM    102  O   UNL A   1      39.361  35.793  35.292  1.00  0.00    -0.744 OA
ENDBRANCH  95  99
ENDBRANCH  68  92
BRANCH  80 103
ATOM    103  C   UNL A   1      44.990  25.359  34.367  1.00  0.00     0.023 A 
ATOM    104  C   UNL A   1      46.354  25.215  34.660  1.00  0.00     0.031 A 
ATOM    105  C   UNL A   1      44.169  24.265  34.725  1.00  0.00     0.131 A 
ATOM    106  C   UNL A   1      46.871  24.014  35.169  1.00  0.00     0.055 A 
ATOM    107  C   UNL A   1      44.672  23.101  35.314  1.00  0.00     0.041 A 
ATOM    108  F   UNL A   1      42.839  24.288  34.546  1.00  0.00    -0.206 F 
ATOM    109  C   UNL A   1      46.036  22.961  35.522  1.00  0.00     0.022 A 
BRANCH 106 110
ATOM    110  S   UNL A   1      48.669  23.858  35.304  1.00  0.00     0.124 S 
ATOM    111  O   UNL A   1      48.803  22.585  36.007  1.00  0.00    -0.237 OA
ATOM    112  O   UNL A   1      49.093  23.855  33.908  1.00  0.00    -0.237 OA
ATOM    113  O   UNL A   1      49.061  25.037  36.071  1.00  0.00    -0.744 OA
ENDBRANCH 106 110
ENDBRANCH  80 103
ENDBRANCH  54  55
ENDBRANCH  47  49
ENDBRANCH  46  47
ENDBRANCH  45  46
ENDBRANCH  44  45
ENDBRANCH  43  44
ENDBRANCH   1  43
TORSDOF 24
ENDMDL
MODEL 3
REMARK VINA RESULT:     -11.6      3.743      6.147
REMARK SMILES Cc1ccc(S(=O)(=O)n2cc(C(=O)C(=O)N[C@@H](Cc3c[nH]c4ccccc34)C(=O)OCCOCCOC(=O)c3ccc(-c4c5nc(c(-c6cc(S(=O)(=O)[O-])ccc6F)c6ccc([nH]6)c(-c6cc(S(=O)(=O)[O-])ccc6F)c6nc(c(-c7cc(S(=O)(=O)[O-])ccc7F)c7ccc4[nH]7)C=C6)C=C5)cc3)c3ccccc32)cc1
REMARK SMILES IDX 32 1 31 2 30 3 28 4 29 5 17 6 16 7 14 8 15 9 12 11 13 12
REMARK SMILES IDX 11 13 9 14 10 15 107 16 102 17 106 18 103 19 105 20 104 21
REMARK SMILES IDX 6 22 7 23 8 24 5 25 1 26 2 27 3 28 109 29 4 30 108 31 18 32
REMARK SMILES IDX 19 33 20 34 27 35 21 36 22 37 26 38 23 40 25 41 24 42 33 43
REMARK SMILES IDX 34 44 35 45 36 46 37 47 38 48 39 49 40 50 101 51 41 52
REMARK SMILES IDX 100 53 42 54 43 55 44 56 94 57 45 58 99 59 93 60 95 61 46 62
REMARK SMILES IDX 98 63 92 64 91 65 47 67 79 68 59 69 78 70 60 71 63 72 77 73
REMARK SMILES IDX 96 74 61 75 62 76 76 78 97 79 64 80 48 81 49 82 57 83 50 84
REMARK SMILES IDX 56 85 58 86 55 87 51 88 52 89 53 90 54 91 80 92 81 93 89 94
REMARK SMILES IDX 82 95 88 96 90 97 87 98 83 99 84 100 85 101 86 102 65 103
REMARK SMILES IDX 66 104 74 105 67 106 73 107 75 108 72 109 68 110 69 111
REMARK SMILES IDX 70 112 71 113
REMARK H PARENT 16 10 21 39 95 66 63 77
REMARK Flexibility Score: inf
ROOT
ATOM      1  C   UNL A   1      33.881  29.260  26.976  1.00  0.00     0.202 C 
ENDROOT
BRANCH   1   2
ATOM      2  C   UNL A   1      33.706  29.175  25.479  1.00  0.00     0.261 C 
BRANCH   2   3
ATOM      3  O   UNL A   1      32.878  28.044  25.205  1.00  0.00    -0.462 OA
BRANCH   3   4
ATOM      4  C   UNL A   1      31.531  28.162  25.276  1.00  0.00     0.329 C 
ATOM      5  O   UNL A   1      30.904  29.100  25.739  1.00  0.00    -0.250 OA
BRANCH   4   6
ATOM      6  C   UNL A   1      30.894  26.902  24.679  1.00  0.00     0.197 C 
BRANCH   6   7
ATOM      7  N   UNL A   1      30.527  25.953  25.758  1.00  0.00    -0.335 N 
ATOM      8  C   UNL A   1      30.581  24.569  25.728  1.00  0.00     0.293 C 
ATOM      9  O   UNL A   1      30.293  23.870  26.676  1.00  0.00    -0.265 OA
ATOM     10  H   UNL A   1      30.206  26.355  26.597  1.00  0.00     0.164 HD
BRANCH   8  11
ATOM     11  C   UNL A   1      31.035  23.905  24.429  1.00  0.00     0.252 C 
ATOM     12  O   UNL A   1      30.287  23.981  23.464  1.00  0.00    -0.283 OA
BRANCH  11  13
ATOM     13  C   UNL A   1      32.245  23.092  24.396  1.00  0.00     0.054 A 
ATOM     14  N   UNL A   1      33.747  21.438  24.233  1.00  0.00    -0.240 N 
ATOM     15  C   UNL A   1      32.394  21.726  24.166  1.00  0.00     0.117 A 
ATOM     16  C   UNL A   1      34.455  22.642  24.282  1.00  0.00     0.065 A 
ATOM     17  C   UNL A   1      33.542  23.608  24.688  1.00  0.00     0.012 A 
ATOM     18  C   UNL A   1      35.835  22.911  24.230  1.00  0.00     0.028 A 
ATOM     19  C   UNL A   1      34.028  24.821  25.221  1.00  0.00     0.011 A 
ATOM     20  C   UNL A   1      36.295  24.103  24.788  1.00  0.00     0.002 A 
ATOM     21  C   UNL A   1      35.405  25.029  25.318  1.00  0.00     0.001 A 
BRANCH  14  22
ATOM     22  S   UNL A   1      34.457  20.196  25.205  1.00  0.00     0.268 S 
ATOM     23  O   UNL A   1      34.073  20.551  26.560  1.00  0.00    -0.201 OA
ATOM     24  O   UNL A   1      35.853  20.200  24.790  1.00  0.00    -0.201 OA
BRANCH  22  25
ATOM     25  C   UNL A   1      34.010  18.509  25.023  1.00  0.00     0.088 A 
ATOM     26  C   UNL A   1      32.376  14.532  25.304  1.00  0.00     0.044 C 
ATOM     27  C   UNL A   1      32.943  15.913  25.147  1.00  0.00    -0.051 A 
ATOM     28  C   UNL A   1      32.269  16.960  25.763  1.00  0.00     0.005 A 
ATOM     29  C   UNL A   1      34.145  16.179  24.458  1.00  0.00     0.005 A 
ATOM     30  C   UNL A   1      32.794  18.238  25.690  1.00  0.00     0.022 A 
ATOM     31  C   UNL A   1      34.692  17.481  24.391  1.00  0.00     0.022 A 
ENDBRANCH  22  25
ENDBRANCH  14  22
ENDBRANCH  11  13
ENDBRANCH   8  11
ENDBRANCH   6   7
BRANCH   6  32
ATOM     32  C   UNL A   1      29.700  27.249  23.763  1.00  0.00     0.074 C 
BRANCH  32  33
ATOM     33  C   UNL A   1      29.832  28.507  22.951  1.00  0.00    -0.020 A 
ATOM     34  C   UNL A   1      30.863  28.786  22.074  1.00  0.00     0.087 A 
ATOM     35  C   UNL A   1      28.968  29.652  22.938  1.00  0.00     0.003 A 
ATOM     36  N   UNL A   1      30.728  30.076  21.640  1.00  0.00    -0.361 N 
ATOM     37  C   UNL A   1      29.597  30.638  22.176  1.00  0.00     0.046 A 
ATOM     38  C   UNL A   1      27.744  29.974  23.561  1.00  0.00     0.010 A 
ATOM     39  H   UNL A   1      31.352  30.534  21.030  1.00  0.00     0.166 HD
ATOM     40  C   UNL A   1      29.114  31.950  22.084  1.00  0.00     0.026 A 
ATOM     41  C   UNL A   1      27.263  31.286  23.505  1.00  0.00     0.001 A 
ATOM     42  C   UNL A   1      27.952  32.263  22.794  1.00  0.00     0.002 A 
ENDBRANCH  32  33
ENDBRANCH   6  32
ENDBRANCH   4   6
ENDBRANCH   3   4
ENDBRANCH   2   3
ENDBRANCH   1   2
BRANCH   1  43
ATOM     43  O   UNL A   1      35.235  28.908  27.266  1.00  0.00    -0.374 OA
BRANCH  43  44
ATOM     44  C   UNL A   1      36.026  29.993  27.732  1.00  0.00     0.202 C 
BRANCH  44  45
ATOM     45  C   UNL A   1      36.040  30.116  29.261  1.00  0.00     0.261 C 
BRANCH  45  46
ATOM     46  O   UNL A   1      37.398  30.012  29.727  1.00  0.00    -0.460 OA
BRANCH  46  47
ATOM     47  C   UNL A   1      37.621  28.965  30.567  1.00  0.00     0.338 C 
ATOM     48  O   UNL A   1      36.982  28.737  31.578  1.00  0.00    -0.246 OA
BRANCH  47  49
ATOM     49  C   UNL A   1      38.821  28.204  30.121  1.00  0.00     0.060 A 
ATOM     50  C   UNL A   1      39.989  28.229  30.899  1.00  0.00     0.016 A 
ATOM     51  C   UNL A   1      38.845  27.623  28.851  1.00  0.00     0.016 A 
ATOM     52  C   UNL A   1      41.199  27.761  30.365  1.00  0.00     0.010 A 
ATOM     53  C   UNL A   1      40.048  27.201  28.313  1.00  0.00     0.010 A 
ATOM     54  C   UNL A   1      41.237  27.293  29.051  1.00  0.00    -0.014 A 
BRANCH  54  55
ATOM     55  C   UNL A   1      42.463  27.017  28.297  1.00  0.00     0.031 A 
ATOM     56  C   UNL A   1      43.066  25.662  28.287  1.00  0.00     0.074 A 
ATOM     57  C   UNL A   1      42.921  27.931  27.410  1.00  0.00     0.049 A 
ATOM     58  N   UNL A   1      44.216  25.394  27.768  1.00  0.00    -0.248 NA
ATOM     59  C   UNL A   1      42.449  24.482  28.894  1.00  0.00     0.031 C 
ATOM     60  C   UNL A   1      43.827  27.724  26.281  1.00  0.00     0.029 A 
ATOM     61  N   UNL A   1      42.778  29.322  27.453  1.00  0.00    -0.354 N 
ATOM     62  C   UNL A   1      44.263  24.038  27.566  1.00  0.00     0.074 A 
ATOM     63  C   UNL A   1      43.253  23.510  28.445  1.00  0.00     0.031 C 
ATOM     64  C   UNL A   1      44.417  28.890  25.978  1.00  0.00     0.029 A 
ATOM     65  C   UNL A   1      43.989  29.850  26.978  1.00  0.00     0.049 A 
ATOM     66  H   UNL A   1      41.989  29.828  27.755  1.00  0.00     0.167 HD
ATOM     67  C   UNL A   1      45.020  23.559  26.538  1.00  0.00     0.034 A 
ATOM     68  C   UNL A   1      44.781  30.632  27.757  1.00  0.00     0.034 A 
ATOM     69  C   UNL A   1      45.974  24.573  26.058  1.00  0.00     0.049 A 
ATOM     70  C   UNL A   1      46.145  30.002  27.861  1.00  0.00     0.074 A 
ATOM     71  C   UNL A   1      46.202  25.200  24.845  1.00  0.00     0.029 A 
ATOM     72  N   UNL A   1      46.754  25.265  26.995  1.00  0.00    -0.354 N 
ATOM     73  N   UNL A   1      46.350  28.722  27.686  1.00  0.00    -0.248 NA
ATOM     74  C   UNL A   1      47.386  30.750  28.021  1.00  0.00     0.031 C 
ATOM     75  C   UNL A   1      47.018  26.346  25.094  1.00  0.00     0.029 A 
ATOM     76  C   UNL A   1      47.337  26.387  26.444  1.00  0.00     0.049 A 
ATOM     77  H   UNL A   1      46.871  24.984  27.933  1.00  0.00     0.167 HD
ATOM     78  C   UNL A   1      47.690  28.483  27.585  1.00  0.00     0.074 A 
ATOM     79  C   UNL A   1      48.300  29.778  27.847  1.00  0.00     0.031 C 
ATOM     80  C   UNL A   1      48.200  27.262  27.239  1.00  0.00     0.034 A 
BRANCH  67  81
ATOM     81  C   UNL A   1      44.767  22.223  25.846  1.00  0.00     0.023 A 
ATOM     82  C   UNL A   1      43.657  21.430  26.218  1.00  0.00     0.031 A 
ATOM     83  C   UNL A   1      45.637  21.618  24.905  1.00  0.00     0.131 A 
ATOM     84  C   UNL A   1      43.442  20.151  25.647  1.00  0.00     0.055 A 
ATOM     85  C   UNL A   1      45.380  20.389  24.284  1.00  0.00     0.041 A 
ATOM     86  F   UNL A   1      46.828  22.138  24.585  1.00  0.00    -0.206 F 
ATOM     87  C   UNL A   1      44.275  19.647  24.652  1.00  0.00     0.022 A 
BRANCH  84  88
ATOM     88  S   UNL A   1      42.091  19.099  26.254  1.00  0.00     0.124 S 
ATOM     89  O   UNL A   1      41.916  19.586  27.619  1.00  0.00    -0.237 OA
ATOM     90  O   UNL A   1      41.013  19.392  25.317  1.00  0.00    -0.237 OA
ATOM     91  O   UNL A   1      42.641  17.746  26.152  1.00  0.00    -0.744 OA
ENDBRANCH  84  88
ENDBRANCH  67  81
BRANCH  68  92
ATOM     92  C   UNL A   1      44.007  31.444  28.747  1.00  0.00     0.023 A 
ATOM     93  C   UNL A   1      43.859  30.899  30.051  1.00  0.00     0.031 A 
ATOM     94  C   UNL A   1      43.778  32.816  28.599  1.00  0.00     0.131 A 
ATOM     95  C   UNL A   1      43.636  31.726  31.164  1.00  0.00     0.055 A 
ATOM     96  C   UNL A   1      43.511  33.636  29.711  1.00  0.00     0.041 A 
ATOM     97  F   UNL A   1      43.920  33.409  27.406  1.00  0.00    -0.206 F 
ATOM     98  C   UNL A   1      43.481  33.101  31.000  1.00  0.00     0.022 A 
BRANCH  95  99
ATOM     99  S   UNL A   1      43.806  31.041  32.847  1.00  0.00     0.124 S 
ATOM    100  O   UNL A   1      44.027  32.245  33.643  1.00  0.00    -0.237 OA
ATOM    101  O   UNL A   1      42.535  30.360  33.059  1.00  0.00    -0.237 OA
ATOM    102  O   UNL A   1      44.949  30.140  32.728  1.00  0.00    -0.744 OA
ENDBRANCH  95  99
ENDBRANCH  68  92
BRANCH  80 103
ATOM    103  C   UNL A   1      49.619  26.837  27.538  1.00  0.00     0.023 A 
ATOM    104  C   UNL A   1      50.690  27.139  26.685  1.00  0.00     0.031 A 
ATOM    105  C   UNL A   1      49.967  26.227  28.765  1.00  0.00     0.131 A 
ATOM    106  C   UNL A   1      52.004  26.752  26.994  1.00  0.00     0.055 A 
ATOM    107  C   UNL A   1      51.286  25.921  29.111  1.00  0.00     0.041 A 
ATOM    108  F   UNL A   1      49.046  25.929  29.695  1.00  0.00    -0.206 F 
ATOM    109  C   UNL A   1      52.315  26.166  28.214  1.00  0.00     0.022 A 
BRANCH 106 110
ATOM    110  S   UNL A   1      53.275  26.994  25.729  1.00  0.00     0.124 S 
ATOM    111  O   UNL A   1      52.878  26.015  24.720  1.00  0.00    -0.237 OA
ATOM    112  O   UNL A   1      53.091  28.393  25.356  1.00  0.00    -0.237 OA
ATOM    113  O   UNL A   1      54.520  26.695  26.430  1.00  0.00    -0.744 OA
ENDBRANCH 106 110
ENDBRANCH  80 103
ENDBRANCH  54  55
ENDBRANCH  47  49
ENDBRANCH  46  47
ENDBRANCH  45  46
ENDBRANCH  44  45
ENDBRANCH  43  44
ENDBRANCH   1  43
TORSDOF 24
ENDMDL
