MODEL 1
REMARK VINA RESULT:     -10.6      0.000      0.000
REMARK SMILES CC(C)(C)OC(=O)N[C@H](Cc1ccc(N=[N+]=[N-])cc1)C(=O)OCCOCCOC(=O)c1ccc(-c2c3nc(c(-c4cc(S(=O)(=O)[O-])ccc4F)c4ccc([nH]4)c(-c4cc(S(=O)(=O)[O-])ccc4F)c4nc(c(-c5cc(S(=O)(=O)[O-])ccc5F)c5ccc2[nH]5)C=C4)C=C3)cc1
REMARK SMILES IDX 25 1 24 2 23 3 22 4 20 5 21 6 9 7 8 8 6 9 7 10 5 12 2 13
REMARK SMILES IDX 1 14 3 15 4 16 10 17 11 18 12 19 19 20 13 21 18 22 14 23
REMARK SMILES IDX 15 24 16 25 17 26 26 27 27 28 28 29 29 30 30 31 31 32 32 33
REMARK SMILES IDX 93 34 33 35 92 36 34 37 35 38 36 39 86 40 37 41 91 42 85 43
REMARK SMILES IDX 87 44 38 45 90 46 84 47 83 48 39 50 71 51 51 52 70 53 52 54
REMARK SMILES IDX 55 55 69 56 88 57 53 58 54 59 68 61 89 62 56 63 40 64 41 65
REMARK SMILES IDX 49 66 42 67 48 68 50 69 47 70 43 71 44 72 45 73 46 74 72 75
REMARK SMILES IDX 73 76 81 77 74 78 80 79 82 80 79 81 75 82 76 83 77 84 78 85
REMARK SMILES IDX 57 86 58 87 66 88 59 89 65 90 67 91 64 92 60 93 61 94 62 95
REMARK SMILES IDX 63 96
REMARK H PARENT 8 11 87 49 55 60
REMARK Flexibility Score: inf
ROOT
ATOM      1  O   UNL A   1      33.144  28.265  25.426  1.00  0.00    -0.374 OA
ENDROOT
BRANCH   1   2
ATOM      2  C   UNL A   1      32.357  27.080  25.453  1.00  0.00     0.202 C 
BRANCH   2   3
ATOM      3  C   UNL A   1      32.909  25.842  24.731  1.00  0.00     0.261 C 
BRANCH   3   4
ATOM      4  O   UNL A   1      33.355  26.031  23.374  1.00  0.00    -0.462 OA
BRANCH   4   5
ATOM      5  C   UNL A   1      33.177  24.947  22.569  1.00  0.00     0.329 C 
ATOM      6  O   UNL A   1      32.833  25.018  21.391  1.00  0.00    -0.250 OA
BRANCH   5   7
ATOM      7  C   UNL A   1      33.239  23.598  23.298  1.00  0.00     0.199 C 
BRANCH   7   8
ATOM      8  N   UNL A   1      34.463  22.995  22.752  1.00  0.00    -0.308 N 
ATOM      9  C   UNL A   1      35.720  23.096  23.244  1.00  0.00     0.408 C 
ATOM     10  O   UNL A   1      36.663  22.582  22.660  1.00  0.00    -0.225 OA
ATOM     11  H   UNL A   1      34.357  22.456  21.936  1.00  0.00     0.168 HD
BRANCH   9  12
ATOM     12  O   UNL A   1      35.775  23.779  24.409  1.00  0.00    -0.444 OA
BRANCH  12  13
ATOM     13  C   UNL A   1      36.193  23.092  25.615  1.00  0.00     0.106 C 
ATOM     14  C   UNL A   1      35.051  23.323  26.616  1.00  0.00     0.056 C 
ATOM     15  C   UNL A   1      37.478  23.696  26.197  1.00  0.00     0.056 C 
ATOM     16  C   UNL A   1      36.324  21.585  25.362  1.00  0.00     0.056 C 
ENDBRANCH  12  13
ENDBRANCH   9  12
ENDBRANCH   7   8
BRANCH   7  17
ATOM     17  C   UNL A   1      32.064  22.616  23.176  1.00  0.00     0.072 C 
BRANCH  17  18
ATOM     18  C   UNL A   1      32.310  21.199  23.648  1.00  0.00    -0.045 A 
ATOM     19  C   UNL A   1      32.164  20.143  22.744  1.00  0.00     0.004 A 
ATOM     20  C   UNL A   1      32.729  20.900  24.951  1.00  0.00     0.004 A 
ATOM     21  C   UNL A   1      32.345  18.816  23.149  1.00  0.00     0.010 A 
ATOM     22  C   UNL A   1      32.906  19.566  25.356  1.00  0.00     0.010 A 
ATOM     23  C   UNL A   1      32.689  18.511  24.464  1.00  0.00     0.038 A 
BRANCH  23  24
ATOM     24  N   UNL A   1      32.670  17.166  24.870  1.00  0.00    -0.061 NA
ATOM     25  N   UNL A   1      33.786  16.682  25.090  1.00  0.00     0.005 N 
ATOM     26  N   UNL A   1      34.807  16.209  25.320  1.00  0.00    -0.003 NA
ENDBRANCH  23  24
ENDBRANCH  17  18
ENDBRANCH   7  17
ENDBRANCH   5   7
ENDBRANCH   4   5
ENDBRANCH   3   4
ENDBRANCH   2   3
ENDBRANCH   1   2
BRANCH   1  27
ATOM     27  C   UNL A   1      32.580  29.422  24.810  1.00  0.00     0.202 C 
BRANCH  27  28
ATOM     28  C   UNL A   1      31.780  30.366  25.713  1.00  0.00     0.261 C 
BRANCH  28  29
ATOM     29  O   UNL A   1      32.342  30.426  27.039  1.00  0.00    -0.460 OA
BRANCH  29  30
ATOM     30  C   UNL A   1      33.073  31.540  27.285  1.00  0.00     0.338 C 
ATOM     31  O   UNL A   1      32.678  32.692  27.262  1.00  0.00    -0.246 OA
BRANCH  30  32
ATOM     32  C   UNL A   1      34.436  31.166  27.707  1.00  0.00     0.060 A 
ATOM     33  C   UNL A   1      34.705  29.825  28.002  1.00  0.00     0.016 A 
ATOM     34  C   UNL A   1      35.400  32.146  27.955  1.00  0.00     0.016 A 
ATOM     35  C   UNL A   1      35.924  29.471  28.590  1.00  0.00     0.010 A 
ATOM     36  C   UNL A   1      36.630  31.785  28.517  1.00  0.00     0.010 A 
ATOM     37  C   UNL A   1      36.885  30.452  28.882  1.00  0.00    -0.014 A 
BRANCH  37  38
ATOM     38  C   UNL A   1      38.091  30.114  29.688  1.00  0.00     0.031 A 
ATOM     39  C   UNL A   1      39.094  29.127  29.145  1.00  0.00     0.074 A 
ATOM     40  C   UNL A   1      38.305  30.683  30.890  1.00  0.00     0.049 A 
ATOM     41  N   UNL A   1      40.186  28.661  29.697  1.00  0.00    -0.248 NA
ATOM     42  C   UNL A   1      38.824  28.590  27.803  1.00  0.00     0.031 C 
ATOM     43  C   UNL A   1      37.433  31.672  31.521  1.00  0.00     0.029 A 
ATOM     44  N   UNL A   1      39.322  30.505  31.797  1.00  0.00    -0.354 N 
ATOM     45  C   UNL A   1      40.734  27.775  28.773  1.00  0.00     0.074 A 
ATOM     46  C   UNL A   1      39.825  27.736  27.646  1.00  0.00     0.031 C 
ATOM     47  C   UNL A   1      37.953  32.012  32.713  1.00  0.00     0.029 A 
ATOM     48  C   UNL A   1      39.170  31.238  32.951  1.00  0.00     0.049 A 
ATOM     49  H   UNL A   1      40.088  29.908  31.636  1.00  0.00     0.167 HD
ATOM     50  C   UNL A   1      41.891  27.072  28.848  1.00  0.00     0.034 A 
ATOM     51  C   UNL A   1      39.910  31.266  34.079  1.00  0.00     0.034 A 
ATOM     52  C   UNL A   1      42.792  27.113  29.975  1.00  0.00     0.049 A 
ATOM     53  C   UNL A   1      41.150  30.408  34.177  1.00  0.00     0.074 A 
ATOM     54  C   UNL A   1      44.003  26.458  30.134  1.00  0.00     0.029 A 
ATOM     55  N   UNL A   1      42.580  27.834  31.142  1.00  0.00    -0.354 N 
ATOM     56  N   UNL A   1      41.663  29.590  33.288  1.00  0.00    -0.248 NA
ATOM     57  C   UNL A   1      41.917  30.488  35.430  1.00  0.00     0.031 C 
ATOM     58  C   UNL A   1      44.483  26.722  31.421  1.00  0.00     0.029 A 
ATOM     59  C   UNL A   1      43.617  27.612  32.036  1.00  0.00     0.049 A 
ATOM     60  H   UNL A   1      41.806  28.420  31.311  1.00  0.00     0.167 HD
ATOM     61  C   UNL A   1      42.831  29.091  33.860  1.00  0.00     0.074 A 
ATOM     62  C   UNL A   1      42.949  29.699  35.167  1.00  0.00     0.031 C 
ATOM     63  C   UNL A   1      43.733  28.218  33.341  1.00  0.00     0.034 A 
BRANCH  50  64
ATOM     64  C   UNL A   1      42.229  26.162  27.691  1.00  0.00     0.023 A 
ATOM     65  C   UNL A   1      41.807  24.822  27.654  1.00  0.00     0.031 A 
ATOM     66  C   UNL A   1      42.993  26.642  26.611  1.00  0.00     0.131 A 
ATOM     67  C   UNL A   1      42.209  23.990  26.597  1.00  0.00     0.055 A 
ATOM     68  C   UNL A   1      43.322  25.831  25.523  1.00  0.00     0.041 A 
ATOM     69  F   UNL A   1      43.441  27.907  26.600  1.00  0.00    -0.206 F 
ATOM     70  C   UNL A   1      42.941  24.493  25.519  1.00  0.00     0.022 A 
BRANCH  67  71
ATOM     71  S   UNL A   1      41.878  22.211  26.721  1.00  0.00     0.124 S 
ATOM     72  O   UNL A   1      42.279  21.744  25.396  1.00  0.00    -0.237 OA
ATOM     73  O   UNL A   1      42.735  21.808  27.829  1.00  0.00    -0.237 OA
ATOM     74  O   UNL A   1      40.442  22.149  26.986  1.00  0.00    -0.744 OA
ENDBRANCH  67  71
ENDBRANCH  50  64
BRANCH  51  75
ATOM     75  C   UNL A   1      39.485  32.109  35.234  1.00  0.00     0.023 A 
ATOM     76  C   UNL A   1      38.766  31.562  36.309  1.00  0.00     0.031 A 
ATOM     77  C   UNL A   1      39.745  33.491  35.250  1.00  0.00     0.131 A 
ATOM     78  C   UNL A   1      38.290  32.400  37.330  1.00  0.00     0.055 A 
ATOM     79  C   UNL A   1      39.318  34.311  36.296  1.00  0.00     0.041 A 
ATOM     80  F   UNL A   1      40.428  34.064  34.246  1.00  0.00    -0.206 F 
ATOM     81  C   UNL A   1      38.574  33.767  37.337  1.00  0.00     0.022 A 
BRANCH  78  82
ATOM     82  S   UNL A   1      37.215  31.689  38.606  1.00  0.00     0.124 S 
ATOM     83  O   UNL A   1      36.044  32.555  38.524  1.00  0.00    -0.237 OA
ATOM     84  O   UNL A   1      37.040  30.323  38.125  1.00  0.00    -0.237 OA
ATOM     85  O   UNL A   1      38.005  31.821  39.828  1.00  0.00    -0.744 OA
ENDBRANCH  78  82
ENDBRANCH  51  75
BRANCH  63  86
ATOM     86  C   UNL A   1      44.966  27.918  34.159  1.00  0.00     0.023 A 
ATOM     87  C   UNL A   1      46.127  28.708  34.082  1.00  0.00     0.031 A 
ATOM     88  C   UNL A   1      44.969  26.825  35.046  1.00  0.00     0.131 A 
ATOM     89  C   UNL A   1      47.256  28.367  34.846  1.00  0.00     0.055 A 
ATOM     90  C   UNL A   1      46.075  26.525  35.843  1.00  0.00     0.041 A 
ATOM     91  F   UNL A   1      43.889  26.035  35.161  1.00  0.00    -0.206 F 
ATOM     92  C   UNL A   1      47.230  27.292  35.738  1.00  0.00     0.022 A 
BRANCH  89  93
ATOM     93  S   UNL A   1      48.789  29.310  34.611  1.00  0.00     0.124 S 
ATOM     94  O   UNL A   1      49.072  29.772  35.966  1.00  0.00    -0.237 OA
ATOM     95  O   UNL A   1      49.698  28.302  34.077  1.00  0.00    -0.237 OA
ATOM     96  O   UNL A   1      48.406  30.359  33.666  1.00  0.00    -0.744 OA
ENDBRANCH  89  93
ENDBRANCH  63  86
ENDBRANCH  37  38
ENDBRANCH  30  32
ENDBRANCH  29  30
ENDBRANCH  28  29
ENDBRANCH  27  28
ENDBRANCH   1  27
TORSDOF 23
ENDMDL
MODEL 2
REMARK VINA RESULT:     -10.5      3.115      8.688
REMARK SMILES CC(C)(C)OC(=O)N[C@H](Cc1ccc(N=[N+]=[N-])cc1)C(=O)OCCOCCOC(=O)c1ccc(-c2c3nc(c(-c4cc(S(=O)(=O)[O-])ccc4F)c4ccc([nH]4)c(-c4cc(S(=O)(=O)[O-])ccc4F)c4nc(c(-c5cc(S(=O)(=O)[O-])ccc5F)c5ccc2[nH]5)C=C4)C=C3)cc1
REMARK SMILES IDX 25 1 24 2 23 3 22 4 20 5 21 6 9 7 8 8 6 9 7 10 5 12 2 13
REMARK SMILES IDX 1 14 3 15 4 16 10 17 11 18 12 19 19 20 13 21 18 22 14 23
REMARK SMILES IDX 15 24 16 25 17 26 26 27 27 28 28 29 29 30 30 31 31 32 32 33
REMARK SMILES IDX 93 34 33 35 92 36 34 37 35 38 36 39 86 40 37 41 91 42 85 43
REMARK SMILES IDX 87 44 38 45 90 46 84 47 83 48 39 50 71 51 51 52 70 53 52 54
REMARK SMILES IDX 55 55 69 56 88 57 53 58 54 59 68 61 89 62 56 63 40 64 41 65
REMARK SMILES IDX 49 66 42 67 48 68 50 69 47 70 43 71 44 72 45 73 46 74 72 75
REMARK SMILES IDX 73 76 81 77 74 78 80 79 82 80 79 81 75 82 76 83 77 84 78 85
REMARK SMILES IDX 57 86 58 87 66 88 59 89 65 90 67 91 64 92 60 93 61 94 62 95
REMARK SMILES IDX 63 96
REMARK H PARENT 8 11 87 49 55 60
REMARK Flexibility Score: inf
ROOT
ATOM      1  O   UNL A   1      31.407  29.715  25.750  1.00  0.00    -0.374 OA
ENDROOT
BRANCH   1   2
ATOM      2  C   UNL A   1      31.932  29.216  26.975  1.00  0.00     0.202 C 
BRANCH   2   3
ATOM      3  C   UNL A   1      33.118  28.244  26.898  1.00  0.00     0.261 C 
BRANCH   3   4
ATOM      4  O   UNL A   1      32.966  27.105  26.028  1.00  0.00    -0.462 OA
BRANCH   4   5
ATOM      5  C   UNL A   1      33.390  27.314  24.752  1.00  0.00     0.329 C 
ATOM      6  O   UNL A   1      34.204  28.180  24.434  1.00  0.00    -0.250 OA
BRANCH   5   7
ATOM      7  C   UNL A   1      32.624  26.518  23.688  1.00  0.00     0.199 C 
BRANCH   7   8
ATOM      8  N   UNL A   1      33.590  25.477  23.310  1.00  0.00    -0.308 N 
ATOM      9  C   UNL A   1      33.754  24.260  23.881  1.00  0.00     0.408 C 
ATOM     10  O   UNL A   1      34.635  23.504  23.498  1.00  0.00    -0.225 OA
ATOM     11  H   UNL A   1      34.186  25.688  22.556  1.00  0.00     0.168 HD
BRANCH   9  12
ATOM     12  O   UNL A   1      32.847  24.009  24.851  1.00  0.00    -0.444 OA
BRANCH  12  13
ATOM     13  C   UNL A   1      31.876  22.950  24.658  1.00  0.00     0.106 C 
ATOM     14  C   UNL A   1      31.347  23.156  23.231  1.00  0.00     0.056 C 
ATOM     15  C   UNL A   1      30.699  23.073  25.634  1.00  0.00     0.056 C 
ATOM     16  C   UNL A   1      32.551  21.576  24.736  1.00  0.00     0.056 C 
ENDBRANCH  12  13
ENDBRANCH   9  12
ENDBRANCH   7   8
BRANCH   7  17
ATOM     17  C   UNL A   1      32.100  27.235  22.436  1.00  0.00     0.072 C 
BRANCH  17  18
ATOM     18  C   UNL A   1      30.801  27.998  22.582  1.00  0.00    -0.045 A 
ATOM     19  C   UNL A   1      30.701  29.287  22.049  1.00  0.00     0.004 A 
ATOM     20  C   UNL A   1      29.667  27.447  23.193  1.00  0.00     0.004 A 
ATOM     21  C   UNL A   1      29.532  30.041  22.196  1.00  0.00     0.010 A 
ATOM     22  C   UNL A   1      28.494  28.208  23.343  1.00  0.00     0.010 A 
ATOM     23  C   UNL A   1      28.428  29.522  22.868  1.00  0.00     0.038 A 
BRANCH  23  24
ATOM     24  N   UNL A   1      27.353  30.378  23.159  1.00  0.00    -0.061 NA
ATOM     25  N   UNL A   1      27.633  31.582  23.125  1.00  0.00     0.005 N 
ATOM     26  N   UNL A   1      27.858  32.708  23.084  1.00  0.00    -0.003 NA
ENDBRANCH  23  24
ENDBRANCH  17  18
ENDBRANCH   7  17
ENDBRANCH   5   7
ENDBRANCH   4   5
ENDBRANCH   3   4
ENDBRANCH   2   3
ENDBRANCH   1   2
BRANCH   1  27
ATOM     27  C   UNL A   1      31.079  31.103  25.684  1.00  0.00     0.202 C 
BRANCH  27  28
ATOM     28  C   UNL A   1      31.464  31.961  26.894  1.00  0.00     0.261 C 
BRANCH  28  29
ATOM     29  O   UNL A   1      32.571  32.832  26.590  1.00  0.00    -0.460 OA
BRANCH  29  30
ATOM     30  C   UNL A   1      33.146  33.403  27.676  1.00  0.00     0.338 C 
ATOM     31  O   UNL A   1      32.684  34.298  28.361  1.00  0.00    -0.246 OA
BRANCH  30  32
ATOM     32  C   UNL A   1      34.405  32.707  28.004  1.00  0.00     0.060 A 
ATOM     33  C   UNL A   1      34.363  31.339  28.293  1.00  0.00     0.016 A 
ATOM     34  C   UNL A   1      35.592  33.424  28.175  1.00  0.00     0.016 A 
ATOM     35  C   UNL A   1      35.498  30.697  28.798  1.00  0.00     0.010 A 
ATOM     36  C   UNL A   1      36.735  32.773  28.652  1.00  0.00     0.010 A 
ATOM     37  C   UNL A   1      36.686  31.415  29.011  1.00  0.00    -0.014 A 
BRANCH  37  38
ATOM     38  C   UNL A   1      37.828  30.789  29.734  1.00  0.00     0.031 A 
ATOM     39  C   UNL A   1      38.103  31.176  31.166  1.00  0.00     0.074 A 
ATOM     40  C   UNL A   1      38.615  29.875  29.132  1.00  0.00     0.049 A 
ATOM     41  N   UNL A   1      39.064  30.786  31.964  1.00  0.00    -0.248 NA
ATOM     42  C   UNL A   1      37.170  32.135  31.775  1.00  0.00     0.031 C 
ATOM     43  C   UNL A   1      38.447  29.391  27.763  1.00  0.00     0.029 A 
ATOM     44  N   UNL A   1      39.716  29.198  29.595  1.00  0.00    -0.354 N 
ATOM     45  C   UNL A   1      38.856  31.452  33.168  1.00  0.00     0.074 A 
ATOM     46  C   UNL A   1      37.702  32.306  32.976  1.00  0.00     0.031 C 
ATOM     47  C   UNL A   1      39.411  28.493  27.498  1.00  0.00     0.029 A 
ATOM     48  C   UNL A   1      40.291  28.369  28.660  1.00  0.00     0.049 A 
ATOM     49  H   UNL A   1      40.062  29.296  30.512  1.00  0.00     0.167 HD
ATOM     50  C   UNL A   1      39.550  31.352  34.330  1.00  0.00     0.034 A 
ATOM     51  C   UNL A   1      41.408  27.616  28.720  1.00  0.00     0.034 A 
ATOM     52  C   UNL A   1      40.701  30.501  34.515  1.00  0.00     0.049 A 
ATOM     53  C   UNL A   1      42.217  27.585  29.996  1.00  0.00     0.074 A 
ATOM     54  C   UNL A   1      41.454  30.310  35.661  1.00  0.00     0.029 A 
ATOM     55  N   UNL A   1      41.276  29.710  33.529  1.00  0.00    -0.354 N 
ATOM     56  N   UNL A   1      41.997  28.207  31.131  1.00  0.00    -0.248 NA
ATOM     57  C   UNL A   1      43.421  26.741  30.001  1.00  0.00     0.031 C 
ATOM     58  C   UNL A   1      42.526  29.466  35.350  1.00  0.00     0.029 A 
ATOM     59  C   UNL A   1      42.394  29.060  34.032  1.00  0.00     0.049 A 
ATOM     60  H   UNL A   1      40.941  29.623  32.608  1.00  0.00     0.167 HD
ATOM     61  C   UNL A   1      43.010  27.796  31.994  1.00  0.00     0.074 A 
ATOM     62  C   UNL A   1      43.841  26.874  31.251  1.00  0.00     0.031 C 
ATOM     63  C   UNL A   1      43.224  28.141  33.289  1.00  0.00     0.034 A 
BRANCH  50  64
ATOM     64  C   UNL A   1      39.104  32.219  35.483  1.00  0.00     0.023 A 
ATOM     65  C   UNL A   1      39.545  33.546  35.626  1.00  0.00     0.031 A 
ATOM     66  C   UNL A   1      38.231  31.706  36.460  1.00  0.00     0.131 A 
ATOM     67  C   UNL A   1      39.169  34.291  36.755  1.00  0.00     0.055 A 
ATOM     68  C   UNL A   1      37.796  32.480  37.538  1.00  0.00     0.041 A 
ATOM     69  F   UNL A   1      37.792  30.440  36.388  1.00  0.00    -0.206 F 
ATOM     70  C   UNL A   1      38.277  33.775  37.698  1.00  0.00     0.022 A 
BRANCH  67  71
ATOM     71  S   UNL A   1      39.971  35.892  37.042  1.00  0.00     0.124 S 
ATOM     72  O   UNL A   1      41.368  35.496  37.205  1.00  0.00    -0.237 OA
ATOM     73  O   UNL A   1      39.652  36.628  35.826  1.00  0.00    -0.237 OA
ATOM     74  O   UNL A   1      39.326  36.384  38.258  1.00  0.00    -0.744 OA
ENDBRANCH  67  71
ENDBRANCH  50  64
BRANCH  51  75
ATOM     75  C   UNL A   1      41.863  26.849  27.524  1.00  0.00     0.023 A 
ATOM     76  C   UNL A   1      41.679  25.460  27.437  1.00  0.00     0.031 A 
ATOM     77  C   UNL A   1      42.543  27.492  26.473  1.00  0.00     0.131 A 
ATOM     78  C   UNL A   1      42.211  24.752  26.347  1.00  0.00     0.055 A 
ATOM     79  C   UNL A   1      43.021  26.790  25.366  1.00  0.00     0.041 A 
ATOM     80  F   UNL A   1      42.747  28.818  26.509  1.00  0.00    -0.206 F 
ATOM     81  C   UNL A   1      42.868  25.409  25.305  1.00  0.00     0.022 A 
BRANCH  78  82
ATOM     82  S   UNL A   1      42.110  22.941  26.357  1.00  0.00     0.124 S 
ATOM     83  O   UNL A   1      40.685  22.724  26.581  1.00  0.00    -0.237 OA
ATOM     84  O   UNL A   1      42.611  22.603  25.030  1.00  0.00    -0.237 OA
ATOM     85  O   UNL A   1      42.981  22.558  27.466  1.00  0.00    -0.744 OA
ENDBRANCH  78  82
ENDBRANCH  51  75
BRANCH  63  86
ATOM     86  C   UNL A   1      44.365  27.466  34.014  1.00  0.00     0.023 A 
ATOM     87  C   UNL A   1      44.187  26.285  34.756  1.00  0.00     0.031 A 
ATOM     88  C   UNL A   1      45.659  28.013  33.944  1.00  0.00     0.131 A 
ATOM     89  C   UNL A   1      45.278  25.714  35.433  1.00  0.00     0.055 A 
ATOM     90  C   UNL A   1      46.750  27.411  34.574  1.00  0.00     0.041 A 
ATOM     91  F   UNL A   1      45.888  29.141  33.250  1.00  0.00    -0.206 F 
ATOM     92  C   UNL A   1      46.560  26.260  35.331  1.00  0.00     0.022 A 
BRANCH  89  93
ATOM     93  S   UNL A   1      44.988  24.280  36.507  1.00  0.00     0.124 S 
ATOM     94  O   UNL A   1      43.987  24.794  37.436  1.00  0.00    -0.237 OA
ATOM     95  O   UNL A   1      44.524  23.270  35.562  1.00  0.00    -0.237 OA
ATOM     96  O   UNL A   1      46.302  24.020  37.094  1.00  0.00    -0.744 OA
ENDBRANCH  89  93
ENDBRANCH  63  86
ENDBRANCH  37  38
ENDBRANCH  30  32
ENDBRANCH  29  30
ENDBRANCH  28  29
ENDBRANCH  27  28
ENDBRANCH   1  27
TORSDOF 23
ENDMDL
MODEL 3
REMARK VINA RESULT:     -10.3      4.753      8.088
REMARK SMILES CC(C)(C)OC(=O)N[C@H](Cc1ccc(N=[N+]=[N-])cc1)C(=O)OCCOCCOC(=O)c1ccc(-c2c3nc(c(-c4cc(S(=O)(=O)[O-])ccc4F)c4ccc([nH]4)c(-c4cc(S(=O)(=O)[O-])ccc4F)c4nc(c(-c5cc(S(=O)(=O)[O-])ccc5F)c5ccc2[nH]5)C=C4)C=C3)cc1
REMARK SMILES IDX 25 1 24 2 23 3 22 4 20 5 21 6 9 7 8 8 6 9 7 10 5 12 2 13
REMARK SMILES IDX 1 14 3 15 4 16 10 17 11 18 12 19 19 20 13 21 18 22 14 23
REMARK SMILES IDX 15 24 16 25 17 26 26 27 27 28 28 29 29 30 30 31 31 32 32 33
REMARK SMILES IDX 93 34 33 35 92 36 34 37 35 38 36 39 86 40 37 41 91 42 85 43
REMARK SMILES IDX 87 44 38 45 90 46 84 47 83 48 39 50 71 51 51 52 70 53 52 54
REMARK SMILES IDX 55 55 69 56 88 57 53 58 54 59 68 61 89 62 56 63 40 64 41 65
REMARK SMILES IDX 49 66 42 67 48 68 50 69 47 70 43 71 44 72 45 73 46 74 72 75
REMARK SMILES IDX 73 76 81 77 74 78 80 79 82 80 79 81 75 82 76 83 77 84 78 85
REMARK SMILES IDX 57 86 58 87 66 88 59 89 65 90 67 91 64 92 60 93 61 94 62 95
REMARK SMILES IDX 63 96
REMARK H PARENT 8 11 87 49 55 60
REMARK Flexibility Score: inf
ROOT
ATOM      1  O   UNL A   1      35.524  21.841  26.193  1.00  0.00    -0.374 OA
ENDROOT
BRANCH   1   2
ATOM      2  C   UNL A   1      35.069  23.131  25.801  1.00  0.00     0.202 C 
BRANCH   2   3
ATOM      3  C   UNL A   1      33.588  23.278  25.421  1.00  0.00     0.261 C 
BRANCH   3   4
ATOM      4  O   UNL A   1      33.224  24.465  24.688  1.00  0.00    -0.462 OA
BRANCH   4   5
ATOM      5  C   UNL A   1      32.674  25.448  25.453  1.00  0.00     0.329 C 
ATOM      6  O   UNL A   1      31.678  25.291  26.157  1.00  0.00    -0.250 OA
BRANCH   5   7
ATOM      7  C   UNL A   1      33.268  26.842  25.219  1.00  0.00     0.199 C 
BRANCH   7   8
ATOM      8  N   UNL A   1      33.739  26.762  23.830  1.00  0.00    -0.308 N 
ATOM      9  C   UNL A   1      33.361  27.537  22.786  1.00  0.00     0.408 C 
ATOM     10  O   UNL A   1      33.797  27.329  21.663  1.00  0.00    -0.225 OA
ATOM     11  H   UNL A   1      34.405  26.064  23.635  1.00  0.00     0.168 HD
BRANCH   9  12
ATOM     12  O   UNL A   1      32.511  28.524  23.146  1.00  0.00    -0.444 OA
BRANCH  12  13
ATOM     13  C   UNL A   1      31.086  28.338  22.953  1.00  0.00     0.106 C 
ATOM     14  C   UNL A   1      30.483  28.434  24.362  1.00  0.00     0.056 C 
ATOM     15  C   UNL A   1      30.767  26.951  22.381  1.00  0.00     0.056 C 
ATOM     16  C   UNL A   1      30.505  29.466  22.094  1.00  0.00     0.056 C 
ENDBRANCH  12  13
ENDBRANCH   9  12
ENDBRANCH   7   8
BRANCH   7  17
ATOM     17  C   UNL A   1      34.394  27.349  26.132  1.00  0.00     0.072 C 
BRANCH  17  18
ATOM     18  C   UNL A   1      34.240  28.748  26.691  1.00  0.00    -0.045 A 
ATOM     19  C   UNL A   1      35.314  29.337  27.364  1.00  0.00     0.004 A 
ATOM     20  C   UNL A   1      33.073  29.504  26.520  1.00  0.00     0.004 A 
ATOM     21  C   UNL A   1      35.201  30.612  27.929  1.00  0.00     0.010 A 
ATOM     22  C   UNL A   1      32.960  30.783  27.090  1.00  0.00     0.010 A 
ATOM     23  C   UNL A   1      34.015  31.336  27.824  1.00  0.00     0.038 A 
BRANCH  23  24
ATOM     24  N   UNL A   1      33.883  32.522  28.566  1.00  0.00    -0.061 NA
ATOM     25  N   UNL A   1      34.327  33.529  28.006  1.00  0.00     0.005 N 
ATOM     26  N   UNL A   1      34.715  34.487  27.503  1.00  0.00    -0.003 NA
ENDBRANCH  23  24
ENDBRANCH  17  18
ENDBRANCH   7  17
ENDBRANCH   5   7
ENDBRANCH   4   5
ENDBRANCH   3   4
ENDBRANCH   2   3
ENDBRANCH   1   2
BRANCH   1  27
ATOM     27  C   UNL A   1      35.718  20.866  25.168  1.00  0.00     0.202 C 
BRANCH  27  28
ATOM     28  C   UNL A   1      37.136  20.311  25.003  1.00  0.00     0.261 C 
BRANCH  28  29
ATOM     29  O   UNL A   1      38.120  21.365  25.028  1.00  0.00    -0.460 OA
BRANCH  29  30
ATOM     30  C   UNL A   1      39.157  21.139  25.870  1.00  0.00     0.338 C 
ATOM     31  O   UNL A   1      39.745  20.086  26.040  1.00  0.00    -0.246 OA
BRANCH  30  32
ATOM     32  C   UNL A   1      39.574  22.404  26.506  1.00  0.00     0.060 A 
ATOM     33  C   UNL A   1      38.959  23.594  26.104  1.00  0.00     0.016 A 
ATOM     34  C   UNL A   1      40.664  22.437  27.379  1.00  0.00     0.016 A 
ATOM     35  C   UNL A   1      39.466  24.823  26.539  1.00  0.00     0.010 A 
ATOM     36  C   UNL A   1      41.151  23.667  27.836  1.00  0.00     0.010 A 
ATOM     37  C   UNL A   1      40.586  24.872  27.385  1.00  0.00    -0.014 A 
BRANCH  37  38
ATOM     38  C   UNL A   1      41.250  26.171  27.686  1.00  0.00     0.031 A 
ATOM     39  C   UNL A   1      42.612  26.460  27.105  1.00  0.00     0.074 A 
ATOM     40  C   UNL A   1      40.649  27.095  28.460  1.00  0.00     0.049 A 
ATOM     41  N   UNL A   1      43.383  27.505  27.272  1.00  0.00    -0.248 NA
ATOM     42  C   UNL A   1      43.181  25.430  26.224  1.00  0.00     0.031 C 
ATOM     43  C   UNL A   1      39.325  26.958  29.062  1.00  0.00     0.029 A 
ATOM     44  N   UNL A   1      41.081  28.331  28.877  1.00  0.00    -0.354 N 
ATOM     45  C   UNL A   1      44.529  27.259  26.521  1.00  0.00     0.074 A 
ATOM     46  C   UNL A   1      44.368  25.944  25.937  1.00  0.00     0.031 C 
ATOM     47  C   UNL A   1      39.052  28.066  29.771  1.00  0.00     0.029 A 
ATOM     48  C   UNL A   1      40.196  28.975  29.710  1.00  0.00     0.049 A 
ATOM     49  H   UNL A   1      41.943  28.720  28.604  1.00  0.00     0.167 HD
ATOM     50  C   UNL A   1      45.607  28.058  26.323  1.00  0.00     0.034 A 
ATOM     51  C   UNL A   1      40.302  30.148  30.368  1.00  0.00     0.034 A 
ATOM     52  C   UNL A   1      45.764  29.367  26.911  1.00  0.00     0.049 A 
ATOM     53  C   UNL A   1      41.549  30.984  30.204  1.00  0.00     0.074 A 
ATOM     54  C   UNL A   1      46.807  30.264  26.749  1.00  0.00     0.029 A 
ATOM     55  N   UNL A   1      44.864  29.964  27.783  1.00  0.00    -0.354 N 
ATOM     56  N   UNL A   1      42.615  30.745  29.476  1.00  0.00    -0.248 NA
ATOM     57  C   UNL A   1      41.602  32.254  30.943  1.00  0.00     0.031 C 
ATOM     58  C   UNL A   1      46.575  31.366  27.579  1.00  0.00     0.029 A 
ATOM     59  C   UNL A   1      45.346  31.199  28.194  1.00  0.00     0.049 A 
ATOM     60  H   UNL A   1      44.008  29.569  28.069  1.00  0.00     0.167 HD
ATOM     61  C   UNL A   1      43.443  31.853  29.639  1.00  0.00     0.074 A 
ATOM     62  C   UNL A   1      42.755  32.760  30.531  1.00  0.00     0.031 C 
ATOM     63  C   UNL A   1      44.659  32.103  29.087  1.00  0.00     0.034 A 
BRANCH  50  64
ATOM     64  C   UNL A   1      46.725  27.517  25.464  1.00  0.00     0.023 A 
ATOM     65  C   UNL A   1      46.974  28.013  24.173  1.00  0.00     0.031 A 
ATOM     66  C   UNL A   1      47.549  26.481  25.942  1.00  0.00     0.131 A 
ATOM     67  C   UNL A   1      47.973  27.429  23.379  1.00  0.00     0.055 A 
ATOM     68  C   UNL A   1      48.594  25.959  25.177  1.00  0.00     0.041 A 
ATOM     69  F   UNL A   1      47.347  25.954  27.160  1.00  0.00    -0.206 F 
ATOM     70  C   UNL A   1      48.801  26.423  23.882  1.00  0.00     0.022 A 
BRANCH  67  71
ATOM     71  S   UNL A   1      48.082  27.907  21.633  1.00  0.00     0.124 S 
ATOM     72  O   UNL A   1      46.777  28.526  21.415  1.00  0.00    -0.237 OA
ATOM     73  O   UNL A   1      49.227  28.809  21.624  1.00  0.00    -0.237 OA
ATOM     74  O   UNL A   1      48.282  26.635  20.942  1.00  0.00    -0.744 OA
ENDBRANCH  67  71
ENDBRANCH  50  64
BRANCH  51  75
ATOM     75  C   UNL A   1      39.211  30.597  31.282  1.00  0.00     0.023 A 
ATOM     76  C   UNL A   1      38.370  31.668  30.940  1.00  0.00     0.031 A 
ATOM     77  C   UNL A   1      39.034  29.996  32.541  1.00  0.00     0.131 A 
ATOM     78  C   UNL A   1      37.422  32.135  31.864  1.00  0.00     0.055 A 
ATOM     79  C   UNL A   1      38.052  30.428  33.434  1.00  0.00     0.041 A 
ATOM     80  F   UNL A   1      39.812  28.969  32.918  1.00  0.00    -0.206 F 
ATOM     81  C   UNL A   1      37.249  31.514  33.102  1.00  0.00     0.022 A 
BRANCH  78  82
ATOM     82  S   UNL A   1      36.478  33.630  31.458  1.00  0.00     0.124 S 
ATOM     83  O   UNL A   1      35.107  33.183  31.676  1.00  0.00    -0.237 OA
ATOM     84  O   UNL A   1      37.003  34.590  32.423  1.00  0.00    -0.237 OA
ATOM     85  O   UNL A   1      36.837  33.890  30.065  1.00  0.00    -0.744 OA
ENDBRANCH  78  82
ENDBRANCH  51  75
BRANCH  63  86
ATOM     86  C   UNL A   1      45.297  33.441  29.375  1.00  0.00     0.023 A 
ATOM     87  C   UNL A   1      45.013  34.587  28.611  1.00  0.00     0.031 A 
ATOM     88  C   UNL A   1      46.197  33.570  30.449  1.00  0.00     0.131 A 
ATOM     89  C   UNL A   1      45.656  35.801  28.906  1.00  0.00     0.055 A 
ATOM     90  C   UNL A   1      46.791  34.792  30.771  1.00  0.00     0.041 A 
ATOM     91  F   UNL A   1      46.507  32.509  31.212  1.00  0.00    -0.206 F 
ATOM     92  C   UNL A   1      46.528  35.913  29.992  1.00  0.00     0.022 A 
BRANCH  89  93
ATOM     93  S   UNL A   1      45.388  37.222  27.810  1.00  0.00     0.124 S 
ATOM     94  O   UNL A   1      44.251  37.883  28.442  1.00  0.00    -0.237 OA
ATOM     95  O   UNL A   1      46.663  37.927  27.895  1.00  0.00    -0.237 OA
ATOM     96  O   UNL A   1      45.106  36.608  26.514  1.00  0.00    -0.744 OA
ENDBRANCH  89  93
ENDBRANCH  63  86
ENDBRANCH  37  38
ENDBRANCH  30  32
ENDBRANCH  29  30
ENDBRANCH  28  29
ENDBRANCH  27  28
ENDBRANCH   1  27
TORSDOF 23
ENDMDL
