MODEL 1
REMARK VINA RESULT:      -9.1      0.000      0.000
REMARK SMILES C#CCN(CC(=O)OCCOCCOC(=O)c1ccc(-c2c3nc(c(-c4cc(S(=O)(=O)[O-])ccc4F)c4ccc([nH]4)c(-c4cc(S(=O)(=O)[O-])ccc4F)c4nc(c(-c5cc(S(=O)(=O)[O-])ccc5F)c5ccc2[nH]5)C=C4)C=C3)cc1)C(=O)C(C)(C)[NH2+]CC
REMARK SMILES IDX 10 1 9 2 8 3 6 4 7 5 5 6 4 7 3 8 2 9 1 10 80 11 81 12 82 13
REMARK SMILES IDX 83 14 84 15 85 16 86 19 87 20 11 21 12 22 13 23 14 24 15 25
REMARK SMILES IDX 16 26 17 27 18 28 79 29 19 30 78 31 20 32 21 33 22 34 72 35
REMARK SMILES IDX 23 36 77 37 71 38 73 39 24 40 76 41 70 42 69 43 25 45 57 46
REMARK SMILES IDX 37 47 56 48 38 49 41 50 55 51 74 52 39 53 40 54 54 56 75 57
REMARK SMILES IDX 42 58 26 59 27 60 35 61 28 62 34 63 36 64 33 65 29 66 30 67
REMARK SMILES IDX 31 68 32 69 58 70 59 71 67 72 60 73 66 74 68 75 65 76 61 77
REMARK SMILES IDX 62 78 63 79 64 80 43 81 44 82 52 83 45 84 51 85 53 86 50 87
REMARK SMILES IDX 46 88 47 89 48 90 49 91
REMARK H PARENT 85 17 85 18 73 44 41 55
REMARK Flexibility Score: inf
ROOT
ATOM      1  C   UNL A   1      35.716  21.600  25.713  1.00  0.00     0.202 C 
ENDROOT
BRANCH   1   2
ATOM      2  C   UNL A   1      34.274  21.454  26.221  1.00  0.00     0.261 C 
BRANCH   2   3
ATOM      3  O   UNL A   1      33.814  22.569  27.032  1.00  0.00    -0.462 OA
BRANCH   3   4
ATOM      4  C   UNL A   1      32.748  23.244  26.530  1.00  0.00     0.325 C 
ATOM      5  O   UNL A   1      31.825  23.674  27.221  1.00  0.00    -0.250 OA
BRANCH   4   6
ATOM      6  C   UNL A   1      32.763  23.528  25.011  1.00  0.00     0.243 C 
BRANCH   6   7
ATOM      7  N   UNL A   1      33.290  24.743  24.379  1.00  0.00    -0.315 N 
BRANCH   7   8
ATOM      8  C   UNL A   1      33.883  24.596  22.989  1.00  0.00     0.210 C 
BRANCH   8   9
ATOM      9  C   UNL A   1      33.297  23.320  22.407  1.00  0.00    -0.085 C 
ATOM     10  C   UNL A   1      32.794  22.226  21.908  1.00  0.00     0.006 C 
ENDBRANCH   8   9
ENDBRANCH   7   8
BRANCH   7  11
ATOM     11  C   UNL A   1      33.270  26.035  24.946  1.00  0.00     0.284 C 
ATOM     12  O   UNL A   1      34.236  26.361  25.654  1.00  0.00    -0.268 OA
BRANCH  11  13
ATOM     13  C   UNL A   1      32.094  27.139  24.644  1.00  0.00     0.170 C 
ATOM     14  C   UNL A   1      31.443  27.639  25.939  1.00  0.00     0.090 C 
ATOM     15  C   UNL A   1      32.496  28.402  23.864  1.00  0.00     0.090 C 
BRANCH  13  16
ATOM     16  N   UNL A   1      31.092  26.518  23.723  1.00  0.00    -0.334 N 
ATOM     17  H   UNL A   1      30.489  25.927  24.298  1.00  0.00     0.347 HD
ATOM     18  H   UNL A   1      31.672  26.054  23.024  1.00  0.00     0.347 HD
BRANCH  16  19
ATOM     19  C   UNL A   1      30.216  27.362  22.926  1.00  0.00     0.257 C 
ATOM     20  C   UNL A   1      28.893  27.673  23.618  1.00  0.00     0.071 C 
ENDBRANCH  16  19
ENDBRANCH  13  16
ENDBRANCH  11  13
ENDBRANCH   7  11
ENDBRANCH   6   7
ENDBRANCH   4   6
ENDBRANCH   3   4
ENDBRANCH   2   3
ENDBRANCH   1   2
BRANCH   1  21
ATOM     21  O   UNL A   1      36.129  20.769  24.634  1.00  0.00    -0.374 OA
BRANCH  21  22
ATOM     22  C   UNL A   1      36.849  19.583  24.921  1.00  0.00     0.202 C 
BRANCH  22  23
ATOM     23  C   UNL A   1      38.382  19.627  24.980  1.00  0.00     0.261 C 
BRANCH  23  24
ATOM     24  O   UNL A   1      38.932  20.672  25.739  1.00  0.00    -0.460 OA
BRANCH  24  25
ATOM     25  C   UNL A   1      40.123  20.368  26.290  1.00  0.00     0.338 C 
ATOM     26  O   UNL A   1      40.740  19.332  26.263  1.00  0.00    -0.246 OA
BRANCH  25  27
ATOM     27  C   UNL A   1      40.586  21.669  26.753  1.00  0.00     0.060 A 
ATOM     28  C   UNL A   1      40.069  22.784  26.098  1.00  0.00     0.016 A 
ATOM     29  C   UNL A   1      41.368  21.760  27.909  1.00  0.00     0.016 A 
ATOM     30  C   UNL A   1      40.394  24.036  26.578  1.00  0.00     0.010 A 
ATOM     31  C   UNL A   1      41.684  23.019  28.394  1.00  0.00     0.010 A 
ATOM     32  C   UNL A   1      41.226  24.150  27.702  1.00  0.00    -0.014 A 
BRANCH  32  33
ATOM     33  C   UNL A   1      41.747  25.482  28.032  1.00  0.00     0.031 A 
ATOM     34  C   UNL A   1      43.121  25.827  27.547  1.00  0.00     0.074 A 
ATOM     35  C   UNL A   1      40.948  26.363  28.653  1.00  0.00     0.049 A 
ATOM     36  N   UNL A   1      43.763  26.958  27.626  1.00  0.00    -0.248 NA
ATOM     37  C   UNL A   1      43.871  24.748  26.880  1.00  0.00     0.031 C 
ATOM     38  C   UNL A   1      39.585  26.084  29.111  1.00  0.00     0.029 A 
ATOM     39  N   UNL A   1      41.154  27.671  28.982  1.00  0.00    -0.354 N 
ATOM     40  C   UNL A   1      44.990  26.731  27.014  1.00  0.00     0.074 A 
ATOM     41  C   UNL A   1      45.023  25.342  26.617  1.00  0.00     0.031 C 
ATOM     42  C   UNL A   1      39.068  27.202  29.645  1.00  0.00     0.029 A 
ATOM     43  C   UNL A   1      40.077  28.257  29.600  1.00  0.00     0.049 A 
ATOM     44  H   UNL A   1      41.995  28.150  28.795  1.00  0.00     0.167 HD
ATOM     45  C   UNL A   1      45.987  27.619  26.796  1.00  0.00     0.034 A 
ATOM     46  C   UNL A   1      39.939  29.508  30.079  1.00  0.00     0.034 A 
ATOM     47  C   UNL A   1      45.911  28.991  27.231  1.00  0.00     0.049 A 
ATOM     48  C   UNL A   1      41.096  30.456  29.887  1.00  0.00     0.074 A 
ATOM     49  C   UNL A   1      46.847  29.996  27.089  1.00  0.00     0.029 A 
ATOM     50  N   UNL A   1      44.830  29.543  27.913  1.00  0.00    -0.354 N 
ATOM     51  N   UNL A   1      42.252  30.242  29.295  1.00  0.00    -0.248 NA
ATOM     52  C   UNL A   1      40.926  31.814  30.408  1.00  0.00     0.031 C 
ATOM     53  C   UNL A   1      46.370  31.130  27.755  1.00  0.00     0.029 A 
ATOM     54  C   UNL A   1      45.093  30.866  28.231  1.00  0.00     0.049 A 
ATOM     55  H   UNL A   1      44.001  29.064  28.138  1.00  0.00     0.167 HD
ATOM     56  C   UNL A   1      42.938  31.451  29.352  1.00  0.00     0.074 A 
ATOM     57  C   UNL A   1      42.049  32.391  30.011  1.00  0.00     0.031 C 
ATOM     58  C   UNL A   1      44.184  31.764  28.907  1.00  0.00     0.034 A 
BRANCH  45  59
ATOM     59  C   UNL A   1      47.240  27.104  26.131  1.00  0.00     0.023 A 
ATOM     60  C   UNL A   1      48.206  26.359  26.832  1.00  0.00     0.031 A 
ATOM     61  C   UNL A   1      47.502  27.414  24.785  1.00  0.00     0.131 A 
ATOM     62  C   UNL A   1      49.415  26.012  26.207  1.00  0.00     0.055 A 
ATOM     63  C   UNL A   1      48.670  26.995  24.144  1.00  0.00     0.041 A 
ATOM     64  F   UNL A   1      46.636  28.153  24.073  1.00  0.00    -0.206 F 
ATOM     65  C   UNL A   1      49.641  26.301  24.859  1.00  0.00     0.022 A 
BRANCH  62  66
ATOM     66  S   UNL A   1      50.749  25.309  27.217  1.00  0.00     0.124 S 
ATOM     67  O   UNL A   1      50.088  24.150  27.814  1.00  0.00    -0.237 OA
ATOM     68  O   UNL A   1      51.777  25.018  26.225  1.00  0.00    -0.237 OA
ATOM     69  O   UNL A   1      51.070  26.383  28.155  1.00  0.00    -0.744 OA
ENDBRANCH  62  66
ENDBRANCH  45  59
BRANCH  46  70
ATOM     70  C   UNL A   1      38.696  29.915  30.792  1.00  0.00     0.023 A 
ATOM     71  C   UNL A   1      37.698  30.667  30.154  1.00  0.00     0.031 A 
ATOM     72  C   UNL A   1      38.504  29.587  32.148  1.00  0.00     0.131 A 
ATOM     73  C   UNL A   1      36.581  31.108  30.881  1.00  0.00     0.055 A 
ATOM     74  C   UNL A   1      37.363  29.976  32.849  1.00  0.00     0.041 A 
ATOM     75  F   UNL A   1      39.424  28.868  32.809  1.00  0.00    -0.206 F 
ATOM     76  C   UNL A   1      36.399  30.755  32.220  1.00  0.00     0.022 A 
BRANCH  73  77
ATOM     77  S   UNL A   1      35.410  32.237  30.076  1.00  0.00     0.124 S 
ATOM     78  O   UNL A   1      34.436  32.460  31.136  1.00  0.00    -0.237 OA
ATOM     79  O   UNL A   1      36.266  33.369  29.740  1.00  0.00    -0.237 OA
ATOM     80  O   UNL A   1      34.926  31.464  28.933  1.00  0.00    -0.744 OA
ENDBRANCH  73  77
ENDBRANCH  46  70
BRANCH  58  81
ATOM     81  C   UNL A   1      44.625  33.194  29.097  1.00  0.00     0.023 A 
ATOM     82  C   UNL A   1      44.100  34.236  28.314  1.00  0.00     0.031 A 
ATOM     83  C   UNL A   1      45.604  33.512  30.055  1.00  0.00     0.131 A 
ATOM     84  C   UNL A   1      44.618  35.531  28.444  1.00  0.00     0.055 A 
ATOM     85  C   UNL A   1      46.054  34.819  30.237  1.00  0.00     0.041 A 
ATOM     86  F   UNL A   1      46.141  32.555  30.828  1.00  0.00    -0.206 F 
ATOM     87  C   UNL A   1      45.575  35.834  29.415  1.00  0.00     0.022 A 
BRANCH  84  88
ATOM     88  S   UNL A   1      44.124  36.783  27.230  1.00  0.00     0.124 S 
ATOM     89  O   UNL A   1      43.373  37.724  28.056  1.00  0.00    -0.237 OA
ATOM     90  O   UNL A   1      45.410  37.260  26.733  1.00  0.00    -0.237 OA
ATOM     91  O   UNL A   1      43.325  36.030  26.265  1.00  0.00    -0.744 OA
ENDBRANCH  84  88
ENDBRANCH  58  81
ENDBRANCH  32  33
ENDBRANCH  25  27
ENDBRANCH  24  25
ENDBRANCH  23  24
ENDBRANCH  22  23
ENDBRANCH  21  22
ENDBRANCH   1  21
TORSDOF 24
ENDMDL
MODEL 2
REMARK VINA RESULT:      -9.0      2.165      2.540
REMARK SMILES C#CCN(CC(=O)OCCOCCOC(=O)c1ccc(-c2c3nc(c(-c4cc(S(=O)(=O)[O-])ccc4F)c4ccc([nH]4)c(-c4cc(S(=O)(=O)[O-])ccc4F)c4nc(c(-c5cc(S(=O)(=O)[O-])ccc5F)c5ccc2[nH]5)C=C4)C=C3)cc1)C(=O)C(C)(C)[NH2+]CC
REMARK SMILES IDX 10 1 9 2 8 3 6 4 7 5 5 6 4 7 3 8 2 9 1 10 80 11 81 12 82 13
REMARK SMILES IDX 83 14 84 15 85 16 86 19 87 20 11 21 12 22 13 23 14 24 15 25
REMARK SMILES IDX 16 26 17 27 18 28 79 29 19 30 78 31 20 32 21 33 22 34 72 35
REMARK SMILES IDX 23 36 77 37 71 38 73 39 24 40 76 41 70 42 69 43 25 45 57 46
REMARK SMILES IDX 37 47 56 48 38 49 41 50 55 51 74 52 39 53 40 54 54 56 75 57
REMARK SMILES IDX 42 58 26 59 27 60 35 61 28 62 34 63 36 64 33 65 29 66 30 67
REMARK SMILES IDX 31 68 32 69 58 70 59 71 67 72 60 73 66 74 68 75 65 76 61 77
REMARK SMILES IDX 62 78 63 79 64 80 43 81 44 82 52 83 45 84 51 85 53 86 50 87
REMARK SMILES IDX 46 88 47 89 48 90 49 91
REMARK H PARENT 85 17 85 18 73 44 41 55
REMARK Flexibility Score: inf
ROOT
ATOM      1  C   UNL A   1      36.251  22.445  25.498  1.00  0.00     0.202 C 
ENDROOT
BRANCH   1   2
ATOM      2  C   UNL A   1      34.818  22.140  25.957  1.00  0.00     0.261 C 
BRANCH   2   3
ATOM      3  O   UNL A   1      34.344  22.995  27.032  1.00  0.00    -0.462 OA
BRANCH   3   4
ATOM      4  C   UNL A   1      33.011  22.915  27.286  1.00  0.00     0.325 C 
ATOM      5  O   UNL A   1      32.539  22.438  28.317  1.00  0.00    -0.250 OA
BRANCH   4   6
ATOM      6  C   UNL A   1      32.070  23.530  26.226  1.00  0.00     0.243 C 
BRANCH   6   7
ATOM      7  N   UNL A   1      32.006  24.952  25.869  1.00  0.00    -0.315 N 
BRANCH   7   8
ATOM      8  C   UNL A   1      33.328  25.679  25.693  1.00  0.00     0.210 C 
BRANCH   8   9
ATOM      9  C   UNL A   1      33.839  25.308  24.310  1.00  0.00    -0.085 C 
ATOM     10  C   UNL A   1      34.277  24.989  23.125  1.00  0.00     0.006 C 
ENDBRANCH   8   9
ENDBRANCH   7   8
BRANCH   7  11
ATOM     11  C   UNL A   1      30.823  25.690  25.657  1.00  0.00     0.284 C 
ATOM     12  O   UNL A   1      30.292  26.214  26.650  1.00  0.00    -0.268 OA
BRANCH  11  13
ATOM     13  C   UNL A   1      30.177  25.960  24.172  1.00  0.00     0.170 C 
ATOM     14  C   UNL A   1      30.421  24.777  23.228  1.00  0.00     0.090 C 
ATOM     15  C   UNL A   1      28.667  26.246  24.102  1.00  0.00     0.090 C 
BRANCH  13  16
ATOM     16  N   UNL A   1      30.754  27.230  23.633  1.00  0.00    -0.334 N 
ATOM     17  H   UNL A   1      31.367  26.970  22.859  1.00  0.00     0.347 HD
ATOM     18  H   UNL A   1      31.189  27.657  24.451  1.00  0.00     0.347 HD
BRANCH  16  19
ATOM     19  C   UNL A   1      29.873  28.276  23.137  1.00  0.00     0.257 C 
ATOM     20  C   UNL A   1      30.581  29.270  22.223  1.00  0.00     0.071 C 
ENDBRANCH  16  19
ENDBRANCH  13  16
ENDBRANCH  11  13
ENDBRANCH   7  11
ENDBRANCH   6   7
ENDBRANCH   4   6
ENDBRANCH   3   4
ENDBRANCH   2   3
ENDBRANCH   1   2
BRANCH   1  21
ATOM     21  O   UNL A   1      36.818  21.615  24.491  1.00  0.00    -0.374 OA
BRANCH  21  22
ATOM     22  C   UNL A   1      37.372  20.366  24.867  1.00  0.00     0.202 C 
BRANCH  22  23
ATOM     23  C   UNL A   1      38.827  20.300  25.350  1.00  0.00     0.261 C 
BRANCH  23  24
ATOM     24  O   UNL A   1      39.267  21.397  26.108  1.00  0.00    -0.460 OA
BRANCH  24  25
ATOM     25  C   UNL A   1      40.231  21.086  26.996  1.00  0.00     0.338 C 
ATOM     26  O   UNL A   1      40.658  20.006  27.319  1.00  0.00    -0.246 OA
BRANCH  25  27
ATOM     27  C   UNL A   1      40.782  22.396  27.317  1.00  0.00     0.060 A 
ATOM     28  C   UNL A   1      40.225  23.487  26.656  1.00  0.00     0.016 A 
ATOM     29  C   UNL A   1      41.698  22.529  28.367  1.00  0.00     0.016 A 
ATOM     30  C   UNL A   1      40.640  24.754  27.013  1.00  0.00     0.010 A 
ATOM     31  C   UNL A   1      42.105  23.802  28.730  1.00  0.00     0.010 A 
ATOM     32  C   UNL A   1      41.601  24.905  28.024  1.00  0.00    -0.014 A 
BRANCH  32  33
ATOM     33  C   UNL A   1      42.196  26.235  28.205  1.00  0.00     0.031 A 
ATOM     34  C   UNL A   1      43.530  26.487  27.574  1.00  0.00     0.074 A 
ATOM     35  C   UNL A   1      41.488  27.190  28.827  1.00  0.00     0.049 A 
ATOM     36  N   UNL A   1      44.215  27.594  27.510  1.00  0.00    -0.248 NA
ATOM     37  C   UNL A   1      44.178  25.333  26.925  1.00  0.00     0.031 C 
ATOM     38  C   UNL A   1      40.164  27.000  29.424  1.00  0.00     0.029 A 
ATOM     39  N   UNL A   1      41.768  28.509  29.037  1.00  0.00    -0.354 N 
ATOM     40  C   UNL A   1      45.372  27.274  26.809  1.00  0.00     0.074 A 
ATOM     41  C   UNL A   1      45.321  25.860  26.517  1.00  0.00     0.031 C 
ATOM     42  C   UNL A   1      39.738  28.174  29.917  1.00  0.00     0.029 A 
ATOM     43  C   UNL A   1      40.773  29.181  29.703  1.00  0.00     0.049 A 
ATOM     44  H   UNL A   1      42.604  28.938  28.740  1.00  0.00     0.167 HD
ATOM     45  C   UNL A   1      46.374  28.102  26.437  1.00  0.00     0.034 A 
ATOM     46  C   UNL A   1      40.724  30.468  30.096  1.00  0.00     0.034 A 
ATOM     47  C   UNL A   1      46.386  29.503  26.773  1.00  0.00     0.049 A 
ATOM     48  C   UNL A   1      41.889  31.352  29.731  1.00  0.00     0.074 A 
ATOM     49  C   UNL A   1      47.339  30.457  26.473  1.00  0.00     0.029 A 
ATOM     50  N   UNL A   1      45.392  30.148  27.506  1.00  0.00    -0.354 N 
ATOM     51  N   UNL A   1      42.978  31.049  29.056  1.00  0.00    -0.248 NA
ATOM     52  C   UNL A   1      41.815  32.749  30.162  1.00  0.00     0.031 C 
ATOM     53  C   UNL A   1      46.964  31.654  27.091  1.00  0.00     0.029 A 
ATOM     54  C   UNL A   1      45.728  31.478  27.698  1.00  0.00     0.049 A 
ATOM     55  H   UNL A   1      44.571  29.720  27.839  1.00  0.00     0.167 HD
ATOM     56  C   UNL A   1      43.707  32.229  28.961  1.00  0.00     0.074 A 
ATOM     57  C   UNL A   1      42.916  33.249  29.623  1.00  0.00     0.031 C 
ATOM     58  C   UNL A   1      44.917  32.458  28.384  1.00  0.00     0.034 A 
BRANCH  45  59
ATOM     59  C   UNL A   1      47.543  27.490  25.703  1.00  0.00     0.023 A 
ATOM     60  C   UNL A   1      48.617  26.885  26.381  1.00  0.00     0.031 A 
ATOM     61  C   UNL A   1      47.611  27.565  24.301  1.00  0.00     0.131 A 
ATOM     62  C   UNL A   1      49.741  26.444  25.664  1.00  0.00     0.055 A 
ATOM     63  C   UNL A   1      48.695  27.050  23.587  1.00  0.00     0.041 A 
ATOM     64  F   UNL A   1      46.635  28.163  23.599  1.00  0.00    -0.206 F 
ATOM     65  C   UNL A   1      49.775  26.499  24.268  1.00  0.00     0.022 A 
BRANCH  62  66
ATOM     66  S   UNL A   1      51.220  25.938  26.585  1.00  0.00     0.124 S 
ATOM     67  O   UNL A   1      50.730  24.766  27.309  1.00  0.00    -0.237 OA
ATOM     68  O   UNL A   1      52.182  25.676  25.521  1.00  0.00    -0.237 OA
ATOM     69  O   UNL A   1      51.516  27.098  27.423  1.00  0.00    -0.744 OA
ENDBRANCH  62  66
ENDBRANCH  45  59
BRANCH  46  70
ATOM     70  C   UNL A   1      39.566  30.975  30.885  1.00  0.00     0.023 A 
ATOM     71  C   UNL A   1      39.609  31.046  32.287  1.00  0.00     0.031 A 
ATOM     72  C   UNL A   1      38.374  31.365  30.245  1.00  0.00     0.131 A 
ATOM     73  C   UNL A   1      38.469  31.447  33.002  1.00  0.00     0.055 A 
ATOM     74  C   UNL A   1      37.265  31.820  30.959  1.00  0.00     0.041 A 
ATOM     75  F   UNL A   1      38.276  31.320  28.907  1.00  0.00    -0.206 F 
ATOM     76  C   UNL A   1      37.303  31.848  32.347  1.00  0.00     0.022 A 
BRANCH  73  77
ATOM     77  S   UNL A   1      38.500  31.342  34.814  1.00  0.00     0.124 S 
ATOM     78  O   UNL A   1      39.761  32.001  35.128  1.00  0.00    -0.237 OA
ATOM     79  O   UNL A   1      37.287  32.067  35.178  1.00  0.00    -0.237 OA
ATOM     80  O   UNL A   1      38.464  29.903  35.071  1.00  0.00    -0.744 OA
ENDBRANCH  73  77
ENDBRANCH  46  70
BRANCH  58  81
ATOM     81  C   UNL A   1      45.422  33.879  28.426  1.00  0.00     0.023 A 
ATOM     82  C   UNL A   1      46.192  34.355  29.501  1.00  0.00     0.031 A 
ATOM     83  C   UNL A   1      45.104  34.775  27.390  1.00  0.00     0.131 A 
ATOM     84  C   UNL A   1      46.545  35.709  29.557  1.00  0.00     0.055 A 
ATOM     85  C   UNL A   1      45.532  36.101  27.411  1.00  0.00     0.041 A 
ATOM     86  F   UNL A   1      44.369  34.374  26.340  1.00  0.00    -0.206 F 
ATOM     87  C   UNL A   1      46.240  36.581  28.509  1.00  0.00     0.022 A 
BRANCH  84  88
ATOM     88  S   UNL A   1      47.286  36.345  31.084  1.00  0.00     0.124 S 
ATOM     89  O   UNL A   1      47.092  35.227  32.002  1.00  0.00    -0.237 OA
ATOM     90  O   UNL A   1      48.664  36.604  30.679  1.00  0.00    -0.237 OA
ATOM     91  O   UNL A   1      46.491  37.535  31.381  1.00  0.00    -0.744 OA
ENDBRANCH  84  88
ENDBRANCH  58  81
ENDBRANCH  32  33
ENDBRANCH  25  27
ENDBRANCH  24  25
ENDBRANCH  23  24
ENDBRANCH  22  23
ENDBRANCH  21  22
ENDBRANCH   1  21
TORSDOF 24
ENDMDL
MODEL 3
REMARK VINA RESULT:      -8.6      1.660      2.252
REMARK SMILES C#CCN(CC(=O)OCCOCCOC(=O)c1ccc(-c2c3nc(c(-c4cc(S(=O)(=O)[O-])ccc4F)c4ccc([nH]4)c(-c4cc(S(=O)(=O)[O-])ccc4F)c4nc(c(-c5cc(S(=O)(=O)[O-])ccc5F)c5ccc2[nH]5)C=C4)C=C3)cc1)C(=O)C(C)(C)[NH2+]CC
REMARK SMILES IDX 10 1 9 2 8 3 6 4 7 5 5 6 4 7 3 8 2 9 1 10 80 11 81 12 82 13
REMARK SMILES IDX 83 14 84 15 85 16 86 19 87 20 11 21 12 22 13 23 14 24 15 25
REMARK SMILES IDX 16 26 17 27 18 28 79 29 19 30 78 31 20 32 21 33 22 34 72 35
REMARK SMILES IDX 23 36 77 37 71 38 73 39 24 40 76 41 70 42 69 43 25 45 57 46
REMARK SMILES IDX 37 47 56 48 38 49 41 50 55 51 74 52 39 53 40 54 54 56 75 57
REMARK SMILES IDX 42 58 26 59 27 60 35 61 28 62 34 63 36 64 33 65 29 66 30 67
REMARK SMILES IDX 31 68 32 69 58 70 59 71 67 72 60 73 66 74 68 75 65 76 61 77
REMARK SMILES IDX 62 78 63 79 64 80 43 81 44 82 52 83 45 84 51 85 53 86 50 87
REMARK SMILES IDX 46 88 47 89 48 90 49 91
REMARK H PARENT 85 17 85 18 73 44 41 55
REMARK Flexibility Score: inf
ROOT
ATOM      1  C   UNL A   1      35.596  21.856  25.752  1.00  0.00     0.202 C 
ENDROOT
BRANCH   1   2
ATOM      2  C   UNL A   1      34.181  21.557  26.266  1.00  0.00     0.261 C 
BRANCH   2   3
ATOM      3  O   UNL A   1      33.675  22.533  27.217  1.00  0.00    -0.462 OA
BRANCH   3   4
ATOM      4  C   UNL A   1      32.380  22.898  27.033  1.00  0.00     0.325 C 
ATOM      5  O   UNL A   1      31.481  22.654  27.837  1.00  0.00    -0.250 OA
BRANCH   4   6
ATOM      6  C   UNL A   1      32.069  23.723  25.765  1.00  0.00     0.243 C 
BRANCH   6   7
ATOM      7  N   UNL A   1      31.896  25.180  25.720  1.00  0.00    -0.315 N 
BRANCH   7   8
ATOM      8  C   UNL A   1      32.898  26.017  26.497  1.00  0.00     0.210 C 
BRANCH   8   9
ATOM      9  C   UNL A   1      32.157  27.269  26.939  1.00  0.00    -0.085 C 
ATOM     10  C   UNL A   1      31.521  28.341  27.318  1.00  0.00     0.006 C 
ENDBRANCH   8   9
ENDBRANCH   7   8
BRANCH   7  11
ATOM     11  C   UNL A   1      30.893  25.864  25.001  1.00  0.00     0.284 C 
ATOM     12  O   UNL A   1      29.773  25.950  25.528  1.00  0.00    -0.268 OA
BRANCH  11  13
ATOM     13  C   UNL A   1      31.160  26.615  23.566  1.00  0.00     0.170 C 
ATOM     14  C   UNL A   1      30.989  25.654  22.385  1.00  0.00     0.090 C 
ATOM     15  C   UNL A   1      30.287  27.839  23.239  1.00  0.00     0.090 C 
BRANCH  13  16
ATOM     16  N   UNL A   1      32.529  27.217  23.600  1.00  0.00    -0.334 N 
ATOM     17  H   UNL A   1      33.192  26.442  23.634  1.00  0.00     0.347 HD
ATOM     18  H   UNL A   1      32.493  27.838  24.408  1.00  0.00     0.347 HD
BRANCH  16  19
ATOM     19  C   UNL A   1      32.964  28.094  22.523  1.00  0.00     0.257 C 
ATOM     20  C   UNL A   1      34.235  28.867  22.857  1.00  0.00     0.071 C 
ENDBRANCH  16  19
ENDBRANCH  13  16
ENDBRANCH  11  13
ENDBRANCH   7  11
ENDBRANCH   6   7
ENDBRANCH   4   6
ENDBRANCH   3   4
ENDBRANCH   2   3
ENDBRANCH   1   2
BRANCH   1  21
ATOM     21  O   UNL A   1      36.080  21.095  24.651  1.00  0.00    -0.374 OA
BRANCH  21  22
ATOM     22  C   UNL A   1      36.840  19.927  24.910  1.00  0.00     0.202 C 
BRANCH  22  23
ATOM     23  C   UNL A   1      38.371  20.023  24.975  1.00  0.00     0.261 C 
BRANCH  23  24
ATOM     24  O   UNL A   1      38.882  21.054  25.779  1.00  0.00    -0.460 OA
BRANCH  24  25
ATOM     25  C   UNL A   1      40.025  20.727  26.412  1.00  0.00     0.338 C 
ATOM     26  O   UNL A   1      40.603  19.669  26.456  1.00  0.00    -0.246 OA
BRANCH  25  27
ATOM     27  C   UNL A   1      40.508  22.026  26.860  1.00  0.00     0.060 A 
ATOM     28  C   UNL A   1      39.980  23.143  26.218  1.00  0.00     0.016 A 
ATOM     29  C   UNL A   1      41.322  22.115  27.994  1.00  0.00     0.016 A 
ATOM     30  C   UNL A   1      40.325  24.394  26.686  1.00  0.00     0.010 A 
ATOM     31  C   UNL A   1      41.658  23.372  28.468  1.00  0.00     0.010 A 
ATOM     32  C   UNL A   1      41.188  24.504  27.787  1.00  0.00    -0.014 A 
BRANCH  32  33
ATOM     33  C   UNL A   1      41.726  25.834  28.100  1.00  0.00     0.031 A 
ATOM     34  C   UNL A   1      43.100  26.159  27.603  1.00  0.00     0.074 A 
ATOM     35  C   UNL A   1      40.940  26.730  28.718  1.00  0.00     0.049 A 
ATOM     36  N   UNL A   1      43.756  27.283  27.667  1.00  0.00    -0.248 NA
ATOM     37  C   UNL A   1      43.835  25.065  26.942  1.00  0.00     0.031 C 
ATOM     38  C   UNL A   1      39.577  26.470  29.187  1.00  0.00     0.029 A 
ATOM     39  N   UNL A   1      41.163  28.039  29.032  1.00  0.00    -0.354 N 
ATOM     40  C   UNL A   1      44.976  27.037  27.050  1.00  0.00     0.074 A 
ATOM     41  C   UNL A   1      44.991  25.644  26.667  1.00  0.00     0.031 C 
ATOM     42  C   UNL A   1      39.077  27.599  29.713  1.00  0.00     0.029 A 
ATOM     43  C   UNL A   1      40.096  28.642  29.651  1.00  0.00     0.049 A 
ATOM     44  H   UNL A   1      42.008  28.506  28.836  1.00  0.00     0.167 HD
ATOM     45  C   UNL A   1      45.981  27.912  26.816  1.00  0.00     0.034 A 
ATOM     46  C   UNL A   1      39.976  29.899  30.118  1.00  0.00     0.034 A 
ATOM     47  C   UNL A   1      45.923  29.289  27.239  1.00  0.00     0.049 A 
ATOM     48  C   UNL A   1      41.141  30.833  29.910  1.00  0.00     0.074 A 
ATOM     49  C   UNL A   1      46.869  30.282  27.081  1.00  0.00     0.029 A 
ATOM     50  N   UNL A   1      44.852  29.860  27.922  1.00  0.00    -0.354 N 
ATOM     51  N   UNL A   1      42.291  30.601  29.313  1.00  0.00    -0.248 NA
ATOM     52  C   UNL A   1      40.989  32.198  30.419  1.00  0.00     0.031 C 
ATOM     53  C   UNL A   1      46.408  31.427  27.739  1.00  0.00     0.029 A 
ATOM     54  C   UNL A   1      45.131  31.183  28.225  1.00  0.00     0.049 A 
ATOM     55  H   UNL A   1      44.019  29.392  28.157  1.00  0.00     0.167 HD
ATOM     56  C   UNL A   1      42.991  31.802  29.354  1.00  0.00     0.074 A 
ATOM     57  C   UNL A   1      42.116  32.758  30.008  1.00  0.00     0.031 C 
ATOM     58  C   UNL A   1      44.237  32.097  28.898  1.00  0.00     0.034 A 
BRANCH  45  59
ATOM     59  C   UNL A   1      47.225  27.377  26.149  1.00  0.00     0.023 A 
ATOM     60  C   UNL A   1      48.328  26.911  26.887  1.00  0.00     0.031 A 
ATOM     61  C   UNL A   1      47.331  27.388  24.747  1.00  0.00     0.131 A 
ATOM     62  C   UNL A   1      49.511  26.543  26.226  1.00  0.00     0.055 A 
ATOM     63  C   UNL A   1      48.481  26.942  24.092  1.00  0.00     0.041 A 
ATOM     64  F   UNL A   1      46.327  27.854  23.988  1.00  0.00    -0.206 F 
ATOM     65  C   UNL A   1      49.585  26.530  24.831  1.00  0.00     0.022 A 
BRANCH  62  66
ATOM     66  S   UNL A   1      50.999  26.225  27.214  1.00  0.00     0.124 S 
ATOM     67  O   UNL A   1      51.108  24.771  27.125  1.00  0.00    -0.237 OA
ATOM     68  O   UNL A   1      52.019  26.987  26.504  1.00  0.00    -0.237 OA
ATOM     69  O   UNL A   1      50.647  26.735  28.538  1.00  0.00    -0.744 OA
ENDBRANCH  62  66
ENDBRANCH  45  59
BRANCH  46  70
ATOM     70  C   UNL A   1      38.742  30.327  30.835  1.00  0.00     0.023 A 
ATOM     71  C   UNL A   1      37.723  31.038  30.181  1.00  0.00     0.031 A 
ATOM     72  C   UNL A   1      38.579  30.062  32.209  1.00  0.00     0.131 A 
ATOM     73  C   UNL A   1      36.615  31.501  30.908  1.00  0.00     0.055 A 
ATOM     74  C   UNL A   1      37.446  30.473  32.913  1.00  0.00     0.041 A 
ATOM     75  F   UNL A   1      39.519  29.385  32.886  1.00  0.00    -0.206 F 
ATOM     76  C   UNL A   1      36.462  31.211  32.266  1.00  0.00     0.022 A 
BRANCH  73  77
ATOM     77  S   UNL A   1      35.416  32.578  30.073  1.00  0.00     0.124 S 
ATOM     78  O   UNL A   1      34.635  31.615  29.307  1.00  0.00    -0.237 OA
ATOM     79  O   UNL A   1      34.736  33.204  31.202  1.00  0.00    -0.237 OA
ATOM     80  O   UNL A   1      36.258  33.472  29.281  1.00  0.00    -0.744 OA
ENDBRANCH  73  77
ENDBRANCH  46  70
BRANCH  58  81
ATOM     81  C   UNL A   1      44.695  33.524  29.071  1.00  0.00     0.023 A 
ATOM     82  C   UNL A   1      45.494  33.914  30.160  1.00  0.00     0.031 A 
ATOM     83  C   UNL A   1      44.302  34.510  28.150  1.00  0.00     0.131 A 
ATOM     84  C   UNL A   1      45.802  35.267  30.346  1.00  0.00     0.055 A 
ATOM     85  C   UNL A   1      44.684  35.843  28.296  1.00  0.00     0.041 A 
ATOM     86  F   UNL A   1      43.537  34.194  27.093  1.00  0.00    -0.206 F 
ATOM     87  C   UNL A   1      45.422  36.232  29.410  1.00  0.00     0.022 A 
BRANCH  84  88
ATOM     88  S   UNL A   1      46.586  35.767  31.903  1.00  0.00     0.124 S 
ATOM     89  O   UNL A   1      46.833  34.479  32.543  1.00  0.00    -0.237 OA
ATOM     90  O   UNL A   1      47.769  36.485  31.440  1.00  0.00    -0.237 OA
ATOM     91  O   UNL A   1      45.569  36.596  32.547  1.00  0.00    -0.744 OA
ENDBRANCH  84  88
ENDBRANCH  58  81
ENDBRANCH  32  33
ENDBRANCH  25  27
ENDBRANCH  24  25
ENDBRANCH  23  24
ENDBRANCH  22  23
ENDBRANCH  21  22
ENDBRANCH   1  21
TORSDOF 24
ENDMDL
