MODEL 1
REMARK VINA RESULT:     -12.4      0.000      0.000
REMARK SMILES Cc1c(CC(=O)OCCOCCOC(=O)c2ccc(-c3c4nc(c(-c5cc(S(=O)(=O)[O-])ccc5F)c5ccc([nH]5)c(-c5cc(S(=O)(=O)[O-])ccc5F)c5nc(c(-c6cc(S(=O)(=O)[O-])ccc6F)c6ccc3[nH]6)C=C5)C=C4)cc2)cc(-c2ccccc2)cc1-c1ccccc1
REMARK SMILES IDX 11 1 10 2 9 3 8 4 7 5 5 6 6 7 4 8 3 9 1 10 2 11 88 12 79 13
REMARK SMILES IDX 87 14 80 15 89 16 90 17 94 18 91 19 93 20 92 21 81 22 82 23
REMARK SMILES IDX 86 24 83 25 85 26 84 27 12 28 13 29 14 30 15 31 16 32 17 33
REMARK SMILES IDX 78 34 18 35 77 36 19 37 20 38 21 39 71 40 22 41 76 42 70 43
REMARK SMILES IDX 72 44 23 45 75 46 69 47 68 48 24 50 56 51 36 52 55 53 37 54
REMARK SMILES IDX 40 55 54 56 73 57 38 58 39 59 53 61 74 62 41 63 25 64 26 65
REMARK SMILES IDX 34 66 27 67 33 68 35 69 32 70 28 71 29 72 30 73 31 74 57 75
REMARK SMILES IDX 58 76 66 77 59 78 65 79 67 80 64 81 60 82 61 83 62 84 63 85
REMARK SMILES IDX 42 86 43 87 51 88 44 89 50 90 52 91 49 92 45 93 46 94 47 95
REMARK SMILES IDX 48 96
REMARK H PARENT 72 49 40 60
REMARK Flexibility Score: inf
ROOT
ATOM      1  C   UNL A   1      42.822  18.733  26.144  1.00  0.00     0.202 C 
ENDROOT
BRANCH   1   2
ATOM      2  O   UNL A   1      41.678  19.545  25.955  1.00  0.00    -0.374 OA
BRANCH   2   3
ATOM      3  C   UNL A   1      41.011  19.933  27.154  1.00  0.00     0.202 C 
BRANCH   3   4
ATOM      4  C   UNL A   1      40.360  21.249  26.893  1.00  0.00     0.261 C 
BRANCH   4   5
ATOM      5  O   UNL A   1      39.789  21.351  25.590  1.00  0.00    -0.463 OA
BRANCH   5   6
ATOM      6  C   UNL A   1      38.541  20.844  25.387  1.00  0.00     0.310 C 
ATOM      7  O   UNL A   1      38.273  19.746  24.936  1.00  0.00    -0.252 OA
BRANCH   6   8
ATOM      8  C   UNL A   1      37.505  21.859  25.837  1.00  0.00     0.158 C 
BRANCH   8   9
ATOM      9  C   UNL A   1      36.173  21.639  25.132  1.00  0.00    -0.033 A 
ATOM     10  C   UNL A   1      35.657  24.114  25.276  1.00  0.00     0.045 C 
ATOM     11  C   UNL A   1      35.280  22.705  24.868  1.00  0.00    -0.039 A 
ATOM     12  C   UNL A   1      33.990  22.417  24.356  1.00  0.00    -0.015 A 
ATOM     13  C   UNL A   1      35.728  20.307  24.991  1.00  0.00     0.013 A 
ATOM     14  C   UNL A   1      33.566  21.071  24.295  1.00  0.00     0.017 A 
ATOM     15  C   UNL A   1      34.407  20.009  24.639  1.00  0.00    -0.017 A 
BRANCH  12  16
ATOM     16  C   UNL A   1      33.072  23.471  23.886  1.00  0.00    -0.018 A 
ATOM     17  C   UNL A   1      32.035  23.964  24.691  1.00  0.00     0.009 A 
ATOM     18  C   UNL A   1      33.216  24.001  22.591  1.00  0.00     0.009 A 
ATOM     19  C   UNL A   1      31.168  24.950  24.215  1.00  0.00     0.001 A 
ATOM     20  C   UNL A   1      32.360  24.996  22.120  1.00  0.00     0.001 A 
ATOM     21  C   UNL A   1      31.331  25.466  22.931  1.00  0.00     0.000 A 
ENDBRANCH  12  16
BRANCH  15  22
ATOM     22  C   UNL A   1      33.911  18.627  24.690  1.00  0.00    -0.018 A 
ATOM     23  C   UNL A   1      32.900  18.248  25.591  1.00  0.00     0.009 A 
ATOM     24  C   UNL A   1      34.457  17.641  23.862  1.00  0.00     0.009 A 
ATOM     25  C   UNL A   1      32.514  16.912  25.727  1.00  0.00     0.001 A 
ATOM     26  C   UNL A   1      34.044  16.310  23.967  1.00  0.00     0.001 A 
ATOM     27  C   UNL A   1      33.090  15.941  24.916  1.00  0.00     0.000 A 
ENDBRANCH  15  22
ENDBRANCH   8   9
ENDBRANCH   6   8
ENDBRANCH   5   6
ENDBRANCH   4   5
ENDBRANCH   3   4
ENDBRANCH   2   3
ENDBRANCH   1   2
BRANCH   1  28
ATOM     28  C   UNL A   1      44.019  19.061  25.231  1.00  0.00     0.261 C 
BRANCH  28  29
ATOM     29  O   UNL A   1      43.841  20.339  24.581  1.00  0.00    -0.460 OA
BRANCH  29  30
ATOM     30  C   UNL A   1      44.736  21.306  24.920  1.00  0.00     0.338 C 
ATOM     31  O   UNL A   1      45.956  21.163  24.913  1.00  0.00    -0.246 OA
BRANCH  30  32
ATOM     32  C   UNL A   1      44.021  22.518  25.397  1.00  0.00     0.060 A 
ATOM     33  C   UNL A   1      43.966  23.691  24.622  1.00  0.00     0.016 A 
ATOM     34  C   UNL A   1      43.649  22.556  26.738  1.00  0.00     0.016 A 
ATOM     35  C   UNL A   1      43.678  24.924  25.230  1.00  0.00     0.010 A 
ATOM     36  C   UNL A   1      43.521  23.780  27.348  1.00  0.00     0.010 A 
ATOM     37  C   UNL A   1      43.532  24.974  26.614  1.00  0.00    -0.014 A 
BRANCH  37  38
ATOM     38  C   UNL A   1      43.454  26.181  27.444  1.00  0.00     0.031 A 
ATOM     39  C   UNL A   1      42.129  26.833  27.558  1.00  0.00     0.074 A 
ATOM     40  C   UNL A   1      44.474  26.576  28.248  1.00  0.00     0.049 A 
ATOM     41  N   UNL A   1      41.955  28.079  27.824  1.00  0.00    -0.248 NA
ATOM     42  C   UNL A   1      40.865  26.133  27.324  1.00  0.00     0.031 C 
ATOM     43  C   UNL A   1      44.441  27.497  29.384  1.00  0.00     0.029 A 
ATOM     44  N   UNL A   1      45.830  26.239  28.171  1.00  0.00    -0.354 N 
ATOM     45  C   UNL A   1      40.622  28.253  28.128  1.00  0.00     0.074 A 
ATOM     46  C   UNL A   1      39.973  27.053  27.681  1.00  0.00     0.031 C 
ATOM     47  C   UNL A   1      45.701  27.879  29.680  1.00  0.00     0.029 A 
ATOM     48  C   UNL A   1      46.578  27.312  28.665  1.00  0.00     0.049 A 
ATOM     49  H   UNL A   1      46.195  25.391  27.829  1.00  0.00     0.167 HD
ATOM     50  C   UNL A   1      40.249  29.320  28.887  1.00  0.00     0.034 A 
ATOM     51  C   UNL A   1      47.490  27.936  27.870  1.00  0.00     0.034 A 
ATOM     52  C   UNL A   1      41.430  30.111  29.258  1.00  0.00     0.049 A 
ATOM     53  C   UNL A   1      47.021  29.349  27.671  1.00  0.00     0.074 A 
ATOM     54  C   UNL A   1      42.175  30.174  30.424  1.00  0.00     0.029 A 
ATOM     55  N   UNL A   1      42.211  30.700  28.264  1.00  0.00    -0.354 N 
ATOM     56  N   UNL A   1      45.780  29.703  27.877  1.00  0.00    -0.248 NA
ATOM     57  C   UNL A   1      47.873  30.471  27.308  1.00  0.00     0.031 C 
ATOM     58  C   UNL A   1      43.447  30.722  30.100  1.00  0.00     0.029 A 
ATOM     59  C   UNL A   1      43.464  31.030  28.748  1.00  0.00     0.049 A 
ATOM     60  H   UNL A   1      41.910  30.858  27.341  1.00  0.00     0.167 HD
ATOM     61  C   UNL A   1      45.653  31.042  27.727  1.00  0.00     0.074 A 
ATOM     62  C   UNL A   1      46.991  31.485  27.357  1.00  0.00     0.031 C 
ATOM     63  C   UNL A   1      44.451  31.669  27.887  1.00  0.00     0.034 A 
BRANCH  50  64
ATOM     64  C   UNL A   1      38.898  29.475  29.561  1.00  0.00     0.023 A 
ATOM     65  C   UNL A   1      38.096  30.579  29.209  1.00  0.00     0.031 A 
ATOM     66  C   UNL A   1      38.338  28.628  30.541  1.00  0.00     0.131 A 
ATOM     67  C   UNL A   1      36.877  30.848  29.858  1.00  0.00     0.055 A 
ATOM     68  C   UNL A   1      37.154  28.925  31.232  1.00  0.00     0.041 A 
ATOM     69  F   UNL A   1      38.855  27.430  30.834  1.00  0.00    -0.206 F 
ATOM     70  C   UNL A   1      36.417  30.045  30.895  1.00  0.00     0.022 A 
BRANCH  67  71
ATOM     71  S   UNL A   1      35.876  32.248  29.293  1.00  0.00     0.124 S 
ATOM     72  O   UNL A   1      36.006  33.186  30.402  1.00  0.00    -0.237 OA
ATOM     73  O   UNL A   1      36.538  32.620  28.047  1.00  0.00    -0.237 OA
ATOM     74  O   UNL A   1      34.544  31.665  29.130  1.00  0.00    -0.744 OA
ENDBRANCH  67  71
ENDBRANCH  50  64
BRANCH  51  75
ATOM     75  C   UNL A   1      48.101  27.007  26.857  1.00  0.00     0.023 A 
ATOM     76  C   UNL A   1      47.761  27.204  25.492  1.00  0.00     0.031 A 
ATOM     77  C   UNL A   1      49.278  26.294  27.126  1.00  0.00     0.131 A 
ATOM     78  C   UNL A   1      48.657  26.839  24.465  1.00  0.00     0.055 A 
ATOM     79  C   UNL A   1      50.150  25.901  26.097  1.00  0.00     0.041 A 
ATOM     80  F   UNL A   1      49.675  26.086  28.389  1.00  0.00    -0.206 F 
ATOM     81  C   UNL A   1      49.866  26.215  24.767  1.00  0.00     0.022 A 
BRANCH  78  82
ATOM     82  S   UNL A   1      48.399  27.472  22.773  1.00  0.00     0.124 S 
ATOM     83  O   UNL A   1      48.338  26.251  21.980  1.00  0.00    -0.237 OA
ATOM     84  O   UNL A   1      47.148  28.209  22.896  1.00  0.00    -0.237 OA
ATOM     85  O   UNL A   1      49.570  28.319  22.543  1.00  0.00    -0.744 OA
ENDBRANCH  78  82
ENDBRANCH  51  75
BRANCH  63  86
ATOM     86  C   UNL A   1      44.169  32.999  27.267  1.00  0.00     0.023 A 
ATOM     87  C   UNL A   1      43.965  34.133  28.060  1.00  0.00     0.031 A 
ATOM     88  C   UNL A   1      44.195  33.202  25.873  1.00  0.00     0.131 A 
ATOM     89  C   UNL A   1      43.628  35.359  27.487  1.00  0.00     0.055 A 
ATOM     90  C   UNL A   1      43.991  34.459  25.302  1.00  0.00     0.041 A 
ATOM     91  F   UNL A   1      44.425  32.197  25.016  1.00  0.00    -0.206 F 
ATOM     92  C   UNL A   1      43.669  35.543  26.110  1.00  0.00     0.022 A 
BRANCH  89  93
ATOM     93  S   UNL A   1      42.989  36.630  28.598  1.00  0.00     0.124 S 
ATOM     94  O   UNL A   1      43.140  37.835  27.785  1.00  0.00    -0.237 OA
ATOM     95  O   UNL A   1      41.616  36.193  28.826  1.00  0.00    -0.237 OA
ATOM     96  O   UNL A   1      43.873  36.547  29.757  1.00  0.00    -0.744 OA
ENDBRANCH  89  93
ENDBRANCH  63  86
ENDBRANCH  37  38
ENDBRANCH  30  32
ENDBRANCH  29  30
ENDBRANCH  28  29
ENDBRANCH   1  28
TORSDOF 20
ENDMDL
MODEL 2
REMARK VINA RESULT:     -12.1      3.043      5.753
REMARK SMILES Cc1c(CC(=O)OCCOCCOC(=O)c2ccc(-c3c4nc(c(-c5cc(S(=O)(=O)[O-])ccc5F)c5ccc([nH]5)c(-c5cc(S(=O)(=O)[O-])ccc5F)c5nc(c(-c6cc(S(=O)(=O)[O-])ccc6F)c6ccc3[nH]6)C=C5)C=C4)cc2)cc(-c2ccccc2)cc1-c1ccccc1
REMARK SMILES IDX 11 1 10 2 9 3 8 4 7 5 5 6 6 7 4 8 3 9 1 10 2 11 88 12 79 13
REMARK SMILES IDX 87 14 80 15 89 16 90 17 94 18 91 19 93 20 92 21 81 22 82 23
REMARK SMILES IDX 86 24 83 25 85 26 84 27 12 28 13 29 14 30 15 31 16 32 17 33
REMARK SMILES IDX 78 34 18 35 77 36 19 37 20 38 21 39 71 40 22 41 76 42 70 43
REMARK SMILES IDX 72 44 23 45 75 46 69 47 68 48 24 50 56 51 36 52 55 53 37 54
REMARK SMILES IDX 40 55 54 56 73 57 38 58 39 59 53 61 74 62 41 63 25 64 26 65
REMARK SMILES IDX 34 66 27 67 33 68 35 69 32 70 28 71 29 72 30 73 31 74 57 75
REMARK SMILES IDX 58 76 66 77 59 78 65 79 67 80 64 81 60 82 61 83 62 84 63 85
REMARK SMILES IDX 42 86 43 87 51 88 44 89 50 90 52 91 49 92 45 93 46 94 47 95
REMARK SMILES IDX 48 96
REMARK H PARENT 72 49 40 60
REMARK Flexibility Score: inf
ROOT
ATOM      1  C   UNL A   1      37.425  21.771  24.870  1.00  0.00     0.202 C 
ENDROOT
BRANCH   1   2
ATOM      2  O   UNL A   1      36.300  21.123  25.435  1.00  0.00    -0.374 OA
BRANCH   2   3
ATOM      3  C   UNL A   1      35.140  21.941  25.573  1.00  0.00     0.202 C 
BRANCH   3   4
ATOM      4  C   UNL A   1      34.967  22.684  24.292  1.00  0.00     0.261 C 
BRANCH   4   5
ATOM      5  O   UNL A   1      34.933  24.100  24.458  1.00  0.00    -0.463 OA
BRANCH   5   6
ATOM      6  C   UNL A   1      33.975  24.808  23.796  1.00  0.00     0.310 C 
ATOM      7  O   UNL A   1      34.096  25.346  22.711  1.00  0.00    -0.252 OA
BRANCH   6   8
ATOM      8  C   UNL A   1      32.695  24.809  24.614  1.00  0.00     0.158 C 
BRANCH   8   9
ATOM      9  C   UNL A   1      32.161  26.224  24.800  1.00  0.00    -0.033 A 
ATOM     10  C   UNL A   1      30.704  25.971  22.743  1.00  0.00     0.045 C 
ATOM     11  C   UNL A   1      31.218  26.791  23.909  1.00  0.00    -0.039 A 
ATOM     12  C   UNL A   1      30.880  28.161  24.039  1.00  0.00    -0.015 A 
ATOM     13  C   UNL A   1      32.831  27.052  25.725  1.00  0.00     0.013 A 
ATOM     14  C   UNL A   1      31.622  28.965  24.933  1.00  0.00     0.017 A 
ATOM     15  C   UNL A   1      32.621  28.436  25.756  1.00  0.00    -0.017 A 
BRANCH  12  16
ATOM     16  C   UNL A   1      29.781  28.781  23.276  1.00  0.00    -0.018 A 
ATOM     17  C   UNL A   1      28.439  28.439  23.498  1.00  0.00     0.009 A 
ATOM     18  C   UNL A   1      30.066  29.735  22.283  1.00  0.00     0.009 A 
ATOM     19  C   UNL A   1      27.418  29.027  22.750  1.00  0.00     0.001 A 
ATOM     20  C   UNL A   1      29.046  30.334  21.544  1.00  0.00     0.001 A 
ATOM     21  C   UNL A   1      27.721  29.974  21.773  1.00  0.00     0.000 A 
ENDBRANCH  12  16
BRANCH  15  22
ATOM     22  C   UNL A   1      33.467  29.304  26.585  1.00  0.00    -0.018 A 
ATOM     23  C   UNL A   1      32.998  30.543  27.057  1.00  0.00     0.009 A 
ATOM     24  C   UNL A   1      34.779  28.934  26.899  1.00  0.00     0.009 A 
ATOM     25  C   UNL A   1      33.842  31.423  27.741  1.00  0.00     0.001 A 
ATOM     26  C   UNL A   1      35.612  29.794  27.619  1.00  0.00     0.001 A 
ATOM     27  C   UNL A   1      35.151  31.049  28.018  1.00  0.00     0.000 A 
ENDBRANCH  15  22
ENDBRANCH   8   9
ENDBRANCH   6   8
ENDBRANCH   5   6
ENDBRANCH   4   5
ENDBRANCH   3   4
ENDBRANCH   2   3
ENDBRANCH   1   2
BRANCH   1  28
ATOM     28  C   UNL A   1      38.660  21.862  25.786  1.00  0.00     0.261 C 
BRANCH  28  29
ATOM     29  O   UNL A   1      38.714  23.138  26.461  1.00  0.00    -0.460 OA
BRANCH  29  30
ATOM     30  C   UNL A   1      39.959  23.610  26.738  1.00  0.00     0.338 C 
ATOM     31  O   UNL A   1      40.979  22.926  26.753  1.00  0.00    -0.246 OA
BRANCH  30  32
ATOM     32  C   UNL A   1      39.888  25.045  27.119  1.00  0.00     0.060 A 
ATOM     33  C   UNL A   1      40.429  26.050  26.297  1.00  0.00     0.016 A 
ATOM     34  C   UNL A   1      39.525  25.343  28.429  1.00  0.00     0.016 A 
ATOM     35  C   UNL A   1      40.738  27.310  26.836  1.00  0.00     0.010 A 
ATOM     36  C   UNL A   1      39.971  26.518  28.982  1.00  0.00     0.010 A 
ATOM     37  C   UNL A   1      40.578  27.514  28.205  1.00  0.00    -0.014 A 
BRANCH  37  38
ATOM     38  C   UNL A   1      41.050  28.667  28.980  1.00  0.00     0.031 A 
ATOM     39  C   UNL A   1      40.025  29.631  29.441  1.00  0.00     0.074 A 
ATOM     40  C   UNL A   1      42.321  28.755  29.448  1.00  0.00     0.049 A 
ATOM     41  N   UNL A   1      40.259  30.868  29.701  1.00  0.00    -0.248 NA
ATOM     42  C   UNL A   1      38.611  29.288  29.599  1.00  0.00     0.031 C 
ATOM     43  C   UNL A   1      42.848  29.607  30.514  1.00  0.00     0.029 A 
ATOM     44  N   UNL A   1      43.467  28.085  29.002  1.00  0.00    -0.354 N 
ATOM     45  C   UNL A   1      39.158  31.365  30.364  1.00  0.00     0.074 A 
ATOM     46  C   UNL A   1      38.123  30.390  30.162  1.00  0.00     0.031 C 
ATOM     47  C   UNL A   1      44.194  29.641  30.428  1.00  0.00     0.029 A 
ATOM     48  C   UNL A   1      44.573  28.910  29.226  1.00  0.00     0.049 A 
ATOM     49  H   UNL A   1      43.489  27.186  28.601  1.00  0.00     0.167 HD
ATOM     50  C   UNL A   1      39.301  32.461  31.159  1.00  0.00     0.034 A 
ATOM     51  C   UNL A   1      45.351  29.311  28.184  1.00  0.00     0.034 A 
ATOM     52  C   UNL A   1      40.700  32.907  31.153  1.00  0.00     0.049 A 
ATOM     53  C   UNL A   1      45.224  30.804  28.077  1.00  0.00     0.074 A 
ATOM     54  C   UNL A   1      41.735  32.730  32.058  1.00  0.00     0.029 A 
ATOM     55  N   UNL A   1      41.293  33.316  29.959  1.00  0.00    -0.354 N 
ATOM     56  N   UNL A   1      44.226  31.455  28.612  1.00  0.00    -0.248 NA
ATOM     57  C   UNL A   1      46.198  31.684  27.448  1.00  0.00     0.031 C 
ATOM     58  C   UNL A   1      42.959  32.947  31.368  1.00  0.00     0.029 A 
ATOM     59  C   UNL A   1      42.673  33.295  30.056  1.00  0.00     0.049 A 
ATOM     60  H   UNL A   1      40.795  33.583  29.153  1.00  0.00     0.167 HD
ATOM     61  C   UNL A   1      44.410  32.787  28.458  1.00  0.00     0.074 A 
ATOM     62  C   UNL A   1      45.656  32.887  27.709  1.00  0.00     0.031 C 
ATOM     63  C   UNL A   1      43.506  33.694  28.929  1.00  0.00     0.034 A 
BRANCH  50  64
ATOM     64  C   UNL A   1      38.282  32.929  32.182  1.00  0.00     0.023 A 
ATOM     65  C   UNL A   1      37.005  33.314  31.728  1.00  0.00     0.031 A 
ATOM     66  C   UNL A   1      38.472  33.045  33.575  1.00  0.00     0.131 A 
ATOM     67  C   UNL A   1      36.039  33.852  32.598  1.00  0.00     0.055 A 
ATOM     68  C   UNL A   1      37.535  33.637  34.435  1.00  0.00     0.041 A 
ATOM     69  F   UNL A   1      39.534  32.526  34.201  1.00  0.00    -0.206 F 
ATOM     70  C   UNL A   1      36.309  34.049  33.947  1.00  0.00     0.022 A 
BRANCH  67  71
ATOM     71  S   UNL A   1      34.398  34.252  31.942  1.00  0.00     0.124 S 
ATOM     72  O   UNL A   1      34.464  33.700  30.593  1.00  0.00    -0.237 OA
ATOM     73  O   UNL A   1      33.513  33.570  32.880  1.00  0.00    -0.237 OA
ATOM     74  O   UNL A   1      34.355  35.713  32.010  1.00  0.00    -0.744 OA
ENDBRANCH  67  71
ENDBRANCH  50  64
BRANCH  51  75
ATOM     75  C   UNL A   1      45.391  28.299  27.073  1.00  0.00     0.023 A 
ATOM     76  C   UNL A   1      46.271  27.193  27.218  1.00  0.00     0.031 A 
ATOM     77  C   UNL A   1      44.330  28.155  26.167  1.00  0.00     0.131 A 
ATOM     78  C   UNL A   1      45.986  25.958  26.600  1.00  0.00     0.055 A 
ATOM     79  C   UNL A   1      44.072  26.932  25.526  1.00  0.00     0.041 A 
ATOM     80  F   UNL A   1      43.446  29.147  25.991  1.00  0.00    -0.206 F 
ATOM     81  C   UNL A   1      44.870  25.816  25.777  1.00  0.00     0.022 A 
BRANCH  78  82
ATOM     82  S   UNL A   1      46.879  24.456  27.128  1.00  0.00     0.124 S 
ATOM     83  O   UNL A   1      48.215  24.963  27.417  1.00  0.00    -0.237 OA
ATOM     84  O   UNL A   1      46.107  24.015  28.283  1.00  0.00    -0.237 OA
ATOM     85  O   UNL A   1      46.775  23.570  25.968  1.00  0.00    -0.744 OA
ENDBRANCH  78  82
ENDBRANCH  51  75
BRANCH  63  86
ATOM     86  C   UNL A   1      43.412  35.076  28.368  1.00  0.00     0.023 A 
ATOM     87  C   UNL A   1      43.814  36.185  29.119  1.00  0.00     0.031 A 
ATOM     88  C   UNL A   1      43.017  35.325  27.039  1.00  0.00     0.131 A 
ATOM     89  C   UNL A   1      43.657  37.480  28.627  1.00  0.00     0.055 A 
ATOM     90  C   UNL A   1      42.990  36.612  26.501  1.00  0.00     0.041 A 
ATOM     91  F   UNL A   1      42.653  34.334  26.212  1.00  0.00    -0.206 F 
ATOM     92  C   UNL A   1      43.277  37.706  27.308  1.00  0.00     0.022 A 
BRANCH  89  93
ATOM     93  S   UNL A   1      43.814  38.829  29.816  1.00  0.00     0.124 S 
ATOM     94  O   UNL A   1      45.108  39.400  29.445  1.00  0.00    -0.237 OA
ATOM     95  O   UNL A   1      42.651  39.658  29.514  1.00  0.00    -0.237 OA
ATOM     96  O   UNL A   1      43.782  38.151  31.108  1.00  0.00    -0.744 OA
ENDBRANCH  89  93
ENDBRANCH  63  86
ENDBRANCH  37  38
ENDBRANCH  30  32
ENDBRANCH  29  30
ENDBRANCH  28  29
ENDBRANCH   1  28
TORSDOF 20
ENDMDL
MODEL 3
REMARK VINA RESULT:     -11.9      3.536      6.432
REMARK SMILES Cc1c(CC(=O)OCCOCCOC(=O)c2ccc(-c3c4nc(c(-c5cc(S(=O)(=O)[O-])ccc5F)c5ccc([nH]5)c(-c5cc(S(=O)(=O)[O-])ccc5F)c5nc(c(-c6cc(S(=O)(=O)[O-])ccc6F)c6ccc3[nH]6)C=C5)C=C4)cc2)cc(-c2ccccc2)cc1-c1ccccc1
REMARK SMILES IDX 11 1 10 2 9 3 8 4 7 5 5 6 6 7 4 8 3 9 1 10 2 11 88 12 79 13
REMARK SMILES IDX 87 14 80 15 89 16 90 17 94 18 91 19 93 20 92 21 81 22 82 23
REMARK SMILES IDX 86 24 83 25 85 26 84 27 12 28 13 29 14 30 15 31 16 32 17 33
REMARK SMILES IDX 78 34 18 35 77 36 19 37 20 38 21 39 71 40 22 41 76 42 70 43
REMARK SMILES IDX 72 44 23 45 75 46 69 47 68 48 24 50 56 51 36 52 55 53 37 54
REMARK SMILES IDX 40 55 54 56 73 57 38 58 39 59 53 61 74 62 41 63 25 64 26 65
REMARK SMILES IDX 34 66 27 67 33 68 35 69 32 70 28 71 29 72 30 73 31 74 57 75
REMARK SMILES IDX 58 76 66 77 59 78 65 79 67 80 64 81 60 82 61 83 62 84 63 85
REMARK SMILES IDX 42 86 43 87 51 88 44 89 50 90 52 91 49 92 45 93 46 94 47 95
REMARK SMILES IDX 48 96
REMARK H PARENT 72 49 40 60
REMARK Flexibility Score: inf
ROOT
ATOM      1  C   UNL A   1      36.804  21.875  24.578  1.00  0.00     0.202 C 
ENDROOT
BRANCH   1   2
ATOM      2  O   UNL A   1      35.583  21.539  25.211  1.00  0.00    -0.374 OA
BRANCH   2   3
ATOM      3  C   UNL A   1      34.757  22.650  25.552  1.00  0.00     0.202 C 
BRANCH   3   4
ATOM      4  C   UNL A   1      34.144  23.152  24.289  1.00  0.00     0.261 C 
BRANCH   4   5
ATOM      5  O   UNL A   1      32.817  23.646  24.460  1.00  0.00    -0.463 OA
BRANCH   5   6
ATOM      6  C   UNL A   1      32.412  24.695  23.690  1.00  0.00     0.310 C 
ATOM      7  O   UNL A   1      32.869  25.015  22.609  1.00  0.00    -0.252 OA
BRANCH   6   8
ATOM      8  C   UNL A   1      31.265  25.413  24.379  1.00  0.00     0.158 C 
BRANCH   8   9
ATOM      9  C   UNL A   1      31.523  26.912  24.465  1.00  0.00    -0.033 A 
ATOM     10  C   UNL A   1      33.047  26.563  26.457  1.00  0.00     0.045 C 
ATOM     11  C   UNL A   1      32.363  27.472  25.457  1.00  0.00    -0.039 A 
ATOM     12  C   UNL A   1      32.437  28.881  25.586  1.00  0.00    -0.015 A 
ATOM     13  C   UNL A   1      30.689  27.757  23.700  1.00  0.00     0.013 A 
ATOM     14  C   UNL A   1      31.538  29.682  24.848  1.00  0.00     0.017 A 
ATOM     15  C   UNL A   1      30.638  29.136  23.929  1.00  0.00    -0.017 A 
BRANCH  12  16
ATOM     16  C   UNL A   1      33.419  29.544  26.465  1.00  0.00    -0.018 A 
ATOM     17  C   UNL A   1      34.691  29.002  26.697  1.00  0.00     0.009 A 
ATOM     18  C   UNL A   1      33.085  30.750  27.107  1.00  0.00     0.009 A 
ATOM     19  C   UNL A   1      35.596  29.640  27.547  1.00  0.00     0.001 A 
ATOM     20  C   UNL A   1      33.993  31.396  27.946  1.00  0.00     0.001 A 
ATOM     21  C   UNL A   1      35.248  30.836  28.171  1.00  0.00     0.000 A 
ENDBRANCH  12  16
BRANCH  15  22
ATOM     22  C   UNL A   1      29.626  29.968  23.264  1.00  0.00    -0.018 A 
ATOM     23  C   UNL A   1      29.156  29.655  21.976  1.00  0.00     0.009 A 
ATOM     24  C   UNL A   1      29.126  31.118  23.885  1.00  0.00     0.009 A 
ATOM     25  C   UNL A   1      28.286  30.511  21.294  1.00  0.00     0.001 A 
ATOM     26  C   UNL A   1      28.224  31.954  23.221  1.00  0.00     0.001 A 
ATOM     27  C   UNL A   1      27.824  31.664  21.917  1.00  0.00     0.000 A 
ENDBRANCH  15  22
ENDBRANCH   8   9
ENDBRANCH   6   8
ENDBRANCH   5   6
ENDBRANCH   4   5
ENDBRANCH   3   4
ENDBRANCH   2   3
ENDBRANCH   1   2
BRANCH   1  28
ATOM     28  C   UNL A   1      38.030  21.947  25.509  1.00  0.00     0.261 C 
BRANCH  28  29
ATOM     29  O   UNL A   1      38.235  23.293  25.993  1.00  0.00    -0.460 OA
BRANCH  29  30
ATOM     30  C   UNL A   1      39.302  23.469  26.818  1.00  0.00     0.338 C 
ATOM     31  O   UNL A   1      40.020  22.564  27.236  1.00  0.00    -0.246 OA
BRANCH  30  32
ATOM     32  C   UNL A   1      39.406  24.897  27.221  1.00  0.00     0.060 A 
ATOM     33  C   UNL A   1      40.014  25.852  26.386  1.00  0.00     0.016 A 
ATOM     34  C   UNL A   1      39.139  25.208  28.550  1.00  0.00     0.016 A 
ATOM     35  C   UNL A   1      40.484  27.060  26.926  1.00  0.00     0.010 A 
ATOM     36  C   UNL A   1      39.736  26.318  29.096  1.00  0.00     0.010 A 
ATOM     37  C   UNL A   1      40.412  27.256  28.303  1.00  0.00    -0.014 A 
BRANCH  37  38
ATOM     38  C   UNL A   1      41.042  28.337  29.069  1.00  0.00     0.031 A 
ATOM     39  C   UNL A   1      40.143  29.359  29.652  1.00  0.00     0.074 A 
ATOM     40  C   UNL A   1      42.352  28.306  29.423  1.00  0.00     0.049 A 
ATOM     41  N   UNL A   1      40.500  30.563  29.931  1.00  0.00    -0.248 NA
ATOM     42  C   UNL A   1      38.726  29.122  29.927  1.00  0.00     0.031 C 
ATOM     43  C   UNL A   1      43.039  29.071  30.463  1.00  0.00     0.029 A 
ATOM     44  N   UNL A   1      43.396  27.567  28.853  1.00  0.00    -0.354 N 
ATOM     45  C   UNL A   1      39.505  31.118  30.706  1.00  0.00     0.074 A 
ATOM     46  C   UNL A   1      38.380  30.236  30.567  1.00  0.00     0.031 C 
ATOM     47  C   UNL A   1      44.370  29.004  30.257  1.00  0.00     0.029 A 
ATOM     48  C   UNL A   1      44.581  28.293  29.002  1.00  0.00     0.049 A 
ATOM     49  H   UNL A   1      43.310  26.685  28.423  1.00  0.00     0.167 HD
ATOM     50  C   UNL A   1      39.806  32.167  31.520  1.00  0.00     0.034 A 
ATOM     51  C   UNL A   1      45.295  28.673  27.908  1.00  0.00     0.034 A 
ATOM     52  C   UNL A   1      41.232  32.502  31.402  1.00  0.00     0.049 A 
ATOM     53  C   UNL A   1      45.281  30.174  27.861  1.00  0.00     0.074 A 
ATOM     54  C   UNL A   1      42.324  32.209  32.203  1.00  0.00     0.029 A 
ATOM     55  N   UNL A   1      41.749  32.910  30.173  1.00  0.00    -0.354 N 
ATOM     56  N   UNL A   1      44.391  30.880  28.506  1.00  0.00    -0.248 NA
ATOM     57  C   UNL A   1      46.264  30.999  27.175  1.00  0.00     0.031 C 
ATOM     58  C   UNL A   1      43.497  32.356  31.412  1.00  0.00     0.029 A 
ATOM     59  C   UNL A   1      43.125  32.777  30.144  1.00  0.00     0.049 A 
ATOM     60  H   UNL A   1      41.205  33.247  29.425  1.00  0.00     0.167 HD
ATOM     61  C   UNL A   1      44.668  32.199  28.379  1.00  0.00     0.074 A 
ATOM     62  C   UNL A   1      45.848  32.230  27.524  1.00  0.00     0.031 C 
ATOM     63  C   UNL A   1      43.886  33.153  28.959  1.00  0.00     0.034 A 
BRANCH  50  64
ATOM     64  C   UNL A   1      38.923  32.672  32.646  1.00  0.00     0.023 A 
ATOM     65  C   UNL A   1      38.992  32.022  33.895  1.00  0.00     0.031 A 
ATOM     66  C   UNL A   1      37.999  33.737  32.586  1.00  0.00     0.131 A 
ATOM     67  C   UNL A   1      38.136  32.365  34.958  1.00  0.00     0.055 A 
ATOM     68  C   UNL A   1      37.103  34.041  33.622  1.00  0.00     0.041 A 
ATOM     69  F   UNL A   1      37.957  34.594  31.560  1.00  0.00    -0.206 F 
ATOM     70  C   UNL A   1      37.166  33.350  34.818  1.00  0.00     0.022 A 
BRANCH  67  71
ATOM     71  S   UNL A   1      38.343  31.528  36.551  1.00  0.00     0.124 S 
ATOM     72  O   UNL A   1      39.608  32.078  37.025  1.00  0.00    -0.237 OA
ATOM     73  O   UNL A   1      37.145  31.938  37.276  1.00  0.00    -0.237 OA
ATOM     74  O   UNL A   1      38.384  30.112  36.185  1.00  0.00    -0.744 OA
ENDBRANCH  67  71
ENDBRANCH  50  64
BRANCH  51  75
ATOM     75  C   UNL A   1      45.154  27.705  26.766  1.00  0.00     0.023 A 
ATOM     76  C   UNL A   1      45.925  26.513  26.812  1.00  0.00     0.031 A 
ATOM     77  C   UNL A   1      44.024  27.703  25.935  1.00  0.00     0.131 A 
ATOM     78  C   UNL A   1      45.474  25.337  26.177  1.00  0.00     0.055 A 
ATOM     79  C   UNL A   1      43.599  26.537  25.276  1.00  0.00     0.041 A 
ATOM     80  F   UNL A   1      43.236  28.784  25.855  1.00  0.00    -0.206 F 
ATOM     81  C   UNL A   1      44.294  25.339  25.434  1.00  0.00     0.022 A 
BRANCH  78  82
ATOM     82  S   UNL A   1      46.243  23.734  26.592  1.00  0.00     0.124 S 
ATOM     83  O   UNL A   1      47.598  24.118  26.969  1.00  0.00    -0.237 OA
ATOM     84  O   UNL A   1      45.400  23.246  27.675  1.00  0.00    -0.237 OA
ATOM     85  O   UNL A   1      46.123  22.967  25.351  1.00  0.00    -0.744 OA
ENDBRANCH  78  82
ENDBRANCH  51  75
BRANCH  63  86
ATOM     86  C   UNL A   1      43.856  34.560  28.454  1.00  0.00     0.023 A 
ATOM     87  C   UNL A   1      44.252  35.625  29.269  1.00  0.00     0.031 A 
ATOM     88  C   UNL A   1      43.531  34.875  27.121  1.00  0.00     0.131 A 
ATOM     89  C   UNL A   1      44.154  36.943  28.827  1.00  0.00     0.055 A 
ATOM     90  C   UNL A   1      43.564  36.184  26.637  1.00  0.00     0.041 A 
ATOM     91  F   UNL A   1      43.179  33.931  26.236  1.00  0.00    -0.206 F 
ATOM     92  C   UNL A   1      43.843  37.235  27.503  1.00  0.00     0.022 A 
BRANCH  89  93
ATOM     93  S   UNL A   1      44.292  38.237  30.078  1.00  0.00     0.124 S 
ATOM     94  O   UNL A   1      45.723  38.533  30.040  1.00  0.00    -0.237 OA
ATOM     95  O   UNL A   1      43.418  39.282  29.555  1.00  0.00    -0.237 OA
ATOM     96  O   UNL A   1      43.826  37.583  31.298  1.00  0.00    -0.744 OA
ENDBRANCH  89  93
ENDBRANCH  63  86
ENDBRANCH  37  38
ENDBRANCH  30  32
ENDBRANCH  29  30
ENDBRANCH  28  29
ENDBRANCH   1  28
TORSDOF 20
ENDMDL
