MODEL 1
REMARK VINA RESULT:     -11.1      0.000      0.000
REMARK SMILES O=C(CC1(NC(=O)c2ccccc2[N+](=O)[O-])CCC1)OCCOCCOC(=O)c1ccc(-c2c3nc(c(-c4cc(S(=O)(=O)[O-])ccc4F)c4ccc([nH]4)c(-c4cc(S(=O)(=O)[O-])ccc4F)c4nc(c(-c5cc(S(=O)(=O)[O-])ccc5F)c5ccc2[nH]5)C=C4)C=C3)cc1
REMARK SMILES IDX 22 1 21 2 20 3 2 4 1 5 3 6 4 7 17 8 19 9 18 10 5 11 6 12
REMARK SMILES IDX 7 14 8 15 9 16 13 17 10 18 12 19 11 20 14 21 15 22 16 23
REMARK SMILES IDX 23 24 24 25 25 26 26 27 27 28 28 29 29 30 30 31 91 32 31 33
REMARK SMILES IDX 90 34 32 35 33 36 34 37 84 38 35 39 89 40 83 41 85 42 36 43
REMARK SMILES IDX 88 44 82 45 81 46 37 48 69 49 49 50 68 51 50 52 53 53 67 54
REMARK SMILES IDX 86 55 51 56 52 57 66 59 87 60 54 61 38 62 39 63 47 64 40 65
REMARK SMILES IDX 46 66 48 67 45 68 41 69 42 70 43 71 44 72 70 73 71 74 79 75
REMARK SMILES IDX 72 76 78 77 80 78 77 79 73 80 74 81 75 82 76 83 55 84 56 85
REMARK SMILES IDX 64 86 57 87 63 88 65 89 62 90 58 91 59 92 60 93 61 94
REMARK H PARENT 5 13 85 47 53 58
REMARK Flexibility Score: inf
ROOT
ATOM      1  C   UNL A   1      31.116  29.031  23.365  1.00  0.00     0.202 C 
ENDROOT
BRANCH   1   2
ATOM      2  C   UNL A   1      32.624  28.874  23.175  1.00  0.00     0.261 C 
BRANCH   2   3
ATOM      3  O   UNL A   1      32.943  27.880  22.187  1.00  0.00    -0.463 OA
BRANCH   3   4
ATOM      4  C   UNL A   1      33.465  26.682  22.511  1.00  0.00     0.308 C 
ATOM      5  O   UNL A   1      33.829  25.901  21.638  1.00  0.00    -0.252 OA
BRANCH   4   6
ATOM      6  C   UNL A   1      33.491  26.311  23.970  1.00  0.00     0.151 C 
BRANCH   6   7
ATOM      7  C   UNL A   1      32.491  25.244  24.350  1.00  0.00     0.051 C 
ATOM      8  C   UNL A   1      32.756  24.792  25.830  1.00  0.00     0.029 C 
ATOM      9  C   UNL A   1      31.114  25.778  24.846  1.00  0.00     0.029 C 
ATOM     10  C   UNL A   1      31.620  25.705  26.300  1.00  0.00     0.005 C 
BRANCH   7  11
ATOM     11  N   UNL A   1      32.427  24.096  23.410  1.00  0.00    -0.346 N 
ATOM     12  C   UNL A   1      33.037  22.861  23.297  1.00  0.00     0.258 C 
ATOM     13  H   UNL A   1      31.784  24.254  22.682  1.00  0.00     0.164 HD
ATOM     14  O   UNL A   1      32.557  22.053  22.499  1.00  0.00    -0.269 OA
BRANCH  12  15
ATOM     15  C   UNL A   1      34.348  22.489  23.866  1.00  0.00     0.117 A 
ATOM     16  C   UNL A   1      35.450  23.129  23.270  1.00  0.00     0.021 A 
ATOM     17  C   UNL A   1      34.624  21.360  24.646  1.00  0.00     0.282 A 
ATOM     18  C   UNL A   1      36.764  22.686  23.493  1.00  0.00     0.001 A 
ATOM     19  C   UNL A   1      35.943  20.945  24.925  1.00  0.00     0.086 A 
ATOM     20  C   UNL A   1      37.014  21.607  24.336  1.00  0.00     0.007 A 
BRANCH  17  21
ATOM     21  N   UNL A   1      33.591  20.503  25.176  1.00  0.00     0.063 N 
ATOM     22  O   UNL A   1      33.789  19.286  25.151  1.00  0.00    -0.258 OA
ATOM     23  O   UNL A   1      32.648  21.083  25.736  1.00  0.00    -0.258 OA
ENDBRANCH  17  21
ENDBRANCH  12  15
ENDBRANCH   7  11
ENDBRANCH   6   7
ENDBRANCH   4   6
ENDBRANCH   3   4
ENDBRANCH   2   3
ENDBRANCH   1   2
BRANCH   1  24
ATOM     24  O   UNL A   1      30.680  29.828  24.468  1.00  0.00    -0.374 OA
BRANCH  24  25
ATOM     25  C   UNL A   1      31.499  29.765  25.642  1.00  0.00     0.202 C 
BRANCH  25  26
ATOM     26  C   UNL A   1      31.886  31.048  26.397  1.00  0.00     0.261 C 
BRANCH  26  27
ATOM     27  O   UNL A   1      32.905  30.839  27.378  1.00  0.00    -0.460 OA
BRANCH  27  28
ATOM     28  C   UNL A   1      33.673  31.938  27.606  1.00  0.00     0.338 C 
ATOM     29  O   UNL A   1      33.282  33.085  27.693  1.00  0.00    -0.246 OA
BRANCH  28  30
ATOM     30  C   UNL A   1      35.022  31.498  28.038  1.00  0.00     0.060 A 
ATOM     31  C   UNL A   1      35.183  30.125  28.286  1.00  0.00     0.016 A 
ATOM     32  C   UNL A   1      36.114  32.366  28.115  1.00  0.00     0.016 A 
ATOM     33  C   UNL A   1      36.423  29.617  28.638  1.00  0.00     0.010 A 
ATOM     34  C   UNL A   1      37.352  31.866  28.526  1.00  0.00     0.010 A 
ATOM     35  C   UNL A   1      37.489  30.500  28.832  1.00  0.00    -0.014 A 
BRANCH  35  36
ATOM     36  C   UNL A   1      38.599  30.026  29.685  1.00  0.00     0.031 A 
ATOM     37  C   UNL A   1      39.534  29.018  29.075  1.00  0.00     0.074 A 
ATOM     38  C   UNL A   1      38.832  30.555  30.896  1.00  0.00     0.049 A 
ATOM     39  N   UNL A   1      40.612  28.472  29.568  1.00  0.00    -0.248 NA
ATOM     40  C   UNL A   1      39.202  28.571  27.711  1.00  0.00     0.031 C 
ATOM     41  C   UNL A   1      38.030  31.596  31.534  1.00  0.00     0.029 A 
ATOM     42  N   UNL A   1      39.830  30.293  31.796  1.00  0.00    -0.354 N 
ATOM     43  C   UNL A   1      41.086  27.620  28.575  1.00  0.00     0.074 A 
ATOM     44  C   UNL A   1      40.153  27.687  27.475  1.00  0.00     0.031 C 
ATOM     45  C   UNL A   1      38.571  31.885  32.731  1.00  0.00     0.029 A 
ATOM     46  C   UNL A   1      39.733  31.027  32.954  1.00  0.00     0.049 A 
ATOM     47  H   UNL A   1      40.549  29.641  31.630  1.00  0.00     0.167 HD
ATOM     48  C   UNL A   1      42.206  26.859  28.580  1.00  0.00     0.034 A 
ATOM     49  C   UNL A   1      40.493  30.988  34.065  1.00  0.00     0.034 A 
ATOM     50  C   UNL A   1      43.100  26.791  29.707  1.00  0.00     0.049 A 
ATOM     51  C   UNL A   1      41.672  30.043  34.100  1.00  0.00     0.074 A 
ATOM     52  C   UNL A   1      44.256  26.044  29.848  1.00  0.00     0.029 A 
ATOM     53  N   UNL A   1      42.925  27.485  30.899  1.00  0.00    -0.354 N 
ATOM     54  N   UNL A   1      42.112  29.231  33.163  1.00  0.00    -0.248 NA
ATOM     55  C   UNL A   1      42.463  30.019  35.336  1.00  0.00     0.031 C 
ATOM     56  C   UNL A   1      44.731  26.224  31.152  1.00  0.00     0.029 A 
ATOM     57  C   UNL A   1      43.930  27.156  31.794  1.00  0.00     0.049 A 
ATOM     58  H   UNL A   1      42.194  28.118  31.080  1.00  0.00     0.167 HD
ATOM     59  C   UNL A   1      43.252  28.627  33.687  1.00  0.00     0.074 A 
ATOM     60  C   UNL A   1      43.434  29.177  35.016  1.00  0.00     0.031 C 
ATOM     61  C   UNL A   1      44.081  27.710  33.122  1.00  0.00     0.034 A 
BRANCH  48  62
ATOM     62  C   UNL A   1      42.452  25.995  27.365  1.00  0.00     0.023 A 
ATOM     63  C   UNL A   1      41.977  24.673  27.284  1.00  0.00     0.031 A 
ATOM     64  C   UNL A   1      43.251  26.471  26.312  1.00  0.00     0.131 A 
ATOM     65  C   UNL A   1      42.384  23.847  26.225  1.00  0.00     0.055 A 
ATOM     66  C   UNL A   1      43.573  25.672  25.212  1.00  0.00     0.041 A 
ATOM     67  F   UNL A   1      43.763  27.711  26.347  1.00  0.00    -0.206 F 
ATOM     68  C   UNL A   1      43.156  24.346  25.174  1.00  0.00     0.022 A 
BRANCH  65  69
ATOM     69  S   UNL A   1      42.050  22.066  26.335  1.00  0.00     0.124 S 
ATOM     70  O   UNL A   1      40.598  22.027  26.173  1.00  0.00    -0.237 OA
ATOM     71  O   UNL A   1      42.831  21.528  25.227  1.00  0.00    -0.237 OA
ATOM     72  O   UNL A   1      42.528  21.708  27.669  1.00  0.00    -0.744 OA
ENDBRANCH  65  69
ENDBRANCH  48  62
BRANCH  49  73
ATOM     73  C   UNL A   1      40.152  31.837  35.241  1.00  0.00     0.023 A 
ATOM     74  C   UNL A   1      39.194  31.431  36.183  1.00  0.00     0.031 A 
ATOM     75  C   UNL A   1      40.760  33.093  35.421  1.00  0.00     0.131 A 
ATOM     76  C   UNL A   1      38.848  32.285  37.243  1.00  0.00     0.055 A 
ATOM     77  C   UNL A   1      40.450  33.918  36.504  1.00  0.00     0.041 A 
ATOM     78  F   UNL A   1      41.680  33.534  34.547  1.00  0.00    -0.206 F 
ATOM     79  C   UNL A   1      39.481  33.519  37.417  1.00  0.00     0.022 A 
BRANCH  76  80
ATOM     80  S   UNL A   1      37.504  31.790  38.357  1.00  0.00     0.124 S 
ATOM     81  O   UNL A   1      36.498  32.809  38.077  1.00  0.00    -0.237 OA
ATOM     82  O   UNL A   1      37.201  30.443  37.885  1.00  0.00    -0.237 OA
ATOM     83  O   UNL A   1      38.116  31.862  39.682  1.00  0.00    -0.744 OA
ENDBRANCH  76  80
ENDBRANCH  49  73
BRANCH  61  84
ATOM     84  C   UNL A   1      45.290  27.289  33.924  1.00  0.00     0.023 A 
ATOM     85  C   UNL A   1      46.512  27.979  33.847  1.00  0.00     0.031 A 
ATOM     86  C   UNL A   1      45.212  26.174  34.779  1.00  0.00     0.131 A 
ATOM     87  C   UNL A   1      47.624  27.510  34.562  1.00  0.00     0.055 A 
ATOM     88  C   UNL A   1      46.302  25.755  35.542  1.00  0.00     0.041 A 
ATOM     89  F   UNL A   1      44.071  25.476  34.891  1.00  0.00    -0.206 F 
ATOM     90  C   UNL A   1      47.521  26.415  35.424  1.00  0.00     0.022 A 
BRANCH  87  91
ATOM     91  S   UNL A   1      49.237  28.283  34.269  1.00  0.00     0.124 S 
ATOM     92  O   UNL A   1      49.986  27.196  33.645  1.00  0.00    -0.237 OA
ATOM     93  O   UNL A   1      48.893  29.402  33.397  1.00  0.00    -0.237 OA
ATOM     94  O   UNL A   1      49.687  28.656  35.608  1.00  0.00    -0.744 OA
ENDBRANCH  87  91
ENDBRANCH  61  84
ENDBRANCH  35  36
ENDBRANCH  28  30
ENDBRANCH  27  28
ENDBRANCH  26  27
ENDBRANCH  25  26
ENDBRANCH  24  25
ENDBRANCH   1  24
TORSDOF 21
ENDMDL
MODEL 2
REMARK VINA RESULT:     -10.8      2.352      7.947
REMARK SMILES O=C(CC1(NC(=O)c2ccccc2[N+](=O)[O-])CCC1)OCCOCCOC(=O)c1ccc(-c2c3nc(c(-c4cc(S(=O)(=O)[O-])ccc4F)c4ccc([nH]4)c(-c4cc(S(=O)(=O)[O-])ccc4F)c4nc(c(-c5cc(S(=O)(=O)[O-])ccc5F)c5ccc2[nH]5)C=C4)C=C3)cc1
REMARK SMILES IDX 22 1 21 2 20 3 2 4 1 5 3 6 4 7 17 8 19 9 18 10 5 11 6 12
REMARK SMILES IDX 7 14 8 15 9 16 13 17 10 18 12 19 11 20 14 21 15 22 16 23
REMARK SMILES IDX 23 24 24 25 25 26 26 27 27 28 28 29 29 30 30 31 91 32 31 33
REMARK SMILES IDX 90 34 32 35 33 36 34 37 84 38 35 39 89 40 83 41 85 42 36 43
REMARK SMILES IDX 88 44 82 45 81 46 37 48 69 49 49 50 68 51 50 52 53 53 67 54
REMARK SMILES IDX 86 55 51 56 52 57 66 59 87 60 54 61 38 62 39 63 47 64 40 65
REMARK SMILES IDX 46 66 48 67 45 68 41 69 42 70 43 71 44 72 70 73 71 74 79 75
REMARK SMILES IDX 72 76 78 77 80 78 77 79 73 80 74 81 75 82 76 83 55 84 56 85
REMARK SMILES IDX 64 86 57 87 63 88 65 89 62 90 58 91 59 92 60 93 61 94
REMARK H PARENT 5 13 85 47 53 58
REMARK Flexibility Score: inf
ROOT
ATOM      1  C   UNL A   1      31.446  29.831  25.333  1.00  0.00     0.202 C 
ENDROOT
BRANCH   1   2
ATOM      2  C   UNL A   1      32.577  29.143  26.096  1.00  0.00     0.261 C 
BRANCH   2   3
ATOM      3  O   UNL A   1      32.623  27.730  25.836  1.00  0.00    -0.463 OA
BRANCH   3   4
ATOM      4  C   UNL A   1      31.524  26.954  25.876  1.00  0.00     0.308 C 
ATOM      5  O   UNL A   1      30.899  26.807  26.922  1.00  0.00    -0.252 OA
BRANCH   4   6
ATOM      6  C   UNL A   1      31.156  26.209  24.620  1.00  0.00     0.151 C 
BRANCH   6   7
ATOM      7  C   UNL A   1      31.749  24.822  24.534  1.00  0.00     0.051 C 
ATOM      8  C   UNL A   1      31.264  24.135  23.208  1.00  0.00     0.029 C 
ATOM      9  C   UNL A   1      33.190  24.755  23.948  1.00  0.00     0.029 C 
ATOM     10  C   UNL A   1      32.598  24.499  22.547  1.00  0.00     0.005 C 
BRANCH   7  11
ATOM     11  N   UNL A   1      31.509  23.974  25.730  1.00  0.00    -0.346 N 
ATOM     12  C   UNL A   1      32.271  23.165  26.552  1.00  0.00     0.258 C 
ATOM     13  H   UNL A   1      30.565  23.993  26.009  1.00  0.00     0.164 HD
ATOM     14  O   UNL A   1      31.770  22.790  27.614  1.00  0.00    -0.269 OA
BRANCH  12  15
ATOM     15  C   UNL A   1      33.543  22.511  26.184  1.00  0.00     0.117 A 
ATOM     16  C   UNL A   1      34.698  23.237  26.529  1.00  0.00     0.021 A 
ATOM     17  C   UNL A   1      33.706  21.476  25.256  1.00  0.00     0.282 A 
ATOM     18  C   UNL A   1      35.958  22.902  26.007  1.00  0.00     0.001 A 
ATOM     19  C   UNL A   1      34.975  21.093  24.773  1.00  0.00     0.086 A 
ATOM     20  C   UNL A   1      36.101  21.818  25.145  1.00  0.00     0.007 A 
BRANCH  17  21
ATOM     21  N   UNL A   1      32.594  20.761  24.677  1.00  0.00     0.063 N 
ATOM     22  O   UNL A   1      32.302  21.008  23.506  1.00  0.00    -0.258 OA
ATOM     23  O   UNL A   1      32.116  19.857  25.380  1.00  0.00    -0.258 OA
ENDBRANCH  17  21
ENDBRANCH  12  15
ENDBRANCH   7  11
ENDBRANCH   6   7
ENDBRANCH   4   6
ENDBRANCH   3   4
ENDBRANCH   2   3
ENDBRANCH   1   2
BRANCH   1  24
ATOM     24  O   UNL A   1      31.157  31.187  25.682  1.00  0.00    -0.374 OA
BRANCH  24  25
ATOM     25  C   UNL A   1      31.769  31.662  26.889  1.00  0.00     0.202 C 
BRANCH  25  26
ATOM     26  C   UNL A   1      31.812  33.166  27.205  1.00  0.00     0.261 C 
BRANCH  26  27
ATOM     27  O   UNL A   1      33.142  33.690  27.272  1.00  0.00    -0.460 OA
BRANCH  27  28
ATOM     28  C   UNL A   1      33.574  33.914  28.542  1.00  0.00     0.338 C 
ATOM     29  O   UNL A   1      32.923  34.392  29.450  1.00  0.00    -0.246 OA
BRANCH  28  30
ATOM     30  C   UNL A   1      34.863  33.209  28.740  1.00  0.00     0.060 A 
ATOM     31  C   UNL A   1      34.787  31.848  29.080  1.00  0.00     0.016 A 
ATOM     32  C   UNL A   1      36.101  33.817  28.520  1.00  0.00     0.016 A 
ATOM     33  C   UNL A   1      35.941  31.097  29.228  1.00  0.00     0.010 A 
ATOM     34  C   UNL A   1      37.268  33.077  28.725  1.00  0.00     0.010 A 
ATOM     35  C   UNL A   1      37.183  31.731  29.125  1.00  0.00    -0.014 A 
BRANCH  35  36
ATOM     36  C   UNL A   1      38.326  31.067  29.784  1.00  0.00     0.031 A 
ATOM     37  C   UNL A   1      38.575  31.424  31.224  1.00  0.00     0.074 A 
ATOM     38  C   UNL A   1      39.034  30.106  29.169  1.00  0.00     0.049 A 
ATOM     39  N   UNL A   1      39.466  30.962  32.058  1.00  0.00    -0.248 NA
ATOM     40  C   UNL A   1      37.681  32.444  31.800  1.00  0.00     0.031 C 
ATOM     41  C   UNL A   1      38.812  29.634  27.803  1.00  0.00     0.029 A 
ATOM     42  N   UNL A   1      40.074  29.345  29.628  1.00  0.00    -0.354 N 
ATOM     43  C   UNL A   1      39.239  31.634  33.255  1.00  0.00     0.074 A 
ATOM     44  C   UNL A   1      38.160  32.566  33.024  1.00  0.00     0.031 C 
ATOM     45  C   UNL A   1      39.698  28.659  27.535  1.00  0.00     0.029 A 
ATOM     46  C   UNL A   1      40.565  28.463  28.695  1.00  0.00     0.049 A 
ATOM     47  H   UNL A   1      40.438  29.422  30.540  1.00  0.00     0.167 HD
ATOM     48  C   UNL A   1      39.869  31.477  34.443  1.00  0.00     0.034 A 
ATOM     49  C   UNL A   1      41.608  27.614  28.776  1.00  0.00     0.034 A 
ATOM     50  C   UNL A   1      40.963  30.561  34.634  1.00  0.00     0.049 A 
ATOM     51  C   UNL A   1      42.377  27.539  30.074  1.00  0.00     0.074 A 
ATOM     52  C   UNL A   1      41.701  30.322  35.779  1.00  0.00     0.029 A 
ATOM     53  N   UNL A   1      41.491  29.742  33.641  1.00  0.00    -0.354 N 
ATOM     54  N   UNL A   1      42.167  28.184  31.201  1.00  0.00    -0.248 NA
ATOM     55  C   UNL A   1      43.516  26.615  30.114  1.00  0.00     0.031 C 
ATOM     56  C   UNL A   1      42.724  29.423  35.456  1.00  0.00     0.029 A 
ATOM     57  C   UNL A   1      42.568  29.026  34.137  1.00  0.00     0.049 A 
ATOM     58  H   UNL A   1      41.149  29.681  32.720  1.00  0.00     0.167 HD
ATOM     59  C   UNL A   1      43.127  27.713  32.095  1.00  0.00     0.074 A 
ATOM     60  C   UNL A   1      43.908  26.726  31.375  1.00  0.00     0.031 C 
ATOM     61  C   UNL A   1      43.340  28.055  33.393  1.00  0.00     0.034 A 
BRANCH  48  62
ATOM     62  C   UNL A   1      39.433  32.380  35.574  1.00  0.00     0.023 A 
ATOM     63  C   UNL A   1      39.995  33.656  35.768  1.00  0.00     0.031 A 
ATOM     64  C   UNL A   1      38.505  31.920  36.525  1.00  0.00     0.131 A 
ATOM     65  C   UNL A   1      39.698  34.382  36.932  1.00  0.00     0.055 A 
ATOM     66  C   UNL A   1      38.142  32.690  37.632  1.00  0.00     0.041 A 
ATOM     67  F   UNL A   1      37.960  30.699  36.414  1.00  0.00    -0.206 F 
ATOM     68  C   UNL A   1      38.754  33.920  37.851  1.00  0.00     0.022 A 
BRANCH  65  69
ATOM     69  S   UNL A   1      40.701  35.844  37.322  1.00  0.00     0.124 S 
ATOM     70  O   UNL A   1      39.682  36.787  37.779  1.00  0.00    -0.237 OA
ATOM     71  O   UNL A   1      41.610  35.340  38.345  1.00  0.00    -0.237 OA
ATOM     72  O   UNL A   1      41.324  36.184  36.045  1.00  0.00    -0.744 OA
ENDBRANCH  65  69
ENDBRANCH  48  62
BRANCH  49  73
ATOM     73  C   UNL A   1      42.005  26.795  27.597  1.00  0.00     0.023 A 
ATOM     74  C   UNL A   1      41.698  25.428  27.519  1.00  0.00     0.031 A 
ATOM     75  C   UNL A   1      42.735  27.367  26.538  1.00  0.00     0.131 A 
ATOM     76  C   UNL A   1      42.144  24.671  26.425  1.00  0.00     0.055 A 
ATOM     77  C   UNL A   1      43.134  26.621  25.427  1.00  0.00     0.041 A 
ATOM     78  F   UNL A   1      43.061  28.669  26.562  1.00  0.00    -0.206 F 
ATOM     79  C   UNL A   1      42.848  25.262  25.371  1.00  0.00     0.022 A 
BRANCH  76  80
ATOM     80  S   UNL A   1      41.854  22.880  26.428  1.00  0.00     0.124 S 
ATOM     81  O   UNL A   1      42.605  22.460  27.606  1.00  0.00    -0.237 OA
ATOM     82  O   UNL A   1      40.400  22.809  26.536  1.00  0.00    -0.237 OA
ATOM     83  O   UNL A   1      42.404  22.442  25.147  1.00  0.00    -0.744 OA
ENDBRANCH  76  80
ENDBRANCH  49  73
BRANCH  61  84
ATOM     84  C   UNL A   1      44.430  27.312  34.129  1.00  0.00     0.023 A 
ATOM     85  C   UNL A   1      44.205  26.060  34.726  1.00  0.00     0.031 A 
ATOM     86  C   UNL A   1      45.715  27.874  34.234  1.00  0.00     0.131 A 
ATOM     87  C   UNL A   1      45.231  25.440  35.455  1.00  0.00     0.055 A 
ATOM     88  C   UNL A   1      46.752  27.219  34.899  1.00  0.00     0.041 A 
ATOM     89  F   UNL A   1      45.988  29.068  33.685  1.00  0.00    -0.206 F 
ATOM     90  C   UNL A   1      46.508  26.001  35.528  1.00  0.00     0.022 A 
BRANCH  87  91
ATOM     91  S   UNL A   1      44.846  23.940  36.398  1.00  0.00     0.124 S 
ATOM     92  O   UNL A   1      44.460  24.488  37.694  1.00  0.00    -0.237 OA
ATOM     93  O   UNL A   1      43.769  23.345  35.612  1.00  0.00    -0.237 OA
ATOM     94  O   UNL A   1      46.104  23.196  36.389  1.00  0.00    -0.744 OA
ENDBRANCH  87  91
ENDBRANCH  61  84
ENDBRANCH  35  36
ENDBRANCH  28  30
ENDBRANCH  27  28
ENDBRANCH  26  27
ENDBRANCH  25  26
ENDBRANCH  24  25
ENDBRANCH   1  24
TORSDOF 21
ENDMDL
MODEL 3
REMARK VINA RESULT:     -10.7      1.867      7.809
REMARK SMILES O=C(CC1(NC(=O)c2ccccc2[N+](=O)[O-])CCC1)OCCOCCOC(=O)c1ccc(-c2c3nc(c(-c4cc(S(=O)(=O)[O-])ccc4F)c4ccc([nH]4)c(-c4cc(S(=O)(=O)[O-])ccc4F)c4nc(c(-c5cc(S(=O)(=O)[O-])ccc5F)c5ccc2[nH]5)C=C4)C=C3)cc1
REMARK SMILES IDX 22 1 21 2 20 3 2 4 1 5 3 6 4 7 17 8 19 9 18 10 5 11 6 12
REMARK SMILES IDX 7 14 8 15 9 16 13 17 10 18 12 19 11 20 14 21 15 22 16 23
REMARK SMILES IDX 23 24 24 25 25 26 26 27 27 28 28 29 29 30 30 31 91 32 31 33
REMARK SMILES IDX 90 34 32 35 33 36 34 37 84 38 35 39 89 40 83 41 85 42 36 43
REMARK SMILES IDX 88 44 82 45 81 46 37 48 69 49 49 50 68 51 50 52 53 53 67 54
REMARK SMILES IDX 86 55 51 56 52 57 66 59 87 60 54 61 38 62 39 63 47 64 40 65
REMARK SMILES IDX 46 66 48 67 45 68 41 69 42 70 43 71 44 72 70 73 71 74 79 75
REMARK SMILES IDX 72 76 78 77 80 78 77 79 73 80 74 81 75 82 76 83 55 84 56 85
REMARK SMILES IDX 64 86 57 87 63 88 65 89 62 90 58 91 59 92 60 93 61 94
REMARK H PARENT 5 13 85 47 53 58
REMARK Flexibility Score: inf
ROOT
ATOM      1  C   UNL A   1      31.823  29.615  25.033  1.00  0.00     0.202 C 
ENDROOT
BRANCH   1   2
ATOM      2  C   UNL A   1      33.063  29.018  25.700  1.00  0.00     0.261 C 
BRANCH   2   3
ATOM      3  O   UNL A   1      32.836  27.676  26.160  1.00  0.00    -0.463 OA
BRANCH   3   4
ATOM      4  C   UNL A   1      31.616  27.232  26.517  1.00  0.00     0.308 C 
ATOM      5  O   UNL A   1      31.156  27.490  27.624  1.00  0.00    -0.252 OA
BRANCH   4   6
ATOM      6  C   UNL A   1      30.893  26.338  25.544  1.00  0.00     0.151 C 
BRANCH   6   7
ATOM      7  C   UNL A   1      31.594  25.027  25.278  1.00  0.00     0.051 C 
ATOM      8  C   UNL A   1      32.000  24.372  26.646  1.00  0.00     0.029 C 
ATOM      9  C   UNL A   1      30.650  23.806  25.066  1.00  0.00     0.029 C 
ATOM     10  C   UNL A   1      30.767  23.468  26.566  1.00  0.00     0.005 C 
BRANCH   7  11
ATOM     11  N   UNL A   1      32.736  25.119  24.333  1.00  0.00    -0.346 N 
ATOM     12  C   UNL A   1      33.377  24.269  23.451  1.00  0.00     0.258 C 
ATOM     13  H   UNL A   1      33.141  26.016  24.334  1.00  0.00     0.164 HD
ATOM     14  O   UNL A   1      34.161  24.765  22.640  1.00  0.00    -0.269 OA
BRANCH  12  15
ATOM     15  C   UNL A   1      33.395  22.794  23.531  1.00  0.00     0.117 A 
ATOM     16  C   UNL A   1      32.462  22.150  22.698  1.00  0.00     0.021 A 
ATOM     17  C   UNL A   1      33.957  22.025  24.557  1.00  0.00     0.282 A 
ATOM     18  C   UNL A   1      32.154  20.788  22.857  1.00  0.00     0.001 A 
ATOM     19  C   UNL A   1      33.701  20.644  24.686  1.00  0.00     0.086 A 
ATOM     20  C   UNL A   1      32.788  20.029  23.837  1.00  0.00     0.007 A 
BRANCH  17  21
ATOM     21  N   UNL A   1      34.792  22.589  25.590  1.00  0.00     0.063 N 
ATOM     22  O   UNL A   1      35.061  21.876  26.559  1.00  0.00    -0.258 OA
ATOM     23  O   UNL A   1      35.275  23.703  25.339  1.00  0.00    -0.258 OA
ENDBRANCH  17  21
ENDBRANCH  12  15
ENDBRANCH   7  11
ENDBRANCH   6   7
ENDBRANCH   4   6
ENDBRANCH   3   4
ENDBRANCH   2   3
ENDBRANCH   1   2
BRANCH   1  24
ATOM     24  O   UNL A   1      31.245  30.768  25.649  1.00  0.00    -0.374 OA
BRANCH  24  25
ATOM     25  C   UNL A   1      31.973  31.311  26.758  1.00  0.00     0.202 C 
BRANCH  25  26
ATOM     26  C   UNL A   1      31.781  32.777  27.179  1.00  0.00     0.261 C 
BRANCH  26  27
ATOM     27  O   UNL A   1      32.992  33.537  27.144  1.00  0.00    -0.460 OA
BRANCH  27  28
ATOM     28  C   UNL A   1      33.464  33.863  28.377  1.00  0.00     0.338 C 
ATOM     29  O   UNL A   1      32.849  34.429  29.258  1.00  0.00    -0.246 OA
BRANCH  28  30
ATOM     30  C   UNL A   1      34.747  33.153  28.600  1.00  0.00     0.060 A 
ATOM     31  C   UNL A   1      34.658  31.799  28.965  1.00  0.00     0.016 A 
ATOM     32  C   UNL A   1      35.992  33.747  28.380  1.00  0.00     0.016 A 
ATOM     33  C   UNL A   1      35.806  31.043  29.137  1.00  0.00     0.010 A 
ATOM     34  C   UNL A   1      37.151  33.003  28.610  1.00  0.00     0.010 A 
ATOM     35  C   UNL A   1      37.053  31.666  29.034  1.00  0.00    -0.014 A 
BRANCH  35  36
ATOM     36  C   UNL A   1      38.185  31.006  29.716  1.00  0.00     0.031 A 
ATOM     37  C   UNL A   1      38.385  31.341  31.169  1.00  0.00     0.074 A 
ATOM     38  C   UNL A   1      38.925  30.067  29.106  1.00  0.00     0.049 A 
ATOM     39  N   UNL A   1      39.258  30.877  32.021  1.00  0.00    -0.248 NA
ATOM     40  C   UNL A   1      37.460  32.338  31.735  1.00  0.00     0.031 C 
ATOM     41  C   UNL A   1      38.751  29.616  27.726  1.00  0.00     0.029 A 
ATOM     42  N   UNL A   1      39.962  29.312  29.583  1.00  0.00    -0.354 N 
ATOM     43  C   UNL A   1      38.985  31.525  33.222  1.00  0.00     0.074 A 
ATOM     44  C   UNL A   1      37.900  32.446  32.975  1.00  0.00     0.031 C 
ATOM     45  C   UNL A   1      39.659  28.658  27.468  1.00  0.00     0.029 A 
ATOM     46  C   UNL A   1      40.494  28.454  28.650  1.00  0.00     0.049 A 
ATOM     47  H   UNL A   1      40.297  29.378  30.507  1.00  0.00     0.167 HD
ATOM     48  C   UNL A   1      39.582  31.356  34.426  1.00  0.00     0.034 A 
ATOM     49  C   UNL A   1      41.546  27.619  28.748  1.00  0.00     0.034 A 
ATOM     50  C   UNL A   1      40.683  30.452  34.634  1.00  0.00     0.049 A 
ATOM     51  C   UNL A   1      42.277  27.531  30.068  1.00  0.00     0.074 A 
ATOM     52  C   UNL A   1      41.389  30.203  35.796  1.00  0.00     0.029 A 
ATOM     53  N   UNL A   1      41.252  29.658  33.644  1.00  0.00    -0.354 N 
ATOM     54  N   UNL A   1      42.023  28.152  31.199  1.00  0.00    -0.248 NA
ATOM     55  C   UNL A   1      43.427  26.622  30.126  1.00  0.00     0.031 C 
ATOM     56  C   UNL A   1      42.434  29.325  35.489  1.00  0.00     0.029 A 
ATOM     57  C   UNL A   1      42.324  28.949  34.159  1.00  0.00     0.049 A 
ATOM     58  H   UNL A   1      40.939  29.608  32.712  1.00  0.00     0.167 HD
ATOM     59  C   UNL A   1      42.963  27.680  32.113  1.00  0.00     0.074 A 
ATOM     60  C   UNL A   1      43.779  26.717  31.400  1.00  0.00     0.031 C 
ATOM     61  C   UNL A   1      43.132  28.002  33.422  1.00  0.00     0.034 A 
BRANCH  48  62
ATOM     62  C   UNL A   1      39.098  32.232  35.559  1.00  0.00     0.023 A 
ATOM     63  C   UNL A   1      39.533  33.563  35.708  1.00  0.00     0.031 A 
ATOM     64  C   UNL A   1      38.262  31.699  36.554  1.00  0.00     0.131 A 
ATOM     65  C   UNL A   1      39.208  34.279  36.870  1.00  0.00     0.055 A 
ATOM     66  C   UNL A   1      37.864  32.451  37.662  1.00  0.00     0.041 A 
ATOM     67  F   UNL A   1      37.842  30.427  36.486  1.00  0.00    -0.206 F 
ATOM     68  C   UNL A   1      38.353  33.742  37.835  1.00  0.00     0.022 A 
BRANCH  65  69
ATOM     69  S   UNL A   1      40.068  35.844  37.195  1.00  0.00     0.124 S 
ATOM     70  O   UNL A   1      41.465  35.418  37.197  1.00  0.00    -0.237 OA
ATOM     71  O   UNL A   1      39.654  36.671  36.066  1.00  0.00    -0.237 OA
ATOM     72  O   UNL A   1      39.549  36.258  38.497  1.00  0.00    -0.744 OA
ENDBRANCH  65  69
ENDBRANCH  48  62
BRANCH  49  73
ATOM     73  C   UNL A   1      41.990  26.826  27.567  1.00  0.00     0.023 A 
ATOM     74  C   UNL A   1      41.755  25.445  27.484  1.00  0.00     0.031 A 
ATOM     75  C   UNL A   1      42.693  27.439  26.513  1.00  0.00     0.131 A 
ATOM     76  C   UNL A   1      42.246  24.716  26.388  1.00  0.00     0.055 A 
ATOM     77  C   UNL A   1      43.134  26.720  25.402  1.00  0.00     0.041 A 
ATOM     78  F   UNL A   1      42.950  28.757  26.544  1.00  0.00    -0.206 F 
ATOM     79  C   UNL A   1      42.921  25.347  25.340  1.00  0.00     0.022 A 
BRANCH  76  80
ATOM     80  S   UNL A   1      42.050  22.912  26.384  1.00  0.00     0.124 S 
ATOM     81  O   UNL A   1      42.400  22.580  25.008  1.00  0.00    -0.237 OA
ATOM     82  O   UNL A   1      43.007  22.502  27.406  1.00  0.00    -0.237 OA
ATOM     83  O   UNL A   1      40.645  22.720  26.735  1.00  0.00    -0.744 OA
ENDBRANCH  76  80
ENDBRANCH  49  73
BRANCH  61  84
ATOM     84  C   UNL A   1      44.210  27.261  34.178  1.00  0.00     0.023 A 
ATOM     85  C   UNL A   1      45.521  27.755  34.280  1.00  0.00     0.031 A 
ATOM     86  C   UNL A   1      43.913  26.036  34.803  1.00  0.00     0.131 A 
ATOM     87  C   UNL A   1      46.503  26.998  34.938  1.00  0.00     0.055 A 
ATOM     88  C   UNL A   1      44.877  25.322  35.517  1.00  0.00     0.041 A 
ATOM     89  F   UNL A   1      42.678  25.515  34.738  1.00  0.00    -0.206 F 
ATOM     90  C   UNL A   1      46.184  25.796  35.573  1.00  0.00     0.022 A 
BRANCH  87  91
ATOM     91  S   UNL A   1      48.228  27.552  34.860  1.00  0.00     0.124 S 
ATOM     92  O   UNL A   1      48.571  27.670  36.273  1.00  0.00    -0.237 OA
ATOM     93  O   UNL A   1      48.873  26.462  34.136  1.00  0.00    -0.237 OA
ATOM     94  O   UNL A   1      48.149  28.818  34.134  1.00  0.00    -0.744 OA
ENDBRANCH  87  91
ENDBRANCH  61  84
ENDBRANCH  35  36
ENDBRANCH  28  30
ENDBRANCH  27  28
ENDBRANCH  26  27
ENDBRANCH  25  26
ENDBRANCH  24  25
ENDBRANCH   1  24
TORSDOF 21
ENDMDL
