MODEL 1
REMARK VINA RESULT:      -9.6      0.000      0.000
REMARK SMILES CCN(C(=O)[C@H]1C=C[C@@H]([NH3+])C1)[C@H](C)CC(=O)OCCOCCOC(=O)c1ccc(-c2c3nc(c(-c4cc(S(=O)(=O)[O-])ccc4F)c4ccc([nH]4)c(-c4cc(S(=O)(=O)[O-])ccc4F)c4nc(c(-c5cc(S(=O)(=O)[O-])ccc5F)c5ccc2[nH]5)C=C4)C=C3)cc1
REMARK SMILES IDX 19 1 18 2 17 3 15 4 16 5 14 6 12 7 13 8 3 9 2 10 1 11 4 12
REMARK SMILES IDX 5 13 6 14 7 15 11 16 8 17 9 18 10 19 20 23 21 24 22 25 23 26
REMARK SMILES IDX 24 27 25 28 26 29 27 30 88 31 28 32 87 33 29 34 30 35 31 36
REMARK SMILES IDX 81 37 32 38 86 39 80 40 82 41 33 42 85 43 79 44 78 45 34 47
REMARK SMILES IDX 66 48 46 49 65 50 47 51 50 52 64 53 83 54 48 55 49 56 63 58
REMARK SMILES IDX 84 59 51 60 35 61 36 62 44 63 37 64 43 65 45 66 42 67 38 68
REMARK SMILES IDX 39 69 40 70 41 71 67 72 68 73 76 74 69 75 75 76 77 77 74 78
REMARK SMILES IDX 70 79 71 80 72 81 73 82 52 83 53 84 61 85 54 86 60 87 62 88
REMARK SMILES IDX 59 89 55 90 56 91 57 92 58 93
REMARK H PARENT 10 20 10 21 10 22 82 46 50 57
REMARK Flexibility Score: inf
ROOT
ATOM      1  C   UNL A   1      31.487  28.324  23.776  1.00  0.00     0.202 C 
ENDROOT
BRANCH   1   2
ATOM      2  C   UNL A   1      30.726  27.161  23.128  1.00  0.00     0.261 C 
BRANCH   2   3
ATOM      3  O   UNL A   1      29.723  26.647  24.031  1.00  0.00    -0.463 OA
BRANCH   3   4
ATOM      4  C   UNL A   1      30.116  25.764  24.982  1.00  0.00     0.307 C 
ATOM      5  O   UNL A   1      29.902  25.886  26.180  1.00  0.00    -0.252 OA
BRANCH   4   6
ATOM      6  C   UNL A   1      30.907  24.616  24.385  1.00  0.00     0.147 C 
BRANCH   6   7
ATOM      7  C   UNL A   1      32.054  24.068  25.268  1.00  0.00     0.093 C 
ATOM      8  C   UNL A   1      31.924  22.553  25.491  1.00  0.00     0.031 C 
BRANCH   7   9
ATOM      9  N   UNL A   1      33.378  24.504  24.714  1.00  0.00    -0.339 N 
BRANCH   9  10
ATOM     10  C   UNL A   1      33.750  25.929  24.740  1.00  0.00     0.116 C 
ATOM     11  C   UNL A   1      33.616  26.546  26.127  1.00  0.00     0.027 C 
ENDBRANCH   9  10
BRANCH   9  12
ATOM     12  C   UNL A   1      34.183  23.499  24.151  1.00  0.00     0.229 C 
ATOM     13  O   UNL A   1      34.048  23.168  22.968  1.00  0.00    -0.274 OA
BRANCH  12  14
ATOM     14  C   UNL A   1      35.201  22.771  25.046  1.00  0.00     0.107 C 
ATOM     15  C   UNL A   1      36.137  21.901  24.246  1.00  0.00    -0.012 C 
ATOM     16  C   UNL A   1      36.183  23.731  25.726  1.00  0.00     0.087 C 
ATOM     17  C   UNL A   1      37.396  21.991  24.691  1.00  0.00     0.033 C 
ATOM     18  C   UNL A   1      37.496  22.941  25.838  1.00  0.00     0.205 C 
BRANCH  18  19
ATOM     19  N   UNL A   1      38.661  23.798  25.749  1.00  0.00    -0.352 N 
ATOM     20  H   UNL A   1      38.761  24.138  24.792  1.00  0.00     0.345 HD
ATOM     21  H   UNL A   1      39.493  23.269  26.011  1.00  0.00     0.345 HD
ATOM     22  H   UNL A   1      38.550  24.590  26.382  1.00  0.00     0.345 HD
ENDBRANCH  18  19
ENDBRANCH  12  14
ENDBRANCH   9  12
ENDBRANCH   7   9
ENDBRANCH   6   7
ENDBRANCH   4   6
ENDBRANCH   3   4
ENDBRANCH   2   3
ENDBRANCH   1   2
BRANCH   1  23
ATOM     23  O   UNL A   1      30.798  28.974  24.848  1.00  0.00    -0.374 OA
BRANCH  23  24
ATOM     24  C   UNL A   1      31.349  30.209  25.297  1.00  0.00     0.202 C 
BRANCH  24  25
ATOM     25  C   UNL A   1      32.799  30.145  25.795  1.00  0.00     0.261 C 
BRANCH  25  26
ATOM     26  O   UNL A   1      32.902  30.420  27.205  1.00  0.00    -0.460 OA
BRANCH  26  27
ATOM     27  C   UNL A   1      33.658  31.501  27.513  1.00  0.00     0.338 C 
ATOM     28  O   UNL A   1      33.277  32.664  27.580  1.00  0.00    -0.246 OA
BRANCH  27  29
ATOM     29  C   UNL A   1      35.010  31.088  27.934  1.00  0.00     0.060 A 
ATOM     30  C   UNL A   1      35.177  29.757  28.340  1.00  0.00     0.016 A 
ATOM     31  C   UNL A   1      36.081  31.984  28.005  1.00  0.00     0.016 A 
ATOM     32  C   UNL A   1      36.396  29.331  28.864  1.00  0.00     0.010 A 
ATOM     33  C   UNL A   1      37.305  31.554  28.537  1.00  0.00     0.010 A 
ATOM     34  C   UNL A   1      37.460  30.234  29.000  1.00  0.00    -0.014 A 
BRANCH  34  35
ATOM     35  C   UNL A   1      38.671  29.825  29.759  1.00  0.00     0.031 A 
ATOM     36  C   UNL A   1      39.590  28.788  29.167  1.00  0.00     0.074 A 
ATOM     37  C   UNL A   1      38.984  30.409  30.931  1.00  0.00     0.049 A 
ATOM     38  N   UNL A   1      40.679  28.260  29.665  1.00  0.00    -0.248 NA
ATOM     39  C   UNL A   1      39.231  28.280  27.833  1.00  0.00     0.031 C 
ATOM     40  C   UNL A   1      38.207  31.464  31.580  1.00  0.00     0.029 A 
ATOM     41  N   UNL A   1      40.038  30.197  31.785  1.00  0.00    -0.354 N 
ATOM     42  C   UNL A   1      41.143  27.367  28.703  1.00  0.00     0.074 A 
ATOM     43  C   UNL A   1      40.189  27.392  27.615  1.00  0.00     0.031 C 
ATOM     44  C   UNL A   1      38.806  31.799  32.738  1.00  0.00     0.029 A 
ATOM     45  C   UNL A   1      39.985  30.957  32.932  1.00  0.00     0.049 A 
ATOM     46  H   UNL A   1      40.764  29.559  31.595  1.00  0.00     0.167 HD
ATOM     47  C   UNL A   1      42.268  26.611  28.718  1.00  0.00     0.034 A 
ATOM     48  C   UNL A   1      40.780  30.953  34.023  1.00  0.00     0.034 A 
ATOM     49  C   UNL A   1      43.206  26.582  29.813  1.00  0.00     0.049 A 
ATOM     50  C   UNL A   1      41.973  30.023  34.060  1.00  0.00     0.074 A 
ATOM     51  C   UNL A   1      44.364  25.832  29.938  1.00  0.00     0.029 A 
ATOM     52  N   UNL A   1      43.096  27.333  30.976  1.00  0.00    -0.354 N 
ATOM     53  N   UNL A   1      42.390  29.176  33.147  1.00  0.00    -0.248 NA
ATOM     54  C   UNL A   1      42.808  30.059  35.269  1.00  0.00     0.031 C 
ATOM     55  C   UNL A   1      44.918  26.083  31.198  1.00  0.00     0.029 A 
ATOM     56  C   UNL A   1      44.150  27.048  31.829  1.00  0.00     0.049 A 
ATOM     57  H   UNL A   1      42.375  27.975  31.165  1.00  0.00     0.167 HD
ATOM     58  C   UNL A   1      43.556  28.609  33.660  1.00  0.00     0.074 A 
ATOM     59  C   UNL A   1      43.783  29.222  34.951  1.00  0.00     0.031 C 
ATOM     60  C   UNL A   1      44.368  27.668  33.114  1.00  0.00     0.034 A 
BRANCH  47  61
ATOM     61  C   UNL A   1      42.525  25.726  27.524  1.00  0.00     0.023 A 
ATOM     62  C   UNL A   1      42.116  24.382  27.502  1.00  0.00     0.031 A 
ATOM     63  C   UNL A   1      43.192  26.231  26.394  1.00  0.00     0.131 A 
ATOM     64  C   UNL A   1      42.422  23.575  26.397  1.00  0.00     0.055 A 
ATOM     65  C   UNL A   1      43.431  25.443  25.267  1.00  0.00     0.041 A 
ATOM     66  F   UNL A   1      43.627  27.501  26.368  1.00  0.00    -0.206 F 
ATOM     67  C   UNL A   1      43.055  24.103  25.268  1.00  0.00     0.022 A 
BRANCH  64  68
ATOM     68  S   UNL A   1      42.085  21.797  26.498  1.00  0.00     0.124 S 
ATOM     69  O   UNL A   1      40.673  21.744  26.125  1.00  0.00    -0.237 OA
ATOM     70  O   UNL A   1      43.022  21.240  25.530  1.00  0.00    -0.237 OA
ATOM     71  O   UNL A   1      42.366  21.474  27.896  1.00  0.00    -0.744 OA
ENDBRANCH  64  68
ENDBRANCH  47  61
BRANCH  48  72
ATOM     72  C   UNL A   1      40.458  31.808  35.205  1.00  0.00     0.023 A 
ATOM     73  C   UNL A   1      39.480  31.429  36.137  1.00  0.00     0.031 A 
ATOM     74  C   UNL A   1      41.061  33.070  35.362  1.00  0.00     0.131 A 
ATOM     75  C   UNL A   1      39.082  32.329  37.140  1.00  0.00     0.055 A 
ATOM     76  C   UNL A   1      40.710  33.933  36.401  1.00  0.00     0.041 A 
ATOM     77  F   UNL A   1      42.001  33.487  34.499  1.00  0.00    -0.206 F 
ATOM     78  C   UNL A   1      39.700  33.572  37.287  1.00  0.00     0.022 A 
BRANCH  75  79
ATOM     79  S   UNL A   1      37.651  31.902  38.170  1.00  0.00     0.124 S 
ATOM     80  O   UNL A   1      36.674  32.900  37.748  1.00  0.00    -0.237 OA
ATOM     81  O   UNL A   1      37.383  30.528  37.760  1.00  0.00    -0.237 OA
ATOM     82  O   UNL A   1      38.155  32.058  39.533  1.00  0.00    -0.744 OA
ENDBRANCH  75  79
ENDBRANCH  48  72
BRANCH  60  83
ATOM     83  C   UNL A   1      45.607  27.291  33.889  1.00  0.00     0.023 A 
ATOM     84  C   UNL A   1      45.620  26.219  34.797  1.00  0.00     0.031 A 
ATOM     85  C   UNL A   1      46.794  28.027  33.720  1.00  0.00     0.131 A 
ATOM     86  C   UNL A   1      46.776  25.947  35.544  1.00  0.00     0.055 A 
ATOM     87  C   UNL A   1      47.960  27.715  34.421  1.00  0.00     0.041 A 
ATOM     88  F   UNL A   1      46.841  29.063  32.866  1.00  0.00    -0.206 F 
ATOM     89  C   UNL A   1      47.951  26.679  35.350  1.00  0.00     0.022 A 
BRANCH  86  90
ATOM     90  S   UNL A   1      46.701  24.678  36.839  1.00  0.00     0.124 S 
ATOM     91  O   UNL A   1      45.271  24.399  36.907  1.00  0.00    -0.237 OA
ATOM     92  O   UNL A   1      47.532  23.616  36.282  1.00  0.00    -0.237 OA
ATOM     93  O   UNL A   1      47.260  25.350  38.011  1.00  0.00    -0.744 OA
ENDBRANCH  86  90
ENDBRANCH  60  83
ENDBRANCH  34  35
ENDBRANCH  27  29
ENDBRANCH  26  27
ENDBRANCH  25  26
ENDBRANCH  24  25
ENDBRANCH  23  24
ENDBRANCH   1  23
TORSDOF 23
ENDMDL
MODEL 2
REMARK VINA RESULT:      -9.6      2.049      2.605
REMARK SMILES CCN(C(=O)[C@H]1C=C[C@@H]([NH3+])C1)[C@H](C)CC(=O)OCCOCCOC(=O)c1ccc(-c2c3nc(c(-c4cc(S(=O)(=O)[O-])ccc4F)c4ccc([nH]4)c(-c4cc(S(=O)(=O)[O-])ccc4F)c4nc(c(-c5cc(S(=O)(=O)[O-])ccc5F)c5ccc2[nH]5)C=C4)C=C3)cc1
REMARK SMILES IDX 19 1 18 2 17 3 15 4 16 5 14 6 12 7 13 8 3 9 2 10 1 11 4 12
REMARK SMILES IDX 5 13 6 14 7 15 11 16 8 17 9 18 10 19 20 23 21 24 22 25 23 26
REMARK SMILES IDX 24 27 25 28 26 29 27 30 88 31 28 32 87 33 29 34 30 35 31 36
REMARK SMILES IDX 81 37 32 38 86 39 80 40 82 41 33 42 85 43 79 44 78 45 34 47
REMARK SMILES IDX 66 48 46 49 65 50 47 51 50 52 64 53 83 54 48 55 49 56 63 58
REMARK SMILES IDX 84 59 51 60 35 61 36 62 44 63 37 64 43 65 45 66 42 67 38 68
REMARK SMILES IDX 39 69 40 70 41 71 67 72 68 73 76 74 69 75 75 76 77 77 74 78
REMARK SMILES IDX 70 79 71 80 72 81 73 82 52 83 53 84 61 85 54 86 60 87 62 88
REMARK SMILES IDX 59 89 55 90 56 91 57 92 58 93
REMARK H PARENT 10 20 10 21 10 22 82 46 50 57
REMARK Flexibility Score: inf
ROOT
ATOM      1  C   UNL A   1      30.237  27.589  23.933  1.00  0.00     0.202 C 
ENDROOT
BRANCH   1   2
ATOM      2  C   UNL A   1      31.052  27.147  22.710  1.00  0.00     0.261 C 
BRANCH   2   3
ATOM      3  O   UNL A   1      31.813  25.958  23.013  1.00  0.00    -0.463 OA
BRANCH   3   4
ATOM      4  C   UNL A   1      33.105  25.908  22.604  1.00  0.00     0.307 C 
ATOM      5  O   UNL A   1      33.626  26.704  21.834  1.00  0.00    -0.252 OA
BRANCH   4   6
ATOM      6  C   UNL A   1      33.825  24.703  23.179  1.00  0.00     0.147 C 
BRANCH   6   7
ATOM      7  C   UNL A   1      32.941  23.457  23.427  1.00  0.00     0.093 C 
ATOM      8  C   UNL A   1      32.928  22.520  22.209  1.00  0.00     0.031 C 
BRANCH   7   9
ATOM      9  N   UNL A   1      33.340  22.798  24.714  1.00  0.00    -0.339 N 
BRANCH   9  10
ATOM     10  C   UNL A   1      33.333  23.572  25.968  1.00  0.00     0.116 C 
ATOM     11  C   UNL A   1      32.106  23.287  26.826  1.00  0.00     0.027 C 
ENDBRANCH   9  10
BRANCH   9  12
ATOM     12  C   UNL A   1      33.746  21.454  24.631  1.00  0.00     0.229 C 
ATOM     13  O   UNL A   1      34.914  21.163  24.347  1.00  0.00    -0.274 OA
BRANCH  12  14
ATOM     14  C   UNL A   1      32.701  20.345  24.841  1.00  0.00     0.107 C 
ATOM     15  C   UNL A   1      32.637  19.399  23.669  1.00  0.00    -0.012 C 
ATOM     16  C   UNL A   1      33.072  19.392  25.983  1.00  0.00     0.087 C 
ATOM     17  C   UNL A   1      32.523  18.126  24.068  1.00  0.00     0.033 C 
ATOM     18  C   UNL A   1      32.510  18.027  25.557  1.00  0.00     0.205 C 
BRANCH  18  19
ATOM     19  N   UNL A   1      33.315  16.926  26.047  1.00  0.00    -0.352 N 
ATOM     20  H   UNL A   1      33.132  16.786  27.040  1.00  0.00     0.345 HD
ATOM     21  H   UNL A   1      34.303  17.141  25.910  1.00  0.00     0.345 HD
ATOM     22  H   UNL A   1      33.079  16.077  25.533  1.00  0.00     0.345 HD
ENDBRANCH  18  19
ENDBRANCH  12  14
ENDBRANCH   9  12
ENDBRANCH   7   9
ENDBRANCH   6   7
ENDBRANCH   4   6
ENDBRANCH   3   4
ENDBRANCH   2   3
ENDBRANCH   1   2
BRANCH   1  23
ATOM     23  O   UNL A   1      30.972  28.331  24.911  1.00  0.00    -0.374 OA
BRANCH  23  24
ATOM     24  C   UNL A   1      31.316  29.669  24.563  1.00  0.00     0.202 C 
BRANCH  24  25
ATOM     25  C   UNL A   1      31.390  30.659  25.733  1.00  0.00     0.261 C 
BRANCH  25  26
ATOM     26  O   UNL A   1      32.529  30.415  26.580  1.00  0.00    -0.460 OA
BRANCH  26  27
ATOM     27  C   UNL A   1      33.092  31.531  27.101  1.00  0.00     0.338 C 
ATOM     28  O   UNL A   1      32.548  32.618  27.263  1.00  0.00    -0.246 OA
BRANCH  27  29
ATOM     29  C   UNL A   1      34.441  31.238  27.622  1.00  0.00     0.060 A 
ATOM     30  C   UNL A   1      34.743  29.900  27.905  1.00  0.00     0.016 A 
ATOM     31  C   UNL A   1      35.372  32.243  27.901  1.00  0.00     0.016 A 
ATOM     32  C   UNL A   1      35.952  29.566  28.512  1.00  0.00     0.010 A 
ATOM     33  C   UNL A   1      36.586  31.905  28.516  1.00  0.00     0.010 A 
ATOM     34  C   UNL A   1      36.869  30.569  28.855  1.00  0.00    -0.014 A 
BRANCH  34  35
ATOM     35  C   UNL A   1      38.046  30.224  29.696  1.00  0.00     0.031 A 
ATOM     36  C   UNL A   1      39.073  29.263  29.157  1.00  0.00     0.074 A 
ATOM     37  C   UNL A   1      38.232  30.802  30.898  1.00  0.00     0.049 A 
ATOM     38  N   UNL A   1      40.156  28.797  29.727  1.00  0.00    -0.248 NA
ATOM     39  C   UNL A   1      38.848  28.761  27.792  1.00  0.00     0.031 C 
ATOM     40  C   UNL A   1      37.341  31.790  31.504  1.00  0.00     0.029 A 
ATOM     41  N   UNL A   1      39.233  30.641  31.825  1.00  0.00    -0.354 N 
ATOM     42  C   UNL A   1      40.748  27.958  28.788  1.00  0.00     0.074 A 
ATOM     43  C   UNL A   1      39.877  27.943  27.632  1.00  0.00     0.031 C 
ATOM     44  C   UNL A   1      37.829  32.138  32.709  1.00  0.00     0.029 A 
ATOM     45  C   UNL A   1      39.045  31.371  32.977  1.00  0.00     0.049 A 
ATOM     46  H   UNL A   1      40.012  30.057  31.679  1.00  0.00     0.167 HD
ATOM     47  C   UNL A   1      41.917  27.276  28.874  1.00  0.00     0.034 A 
ATOM     48  C   UNL A   1      39.755  31.396  34.124  1.00  0.00     0.034 A 
ATOM     49  C   UNL A   1      42.772  27.286  30.035  1.00  0.00     0.049 A 
ATOM     50  C   UNL A   1      41.002  30.546  34.234  1.00  0.00     0.074 A 
ATOM     51  C   UNL A   1      43.965  26.610  30.234  1.00  0.00     0.029 A 
ATOM     52  N   UNL A   1      42.527  28.002  31.199  1.00  0.00    -0.354 N 
ATOM     53  N   UNL A   1      41.541  29.748  33.341  1.00  0.00    -0.248 NA
ATOM     54  C   UNL A   1      41.742  30.611  35.503  1.00  0.00     0.031 C 
ATOM     55  C   UNL A   1      44.407  26.870  31.535  1.00  0.00     0.029 A 
ATOM     56  C   UNL A   1      43.532  27.769  32.124  1.00  0.00     0.049 A 
ATOM     57  H   UNL A   1      41.752  28.592  31.345  1.00  0.00     0.167 HD
ATOM     58  C   UNL A   1      42.702  29.248  33.931  1.00  0.00     0.074 A 
ATOM     59  C   UNL A   1      42.792  29.847  35.245  1.00  0.00     0.031 C 
ATOM     60  C   UNL A   1      43.613  28.374  33.431  1.00  0.00     0.034 A 
BRANCH  47  61
ATOM     61  C   UNL A   1      42.320  26.436  27.688  1.00  0.00     0.023 A 
ATOM     62  C   UNL A   1      41.923  25.093  27.568  1.00  0.00     0.031 A 
ATOM     63  C   UNL A   1      43.115  26.983  26.665  1.00  0.00     0.131 A 
ATOM     64  C   UNL A   1      42.365  24.327  26.479  1.00  0.00     0.055 A 
ATOM     65  C   UNL A   1      43.491  26.236  25.547  1.00  0.00     0.041 A 
ATOM     66  F   UNL A   1      43.543  28.254  26.738  1.00  0.00    -0.206 F 
ATOM     67  C   UNL A   1      43.125  24.897  25.454  1.00  0.00     0.022 A 
BRANCH  64  68
ATOM     68  S   UNL A   1      42.026  22.547  26.475  1.00  0.00     0.124 S 
ATOM     69  O   UNL A   1      42.872  22.089  25.375  1.00  0.00    -0.237 OA
ATOM     70  O   UNL A   1      42.444  22.142  27.812  1.00  0.00    -0.237 OA
ATOM     71  O   UNL A   1      40.589  22.471  26.220  1.00  0.00    -0.744 OA
ENDBRANCH  64  68
ENDBRANCH  47  61
BRANCH  48  72
ATOM     72  C   UNL A   1      39.291  32.203  35.292  1.00  0.00     0.023 A 
ATOM     73  C   UNL A   1      39.704  33.533  35.472  1.00  0.00     0.031 A 
ATOM     74  C   UNL A   1      38.503  31.618  36.300  1.00  0.00     0.131 A 
ATOM     75  C   UNL A   1      39.388  34.209  36.662  1.00  0.00     0.055 A 
ATOM     76  C   UNL A   1      38.135  32.317  37.451  1.00  0.00     0.041 A 
ATOM     77  F   UNL A   1      38.081  30.349  36.184  1.00  0.00    -0.206 F 
ATOM     78  C   UNL A   1      38.596  33.615  37.646  1.00  0.00     0.022 A 
BRANCH  75  79
ATOM     79  S   UNL A   1      40.142  35.832  36.964  1.00  0.00     0.124 S 
ATOM     80  O   UNL A   1      39.708  36.583  35.790  1.00  0.00    -0.237 OA
ATOM     81  O   UNL A   1      39.534  36.216  38.232  1.00  0.00    -0.237 OA
ATOM     82  O   UNL A   1      41.572  35.536  37.022  1.00  0.00    -0.744 OA
ENDBRANCH  75  79
ENDBRANCH  48  72
BRANCH  60  83
ATOM     83  C   UNL A   1      44.815  28.063  34.291  1.00  0.00     0.023 A 
ATOM     84  C   UNL A   1      44.898  26.888  35.056  1.00  0.00     0.031 A 
ATOM     85  C   UNL A   1      45.891  28.967  34.349  1.00  0.00     0.131 A 
ATOM     86  C   UNL A   1      46.005  26.673  35.891  1.00  0.00     0.055 A 
ATOM     87  C   UNL A   1      47.018  28.719  35.135  1.00  0.00     0.041 A 
ATOM     88  F   UNL A   1      45.867  30.107  33.639  1.00  0.00    -0.206 F 
ATOM     89  C   UNL A   1      47.073  27.574  35.923  1.00  0.00     0.022 A 
BRANCH  86  90
ATOM     90  S   UNL A   1      45.994  25.240  37.004  1.00  0.00     0.124 S 
ATOM     91  O   UNL A   1      45.928  24.126  36.063  1.00  0.00    -0.237 OA
ATOM     92  O   UNL A   1      47.255  25.394  37.722  1.00  0.00    -0.237 OA
ATOM     93  O   UNL A   1      44.793  25.442  37.813  1.00  0.00    -0.744 OA
ENDBRANCH  86  90
ENDBRANCH  60  83
ENDBRANCH  34  35
ENDBRANCH  27  29
ENDBRANCH  26  27
ENDBRANCH  25  26
ENDBRANCH  24  25
ENDBRANCH  23  24
ENDBRANCH   1  23
TORSDOF 23
ENDMDL
MODEL 3
REMARK VINA RESULT:      -9.1      2.145      7.864
REMARK SMILES CCN(C(=O)[C@H]1C=C[C@@H]([NH3+])C1)[C@H](C)CC(=O)OCCOCCOC(=O)c1ccc(-c2c3nc(c(-c4cc(S(=O)(=O)[O-])ccc4F)c4ccc([nH]4)c(-c4cc(S(=O)(=O)[O-])ccc4F)c4nc(c(-c5cc(S(=O)(=O)[O-])ccc5F)c5ccc2[nH]5)C=C4)C=C3)cc1
REMARK SMILES IDX 19 1 18 2 17 3 15 4 16 5 14 6 12 7 13 8 3 9 2 10 1 11 4 12
REMARK SMILES IDX 5 13 6 14 7 15 11 16 8 17 9 18 10 19 20 23 21 24 22 25 23 26
REMARK SMILES IDX 24 27 25 28 26 29 27 30 88 31 28 32 87 33 29 34 30 35 31 36
REMARK SMILES IDX 81 37 32 38 86 39 80 40 82 41 33 42 85 43 79 44 78 45 34 47
REMARK SMILES IDX 66 48 46 49 65 50 47 51 50 52 64 53 83 54 48 55 49 56 63 58
REMARK SMILES IDX 84 59 51 60 35 61 36 62 44 63 37 64 43 65 45 66 42 67 38 68
REMARK SMILES IDX 39 69 40 70 41 71 67 72 68 73 76 74 69 75 75 76 77 77 74 78
REMARK SMILES IDX 70 79 71 80 72 81 73 82 52 83 53 84 61 85 54 86 60 87 62 88
REMARK SMILES IDX 59 89 55 90 56 91 57 92 58 93
REMARK H PARENT 10 20 10 21 10 22 82 46 50 57
REMARK Flexibility Score: inf
ROOT
ATOM      1  C   UNL A   1      30.555  27.338  23.779  1.00  0.00     0.202 C 
ENDROOT
BRANCH   1   2
ATOM      2  C   UNL A   1      31.082  27.041  22.369  1.00  0.00     0.261 C 
BRANCH   2   3
ATOM      3  O   UNL A   1      31.536  25.674  22.278  1.00  0.00    -0.463 OA
BRANCH   3   4
ATOM      4  C   UNL A   1      32.850  25.455  22.021  1.00  0.00     0.307 C 
ATOM      5  O   UNL A   1      33.634  26.303  21.617  1.00  0.00    -0.252 OA
BRANCH   4   6
ATOM      6  C   UNL A   1      33.228  24.003  22.246  1.00  0.00     0.147 C 
BRANCH   6   7
ATOM      7  C   UNL A   1      32.289  23.210  23.187  1.00  0.00     0.093 C 
ATOM      8  C   UNL A   1      32.163  21.740  22.754  1.00  0.00     0.031 C 
BRANCH   7   9
ATOM      9  N   UNL A   1      32.711  23.405  24.613  1.00  0.00    -0.339 N 
BRANCH   9  10
ATOM     10  C   UNL A   1      32.015  24.393  25.455  1.00  0.00     0.116 C 
ATOM     11  C   UNL A   1      32.974  25.369  26.126  1.00  0.00     0.027 C 
ENDBRANCH   9  10
BRANCH   9  12
ATOM     12  C   UNL A   1      33.804  22.637  25.053  1.00  0.00     0.229 C 
ATOM     13  O   UNL A   1      33.647  21.725  25.872  1.00  0.00    -0.274 OA
BRANCH  12  14
ATOM     14  C   UNL A   1      35.212  22.985  24.542  1.00  0.00     0.107 C 
ATOM     15  C   UNL A   1      35.952  23.890  25.496  1.00  0.00    -0.012 C 
ATOM     16  C   UNL A   1      36.141  21.768  24.493  1.00  0.00     0.087 C 
ATOM     17  C   UNL A   1      37.234  23.528  25.624  1.00  0.00     0.033 C 
ATOM     18  C   UNL A   1      37.541  22.326  24.795  1.00  0.00     0.205 C 
BRANCH  18  19
ATOM     19  N   UNL A   1      38.374  21.367  25.494  1.00  0.00    -0.352 N 
ATOM     20  H   UNL A   1      39.310  21.754  25.616  1.00  0.00     0.345 HD
ATOM     21  H   UNL A   1      38.430  20.506  24.951  1.00  0.00     0.345 HD
ATOM     22  H   UNL A   1      37.968  21.166  26.408  1.00  0.00     0.345 HD
ENDBRANCH  18  19
ENDBRANCH  12  14
ENDBRANCH   9  12
ENDBRANCH   7   9
ENDBRANCH   6   7
ENDBRANCH   4   6
ENDBRANCH   3   4
ENDBRANCH   2   3
ENDBRANCH   1   2
BRANCH   1  23
ATOM     23  O   UNL A   1      31.501  27.950  24.660  1.00  0.00    -0.374 OA
BRANCH  23  24
ATOM     24  C   UNL A   1      31.725  29.346  24.478  1.00  0.00     0.202 C 
BRANCH  24  25
ATOM     25  C   UNL A   1      31.779  30.181  25.764  1.00  0.00     0.261 C 
BRANCH  25  26
ATOM     26  O   UNL A   1      32.994  29.959  26.506  1.00  0.00    -0.460 OA
BRANCH  26  27
ATOM     27  C   UNL A   1      33.438  31.037  27.194  1.00  0.00     0.338 C 
ATOM     28  O   UNL A   1      32.761  31.977  27.597  1.00  0.00    -0.246 OA
BRANCH  27  29
ATOM     29  C   UNL A   1      34.858  30.873  27.560  1.00  0.00     0.060 A 
ATOM     30  C   UNL A   1      35.328  29.564  27.734  1.00  0.00     0.016 A 
ATOM     31  C   UNL A   1      35.702  31.961  27.802  1.00  0.00     0.016 A 
ATOM     32  C   UNL A   1      36.623  29.339  28.196  1.00  0.00     0.010 A 
ATOM     33  C   UNL A   1      37.003  31.732  28.272  1.00  0.00     0.010 A 
ATOM     34  C   UNL A   1      37.460  30.421  28.504  1.00  0.00    -0.014 A 
BRANCH  34  35
ATOM     35  C   UNL A   1      38.749  30.171  29.201  1.00  0.00     0.031 A 
ATOM     36  C   UNL A   1      38.984  30.796  30.551  1.00  0.00     0.074 A 
ATOM     37  C   UNL A   1      39.676  29.352  28.669  1.00  0.00     0.049 A 
ATOM     38  N   UNL A   1      40.041  30.740  31.321  1.00  0.00    -0.248 NA
ATOM     39  C   UNL A   1      37.876  31.588  31.107  1.00  0.00     0.031 C 
ATOM     40  C   UNL A   1      39.543  28.642  27.397  1.00  0.00     0.029 A 
ATOM     41  N   UNL A   1      40.914  28.978  29.133  1.00  0.00    -0.354 N 
ATOM     42  C   UNL A   1      39.723  31.479  32.457  1.00  0.00     0.074 A 
ATOM     43  C   UNL A   1      38.393  32.011  32.251  1.00  0.00     0.031 C 
ATOM     44  C   UNL A   1      40.662  27.928  27.176  1.00  0.00     0.029 A 
ATOM     45  C   UNL A   1      41.606  28.159  28.269  1.00  0.00     0.049 A 
ATOM     46  H   UNL A   1      41.273  29.270  30.002  1.00  0.00     0.167 HD
ATOM     47  C   UNL A   1      40.464  31.681  33.574  1.00  0.00     0.034 A 
ATOM     48  C   UNL A   1      42.864  27.675  28.339  1.00  0.00     0.034 A 
ATOM     49  C   UNL A   1      41.794  31.158  33.765  1.00  0.00     0.049 A 
ATOM     50  C   UNL A   1      43.709  28.000  29.551  1.00  0.00     0.074 A 
ATOM     51  C   UNL A   1      42.640  31.325  34.850  1.00  0.00     0.029 A 
ATOM     52  N   UNL A   1      42.479  30.369  32.850  1.00  0.00    -0.354 N 
ATOM     53  N   UNL A   1      43.398  28.711  30.611  1.00  0.00    -0.248 NA
ATOM     54  C   UNL A   1      45.071  27.446  29.581  1.00  0.00     0.031 C 
ATOM     55  C   UNL A   1      43.853  30.690  34.565  1.00  0.00     0.029 A 
ATOM     56  C   UNL A   1      43.740  30.061  33.336  1.00  0.00     0.049 A 
ATOM     57  H   UNL A   1      42.119  30.071  31.984  1.00  0.00     0.167 HD
ATOM     58  C   UNL A   1      44.513  28.656  31.446  1.00  0.00     0.074 A 
ATOM     59  C   UNL A   1      45.494  27.830  30.776  1.00  0.00     0.031 C 
ATOM     60  C   UNL A   1      44.709  29.234  32.659  1.00  0.00     0.034 A 
BRANCH  47  61
ATOM     61  C   UNL A   1      39.860  32.532  34.663  1.00  0.00     0.023 A 
ATOM     62  C   UNL A   1      39.241  31.960  35.787  1.00  0.00     0.031 A 
ATOM     63  C   UNL A   1      39.901  33.935  34.575  1.00  0.00     0.131 A 
ATOM     64  C   UNL A   1      38.642  32.783  36.752  1.00  0.00     0.055 A 
ATOM     65  C   UNL A   1      39.366  34.751  35.574  1.00  0.00     0.041 A 
ATOM     66  F   UNL A   1      40.459  34.537  33.513  1.00  0.00    -0.206 F 
ATOM     67  C   UNL A   1      38.723  34.176  36.665  1.00  0.00     0.022 A 
BRANCH  64  68
ATOM     68  S   UNL A   1      37.657  32.011  38.063  1.00  0.00     0.124 S 
ATOM     69  O   UNL A   1      37.485  30.657  37.543  1.00  0.00    -0.237 OA
ATOM     70  O   UNL A   1      38.524  32.142  39.229  1.00  0.00    -0.237 OA
ATOM     71  O   UNL A   1      36.439  32.818  38.098  1.00  0.00    -0.744 OA
ENDBRANCH  64  68
ENDBRANCH  47  61
BRANCH  48  72
ATOM     72  C   UNL A   1      43.439  26.878  27.215  1.00  0.00     0.023 A 
ATOM     73  C   UNL A   1      43.209  25.498  27.104  1.00  0.00     0.031 A 
ATOM     74  C   UNL A   1      44.312  27.475  26.287  1.00  0.00     0.131 A 
ATOM     75  C   UNL A   1      43.898  24.749  26.135  1.00  0.00     0.055 A 
ATOM     76  C   UNL A   1      44.943  26.737  25.284  1.00  0.00     0.041 A 
ATOM     77  F   UNL A   1      44.573  28.791  26.346  1.00  0.00    -0.206 F 
ATOM     78  C   UNL A   1      44.752  25.361  25.217  1.00  0.00     0.022 A 
BRANCH  75  79
ATOM     79  S   UNL A   1      43.762  22.940  26.181  1.00  0.00     0.124 S 
ATOM     80  O   UNL A   1      42.792  22.689  25.120  1.00  0.00    -0.237 OA
ATOM     81  O   UNL A   1      45.134  22.527  25.907  1.00  0.00    -0.237 OA
ATOM     82  O   UNL A   1      43.290  22.669  27.537  1.00  0.00    -0.744 OA
ENDBRANCH  75  79
ENDBRANCH  48  72
BRANCH  60  83
ATOM     83  C   UNL A   1      46.013  28.940  33.360  1.00  0.00     0.023 A 
ATOM     84  C   UNL A   1      47.147  29.755  33.196  1.00  0.00     0.031 A 
ATOM     85  C   UNL A   1      46.123  27.818  34.202  1.00  0.00     0.131 A 
ATOM     86  C   UNL A   1      48.355  29.406  33.816  1.00  0.00     0.055 A 
ATOM     87  C   UNL A   1      47.312  27.509  34.865  1.00  0.00     0.041 A 
ATOM     88  F   UNL A   1      45.073  27.003  34.396  1.00  0.00    -0.206 F 
ATOM     89  C   UNL A   1      48.441  28.296  34.662  1.00  0.00     0.022 A 
BRANCH  86  90
ATOM     90  S   UNL A   1      49.843  30.372  33.434  1.00  0.00     0.124 S 
ATOM     91  O   UNL A   1      50.089  30.012  32.042  1.00  0.00    -0.237 OA
ATOM     92  O   UNL A   1      49.395  31.740  33.669  1.00  0.00    -0.237 OA
ATOM     93  O   UNL A   1      50.831  29.873  34.388  1.00  0.00    -0.744 OA
ENDBRANCH  86  90
ENDBRANCH  60  83
ENDBRANCH  34  35
ENDBRANCH  27  29
ENDBRANCH  26  27
ENDBRANCH  25  26
ENDBRANCH  24  25
ENDBRANCH  23  24
ENDBRANCH   1  23
TORSDOF 23
ENDMDL
