MODEL 1
REMARK VINA RESULT:     -11.6      0.000      0.000
REMARK SMILES CC[C@@H]1CCCN(S(=O)(=O)c2cc(C(=O)OCCOCCOC(=O)c3ccc(-c4c5nc(c(-c6cc(S(=O)(=O)[O-])ccc6F)c6ccc([nH]6)c(-c6cc(S(=O)(=O)[O-])ccc6F)c6nc(c(-c7cc(S(=O)(=O)[O-])ccc7F)c7ccc4[nH]7)C=C6)C=C5)cc3)ccc2F)C1
REMARK SMILES IDX 19 1 18 2 17 3 16 4 14 5 15 6 13 7 11 8 12 9 90 10 89 11
REMARK SMILES IDX 91 12 88 13 8 14 9 15 10 16 7 17 3 18 4 19 92 20 5 21 6 22
REMARK SMILES IDX 2 23 1 24 20 25 21 26 22 27 23 28 24 29 25 30 26 31 87 32
REMARK SMILES IDX 27 33 86 34 28 35 29 36 30 37 80 38 31 39 85 40 79 41 81 42
REMARK SMILES IDX 32 43 84 44 78 45 77 46 33 48 65 49 45 50 64 51 46 52 49 53
REMARK SMILES IDX 63 54 82 55 47 56 48 57 62 59 83 60 50 61 34 62 35 63 43 64
REMARK SMILES IDX 36 65 42 66 44 67 41 68 37 69 38 70 39 71 40 72 66 73 67 74
REMARK SMILES IDX 75 75 68 76 74 77 76 78 73 79 69 80 70 81 71 82 72 83 51 84
REMARK SMILES IDX 52 85 60 86 53 87 59 88 61 89 58 90 54 91 55 92 56 93 57 94
REMARK H PARENT 81 47 49 58
REMARK Flexibility Score: inf
ROOT
ATOM      1  O   UNL A   1      32.542  29.344  23.810  1.00  0.00    -0.374 OA
ENDROOT
BRANCH   1   2
ATOM      2  C   UNL A   1      33.784  28.759  23.424  1.00  0.00     0.202 C 
BRANCH   2   3
ATOM      3  C   UNL A   1      33.862  28.125  22.030  1.00  0.00     0.261 C 
BRANCH   3   4
ATOM      4  O   UNL A   1      33.978  26.696  22.106  1.00  0.00    -0.460 OA
BRANCH   4   5
ATOM      5  C   UNL A   1      32.913  26.008  21.630  1.00  0.00     0.338 C 
ATOM      6  O   UNL A   1      32.829  25.419  20.565  1.00  0.00    -0.246 OA
BRANCH   5   7
ATOM      7  C   UNL A   1      31.877  25.902  22.685  1.00  0.00     0.061 A 
ATOM      8  C   UNL A   1      31.164  24.836  24.736  1.00  0.00     0.119 A 
ATOM      9  C   UNL A   1      32.084  24.951  23.693  1.00  0.00     0.040 A 
ATOM     10  C   UNL A   1      30.061  25.680  24.790  1.00  0.00     0.143 A 
ATOM     11  C   UNL A   1      29.845  26.622  23.786  1.00  0.00     0.041 A 
ATOM     12  F   UNL A   1      29.150  25.580  25.767  1.00  0.00    -0.206 F 
ATOM     13  C   UNL A   1      30.755  26.739  22.730  1.00  0.00     0.019 A 
BRANCH   8  14
ATOM     14  S   UNL A   1      31.447  23.652  26.008  1.00  0.00     0.246 S 
ATOM     15  O   UNL A   1      30.461  22.599  25.922  1.00  0.00    -0.207 OA
ATOM     16  O   UNL A   1      31.614  24.385  27.249  1.00  0.00    -0.207 OA
BRANCH  14  17
ATOM     17  N   UNL A   1      32.988  22.977  25.598  1.00  0.00    -0.197 NA
ATOM     18  C   UNL A   1      35.444  22.982  26.124  1.00  0.00     0.004 C 
ATOM     19  C   UNL A   1      35.447  21.452  25.994  1.00  0.00     0.006 C 
ATOM     20  C   UNL A   1      34.045  23.469  26.533  1.00  0.00     0.106 C 
ATOM     21  C   UNL A   1      34.338  20.961  25.071  1.00  0.00     0.017 C 
ATOM     22  C   UNL A   1      32.979  21.487  25.511  1.00  0.00     0.102 C 
BRANCH  18  23
ATOM     23  C   UNL A   1      35.951  23.695  24.852  1.00  0.00     0.001 C 
ATOM     24  C   UNL A   1      36.994  22.868  24.107  1.00  0.00     0.004 C 
ENDBRANCH  18  23
ENDBRANCH  14  17
ENDBRANCH   8  14
ENDBRANCH   5   7
ENDBRANCH   4   5
ENDBRANCH   3   4
ENDBRANCH   2   3
ENDBRANCH   1   2
BRANCH   1  25
ATOM     25  C   UNL A   1      32.178  29.295  25.189  1.00  0.00     0.202 C 
BRANCH  25  26
ATOM     26  C   UNL A   1      31.771  30.603  25.881  1.00  0.00     0.261 C 
BRANCH  26  27
ATOM     27  O   UNL A   1      32.336  30.752  27.194  1.00  0.00    -0.460 OA
BRANCH  27  28
ATOM     28  C   UNL A   1      33.119  31.852  27.338  1.00  0.00     0.338 C 
ATOM     29  O   UNL A   1      32.769  33.017  27.253  1.00  0.00    -0.246 OA
BRANCH  28  30
ATOM     30  C   UNL A   1      34.460  31.462  27.810  1.00  0.00     0.060 A 
ATOM     31  C   UNL A   1      34.669  30.110  28.110  1.00  0.00     0.016 A 
ATOM     32  C   UNL A   1      35.464  32.405  28.036  1.00  0.00     0.016 A 
ATOM     33  C   UNL A   1      35.868  29.703  28.689  1.00  0.00     0.010 A 
ATOM     34  C   UNL A   1      36.666  31.994  28.624  1.00  0.00     0.010 A 
ATOM     35  C   UNL A   1      36.858  30.648  28.987  1.00  0.00    -0.014 A 
BRANCH  35  36
ATOM     36  C   UNL A   1      38.033  30.239  29.796  1.00  0.00     0.031 A 
ATOM     37  C   UNL A   1      39.022  29.267  29.214  1.00  0.00     0.074 A 
ATOM     38  C   UNL A   1      38.238  30.765  31.017  1.00  0.00     0.049 A 
ATOM     39  N   UNL A   1      40.100  28.760  29.755  1.00  0.00    -0.248 NA
ATOM     40  C   UNL A   1      38.764  28.804  27.841  1.00  0.00     0.031 C 
ATOM     41  C   UNL A   1      37.372  31.751  31.664  1.00  0.00     0.029 A 
ATOM     42  N   UNL A   1      39.238  30.545  31.930  1.00  0.00    -0.354 N 
ATOM     43  C   UNL A   1      40.640  27.907  28.798  1.00  0.00     0.074 A 
ATOM     44  C   UNL A   1      39.756  27.947  27.652  1.00  0.00     0.031 C 
ATOM     45  C   UNL A   1      37.881  32.053  32.870  1.00  0.00     0.029 A 
ATOM     46  C   UNL A   1      39.082  31.251  33.099  1.00  0.00     0.049 A 
ATOM     47  H   UNL A   1      39.996  29.939  31.763  1.00  0.00     0.167 HD
ATOM     48  C   UNL A   1      41.771  27.166  28.871  1.00  0.00     0.034 A 
ATOM     49  C   UNL A   1      39.806  31.234  34.237  1.00  0.00     0.034 A 
ATOM     50  C   UNL A   1      42.646  27.148  30.016  1.00  0.00     0.049 A 
ATOM     51  C   UNL A   1      41.020  30.349  34.324  1.00  0.00     0.074 A 
ATOM     52  C   UNL A   1      43.841  26.466  30.171  1.00  0.00     0.029 A 
ATOM     53  N   UNL A   1      42.419  27.828  31.205  1.00  0.00    -0.354 N 
ATOM     54  N   UNL A   1      41.518  29.545  33.414  1.00  0.00    -0.248 NA
ATOM     55  C   UNL A   1      41.771  30.367  35.587  1.00  0.00     0.031 C 
ATOM     56  C   UNL A   1      44.291  26.664  31.478  1.00  0.00     0.029 A 
ATOM     57  C   UNL A   1      43.425  27.541  32.114  1.00  0.00     0.049 A 
ATOM     58  H   UNL A   1      41.656  28.425  31.378  1.00  0.00     0.167 HD
ATOM     59  C   UNL A   1      42.650  28.971  33.989  1.00  0.00     0.074 A 
ATOM     60  C   UNL A   1      42.763  29.525  35.323  1.00  0.00     0.031 C 
ATOM     61  C   UNL A   1      43.518  28.078  33.452  1.00  0.00     0.034 A 
BRANCH  48  62
ATOM     62  C   UNL A   1      42.102  26.269  27.705  1.00  0.00     0.023 A 
ATOM     63  C   UNL A   1      41.688  24.928  27.651  1.00  0.00     0.031 A 
ATOM     64  C   UNL A   1      42.829  26.781  26.615  1.00  0.00     0.131 A 
ATOM     65  C   UNL A   1      42.037  24.134  26.548  1.00  0.00     0.055 A 
ATOM     66  C   UNL A   1      43.117  26.006  25.492  1.00  0.00     0.041 A 
ATOM     67  F   UNL A   1      43.269  28.050  26.624  1.00  0.00    -0.206 F 
ATOM     68  C   UNL A   1      42.727  24.671  25.457  1.00  0.00     0.022 A 
BRANCH  65  69
ATOM     69  S   UNL A   1      41.652  22.362  26.591  1.00  0.00     0.124 S 
ATOM     70  O   UNL A   1      42.311  21.889  25.376  1.00  0.00    -0.237 OA
ATOM     71  O   UNL A   1      42.254  21.937  27.850  1.00  0.00    -0.237 OA
ATOM     72  O   UNL A   1      40.191  22.327  26.554  1.00  0.00    -0.744 OA
ENDBRANCH  65  69
ENDBRANCH  48  62
BRANCH  49  73
ATOM     73  C   UNL A   1      39.358  32.057  35.394  1.00  0.00     0.023 A 
ATOM     74  C   UNL A   1      39.835  33.361  35.591  1.00  0.00     0.031 A 
ATOM     75  C   UNL A   1      38.402  31.556  36.295  1.00  0.00     0.131 A 
ATOM     76  C   UNL A   1      39.352  34.123  36.668  1.00  0.00     0.055 A 
ATOM     77  C   UNL A   1      37.900  32.328  37.343  1.00  0.00     0.041 A 
ATOM     78  F   UNL A   1      37.910  30.316  36.141  1.00  0.00    -0.206 F 
ATOM     79  C   UNL A   1      38.377  33.620  37.534  1.00  0.00     0.022 A 
BRANCH  76  80
ATOM     80  S   UNL A   1      40.011  35.793  36.924  1.00  0.00     0.124 S 
ATOM     81  O   UNL A   1      39.286  36.218  38.116  1.00  0.00    -0.237 OA
ATOM     82  O   UNL A   1      41.437  35.536  37.096  1.00  0.00    -0.237 OA
ATOM     83  O   UNL A   1      39.653  36.492  35.692  1.00  0.00    -0.744 OA
ENDBRANCH  76  80
ENDBRANCH  49  73
BRANCH  61  84
ATOM     84  C   UNL A   1      44.692  27.646  34.294  1.00  0.00     0.023 A 
ATOM     85  C   UNL A   1      44.617  26.532  35.147  1.00  0.00     0.031 A 
ATOM     86  C   UNL A   1      45.923  28.319  34.186  1.00  0.00     0.131 A 
ATOM     87  C   UNL A   1      45.750  26.136  35.875  1.00  0.00     0.055 A 
ATOM     88  C   UNL A   1      47.058  27.891  34.873  1.00  0.00     0.041 A 
ATOM     89  F   UNL A   1      46.047  29.388  33.382  1.00  0.00    -0.206 F 
ATOM     90  C   UNL A   1      46.975  26.795  35.727  1.00  0.00     0.022 A 
BRANCH  87  91
ATOM     91  S   UNL A   1      45.599  24.760  37.047  1.00  0.00     0.124 S 
ATOM     92  O   UNL A   1      44.152  24.662  37.210  1.00  0.00    -0.237 OA
ATOM     93  O   UNL A   1      46.236  23.661  36.328  1.00  0.00    -0.237 OA
ATOM     94  O   UNL A   1      46.325  25.231  38.225  1.00  0.00    -0.744 OA
ENDBRANCH  87  91
ENDBRANCH  61  84
ENDBRANCH  35  36
ENDBRANCH  28  30
ENDBRANCH  27  28
ENDBRANCH  26  27
ENDBRANCH  25  26
ENDBRANCH   1  25
TORSDOF 20
ENDMDL
MODEL 2
REMARK VINA RESULT:     -11.4      0.595      7.659
REMARK SMILES CC[C@@H]1CCCN(S(=O)(=O)c2cc(C(=O)OCCOCCOC(=O)c3ccc(-c4c5nc(c(-c6cc(S(=O)(=O)[O-])ccc6F)c6ccc([nH]6)c(-c6cc(S(=O)(=O)[O-])ccc6F)c6nc(c(-c7cc(S(=O)(=O)[O-])ccc7F)c7ccc4[nH]7)C=C6)C=C5)cc3)ccc2F)C1
REMARK SMILES IDX 19 1 18 2 17 3 16 4 14 5 15 6 13 7 11 8 12 9 90 10 89 11
REMARK SMILES IDX 91 12 88 13 8 14 9 15 10 16 7 17 3 18 4 19 92 20 5 21 6 22
REMARK SMILES IDX 2 23 1 24 20 25 21 26 22 27 23 28 24 29 25 30 26 31 87 32
REMARK SMILES IDX 27 33 86 34 28 35 29 36 30 37 80 38 31 39 85 40 79 41 81 42
REMARK SMILES IDX 32 43 84 44 78 45 77 46 33 48 65 49 45 50 64 51 46 52 49 53
REMARK SMILES IDX 63 54 82 55 47 56 48 57 62 59 83 60 50 61 34 62 35 63 43 64
REMARK SMILES IDX 36 65 42 66 44 67 41 68 37 69 38 70 39 71 40 72 66 73 67 74
REMARK SMILES IDX 75 75 68 76 74 77 76 78 73 79 69 80 70 81 71 82 72 83 51 84
REMARK SMILES IDX 52 85 60 86 53 87 59 88 61 89 58 90 54 91 55 92 56 93 57 94
REMARK H PARENT 81 47 49 58
REMARK Flexibility Score: inf
ROOT
ATOM      1  O   UNL A   1      33.649  28.930  25.088  1.00  0.00    -0.374 OA
ENDROOT
BRANCH   1   2
ATOM      2  C   UNL A   1      34.029  27.760  24.364  1.00  0.00     0.202 C 
BRANCH   2   3
ATOM      3  C   UNL A   1      33.646  27.693  22.882  1.00  0.00     0.261 C 
BRANCH   3   4
ATOM      4  O   UNL A   1      33.411  26.342  22.457  1.00  0.00    -0.460 OA
BRANCH   4   5
ATOM      5  C   UNL A   1      32.157  26.090  22.013  1.00  0.00     0.338 C 
ATOM      6  O   UNL A   1      31.805  25.901  20.861  1.00  0.00    -0.246 OA
BRANCH   5   7
ATOM      7  C   UNL A   1      31.251  25.885  23.169  1.00  0.00     0.061 A 
ATOM      8  C   UNL A   1      30.758  24.614  25.166  1.00  0.00     0.119 A 
ATOM      9  C   UNL A   1      31.551  24.828  24.038  1.00  0.00     0.040 A 
ATOM     10  C   UNL A   1      29.693  25.463  25.443  1.00  0.00     0.143 A 
ATOM     11  C   UNL A   1      29.386  26.511  24.578  1.00  0.00     0.041 A 
ATOM     12  F   UNL A   1      28.902  25.271  26.507  1.00  0.00    -0.206 F 
ATOM     13  C   UNL A   1      30.166  26.728  23.438  1.00  0.00     0.019 A 
BRANCH   8  14
ATOM     14  S   UNL A   1      31.157  23.295  26.262  1.00  0.00     0.246 S 
ATOM     15  O   UNL A   1      30.018  22.415  26.402  1.00  0.00    -0.207 OA
ATOM     16  O   UNL A   1      31.763  23.883  27.442  1.00  0.00    -0.207 OA
BRANCH  14  17
ATOM     17  N   UNL A   1      32.400  22.431  25.422  1.00  0.00    -0.197 NA
ATOM     18  C   UNL A   1      34.834  21.807  25.420  1.00  0.00     0.004 C 
ATOM     19  C   UNL A   1      34.440  20.383  25.003  1.00  0.00     0.006 C 
ATOM     20  C   UNL A   1      33.680  22.463  26.195  1.00  0.00     0.106 C 
ATOM     21  C   UNL A   1      33.113  20.360  24.252  1.00  0.00     0.017 C 
ATOM     22  C   UNL A   1      32.012  21.037  25.055  1.00  0.00     0.102 C 
BRANCH  18  23
ATOM     23  C   UNL A   1      35.295  22.677  24.230  1.00  0.00     0.001 C 
ATOM     24  C   UNL A   1      35.708  24.078  24.669  1.00  0.00     0.004 C 
ENDBRANCH  18  23
ENDBRANCH  14  17
ENDBRANCH   8  14
ENDBRANCH   5   7
ENDBRANCH   4   5
ENDBRANCH   3   4
ENDBRANCH   2   3
ENDBRANCH   1   2
BRANCH   1  25
ATOM     25  C   UNL A   1      32.286  29.343  25.024  1.00  0.00     0.202 C 
BRANCH  25  26
ATOM     26  C   UNL A   1      31.838  30.512  25.912  1.00  0.00     0.261 C 
BRANCH  26  27
ATOM     27  O   UNL A   1      32.486  30.534  27.195  1.00  0.00    -0.460 OA
BRANCH  27  28
ATOM     28  C   UNL A   1      33.268  31.625  27.401  1.00  0.00     0.338 C 
ATOM     29  O   UNL A   1      32.915  32.792  27.392  1.00  0.00    -0.246 OA
BRANCH  28  30
ATOM     30  C   UNL A   1      34.614  31.209  27.836  1.00  0.00     0.060 A 
ATOM     31  C   UNL A   1      34.813  29.849  28.104  1.00  0.00     0.016 A 
ATOM     32  C   UNL A   1      35.634  32.136  28.060  1.00  0.00     0.016 A 
ATOM     33  C   UNL A   1      36.018  29.416  28.650  1.00  0.00     0.010 A 
ATOM     34  C   UNL A   1      36.843  31.699  28.614  1.00  0.00     0.010 A 
ATOM     35  C   UNL A   1      37.026  30.343  28.946  1.00  0.00    -0.014 A 
BRANCH  35  36
ATOM     36  C   UNL A   1      38.212  29.904  29.721  1.00  0.00     0.031 A 
ATOM     37  C   UNL A   1      38.417  30.436  31.113  1.00  0.00     0.074 A 
ATOM     38  C   UNL A   1      39.072  29.007  29.205  1.00  0.00     0.049 A 
ATOM     39  N   UNL A   1      39.394  30.204  31.952  1.00  0.00    -0.248 NA
ATOM     40  C   UNL A   1      37.386  31.351  31.629  1.00  0.00     0.031 C 
ATOM     41  C   UNL A   1      38.949  28.388  27.885  1.00  0.00     0.029 A 
ATOM     42  N   UNL A   1      40.216  28.460  29.728  1.00  0.00    -0.354 N 
ATOM     43  C   UNL A   1      39.105  30.954  33.087  1.00  0.00     0.074 A 
ATOM     44  C   UNL A   1      37.875  31.668  32.819  1.00  0.00     0.031 C 
ATOM     45  C   UNL A   1      39.977  27.543  27.704  1.00  0.00     0.029 A 
ATOM     46  C   UNL A   1      40.854  27.593  28.874  1.00  0.00     0.049 A 
ATOM     47  H   UNL A   1      40.548  28.668  30.632  1.00  0.00     0.167 HD
ATOM     48  C   UNL A   1      39.802  31.033  34.245  1.00  0.00     0.034 A 
ATOM     49  C   UNL A   1      42.024  26.936  29.003  1.00  0.00     0.034 A 
ATOM     50  C   UNL A   1      41.019  30.304  34.500  1.00  0.00     0.049 A 
ATOM     51  C   UNL A   1      42.820  27.092  30.271  1.00  0.00     0.074 A 
ATOM     52  C   UNL A   1      41.776  30.280  35.659  1.00  0.00     0.029 A 
ATOM     53  N   UNL A   1      41.667  29.487  33.585  1.00  0.00    -0.354 N 
ATOM     54  N   UNL A   1      42.538  27.807  31.335  1.00  0.00    -0.248 NA
ATOM     55  C   UNL A   1      44.089  26.357  30.358  1.00  0.00     0.031 C 
ATOM     56  C   UNL A   1      42.922  29.519  35.416  1.00  0.00     0.029 A 
ATOM     57  C   UNL A   1      42.840  28.994  34.136  1.00  0.00     0.049 A 
ATOM     58  H   UNL A   1      41.342  29.286  32.678  1.00  0.00     0.167 HD
ATOM     59  C   UNL A   1      43.588  27.596  32.226  1.00  0.00     0.074 A 
ATOM     60  C   UNL A   1      44.507  26.683  31.575  1.00  0.00     0.031 C 
ATOM     61  C   UNL A   1      43.763  28.104  33.472  1.00  0.00     0.034 A 
BRANCH  48  62
ATOM     62  C   UNL A   1      39.299  31.977  35.307  1.00  0.00     0.023 A 
ATOM     63  C   UNL A   1      39.780  33.292  35.429  1.00  0.00     0.031 A 
ATOM     64  C   UNL A   1      38.299  31.554  36.201  1.00  0.00     0.131 A 
ATOM     65  C   UNL A   1      39.288  34.124  36.446  1.00  0.00     0.055 A 
ATOM     66  C   UNL A   1      37.766  32.407  37.169  1.00  0.00     0.041 A 
ATOM     67  F   UNL A   1      37.819  30.302  36.145  1.00  0.00    -0.206 F 
ATOM     68  C   UNL A   1      38.266  33.698  37.300  1.00  0.00     0.022 A 
BRANCH  65  69
ATOM     69  S   UNL A   1      40.058  35.747  36.696  1.00  0.00     0.124 S 
ATOM     70  O   UNL A   1      39.653  36.454  35.484  1.00  0.00    -0.237 OA
ATOM     71  O   UNL A   1      39.442  36.202  37.937  1.00  0.00    -0.237 OA
ATOM     72  O   UNL A   1      41.485  35.439  36.784  1.00  0.00    -0.744 OA
ENDBRANCH  65  69
ENDBRANCH  48  62
BRANCH  49  73
ATOM     73  C   UNL A   1      42.521  26.109  27.869  1.00  0.00     0.023 A 
ATOM     74  C   UNL A   1      42.120  24.775  27.707  1.00  0.00     0.031 A 
ATOM     75  C   UNL A   1      43.374  26.669  26.902  1.00  0.00     0.131 A 
ATOM     76  C   UNL A   1      42.574  24.043  26.597  1.00  0.00     0.055 A 
ATOM     77  C   UNL A   1      43.794  25.948  25.783  1.00  0.00     0.041 A 
ATOM     78  F   UNL A   1      43.777  27.946  27.010  1.00  0.00    -0.206 F 
ATOM     79  C   UNL A   1      43.395  24.626  25.628  1.00  0.00     0.022 A 
BRANCH  76  80
ATOM     80  S   UNL A   1      42.072  22.308  26.429  1.00  0.00     0.124 S 
ATOM     81  O   UNL A   1      42.602  21.725  27.656  1.00  0.00    -0.237 OA
ATOM     82  O   UNL A   1      40.620  22.417  26.343  1.00  0.00    -0.237 OA
ATOM     83  O   UNL A   1      42.733  21.882  25.197  1.00  0.00    -0.744 OA
ENDBRANCH  76  80
ENDBRANCH  49  73
BRANCH  61  84
ATOM     84  C   UNL A   1      44.988  27.675  34.239  1.00  0.00     0.023 A 
ATOM     85  C   UNL A   1      44.995  26.512  35.028  1.00  0.00     0.031 A 
ATOM     86  C   UNL A   1      46.186  28.404  34.120  1.00  0.00     0.131 A 
ATOM     87  C   UNL A   1      46.173  26.123  35.684  1.00  0.00     0.055 A 
ATOM     88  C   UNL A   1      47.366  27.985  34.734  1.00  0.00     0.041 A 
ATOM     89  F   UNL A   1      46.233  29.521  33.376  1.00  0.00    -0.206 F 
ATOM     90  C   UNL A   1      47.363  26.841  35.525  1.00  0.00     0.022 A 
BRANCH  87  91
ATOM     91  S   UNL A   1      46.128  24.677  36.778  1.00  0.00     0.124 S 
ATOM     92  O   UNL A   1      46.833  23.676  35.983  1.00  0.00    -0.237 OA
ATOM     93  O   UNL A   1      46.826  25.156  37.965  1.00  0.00    -0.237 OA
ATOM     94  O   UNL A   1      44.698  24.429  36.959  1.00  0.00    -0.744 OA
ENDBRANCH  87  91
ENDBRANCH  61  84
ENDBRANCH  35  36
ENDBRANCH  28  30
ENDBRANCH  27  28
ENDBRANCH  26  27
ENDBRANCH  25  26
ENDBRANCH   1  25
TORSDOF 20
ENDMDL
MODEL 3
REMARK VINA RESULT:     -11.0      4.966     10.113
REMARK SMILES CC[C@@H]1CCCN(S(=O)(=O)c2cc(C(=O)OCCOCCOC(=O)c3ccc(-c4c5nc(c(-c6cc(S(=O)(=O)[O-])ccc6F)c6ccc([nH]6)c(-c6cc(S(=O)(=O)[O-])ccc6F)c6nc(c(-c7cc(S(=O)(=O)[O-])ccc7F)c7ccc4[nH]7)C=C6)C=C5)cc3)ccc2F)C1
REMARK SMILES IDX 19 1 18 2 17 3 16 4 14 5 15 6 13 7 11 8 12 9 90 10 89 11
REMARK SMILES IDX 91 12 88 13 8 14 9 15 10 16 7 17 3 18 4 19 92 20 5 21 6 22
REMARK SMILES IDX 2 23 1 24 20 25 21 26 22 27 23 28 24 29 25 30 26 31 87 32
REMARK SMILES IDX 27 33 86 34 28 35 29 36 30 37 80 38 31 39 85 40 79 41 81 42
REMARK SMILES IDX 32 43 84 44 78 45 77 46 33 48 65 49 45 50 64 51 46 52 49 53
REMARK SMILES IDX 63 54 82 55 47 56 48 57 62 59 83 60 50 61 34 62 35 63 43 64
REMARK SMILES IDX 36 65 42 66 44 67 41 68 37 69 38 70 39 71 40 72 66 73 67 74
REMARK SMILES IDX 75 75 68 76 74 77 76 78 73 79 69 80 70 81 71 82 72 83 51 84
REMARK SMILES IDX 52 85 60 86 53 87 59 88 61 89 58 90 54 91 55 92 56 93 57 94
REMARK H PARENT 81 47 49 58
REMARK Flexibility Score: inf
ROOT
ATOM      1  O   UNL A   1      35.295  19.540  25.091  1.00  0.00    -0.374 OA
ENDROOT
BRANCH   1   2
ATOM      2  C   UNL A   1      35.600  18.243  24.581  1.00  0.00     0.202 C 
BRANCH   2   3
ATOM      3  C   UNL A   1      34.422  17.359  24.153  1.00  0.00     0.261 C 
BRANCH   3   4
ATOM      4  O   UNL A   1      33.352  18.138  23.597  1.00  0.00    -0.460 OA
BRANCH   4   5
ATOM      5  C   UNL A   1      32.493  18.661  24.502  1.00  0.00     0.338 C 
ATOM      6  O   UNL A   1      32.094  18.141  25.531  1.00  0.00    -0.246 OA
BRANCH   5   7
ATOM      7  C   UNL A   1      32.221  20.080  24.168  1.00  0.00     0.061 A 
ATOM      8  C   UNL A   1      31.765  22.311  24.984  1.00  0.00     0.119 A 
ATOM      9  C   UNL A   1      31.984  20.956  25.235  1.00  0.00     0.040 A 
ATOM     10  C   UNL A   1      31.812  22.796  23.682  1.00  0.00     0.143 A 
ATOM     11  C   UNL A   1      32.039  21.929  22.616  1.00  0.00     0.041 A 
ATOM     12  F   UNL A   1      31.586  24.088  23.408  1.00  0.00    -0.206 F 
ATOM     13  C   UNL A   1      32.248  20.567  22.855  1.00  0.00     0.019 A 
BRANCH   8  14
ATOM     14  S   UNL A   1      31.489  23.405  26.336  1.00  0.00     0.246 S 
ATOM     15  O   UNL A   1      32.369  23.060  27.430  1.00  0.00    -0.207 OA
ATOM     16  O   UNL A   1      30.056  23.466  26.554  1.00  0.00    -0.207 OA
BRANCH  14  17
ATOM     17  N   UNL A   1      31.982  24.945  25.719  1.00  0.00    -0.197 NA
ATOM     18  C   UNL A   1      31.340  27.360  25.456  1.00  0.00     0.004 C 
ATOM     19  C   UNL A   1      32.779  27.754  25.820  1.00  0.00     0.006 C 
ATOM     20  C   UNL A   1      30.993  26.004  26.090  1.00  0.00     0.106 C 
ATOM     21  C   UNL A   1      33.772  26.650  25.475  1.00  0.00     0.017 C 
ATOM     22  C   UNL A   1      33.370  25.327  26.112  1.00  0.00     0.102 C 
BRANCH  18  23
ATOM     23  C   UNL A   1      31.082  27.366  23.934  1.00  0.00     0.001 C 
ATOM     24  C   UNL A   1      29.802  28.111  23.571  1.00  0.00     0.004 C 
ENDBRANCH  18  23
ENDBRANCH  14  17
ENDBRANCH   8  14
ENDBRANCH   5   7
ENDBRANCH   4   5
ENDBRANCH   3   4
ENDBRANCH   2   3
ENDBRANCH   1   2
BRANCH   1  25
ATOM     25  C   UNL A   1      36.243  20.585  24.875  1.00  0.00     0.202 C 
BRANCH  25  26
ATOM     26  C   UNL A   1      37.735  20.249  24.998  1.00  0.00     0.261 C 
BRANCH  26  27
ATOM     27  O   UNL A   1      38.551  21.389  25.315  1.00  0.00    -0.460 OA
BRANCH  27  28
ATOM     28  C   UNL A   1      39.458  21.164  26.300  1.00  0.00     0.338 C 
ATOM     29  O   UNL A   1      39.952  20.093  26.610  1.00  0.00    -0.246 OA
BRANCH  28  30
ATOM     30  C   UNL A   1      39.933  22.444  26.855  1.00  0.00     0.060 A 
ATOM     31  C   UNL A   1      39.401  23.619  26.311  1.00  0.00     0.016 A 
ATOM     32  C   UNL A   1      40.937  22.498  27.823  1.00  0.00     0.016 A 
ATOM     33  C   UNL A   1      39.909  24.857  26.695  1.00  0.00     0.010 A 
ATOM     34  C   UNL A   1      41.451  23.744  28.203  1.00  0.00     0.010 A 
ATOM     35  C   UNL A   1      40.964  24.926  27.614  1.00  0.00    -0.014 A 
BRANCH  35  36
ATOM     36  C   UNL A   1      41.638  26.226  27.850  1.00  0.00     0.031 A 
ATOM     37  C   UNL A   1      40.919  27.295  28.626  1.00  0.00     0.074 A 
ATOM     38  C   UNL A   1      42.895  26.433  27.416  1.00  0.00     0.049 A 
ATOM     39  N   UNL A   1      41.312  28.507  28.924  1.00  0.00    -0.248 NA
ATOM     40  C   UNL A   1      39.579  26.955  29.132  1.00  0.00     0.031 C 
ATOM     41  C   UNL A   1      43.707  25.454  26.695  1.00  0.00     0.029 A 
ATOM     42  N   UNL A   1      43.707  27.534  27.520  1.00  0.00    -0.354 N 
ATOM     43  C   UNL A   1      40.264  29.080  29.638  1.00  0.00     0.074 A 
ATOM     44  C   UNL A   1      39.209  28.091  29.706  1.00  0.00     0.031 C 
ATOM     45  C   UNL A   1      44.905  25.998  26.424  1.00  0.00     0.029 A 
ATOM     46  C   UNL A   1      44.929  27.376  26.911  1.00  0.00     0.049 A 
ATOM     47  H   UNL A   1      43.440  28.358  27.987  1.00  0.00     0.167 HD
ATOM     48  C   UNL A   1      40.196  30.316  30.189  1.00  0.00     0.034 A 
ATOM     49  C   UNL A   1      45.943  28.248  26.739  1.00  0.00     0.034 A 
ATOM     50  C   UNL A   1      41.262  31.284  30.123  1.00  0.00     0.049 A 
ATOM     51  C   UNL A   1      45.819  29.641  27.297  1.00  0.00     0.074 A 
ATOM     52  C   UNL A   1      41.308  32.546  30.688  1.00  0.00     0.029 A 
ATOM     53  N   UNL A   1      42.458  31.109  29.441  1.00  0.00    -0.354 N 
ATOM     54  N   UNL A   1      44.822  30.172  27.967  1.00  0.00    -0.248 NA
ATOM     55  C   UNL A   1      46.951  30.552  27.079  1.00  0.00     0.031 C 
ATOM     56  C   UNL A   1      42.492  33.165  30.279  1.00  0.00     0.029 A 
ATOM     57  C   UNL A   1      43.228  32.258  29.531  1.00  0.00     0.049 A 
ATOM     58  H   UNL A   1      42.722  30.289  28.965  1.00  0.00     0.167 HD
ATOM     59  C   UNL A   1      45.213  31.475  28.264  1.00  0.00     0.074 A 
ATOM     60  C   UNL A   1      46.538  31.648  27.703  1.00  0.00     0.031 C 
ATOM     61  C   UNL A   1      44.537  32.432  28.949  1.00  0.00     0.034 A 
BRANCH  48  62
ATOM     62  C   UNL A   1      38.909  30.715  30.864  1.00  0.00     0.023 A 
ATOM     63  C   UNL A   1      37.817  31.233  30.149  1.00  0.00     0.031 A 
ATOM     64  C   UNL A   1      38.769  30.550  32.255  1.00  0.00     0.131 A 
ATOM     65  C   UNL A   1      36.647  31.604  30.831  1.00  0.00     0.055 A 
ATOM     66  C   UNL A   1      37.582  30.858  32.919  1.00  0.00     0.041 A 
ATOM     67  F   UNL A   1      39.789  30.079  32.991  1.00  0.00    -0.206 F 
ATOM     68  C   UNL A   1      36.514  31.396  32.207  1.00  0.00     0.022 A 
BRANCH  65  69
ATOM     69  S   UNL A   1      35.328  32.442  29.911  1.00  0.00     0.124 S 
ATOM     70  O   UNL A   1      34.962  31.423  28.930  1.00  0.00    -0.237 OA
ATOM     71  O   UNL A   1      34.341  32.713  30.949  1.00  0.00    -0.237 OA
ATOM     72  O   UNL A   1      35.991  33.622  29.358  1.00  0.00    -0.744 OA
ENDBRANCH  65  69
ENDBRANCH  48  62
BRANCH  49  73
ATOM     73  C   UNL A   1      47.140  27.826  25.961  1.00  0.00     0.023 A 
ATOM     74  C   UNL A   1      47.183  27.945  24.565  1.00  0.00     0.031 A 
ATOM     75  C   UNL A   1      48.281  27.338  26.623  1.00  0.00     0.131 A 
ATOM     76  C   UNL A   1      48.350  27.580  23.872  1.00  0.00     0.055 A 
ATOM     77  C   UNL A   1      49.449  27.010  25.933  1.00  0.00     0.041 A 
ATOM     78  F   UNL A   1      48.289  27.216  27.960  1.00  0.00    -0.206 F 
ATOM     79  C   UNL A   1      49.486  27.129  24.548  1.00  0.00     0.022 A 
BRANCH  76  80
ATOM     80  S   UNL A   1      48.369  27.708  22.063  1.00  0.00     0.124 S 
ATOM     81  O   UNL A   1      48.627  26.328  21.670  1.00  0.00    -0.237 OA
ATOM     82  O   UNL A   1      47.032  28.219  21.777  1.00  0.00    -0.237 OA
ATOM     83  O   UNL A   1      49.458  28.647  21.800  1.00  0.00    -0.744 OA
ENDBRANCH  76  80
ENDBRANCH  49  73
BRANCH  61  84
ATOM     84  C   UNL A   1      45.220  33.761  29.156  1.00  0.00     0.023 A 
ATOM     85  C   UNL A   1      44.918  34.877  28.359  1.00  0.00     0.031 A 
ATOM     86  C   UNL A   1      46.132  33.926  30.214  1.00  0.00     0.131 A 
ATOM     87  C   UNL A   1      45.541  36.108  28.621  1.00  0.00     0.055 A 
ATOM     88  C   UNL A   1      46.710  35.163  30.500  1.00  0.00     0.041 A 
ATOM     89  F   UNL A   1      46.452  32.891  31.008  1.00  0.00    -0.206 F 
ATOM     90  C   UNL A   1      46.418  36.262  29.699  1.00  0.00     0.022 A 
BRANCH  87  91
ATOM     91  S   UNL A   1      45.213  37.506  27.513  1.00  0.00     0.124 S 
ATOM     92  O   UNL A   1      43.951  37.111  26.896  1.00  0.00    -0.237 OA
ATOM     93  O   UNL A   1      45.147  38.633  28.437  1.00  0.00    -0.237 OA
ATOM     94  O   UNL A   1      46.367  37.510  26.615  1.00  0.00    -0.744 OA
ENDBRANCH  87  91
ENDBRANCH  61  84
ENDBRANCH  35  36
ENDBRANCH  28  30
ENDBRANCH  27  28
ENDBRANCH  26  27
ENDBRANCH  25  26
ENDBRANCH   1  25
TORSDOF 20
ENDMDL
