MODEL 1
REMARK VINA RESULT:     -11.7      0.000      0.000
REMARK SMILES Cc1c(C(=O)OCCOCCOC(=O)c2ccc(-c3c4nc(c(-c5cc(S(=O)(=O)[O-])ccc5F)c5ccc([nH]5)c(-c5cc(S(=O)(=O)[O-])ccc5F)c5nc(c(-c6cc(S(=O)(=O)[O-])ccc6F)c6ccc3[nH]6)C=C5)C=C4)cc2)sc2ncnc(NCc3cn4c(n3)SCC4)c12
REMARK SMILES IDX 9 1 8 2 7 3 6 4 4 5 5 6 3 7 1 8 2 9 94 10 78 11 79 12 83 13
REMARK SMILES IDX 80 14 82 15 81 16 84 17 85 19 86 20 87 21 90 22 88 23 89 24
REMARK SMILES IDX 93 25 91 26 92 27 10 28 11 29 12 30 13 31 14 32 15 33 16 34
REMARK SMILES IDX 77 35 17 36 76 37 18 38 19 39 20 40 70 41 21 42 75 43 69 44
REMARK SMILES IDX 71 45 22 46 74 47 68 48 67 49 23 51 55 52 35 53 54 54 36 55
REMARK SMILES IDX 39 56 53 57 72 58 37 59 38 60 52 62 73 63 40 64 24 65 25 66
REMARK SMILES IDX 33 67 26 68 32 69 34 70 31 71 27 72 28 73 29 74 30 75 56 76
REMARK SMILES IDX 57 77 65 78 58 79 64 80 66 81 63 82 59 83 60 84 61 85 62 86
REMARK SMILES IDX 41 87 42 88 50 89 43 90 49 91 51 92 48 93 44 94 45 95 46 96
REMARK SMILES IDX 47 97
REMARK H PARENT 84 18 71 50 39 61
REMARK Flexibility Score: inf
ROOT
ATOM      1  O   UNL A   1      38.361  20.416  25.575  1.00  0.00    -0.374 OA
ENDROOT
BRANCH   1   2
ATOM      2  C   UNL A   1      37.206  20.693  24.781  1.00  0.00     0.202 C 
BRANCH   2   3
ATOM      3  C   UNL A   1      35.976  21.246  25.505  1.00  0.00     0.261 C 
BRANCH   3   4
ATOM      4  O   UNL A   1      35.075  21.904  24.603  1.00  0.00    -0.459 OA
BRANCH   4   5
ATOM      5  C   UNL A   1      33.842  21.326  24.498  1.00  0.00     0.348 C 
ATOM      6  O   UNL A   1      33.635  20.126  24.428  1.00  0.00    -0.245 OA
BRANCH   5   7
ATOM      7  C   UNL A   1      32.800  22.321  24.674  1.00  0.00     0.118 A 
ATOM      8  C   UNL A   1      32.845  23.163  22.310  1.00  0.00     0.047 C 
ATOM      9  C   UNL A   1      32.372  23.247  23.725  1.00  0.00    -0.012 A 
ATOM     10  C   UNL A   1      31.460  24.235  24.304  1.00  0.00     0.058 A 
ATOM     11  S   UNL A   1      31.971  22.454  26.141  1.00  0.00    -0.108 S 
ATOM     12  C   UNL A   1      31.173  23.861  25.618  1.00  0.00     0.129 A 
ATOM     13  C   UNL A   1      30.837  25.447  23.888  1.00  0.00     0.138 A 
ATOM     14  N   UNL A   1      30.380  24.491  26.499  1.00  0.00    -0.225 NA
ATOM     15  N   UNL A   1      30.048  26.102  24.782  1.00  0.00    -0.219 NA
ATOM     16  C   UNL A   1      29.850  25.598  26.002  1.00  0.00     0.225 A 
BRANCH  13  17
ATOM     17  N   UNL A   1      30.940  26.181  22.736  1.00  0.00    -0.364 N 
ATOM     18  H   UNL A   1      30.268  25.950  22.055  1.00  0.00     0.162 HD
BRANCH  17  19
ATOM     19  C   UNL A   1      31.843  27.224  22.335  1.00  0.00     0.172 C 
BRANCH  19  20
ATOM     20  C   UNL A   1      32.467  28.067  23.405  1.00  0.00     0.079 A 
ATOM     21  C   UNL A   1      33.655  27.819  24.086  1.00  0.00     0.113 A 
ATOM     22  N   UNL A   1      31.798  29.151  23.962  1.00  0.00    -0.226 NA
ATOM     23  N   UNL A   1      33.629  28.695  25.117  1.00  0.00    -0.325 N 
ATOM     24  C   UNL A   1      32.521  29.473  24.997  1.00  0.00     0.168 A 
ATOM     25  C   UNL A   1      34.277  28.686  26.412  1.00  0.00     0.135 C 
ATOM     26  S   UNL A   1      32.141  30.302  26.460  1.00  0.00    -0.086 SA
ATOM     27  C   UNL A   1      33.194  29.122  27.402  1.00  0.00     0.100 C 
ENDBRANCH  19  20
ENDBRANCH  17  19
ENDBRANCH  13  17
ENDBRANCH   5   7
ENDBRANCH   4   5
ENDBRANCH   3   4
ENDBRANCH   2   3
ENDBRANCH   1   2
BRANCH   1  28
ATOM     28  C   UNL A   1      39.189  21.500  25.987  1.00  0.00     0.202 C 
BRANCH  28  29
ATOM     29  C   UNL A   1      40.541  21.207  26.613  1.00  0.00     0.261 C 
BRANCH  29  30
ATOM     30  O   UNL A   1      40.961  22.240  27.491  1.00  0.00    -0.460 OA
BRANCH  30  31
ATOM     31  C   UNL A   1      41.546  23.277  26.849  1.00  0.00     0.338 C 
ATOM     32  O   UNL A   1      42.289  23.217  25.887  1.00  0.00    -0.246 OA
BRANCH  31  33
ATOM     33  C   UNL A   1      41.268  24.503  27.597  1.00  0.00     0.060 A 
ATOM     34  C   UNL A   1      40.243  25.316  27.110  1.00  0.00     0.016 A 
ATOM     35  C   UNL A   1      42.164  24.942  28.584  1.00  0.00     0.016 A 
ATOM     36  C   UNL A   1      40.223  26.638  27.496  1.00  0.00     0.010 A 
ATOM     37  C   UNL A   1      42.152  26.264  28.954  1.00  0.00     0.010 A 
ATOM     38  C   UNL A   1      41.221  27.112  28.359  1.00  0.00    -0.014 A 
BRANCH  38  39
ATOM     39  C   UNL A   1      41.120  28.479  28.832  1.00  0.00     0.031 A 
ATOM     40  C   UNL A   1      42.235  29.286  28.287  1.00  0.00     0.074 A 
ATOM     41  C   UNL A   1      40.083  28.938  29.560  1.00  0.00     0.049 A 
ATOM     42  N   UNL A   1      43.284  29.683  28.924  1.00  0.00    -0.248 NA
ATOM     43  C   UNL A   1      42.344  29.440  26.822  1.00  0.00     0.031 C 
ATOM     44  C   UNL A   1      38.860  28.211  29.912  1.00  0.00     0.029 A 
ATOM     45  N   UNL A   1      39.847  30.182  30.071  1.00  0.00    -0.354 N 
ATOM     46  C   UNL A   1      43.995  30.437  27.999  1.00  0.00     0.074 A 
ATOM     47  C   UNL A   1      43.541  30.018  26.705  1.00  0.00     0.031 C 
ATOM     48  C   UNL A   1      37.928  29.084  30.361  1.00  0.00     0.029 A 
ATOM     49  C   UNL A   1      38.522  30.409  30.453  1.00  0.00     0.049 A 
ATOM     50  H   UNL A   1      40.552  30.863  30.162  1.00  0.00     0.167 HD
ATOM     51  C   UNL A   1      44.555  31.612  28.393  1.00  0.00     0.034 A 
ATOM     52  C   UNL A   1      37.957  31.605  30.786  1.00  0.00     0.034 A 
ATOM     53  C   UNL A   1      44.650  31.667  29.831  1.00  0.00     0.049 A 
ATOM     54  C   UNL A   1      39.074  32.463  31.249  1.00  0.00     0.074 A 
ATOM     55  C   UNL A   1      45.385  31.035  30.810  1.00  0.00     0.029 A 
ATOM     56  N   UNL A   1      43.534  32.193  30.429  1.00  0.00    -0.354 N 
ATOM     57  N   UNL A   1      39.786  32.197  32.313  1.00  0.00    -0.248 NA
ATOM     58  C   UNL A   1      39.680  33.399  30.309  1.00  0.00     0.031 C 
ATOM     59  C   UNL A   1      44.577  31.058  31.986  1.00  0.00     0.029 A 
ATOM     60  C   UNL A   1      43.403  31.762  31.719  1.00  0.00     0.049 A 
ATOM     61  H   UNL A   1      42.904  32.804  29.983  1.00  0.00     0.167 HD
ATOM     62  C   UNL A   1      41.069  32.580  31.974  1.00  0.00     0.074 A 
ATOM     63  C   UNL A   1      40.917  33.449  30.811  1.00  0.00     0.031 C 
ATOM     64  C   UNL A   1      42.153  31.899  32.445  1.00  0.00     0.034 A 
BRANCH  51  65
ATOM     65  C   UNL A   1      44.489  32.889  27.576  1.00  0.00     0.023 A 
ATOM     66  C   UNL A   1      43.670  33.928  28.059  1.00  0.00     0.031 A 
ATOM     67  C   UNL A   1      44.921  33.020  26.234  1.00  0.00     0.131 A 
ATOM     68  C   UNL A   1      43.291  34.994  27.222  1.00  0.00     0.055 A 
ATOM     69  C   UNL A   1      44.583  34.106  25.425  1.00  0.00     0.041 A 
ATOM     70  F   UNL A   1      45.602  32.066  25.591  1.00  0.00    -0.206 F 
ATOM     71  C   UNL A   1      43.748  35.093  25.911  1.00  0.00     0.022 A 
BRANCH  68  72
ATOM     72  S   UNL A   1      42.104  36.213  27.843  1.00  0.00     0.124 S 
ATOM     73  O   UNL A   1      42.622  36.484  29.178  1.00  0.00    -0.237 OA
ATOM     74  O   UNL A   1      42.238  37.289  26.866  1.00  0.00    -0.237 OA
ATOM     75  O   UNL A   1      40.831  35.496  27.799  1.00  0.00    -0.744 OA
ENDBRANCH  68  72
ENDBRANCH  51  65
BRANCH  52  76
ATOM     76  C   UNL A   1      36.605  32.147  30.425  1.00  0.00     0.023 A 
ATOM     77  C   UNL A   1      35.817  32.895  31.338  1.00  0.00     0.031 A 
ATOM     78  C   UNL A   1      36.178  32.170  29.079  1.00  0.00     0.131 A 
ATOM     79  C   UNL A   1      34.694  33.638  30.888  1.00  0.00     0.055 A 
ATOM     80  C   UNL A   1      35.072  32.906  28.642  1.00  0.00     0.041 A 
ATOM     81  F   UNL A   1      36.870  31.547  28.114  1.00  0.00    -0.206 F 
ATOM     82  C   UNL A   1      34.335  33.658  29.541  1.00  0.00     0.022 A 
BRANCH  79  83
ATOM     83  S   UNL A   1      33.745  34.701  32.031  1.00  0.00     0.124 S 
ATOM     84  O   UNL A   1      34.750  35.669  32.454  1.00  0.00    -0.237 OA
ATOM     85  O   UNL A   1      32.674  35.208  31.181  1.00  0.00    -0.237 OA
ATOM     86  O   UNL A   1      33.307  33.772  33.074  1.00  0.00    -0.744 OA
ENDBRANCH  79  83
ENDBRANCH  52  76
BRANCH  64  87
ATOM     87  C   UNL A   1      42.053  31.195  33.771  1.00  0.00     0.023 A 
ATOM     88  C   UNL A   1      41.866  29.813  33.975  1.00  0.00     0.031 A 
ATOM     89  C   UNL A   1      42.325  32.002  34.891  1.00  0.00     0.131 A 
ATOM     90  C   UNL A   1      41.983  29.287  35.280  1.00  0.00     0.055 A 
ATOM     91  C   UNL A   1      42.467  31.476  36.169  1.00  0.00     0.041 A 
ATOM     92  F   UNL A   1      42.524  33.323  34.743  1.00  0.00    -0.206 F 
ATOM     93  C   UNL A   1      42.299  30.113  36.368  1.00  0.00     0.022 A 
BRANCH  90  94
ATOM     94  S   UNL A   1      41.770  27.503  35.593  1.00  0.00     0.124 S 
ATOM     95  O   UNL A   1      43.132  26.988  35.505  1.00  0.00    -0.237 OA
ATOM     96  O   UNL A   1      41.158  27.478  36.918  1.00  0.00    -0.237 OA
ATOM     97  O   UNL A   1      40.885  27.067  34.510  1.00  0.00    -0.744 OA
ENDBRANCH  90  94
ENDBRANCH  64  87
ENDBRANCH  38  39
ENDBRANCH  31  33
ENDBRANCH  30  31
ENDBRANCH  29  30
ENDBRANCH  28  29
ENDBRANCH   1  28
TORSDOF 20
ENDMDL
MODEL 2
REMARK VINA RESULT:     -11.5      4.146      9.043
REMARK SMILES Cc1c(C(=O)OCCOCCOC(=O)c2ccc(-c3c4nc(c(-c5cc(S(=O)(=O)[O-])ccc5F)c5ccc([nH]5)c(-c5cc(S(=O)(=O)[O-])ccc5F)c5nc(c(-c6cc(S(=O)(=O)[O-])ccc6F)c6ccc3[nH]6)C=C5)C=C4)cc2)sc2ncnc(NCc3cn4c(n3)SCC4)c12
REMARK SMILES IDX 9 1 8 2 7 3 6 4 4 5 5 6 3 7 1 8 2 9 94 10 78 11 79 12 83 13
REMARK SMILES IDX 80 14 82 15 81 16 84 17 85 19 86 20 87 21 90 22 88 23 89 24
REMARK SMILES IDX 93 25 91 26 92 27 10 28 11 29 12 30 13 31 14 32 15 33 16 34
REMARK SMILES IDX 77 35 17 36 76 37 18 38 19 39 20 40 70 41 21 42 75 43 69 44
REMARK SMILES IDX 71 45 22 46 74 47 68 48 67 49 23 51 55 52 35 53 54 54 36 55
REMARK SMILES IDX 39 56 53 57 72 58 37 59 38 60 52 62 73 63 40 64 24 65 25 66
REMARK SMILES IDX 33 67 26 68 32 69 34 70 31 71 27 72 28 73 29 74 30 75 56 76
REMARK SMILES IDX 57 77 65 78 58 79 64 80 66 81 63 82 59 83 60 84 61 85 62 86
REMARK SMILES IDX 41 87 42 88 50 89 43 90 49 91 51 92 48 93 44 94 45 95 46 96
REMARK SMILES IDX 47 97
REMARK H PARENT 84 18 71 50 39 61
REMARK Flexibility Score: inf
ROOT
ATOM      1  O   UNL A   1      33.856  30.521  26.764  1.00  0.00    -0.374 OA
ENDROOT
BRANCH   1   2
ATOM      2  C   UNL A   1      32.960  29.508  27.226  1.00  0.00     0.202 C 
BRANCH   2   3
ATOM      3  C   UNL A   1      31.744  29.197  26.349  1.00  0.00     0.261 C 
BRANCH   3   4
ATOM      4  O   UNL A   1      32.109  29.008  24.975  1.00  0.00    -0.459 OA
BRANCH   4   5
ATOM      5  C   UNL A   1      31.109  28.534  24.174  1.00  0.00     0.348 C 
ATOM      6  O   UNL A   1      30.148  29.183  23.794  1.00  0.00    -0.245 OA
BRANCH   5   7
ATOM      7  C   UNL A   1      31.442  27.211  23.678  1.00  0.00     0.118 A 
ATOM      8  C   UNL A   1      30.001  25.956  25.305  1.00  0.00     0.047 C 
ATOM      9  C   UNL A   1      31.029  25.996  24.221  1.00  0.00    -0.012 A 
ATOM     10  C   UNL A   1      31.720  24.863  23.604  1.00  0.00     0.058 A 
ATOM     11  S   UNL A   1      32.428  27.020  22.318  1.00  0.00    -0.108 S 
ATOM     12  C   UNL A   1      32.489  25.336  22.539  1.00  0.00     0.129 A 
ATOM     13  C   UNL A   1      31.821  23.459  23.824  1.00  0.00     0.138 A 
ATOM     14  N   UNL A   1      33.273  24.627  21.712  1.00  0.00    -0.225 NA
ATOM     15  N   UNL A   1      32.630  22.738  23.003  1.00  0.00    -0.219 NA
ATOM     16  C   UNL A   1      33.284  23.336  22.005  1.00  0.00     0.225 A 
BRANCH  13  17
ATOM     17  N   UNL A   1      31.311  22.647  24.802  1.00  0.00    -0.364 N 
ATOM     18  H   UNL A   1      30.328  22.652  24.851  1.00  0.00     0.162 HD
BRANCH  17  19
ATOM     19  C   UNL A   1      31.939  21.789  25.768  1.00  0.00     0.172 C 
BRANCH  19  20
ATOM     20  C   UNL A   1      33.411  21.950  26.002  1.00  0.00     0.079 A 
ATOM     21  C   UNL A   1      34.072  23.087  26.454  1.00  0.00     0.113 A 
ATOM     22  N   UNL A   1      34.321  20.973  25.615  1.00  0.00    -0.226 NA
ATOM     23  N   UNL A   1      35.378  22.818  26.226  1.00  0.00    -0.325 N 
ATOM     24  C   UNL A   1      35.482  21.551  25.743  1.00  0.00     0.168 A 
ATOM     25  C   UNL A   1      36.527  23.680  26.036  1.00  0.00     0.135 C 
ATOM     26  S   UNL A   1      37.010  21.257  25.002  1.00  0.00    -0.086 SA
ATOM     27  C   UNL A   1      37.291  23.070  24.858  1.00  0.00     0.100 C 
ENDBRANCH  19  20
ENDBRANCH  17  19
ENDBRANCH  13  17
ENDBRANCH   5   7
ENDBRANCH   4   5
ENDBRANCH   3   4
ENDBRANCH   2   3
ENDBRANCH   1   2
BRANCH   1  28
ATOM     28  C   UNL A   1      34.248  31.553  27.664  1.00  0.00     0.202 C 
BRANCH  28  29
ATOM     29  C   UNL A   1      35.709  31.680  28.058  1.00  0.00     0.261 C 
BRANCH  29  30
ATOM     30  O   UNL A   1      36.467  30.539  27.685  1.00  0.00    -0.460 OA
BRANCH  30  31
ATOM     31  C   UNL A   1      36.741  29.721  28.728  1.00  0.00     0.338 C 
ATOM     32  O   UNL A   1      36.144  29.659  29.786  1.00  0.00    -0.246 OA
BRANCH  31  33
ATOM     33  C   UNL A   1      37.988  29.010  28.445  1.00  0.00     0.060 A 
ATOM     34  C   UNL A   1      38.500  28.210  29.467  1.00  0.00     0.016 A 
ATOM     35  C   UNL A   1      38.739  29.339  27.306  1.00  0.00     0.016 A 
ATOM     36  C   UNL A   1      39.835  27.876  29.424  1.00  0.00     0.010 A 
ATOM     37  C   UNL A   1      40.074  29.018  27.273  1.00  0.00     0.010 A 
ATOM     38  C   UNL A   1      40.622  28.345  28.363  1.00  0.00    -0.014 A 
BRANCH  38  39
ATOM     39  C   UNL A   1      41.998  27.895  28.285  1.00  0.00     0.031 A 
ATOM     40  C   UNL A   1      42.059  26.557  27.656  1.00  0.00     0.074 A 
ATOM     41  C   UNL A   1      43.051  28.662  28.633  1.00  0.00     0.049 A 
ATOM     42  N   UNL A   1      42.260  25.431  28.253  1.00  0.00    -0.248 NA
ATOM     43  C   UNL A   1      41.572  26.407  26.269  1.00  0.00     0.031 C 
ATOM     44  C   UNL A   1      43.023  30.070  29.039  1.00  0.00     0.029 A 
ATOM     45  N   UNL A   1      44.387  28.385  28.614  1.00  0.00    -0.354 N 
ATOM     46  C   UNL A   1      42.274  24.488  27.234  1.00  0.00     0.074 A 
ATOM     47  C   UNL A   1      41.577  25.080  26.129  1.00  0.00     0.031 C 
ATOM     48  C   UNL A   1      44.276  30.579  28.996  1.00  0.00     0.029 A 
ATOM     49  C   UNL A   1      45.213  29.510  28.686  1.00  0.00     0.049 A 
ATOM     50  H   UNL A   1      44.741  27.468  28.555  1.00  0.00     0.167 HD
ATOM     51  C   UNL A   1      43.215  23.507  27.251  1.00  0.00     0.034 A 
ATOM     52  C   UNL A   1      46.559  29.556  28.473  1.00  0.00     0.034 A 
ATOM     53  C   UNL A   1      43.793  23.387  28.568  1.00  0.00     0.049 A 
ATOM     54  C   UNL A   1      47.058  28.187  28.752  1.00  0.00     0.074 A 
ATOM     55  C   UNL A   1      43.376  22.954  29.808  1.00  0.00     0.029 A 
ATOM     56  N   UNL A   1      44.879  24.201  28.759  1.00  0.00    -0.354 N 
ATOM     57  N   UNL A   1      46.991  27.630  29.933  1.00  0.00    -0.248 NA
ATOM     58  C   UNL A   1      47.257  27.269  27.637  1.00  0.00     0.031 C 
ATOM     59  C   UNL A   1      44.153  23.678  30.759  1.00  0.00     0.029 A 
ATOM     60  C   UNL A   1      45.071  24.482  30.083  1.00  0.00     0.049 A 
ATOM     61  H   UNL A   1      45.450  24.543  28.034  1.00  0.00     0.167 HD
ATOM     62  C   UNL A   1      46.714  26.303  29.672  1.00  0.00     0.074 A 
ATOM     63  C   UNL A   1      47.045  26.108  28.264  1.00  0.00     0.031 C 
ATOM     64  C   UNL A   1      45.928  25.571  30.515  1.00  0.00     0.034 A 
BRANCH  51  65
ATOM     65  C   UNL A   1      43.996  23.071  26.025  1.00  0.00     0.023 A 
ATOM     66  C   UNL A   1      43.995  21.699  25.708  1.00  0.00     0.031 A 
ATOM     67  C   UNL A   1      44.966  23.855  25.356  1.00  0.00     0.131 A 
ATOM     68  C   UNL A   1      44.937  21.166  24.809  1.00  0.00     0.055 A 
ATOM     69  C   UNL A   1      45.865  23.331  24.427  1.00  0.00     0.041 A 
ATOM     70  F   UNL A   1      45.176  25.146  25.632  1.00  0.00    -0.206 F 
ATOM     71  C   UNL A   1      45.867  21.975  24.161  1.00  0.00     0.022 A 
BRANCH  68  72
ATOM     72  S   UNL A   1      44.997  19.373  24.565  1.00  0.00     0.124 S 
ATOM     73  O   UNL A   1      44.047  18.902  25.565  1.00  0.00    -0.237 OA
ATOM     74  O   UNL A   1      44.587  19.244  23.171  1.00  0.00    -0.237 OA
ATOM     75  O   UNL A   1      46.398  19.045  24.828  1.00  0.00    -0.744 OA
ENDBRANCH  68  72
ENDBRANCH  51  65
BRANCH  52  76
ATOM     76  C   UNL A   1      47.369  30.588  27.742  1.00  0.00     0.023 A 
ATOM     77  C   UNL A   1      46.773  31.694  27.083  1.00  0.00     0.031 A 
ATOM     78  C   UNL A   1      48.769  30.651  27.912  1.00  0.00     0.131 A 
ATOM     79  C   UNL A   1      47.561  32.797  26.662  1.00  0.00     0.055 A 
ATOM     80  C   UNL A   1      49.540  31.742  27.497  1.00  0.00     0.041 A 
ATOM     81  F   UNL A   1      49.439  29.692  28.568  1.00  0.00    -0.206 F 
ATOM     82  C   UNL A   1      48.937  32.828  26.886  1.00  0.00     0.022 A 
BRANCH  79  83
ATOM     83  S   UNL A   1      46.793  34.280  25.922  1.00  0.00     0.124 S 
ATOM     84  O   UNL A   1      47.828  34.732  24.999  1.00  0.00    -0.237 OA
ATOM     85  O   UNL A   1      45.578  33.745  25.321  1.00  0.00    -0.237 OA
ATOM     86  O   UNL A   1      46.570  35.156  27.074  1.00  0.00    -0.744 OA
ENDBRANCH  79  83
ENDBRANCH  52  76
BRANCH  64  87
ATOM     87  C   UNL A   1      45.893  25.931  31.975  1.00  0.00     0.023 A 
ATOM     88  C   UNL A   1      44.774  26.393  32.698  1.00  0.00     0.031 A 
ATOM     89  C   UNL A   1      47.065  25.623  32.690  1.00  0.00     0.131 A 
ATOM     90  C   UNL A   1      44.860  26.505  34.103  1.00  0.00     0.055 A 
ATOM     91  C   UNL A   1      47.136  25.708  34.075  1.00  0.00     0.041 A 
ATOM     92  F   UNL A   1      48.152  25.166  32.043  1.00  0.00    -0.206 F 
ATOM     93  C   UNL A   1      46.030  26.148  34.788  1.00  0.00     0.022 A 
BRANCH  90  94
ATOM     94  S   UNL A   1      43.434  27.079  35.085  1.00  0.00     0.124 S 
ATOM     95  O   UNL A   1      43.960  27.101  36.446  1.00  0.00    -0.237 OA
ATOM     96  O   UNL A   1      43.135  28.378  34.491  1.00  0.00    -0.237 OA
ATOM     97  O   UNL A   1      42.415  26.055  34.844  1.00  0.00    -0.744 OA
ENDBRANCH  90  94
ENDBRANCH  64  87
ENDBRANCH  38  39
ENDBRANCH  31  33
ENDBRANCH  30  31
ENDBRANCH  29  30
ENDBRANCH  28  29
ENDBRANCH   1  28
TORSDOF 20
ENDMDL
MODEL 3
REMARK VINA RESULT:     -11.3      4.146      9.253
REMARK SMILES Cc1c(C(=O)OCCOCCOC(=O)c2ccc(-c3c4nc(c(-c5cc(S(=O)(=O)[O-])ccc5F)c5ccc([nH]5)c(-c5cc(S(=O)(=O)[O-])ccc5F)c5nc(c(-c6cc(S(=O)(=O)[O-])ccc6F)c6ccc3[nH]6)C=C5)C=C4)cc2)sc2ncnc(NCc3cn4c(n3)SCC4)c12
REMARK SMILES IDX 9 1 8 2 7 3 6 4 4 5 5 6 3 7 1 8 2 9 94 10 78 11 79 12 83 13
REMARK SMILES IDX 80 14 82 15 81 16 84 17 85 19 86 20 87 21 90 22 88 23 89 24
REMARK SMILES IDX 93 25 91 26 92 27 10 28 11 29 12 30 13 31 14 32 15 33 16 34
REMARK SMILES IDX 77 35 17 36 76 37 18 38 19 39 20 40 70 41 21 42 75 43 69 44
REMARK SMILES IDX 71 45 22 46 74 47 68 48 67 49 23 51 55 52 35 53 54 54 36 55
REMARK SMILES IDX 39 56 53 57 72 58 37 59 38 60 52 62 73 63 40 64 24 65 25 66
REMARK SMILES IDX 33 67 26 68 32 69 34 70 31 71 27 72 28 73 29 74 30 75 56 76
REMARK SMILES IDX 57 77 65 78 58 79 64 80 66 81 63 82 59 83 60 84 61 85 62 86
REMARK SMILES IDX 41 87 42 88 50 89 43 90 49 91 51 92 48 93 44 94 45 95 46 96
REMARK SMILES IDX 47 97
REMARK H PARENT 84 18 71 50 39 61
REMARK Flexibility Score: inf
ROOT
ATOM      1  O   UNL A   1      33.902  30.787  26.985  1.00  0.00    -0.374 OA
ENDROOT
BRANCH   1   2
ATOM      2  C   UNL A   1      32.531  30.388  27.022  1.00  0.00     0.202 C 
BRANCH   2   3
ATOM      3  C   UNL A   1      31.743  30.470  25.712  1.00  0.00     0.261 C 
BRANCH   3   4
ATOM      4  O   UNL A   1      32.281  29.596  24.708  1.00  0.00    -0.459 OA
BRANCH   4   5
ATOM      5  C   UNL A   1      31.437  28.605  24.297  1.00  0.00     0.348 C 
ATOM      6  O   UNL A   1      30.617  28.709  23.400  1.00  0.00    -0.245 OA
BRANCH   5   7
ATOM      7  C   UNL A   1      31.779  27.350  24.942  1.00  0.00     0.118 A 
ATOM      8  C   UNL A   1      33.658  26.763  23.387  1.00  0.00     0.047 C 
ATOM      9  C   UNL A   1      32.729  26.429  24.509  1.00  0.00    -0.012 A 
ATOM     10  C   UNL A   1      32.664  25.181  25.272  1.00  0.00     0.058 A 
ATOM     11  S   UNL A   1      30.996  26.866  26.361  1.00  0.00    -0.108 S 
ATOM     12  C   UNL A   1      31.754  25.345  26.318  1.00  0.00     0.129 A 
ATOM     13  C   UNL A   1      33.253  23.886  25.203  1.00  0.00     0.138 A 
ATOM     14  N   UNL A   1      31.402  24.447  27.251  1.00  0.00    -0.225 NA
ATOM     15  N   UNL A   1      32.885  22.964  26.132  1.00  0.00    -0.219 NA
ATOM     16  C   UNL A   1      32.016  23.285  27.093  1.00  0.00     0.225 A 
BRANCH  13  17
ATOM     17  N   UNL A   1      34.099  23.312  24.291  1.00  0.00    -0.364 N 
ATOM     18  H   UNL A   1      34.036  23.702  23.389  1.00  0.00     0.162 HD
BRANCH  17  19
ATOM     19  C   UNL A   1      35.060  22.250  24.402  1.00  0.00     0.172 C 
BRANCH  19  20
ATOM     20  C   UNL A   1      34.550  20.846  24.517  1.00  0.00     0.079 A 
ATOM     21  C   UNL A   1      35.238  19.737  24.999  1.00  0.00     0.113 A 
ATOM     22  N   UNL A   1      33.328  20.468  23.973  1.00  0.00    -0.226 NA
ATOM     23  N   UNL A   1      34.464  18.689  24.636  1.00  0.00    -0.325 N 
ATOM     24  C   UNL A   1      33.336  19.167  24.044  1.00  0.00     0.168 A 
ATOM     25  C   UNL A   1      34.767  17.290  24.414  1.00  0.00     0.135 C 
ATOM     26  S   UNL A   1      32.502  17.954  23.149  1.00  0.00    -0.086 SA
ATOM     27  C   UNL A   1      34.025  16.920  23.128  1.00  0.00     0.100 C 
ENDBRANCH  19  20
ENDBRANCH  17  19
ENDBRANCH  13  17
ENDBRANCH   5   7
ENDBRANCH   4   5
ENDBRANCH   3   4
ENDBRANCH   2   3
ENDBRANCH   1   2
BRANCH   1  28
ATOM     28  C   UNL A   1      34.331  31.852  27.829  1.00  0.00     0.202 C 
BRANCH  28  29
ATOM     29  C   UNL A   1      35.610  31.695  28.633  1.00  0.00     0.261 C 
BRANCH  29  30
ATOM     30  O   UNL A   1      36.398  30.604  28.180  1.00  0.00    -0.460 OA
BRANCH  30  31
ATOM     31  C   UNL A   1      36.667  29.704  29.153  1.00  0.00     0.338 C 
ATOM     32  O   UNL A   1      36.078  29.571  30.210  1.00  0.00    -0.246 OA
BRANCH  31  33
ATOM     33  C   UNL A   1      37.898  28.995  28.803  1.00  0.00     0.060 A 
ATOM     34  C   UNL A   1      38.479  28.215  29.803  1.00  0.00     0.016 A 
ATOM     35  C   UNL A   1      38.573  29.309  27.613  1.00  0.00     0.016 A 
ATOM     36  C   UNL A   1      39.811  27.887  29.681  1.00  0.00     0.010 A 
ATOM     37  C   UNL A   1      39.905  28.995  27.501  1.00  0.00     0.010 A 
ATOM     38  C   UNL A   1      40.525  28.343  28.564  1.00  0.00    -0.014 A 
BRANCH  38  39
ATOM     39  C   UNL A   1      41.897  27.900  28.406  1.00  0.00     0.031 A 
ATOM     40  C   UNL A   1      41.928  26.572  27.754  1.00  0.00     0.074 A 
ATOM     41  C   UNL A   1      42.964  28.665  28.711  1.00  0.00     0.049 A 
ATOM     42  N   UNL A   1      42.164  25.438  28.321  1.00  0.00    -0.248 NA
ATOM     43  C   UNL A   1      41.369  26.442  26.393  1.00  0.00     0.031 C 
ATOM     44  C   UNL A   1      42.954  30.067  29.141  1.00  0.00     0.029 A 
ATOM     45  N   UNL A   1      44.299  28.393  28.617  1.00  0.00    -0.354 N 
ATOM     46  C   UNL A   1      42.126  24.511  27.288  1.00  0.00     0.074 A 
ATOM     47  C   UNL A   1      41.370  25.117  26.231  1.00  0.00     0.031 C 
ATOM     48  C   UNL A   1      44.202  30.580  29.039  1.00  0.00     0.029 A 
ATOM     49  C   UNL A   1      45.124  29.520  28.662  1.00  0.00     0.049 A 
ATOM     50  H   UNL A   1      44.651  27.478  28.524  1.00  0.00     0.167 HD
ATOM     51  C   UNL A   1      43.070  23.533  27.240  1.00  0.00     0.034 A 
ATOM     52  C   UNL A   1      46.457  29.574  28.379  1.00  0.00     0.034 A 
ATOM     53  C   UNL A   1      43.717  23.395  28.522  1.00  0.00     0.049 A 
ATOM     54  C   UNL A   1      46.974  28.203  28.610  1.00  0.00     0.074 A 
ATOM     55  C   UNL A   1      43.368  22.940  29.775  1.00  0.00     0.029 A 
ATOM     56  N   UNL A   1      44.810  24.210  28.668  1.00  0.00    -0.354 N 
ATOM     57  N   UNL A   1      46.971  27.627  29.783  1.00  0.00    -0.248 NA
ATOM     58  C   UNL A   1      47.116  27.303  27.471  1.00  0.00     0.031 C 
ATOM     59  C   UNL A   1      44.192  23.652  30.695  1.00  0.00     0.029 A 
ATOM     60  C   UNL A   1      45.070  24.470  29.984  1.00  0.00     0.049 A 
ATOM     61  H   UNL A   1      45.340  24.565  27.919  1.00  0.00     0.167 HD
ATOM     62  C   UNL A   1      46.684  26.303  29.516  1.00  0.00     0.074 A 
ATOM     63  C   UNL A   1      46.941  26.132  28.090  1.00  0.00     0.031 C 
ATOM     64  C   UNL A   1      45.946  25.555  30.388  1.00  0.00     0.034 A 
BRANCH  51  65
ATOM     65  C   UNL A   1      43.786  23.119  25.967  1.00  0.00     0.023 A 
ATOM     66  C   UNL A   1      43.809  21.747  25.651  1.00  0.00     0.031 A 
ATOM     67  C   UNL A   1      44.686  23.933  25.238  1.00  0.00     0.131 A 
ATOM     68  C   UNL A   1      44.710  21.243  24.695  1.00  0.00     0.055 A 
ATOM     69  C   UNL A   1      45.541  23.435  24.254  1.00  0.00     0.041 A 
ATOM     70  F   UNL A   1      44.871  25.231  25.500  1.00  0.00    -0.206 F 
ATOM     71  C   UNL A   1      45.571  22.080  23.990  1.00  0.00     0.022 A 
BRANCH  68  72
ATOM     72  S   UNL A   1      44.813  19.452  24.449  1.00  0.00     0.124 S 
ATOM     73  O   UNL A   1      46.187  19.173  24.847  1.00  0.00    -0.237 OA
ATOM     74  O   UNL A   1      43.768  18.964  25.343  1.00  0.00    -0.237 OA
ATOM     75  O   UNL A   1      44.529  19.292  23.023  1.00  0.00    -0.744 OA
ENDBRANCH  68  72
ENDBRANCH  51  65
BRANCH  52  76
ATOM     76  C   UNL A   1      47.224  30.620  27.624  1.00  0.00     0.023 A 
ATOM     77  C   UNL A   1      46.591  31.733  27.012  1.00  0.00     0.031 A 
ATOM     78  C   UNL A   1      48.631  30.688  27.722  1.00  0.00     0.131 A 
ATOM     79  C   UNL A   1      47.352  32.846  26.567  1.00  0.00     0.055 A 
ATOM     80  C   UNL A   1      49.374  31.789  27.284  1.00  0.00     0.041 A 
ATOM     81  F   UNL A   1      49.338  29.723  28.329  1.00  0.00    -0.206 F 
ATOM     82  C   UNL A   1      48.737  32.881  26.721  1.00  0.00     0.022 A 
BRANCH  79  83
ATOM     83  S   UNL A   1      46.540  34.336  25.890  1.00  0.00     0.124 S 
ATOM     84  O   UNL A   1      45.379  33.770  25.213  1.00  0.00    -0.237 OA
ATOM     85  O   UNL A   1      46.272  35.126  27.085  1.00  0.00    -0.237 OA
ATOM     86  O   UNL A   1      47.557  34.901  25.001  1.00  0.00    -0.744 OA
ENDBRANCH  79  83
ENDBRANCH  52  76
BRANCH  64  87
ATOM     87  C   UNL A   1      45.987  25.891  31.854  1.00  0.00     0.023 A 
ATOM     88  C   UNL A   1      44.905  26.331  32.643  1.00  0.00     0.031 A 
ATOM     89  C   UNL A   1      47.200  25.585  32.498  1.00  0.00     0.131 A 
ATOM     90  C   UNL A   1      45.067  26.421  34.044  1.00  0.00     0.055 A 
ATOM     91  C   UNL A   1      47.345  25.649  33.878  1.00  0.00     0.041 A 
ATOM     92  F   UNL A   1      48.254  25.150  31.786  1.00  0.00    -0.206 F 
ATOM     93  C   UNL A   1      46.276  26.066  34.658  1.00  0.00     0.022 A 
BRANCH  90  94
ATOM     94  S   UNL A   1      43.692  26.965  35.111  1.00  0.00     0.124 S 
ATOM     95  O   UNL A   1      42.777  25.828  35.074  1.00  0.00    -0.237 OA
ATOM     96  O   UNL A   1      44.353  27.216  36.388  1.00  0.00    -0.237 OA
ATOM     97  O   UNL A   1      43.192  28.168  34.443  1.00  0.00    -0.744 OA
ENDBRANCH  90  94
ENDBRANCH  64  87
ENDBRANCH  38  39
ENDBRANCH  31  33
ENDBRANCH  30  31
ENDBRANCH  29  30
ENDBRANCH  28  29
ENDBRANCH   1  28
TORSDOF 20
ENDMDL
