MODEL 1
REMARK VINA RESULT:     -11.3      0.000      0.000
REMARK SMILES O=C(OCCOCCOC(=O)c1cc(Br)ccc1NC(=O)c1ccc(Br)s1)c1ccc(-c2c3nc(c(-c4cc(S(=O)(=O)[O-])ccc4F)c4ccc([nH]4)c(-c4cc(S(=O)(=O)[O-])ccc4F)c4nc(c(-c5cc(S(=O)(=O)[O-])ccc5F)c5ccc2[nH]5)C=C4)C=C3)cc1
REMARK SMILES IDX 5 1 4 2 3 3 2 4 1 5 28 6 29 7 90 8 30 9 89 10 31 11 32 12
REMARK SMILES IDX 33 13 83 14 34 15 88 16 82 17 84 18 35 19 87 20 81 21 80 22
REMARK SMILES IDX 36 24 68 25 48 26 67 27 49 28 52 29 66 30 85 31 50 32 51 33
REMARK SMILES IDX 65 35 86 36 53 37 37 38 38 39 46 40 39 41 45 42 47 43 44 44
REMARK SMILES IDX 40 45 41 46 42 47 43 48 69 49 70 50 78 51 71 52 77 53 79 54
REMARK SMILES IDX 76 55 72 56 73 57 74 58 75 59 54 60 55 61 63 62 56 63 62 64
REMARK SMILES IDX 64 65 61 66 57 67 58 68 59 69 60 70 6 71 7 72 8 73 9 74
REMARK SMILES IDX 10 75 11 76 12 77 13 78 18 79 14 80 17 81 15 82 16 83 19 84
REMARK SMILES IDX 20 85 21 87 22 88 23 89 27 90 24 91 25 92 26 93
REMARK H PARENT 84 23 52 34 19 86
REMARK Flexibility Score: inf
ROOT
ATOM      1  C   UNL A   1      36.498  22.829  23.840  1.00  0.00     0.202 C 
ENDROOT
BRANCH   1   2
ATOM      2  C   UNL A   1      36.514  21.475  24.546  1.00  0.00     0.261 C 
BRANCH   2   3
ATOM      3  O   UNL A   1      37.166  21.595  25.815  1.00  0.00    -0.460 OA
BRANCH   3   4
ATOM      4  C   UNL A   1      38.497  21.532  26.048  1.00  0.00     0.338 C 
ATOM      5  O   UNL A   1      39.079  20.465  25.859  1.00  0.00    -0.246 OA
BRANCH   4   6
ATOM      6  C   UNL A   1      39.303  22.698  26.515  1.00  0.00     0.060 A 
ATOM      7  C   UNL A   1      40.451  22.603  27.307  1.00  0.00     0.016 A 
ATOM      8  C   UNL A   1      38.933  23.959  26.030  1.00  0.00     0.016 A 
ATOM      9  C   UNL A   1      41.199  23.720  27.643  1.00  0.00     0.010 A 
ATOM     10  C   UNL A   1      39.695  25.088  26.338  1.00  0.00     0.010 A 
ATOM     11  C   UNL A   1      40.830  24.963  27.148  1.00  0.00    -0.014 A 
BRANCH  11  12
ATOM     12  C   UNL A   1      41.592  26.142  27.582  1.00  0.00     0.031 A 
ATOM     13  C   UNL A   1      40.914  27.111  28.489  1.00  0.00     0.074 A 
ATOM     14  C   UNL A   1      42.876  26.276  27.213  1.00  0.00     0.049 A 
ATOM     15  N   UNL A   1      41.284  28.306  28.852  1.00  0.00    -0.248 NA
ATOM     16  C   UNL A   1      39.635  26.664  29.062  1.00  0.00     0.031 C 
ATOM     17  C   UNL A   1      43.641  25.285  26.452  1.00  0.00     0.029 A 
ATOM     18  N   UNL A   1      43.763  27.294  27.425  1.00  0.00    -0.354 N 
ATOM     19  C   UNL A   1      40.258  28.780  29.662  1.00  0.00     0.074 A 
ATOM     20  C   UNL A   1      39.255  27.738  29.733  1.00  0.00     0.031 C 
ATOM     21  C   UNL A   1      44.881  25.754  26.247  1.00  0.00     0.029 A 
ATOM     22  C   UNL A   1      44.965  27.107  26.783  1.00  0.00     0.049 A 
ATOM     23  H   UNL A   1      43.563  28.081  27.982  1.00  0.00     0.167 HD
ATOM     24  C   UNL A   1      40.170  29.992  30.261  1.00  0.00     0.034 A 
ATOM     25  C   UNL A   1      45.981  27.972  26.593  1.00  0.00     0.034 A 
ATOM     26  C   UNL A   1      41.200  30.990  30.119  1.00  0.00     0.049 A 
ATOM     27  C   UNL A   1      45.826  29.354  27.173  1.00  0.00     0.074 A 
ATOM     28  C   UNL A   1      41.229  32.289  30.588  1.00  0.00     0.029 A 
ATOM     29  N   UNL A   1      42.398  30.789  29.431  1.00  0.00    -0.354 N 
ATOM     30  N   UNL A   1      44.815  29.851  27.853  1.00  0.00    -0.248 NA
ATOM     31  C   UNL A   1      46.929  30.294  26.956  1.00  0.00     0.031 C 
ATOM     32  C   UNL A   1      42.408  32.889  30.129  1.00  0.00     0.029 A 
ATOM     33  C   UNL A   1      43.158  31.943  29.443  1.00  0.00     0.049 A 
ATOM     34  H   UNL A   1      42.662  29.944  28.999  1.00  0.00     0.167 HD
ATOM     35  C   UNL A   1      45.168  31.157  28.167  1.00  0.00     0.074 A 
ATOM     36  C   UNL A   1      46.489  31.368  27.600  1.00  0.00     0.031 C 
ATOM     37  C   UNL A   1      44.476  32.097  28.862  1.00  0.00     0.034 A 
BRANCH  24  38
ATOM     38  C   UNL A   1      38.876  30.300  30.977  1.00  0.00     0.023 A 
ATOM     39  C   UNL A   1      37.844  31.040  30.368  1.00  0.00     0.031 A 
ATOM     40  C   UNL A   1      38.736  29.984  32.340  1.00  0.00     0.131 A 
ATOM     41  C   UNL A   1      36.789  31.543  31.147  1.00  0.00     0.055 A 
ATOM     42  C   UNL A   1      37.632  30.403  33.086  1.00  0.00     0.041 A 
ATOM     43  F   UNL A   1      39.698  29.309  32.988  1.00  0.00    -0.206 F 
ATOM     44  C   UNL A   1      36.664  31.209  32.497  1.00  0.00     0.022 A 
BRANCH  41  45
ATOM     45  S   UNL A   1      35.713  32.818  30.429  1.00  0.00     0.124 S 
ATOM     46  O   UNL A   1      36.349  34.043  30.911  1.00  0.00    -0.237 OA
ATOM     47  O   UNL A   1      35.826  32.558  28.999  1.00  0.00    -0.237 OA
ATOM     48  O   UNL A   1      34.405  32.534  31.016  1.00  0.00    -0.744 OA
ENDBRANCH  41  45
ENDBRANCH  24  38
BRANCH  25  49
ATOM     49  C   UNL A   1      47.148  27.579  25.752  1.00  0.00     0.023 A 
ATOM     50  C   UNL A   1      47.196  27.860  24.378  1.00  0.00     0.031 A 
ATOM     51  C   UNL A   1      48.258  26.931  26.328  1.00  0.00     0.131 A 
ATOM     52  C   UNL A   1      48.322  27.483  23.626  1.00  0.00     0.055 A 
ATOM     53  C   UNL A   1      49.393  26.600  25.587  1.00  0.00     0.041 A 
ATOM     54  F   UNL A   1      48.268  26.637  27.639  1.00  0.00    -0.206 F 
ATOM     55  C   UNL A   1      49.427  26.870  24.225  1.00  0.00     0.022 A 
BRANCH  52  56
ATOM     56  S   UNL A   1      48.315  27.765  21.833  1.00  0.00     0.124 S 
ATOM     57  O   UNL A   1      46.951  28.231  21.611  1.00  0.00    -0.237 OA
ATOM     58  O   UNL A   1      49.368  28.764  21.678  1.00  0.00    -0.237 OA
ATOM     59  O   UNL A   1      48.623  26.449  21.279  1.00  0.00    -0.744 OA
ENDBRANCH  52  56
ENDBRANCH  25  49
BRANCH  37  60
ATOM     60  C   UNL A   1      45.170  33.411  29.098  1.00  0.00     0.023 A 
ATOM     61  C   UNL A   1      45.048  34.486  28.204  1.00  0.00     0.031 A 
ATOM     62  C   UNL A   1      45.925  33.594  30.270  1.00  0.00     0.131 A 
ATOM     63  C   UNL A   1      45.700  35.695  28.484  1.00  0.00     0.055 A 
ATOM     64  C   UNL A   1      46.527  34.815  30.568  1.00  0.00     0.041 A 
ATOM     65  F   UNL A   1      46.067  32.592  31.153  1.00  0.00    -0.206 F 
ATOM     66  C   UNL A   1      46.420  35.872  29.670  1.00  0.00     0.022 A 
BRANCH  63  67
ATOM     67  S   UNL A   1      45.633  37.026  27.256  1.00  0.00     0.124 S 
ATOM     68  O   UNL A   1      44.202  37.119  26.989  1.00  0.00    -0.237 OA
ATOM     69  O   UNL A   1      46.223  38.150  27.977  1.00  0.00    -0.237 OA
ATOM     70  O   UNL A   1      46.439  36.512  26.149  1.00  0.00    -0.744 OA
ENDBRANCH  63  67
ENDBRANCH  37  60
ENDBRANCH  11  12
ENDBRANCH   4   6
ENDBRANCH   3   4
ENDBRANCH   2   3
ENDBRANCH   1   2
BRANCH   1  71
ATOM     71  O   UNL A   1      35.272  23.175  23.204  1.00  0.00    -0.374 OA
BRANCH  71  72
ATOM     72  C   UNL A   1      34.082  22.606  23.753  1.00  0.00     0.202 C 
BRANCH  72  73
ATOM     73  C   UNL A   1      32.967  23.651  23.661  1.00  0.00     0.261 C 
BRANCH  73  74
ATOM     74  O   UNL A   1      33.320  24.776  24.488  1.00  0.00    -0.460 OA
BRANCH  74  75
ATOM     75  C   UNL A   1      33.263  25.999  23.895  1.00  0.00     0.340 C 
ATOM     76  O   UNL A   1      33.319  26.264  22.713  1.00  0.00    -0.246 OA
BRANCH  75  77
ATOM     77  C   UNL A   1      32.872  26.974  24.944  1.00  0.00     0.084 A 
ATOM     78  C   UNL A   1      33.895  27.692  25.586  1.00  0.00     0.033 A 
ATOM     79  C   UNL A   1      31.527  27.077  25.369  1.00  0.00     0.056 A 
ATOM     80  C   UNL A   1      33.598  28.466  26.699  1.00  0.00     0.018 A 
ATOM     81  C   UNL A   1      31.280  27.802  26.540  1.00  0.00     0.028 A 
ATOM     82  Br  UNL A   1      34.971  29.419  27.577  1.00  0.00    -0.051 Br
ATOM     83  C   UNL A   1      32.301  28.503  27.193  1.00  0.00     0.018 A 
BRANCH  79  84
ATOM     84  N   UNL A   1      30.510  26.375  24.673  1.00  0.00    -0.320 N 
ATOM     85  C   UNL A   1      29.454  26.791  23.881  1.00  0.00     0.265 C 
ATOM     86  H   UNL A   1      30.565  25.398  24.774  1.00  0.00     0.170 HD
ATOM     87  O   UNL A   1      28.478  26.044  23.797  1.00  0.00    -0.268 OA
BRANCH  85  88
ATOM     88  C   UNL A   1      29.549  28.034  23.145  1.00  0.00     0.093 A 
ATOM     89  C   UNL A   1      30.636  28.560  22.468  1.00  0.00     0.027 A 
ATOM     90  S   UNL A   1      28.170  29.043  22.999  1.00  0.00    -0.123 S 
ATOM     91  C   UNL A   1      30.354  29.841  21.907  1.00  0.00     0.028 A 
ATOM     92  C   UNL A   1      29.055  30.209  22.145  1.00  0.00     0.071 A 
ATOM     93  Br  UNL A   1      28.327  31.841  21.581  1.00  0.00    -0.039 Br
ENDBRANCH  85  88
ENDBRANCH  79  84
ENDBRANCH  75  77
ENDBRANCH  74  75
ENDBRANCH  73  74
ENDBRANCH  72  73
ENDBRANCH  71  72
ENDBRANCH   1  71
TORSDOF 19
ENDMDL
MODEL 2
REMARK VINA RESULT:     -11.2      5.359     10.335
REMARK SMILES O=C(OCCOCCOC(=O)c1cc(Br)ccc1NC(=O)c1ccc(Br)s1)c1ccc(-c2c3nc(c(-c4cc(S(=O)(=O)[O-])ccc4F)c4ccc([nH]4)c(-c4cc(S(=O)(=O)[O-])ccc4F)c4nc(c(-c5cc(S(=O)(=O)[O-])ccc5F)c5ccc2[nH]5)C=C4)C=C3)cc1
REMARK SMILES IDX 5 1 4 2 3 3 2 4 1 5 28 6 29 7 90 8 30 9 89 10 31 11 32 12
REMARK SMILES IDX 33 13 83 14 34 15 88 16 82 17 84 18 35 19 87 20 81 21 80 22
REMARK SMILES IDX 36 24 68 25 48 26 67 27 49 28 52 29 66 30 85 31 50 32 51 33
REMARK SMILES IDX 65 35 86 36 53 37 37 38 38 39 46 40 39 41 45 42 47 43 44 44
REMARK SMILES IDX 40 45 41 46 42 47 43 48 69 49 70 50 78 51 71 52 77 53 79 54
REMARK SMILES IDX 76 55 72 56 73 57 74 58 75 59 54 60 55 61 63 62 56 63 62 64
REMARK SMILES IDX 64 65 61 66 57 67 58 68 59 69 60 70 6 71 7 72 8 73 9 74
REMARK SMILES IDX 10 75 11 76 12 77 13 78 18 79 14 80 17 81 15 82 16 83 19 84
REMARK SMILES IDX 20 85 21 87 22 88 23 89 27 90 24 91 25 92 26 93
REMARK H PARENT 84 23 52 34 19 86
REMARK Flexibility Score: inf
ROOT
ATOM      1  C   UNL A   1      31.387  29.485  24.917  1.00  0.00     0.202 C 
ENDROOT
BRANCH   1   2
ATOM      2  C   UNL A   1      31.905  29.800  26.319  1.00  0.00     0.261 C 
BRANCH   2   3
ATOM      3  O   UNL A   1      33.124  30.548  26.231  1.00  0.00    -0.460 OA
BRANCH   3   4
ATOM      4  C   UNL A   1      33.669  31.320  27.199  1.00  0.00     0.338 C 
ATOM      5  O   UNL A   1      33.095  32.361  27.516  1.00  0.00    -0.246 OA
BRANCH   4   6
ATOM      6  C   UNL A   1      34.931  30.968  27.914  1.00  0.00     0.060 A 
ATOM      7  C   UNL A   1      35.215  29.710  28.452  1.00  0.00     0.016 A 
ATOM      8  C   UNL A   1      35.935  31.946  27.945  1.00  0.00     0.016 A 
ATOM      9  C   UNL A   1      36.439  29.427  29.037  1.00  0.00     0.010 A 
ATOM     10  C   UNL A   1      37.182  31.663  28.505  1.00  0.00     0.010 A 
ATOM     11  C   UNL A   1      37.430  30.398  29.052  1.00  0.00    -0.014 A 
BRANCH  11  12
ATOM     12  C   UNL A   1      38.689  30.100  29.747  1.00  0.00     0.031 A 
ATOM     13  C   UNL A   1      39.646  29.170  29.082  1.00  0.00     0.074 A 
ATOM     14  C   UNL A   1      38.970  30.714  30.907  1.00  0.00     0.049 A 
ATOM     15  N   UNL A   1      40.714  28.598  29.558  1.00  0.00    -0.248 NA
ATOM     16  C   UNL A   1      39.347  28.840  27.679  1.00  0.00     0.031 C 
ATOM     17  C   UNL A   1      38.143  31.749  31.533  1.00  0.00     0.029 A 
ATOM     18  N   UNL A   1      40.023  30.561  31.766  1.00  0.00    -0.354 N 
ATOM     19  C   UNL A   1      41.194  27.797  28.528  1.00  0.00     0.074 A 
ATOM     20  C   UNL A   1      40.296  27.963  27.405  1.00  0.00     0.031 C 
ATOM     21  C   UNL A   1      38.714  32.126  32.687  1.00  0.00     0.029 A 
ATOM     22  C   UNL A   1      39.891  31.298  32.920  1.00  0.00     0.049 A 
ATOM     23  H   UNL A   1      40.796  29.982  31.578  1.00  0.00     0.167 HD
ATOM     24  C   UNL A   1      42.277  26.982  28.550  1.00  0.00     0.034 A 
ATOM     25  C   UNL A   1      40.608  31.243  34.059  1.00  0.00     0.034 A 
ATOM     26  C   UNL A   1      43.108  26.848  29.721  1.00  0.00     0.049 A 
ATOM     27  C   UNL A   1      41.744  30.256  34.112  1.00  0.00     0.074 A 
ATOM     28  C   UNL A   1      44.185  26.012  29.936  1.00  0.00     0.029 A 
ATOM     29  N   UNL A   1      42.933  27.583  30.894  1.00  0.00    -0.354 N 
ATOM     30  N   UNL A   1      42.147  29.416  33.182  1.00  0.00    -0.248 NA
ATOM     31  C   UNL A   1      42.516  30.193  35.357  1.00  0.00     0.031 C 
ATOM     32  C   UNL A   1      44.617  26.192  31.256  1.00  0.00     0.029 A 
ATOM     33  C   UNL A   1      43.864  27.202  31.842  1.00  0.00     0.049 A 
ATOM     34  H   UNL A   1      42.245  28.274  31.027  1.00  0.00     0.167 HD
ATOM     35  C   UNL A   1      43.233  28.739  33.720  1.00  0.00     0.074 A 
ATOM     36  C   UNL A   1      43.423  29.272  35.058  1.00  0.00     0.031 C 
ATOM     37  C   UNL A   1      44.010  27.771  33.166  1.00  0.00     0.034 A 
BRANCH  24  38
ATOM     38  C   UNL A   1      42.495  26.115  27.333  1.00  0.00     0.023 A 
ATOM     39  C   UNL A   1      42.022  24.790  27.266  1.00  0.00     0.031 A 
ATOM     40  C   UNL A   1      43.322  26.566  26.289  1.00  0.00     0.131 A 
ATOM     41  C   UNL A   1      42.481  23.933  26.253  1.00  0.00     0.055 A 
ATOM     42  C   UNL A   1      43.693  25.737  25.229  1.00  0.00     0.041 A 
ATOM     43  F   UNL A   1      43.832  27.808  26.309  1.00  0.00    -0.206 F 
ATOM     44  C   UNL A   1      43.294  24.404  25.219  1.00  0.00     0.022 A 
BRANCH  41  45
ATOM     45  S   UNL A   1      42.185  22.149  26.426  1.00  0.00     0.124 S 
ATOM     46  O   UNL A   1      40.726  22.089  26.387  1.00  0.00    -0.237 OA
ATOM     47  O   UNL A   1      42.880  21.600  25.268  1.00  0.00    -0.237 OA
ATOM     48  O   UNL A   1      42.779  21.827  27.723  1.00  0.00    -0.744 OA
ENDBRANCH  41  45
ENDBRANCH  24  38
BRANCH  25  49
ATOM     49  C   UNL A   1      40.202  32.065  35.236  1.00  0.00     0.023 A 
ATOM     50  C   UNL A   1      39.228  31.624  36.144  1.00  0.00     0.031 A 
ATOM     51  C   UNL A   1      40.813  33.310  35.483  1.00  0.00     0.131 A 
ATOM     52  C   UNL A   1      38.886  32.425  37.248  1.00  0.00     0.055 A 
ATOM     53  C   UNL A   1      40.503  34.081  36.605  1.00  0.00     0.041 A 
ATOM     54  F   UNL A   1      41.752  33.784  34.648  1.00  0.00    -0.206 F 
ATOM     55  C   UNL A   1      39.529  33.642  37.492  1.00  0.00     0.022 A 
BRANCH  52  56
ATOM     56  S   UNL A   1      37.551  31.878  38.349  1.00  0.00     0.124 S 
ATOM     57  O   UNL A   1      37.255  30.552  37.821  1.00  0.00    -0.237 OA
ATOM     58  O   UNL A   1      38.199  31.920  39.656  1.00  0.00    -0.237 OA
ATOM     59  O   UNL A   1      36.507  32.880  38.144  1.00  0.00    -0.744 OA
ENDBRANCH  52  56
ENDBRANCH  25  49
BRANCH  37  60
ATOM     60  C   UNL A   1      45.172  27.283  33.988  1.00  0.00     0.023 A 
ATOM     61  C   UNL A   1      45.060  26.180  34.849  1.00  0.00     0.031 A 
ATOM     62  C   UNL A   1      46.422  27.913  33.862  1.00  0.00     0.131 A 
ATOM     63  C   UNL A   1      46.180  25.755  35.576  1.00  0.00     0.055 A 
ATOM     64  C   UNL A   1      47.545  27.452  34.548  1.00  0.00     0.041 A 
ATOM     65  F   UNL A   1      46.575  28.971  33.049  1.00  0.00    -0.206 F 
ATOM     66  C   UNL A   1      47.425  26.371  35.415  1.00  0.00     0.022 A 
BRANCH  63  67
ATOM     67  S   UNL A   1      45.982  24.410  36.774  1.00  0.00     0.124 S 
ATOM     68  O   UNL A   1      44.892  23.638  36.185  1.00  0.00    -0.237 OA
ATOM     69  O   UNL A   1      47.296  23.776  36.757  1.00  0.00    -0.237 OA
ATOM     70  O   UNL A   1      45.648  25.105  38.017  1.00  0.00    -0.744 OA
ENDBRANCH  63  67
ENDBRANCH  37  60
ENDBRANCH  11  12
ENDBRANCH   4   6
ENDBRANCH   3   4
ENDBRANCH   2   3
ENDBRANCH   1   2
BRANCH   1  71
ATOM     71  O   UNL A   1      32.261  28.714  24.100  1.00  0.00    -0.374 OA
BRANCH  71  72
ATOM     72  C   UNL A   1      31.891  27.353  23.871  1.00  0.00     0.202 C 
BRANCH  72  73
ATOM     73  C   UNL A   1      32.769  26.464  24.757  1.00  0.00     0.261 C 
BRANCH  73  74
ATOM     74  O   UNL A   1      32.404  25.089  24.536  1.00  0.00    -0.460 OA
BRANCH  74  75
ATOM     75  C   UNL A   1      32.792  24.203  25.492  1.00  0.00     0.340 C 
ATOM     76  O   UNL A   1      32.151  23.784  26.432  1.00  0.00    -0.246 OA
BRANCH  75  77
ATOM     77  C   UNL A   1      34.090  23.630  25.055  1.00  0.00     0.084 A 
ATOM     78  C   UNL A   1      35.236  23.958  25.800  1.00  0.00     0.033 A 
ATOM     79  C   UNL A   1      34.184  22.888  23.854  1.00  0.00     0.056 A 
ATOM     80  C   UNL A   1      36.490  23.608  25.321  1.00  0.00     0.018 A 
ATOM     81  C   UNL A   1      35.469  22.624  23.365  1.00  0.00     0.028 A 
ATOM     82  Br  UNL A   1      38.034  24.061  26.309  1.00  0.00    -0.051 Br
ATOM     83  C   UNL A   1      36.612  22.966  24.096  1.00  0.00     0.018 A 
BRANCH  79  84
ATOM     84  N   UNL A   1      33.007  22.534  23.148  1.00  0.00    -0.320 N 
ATOM     85  C   UNL A   1      32.384  21.322  22.906  1.00  0.00     0.265 C 
ATOM     86  H   UNL A   1      32.540  23.303  22.749  1.00  0.00     0.170 HD
ATOM     87  O   UNL A   1      31.673  21.238  21.904  1.00  0.00    -0.268 OA
BRANCH  85  88
ATOM     88  C   UNL A   1      32.536  20.232  23.846  1.00  0.00     0.093 A 
ATOM     89  C   UNL A   1      32.683  20.288  25.222  1.00  0.00     0.027 A 
ATOM     90  S   UNL A   1      32.499  18.612  23.285  1.00  0.00    -0.123 S 
ATOM     91  C   UNL A   1      32.858  18.996  25.799  1.00  0.00     0.028 A 
ATOM     92  C   UNL A   1      32.791  18.015  24.843  1.00  0.00     0.071 A 
ATOM     93  Br  UNL A   1      33.001  16.192  25.220  1.00  0.00    -0.039 Br
ENDBRANCH  85  88
ENDBRANCH  79  84
ENDBRANCH  75  77
ENDBRANCH  74  75
ENDBRANCH  73  74
ENDBRANCH  72  73
ENDBRANCH  71  72
ENDBRANCH   1  71
TORSDOF 19
ENDMDL
MODEL 3
REMARK VINA RESULT:     -11.0      2.047      2.277
REMARK SMILES O=C(OCCOCCOC(=O)c1cc(Br)ccc1NC(=O)c1ccc(Br)s1)c1ccc(-c2c3nc(c(-c4cc(S(=O)(=O)[O-])ccc4F)c4ccc([nH]4)c(-c4cc(S(=O)(=O)[O-])ccc4F)c4nc(c(-c5cc(S(=O)(=O)[O-])ccc5F)c5ccc2[nH]5)C=C4)C=C3)cc1
REMARK SMILES IDX 5 1 4 2 3 3 2 4 1 5 28 6 29 7 90 8 30 9 89 10 31 11 32 12
REMARK SMILES IDX 33 13 83 14 34 15 88 16 82 17 84 18 35 19 87 20 81 21 80 22
REMARK SMILES IDX 36 24 68 25 48 26 67 27 49 28 52 29 66 30 85 31 50 32 51 33
REMARK SMILES IDX 65 35 86 36 53 37 37 38 38 39 46 40 39 41 45 42 47 43 44 44
REMARK SMILES IDX 40 45 41 46 42 47 43 48 69 49 70 50 78 51 71 52 77 53 79 54
REMARK SMILES IDX 76 55 72 56 73 57 74 58 75 59 54 60 55 61 63 62 56 63 62 64
REMARK SMILES IDX 64 65 61 66 57 67 58 68 59 69 60 70 6 71 7 72 8 73 9 74
REMARK SMILES IDX 10 75 11 76 12 77 13 78 18 79 14 80 17 81 15 82 16 83 19 84
REMARK SMILES IDX 20 85 21 87 22 88 23 89 27 90 24 91 25 92 26 93
REMARK H PARENT 84 23 52 34 19 86
REMARK Flexibility Score: inf
ROOT
ATOM      1  C   UNL A   1      35.915  23.100  23.923  1.00  0.00     0.202 C 
ENDROOT
BRANCH   1   2
ATOM      2  C   UNL A   1      36.372  21.695  24.308  1.00  0.00     0.261 C 
BRANCH   2   3
ATOM      3  O   UNL A   1      36.959  21.715  25.615  1.00  0.00    -0.460 OA
BRANCH   3   4
ATOM      4  C   UNL A   1      38.275  21.610  25.910  1.00  0.00     0.338 C 
ATOM      5  O   UNL A   1      38.837  20.532  25.725  1.00  0.00    -0.246 OA
BRANCH   4   6
ATOM      6  C   UNL A   1      39.088  22.743  26.443  1.00  0.00     0.060 A 
ATOM      7  C   UNL A   1      40.242  22.598  27.217  1.00  0.00     0.016 A 
ATOM      8  C   UNL A   1      38.717  24.033  26.039  1.00  0.00     0.016 A 
ATOM      9  C   UNL A   1      40.995  23.690  27.616  1.00  0.00     0.010 A 
ATOM     10  C   UNL A   1      39.485  25.139  26.410  1.00  0.00     0.010 A 
ATOM     11  C   UNL A   1      40.626  24.962  27.202  1.00  0.00    -0.014 A 
BRANCH  11  12
ATOM     12  C   UNL A   1      41.394  26.110  27.702  1.00  0.00     0.031 A 
ATOM     13  C   UNL A   1      40.677  27.115  28.536  1.00  0.00     0.074 A 
ATOM     14  C   UNL A   1      42.713  26.185  27.457  1.00  0.00     0.049 A 
ATOM     15  N   UNL A   1      41.063  28.295  28.928  1.00  0.00    -0.248 NA
ATOM     16  C   UNL A   1      39.331  26.729  28.986  1.00  0.00     0.031 C 
ATOM     17  C   UNL A   1      43.501  25.155  26.776  1.00  0.00     0.029 A 
ATOM     18  N   UNL A   1      43.620  27.165  27.749  1.00  0.00    -0.354 N 
ATOM     19  C   UNL A   1      39.987  28.820  29.634  1.00  0.00     0.074 A 
ATOM     20  C   UNL A   1      38.937  27.824  29.613  1.00  0.00     0.031 C 
ATOM     21  C   UNL A   1      44.775  25.567  26.689  1.00  0.00     0.029 A 
ATOM     22  C   UNL A   1      44.868  26.920  27.224  1.00  0.00     0.049 A 
ATOM     23  H   UNL A   1      43.403  27.964  28.280  1.00  0.00     0.167 HD
ATOM     24  C   UNL A   1      39.896  30.040  30.218  1.00  0.00     0.034 A 
ATOM     25  C   UNL A   1      45.934  27.738  27.129  1.00  0.00     0.034 A 
ATOM     26  C   UNL A   1      40.978  30.992  30.170  1.00  0.00     0.049 A 
ATOM     27  C   UNL A   1      45.786  29.130  27.685  1.00  0.00     0.074 A 
ATOM     28  C   UNL A   1      41.020  32.291  30.635  1.00  0.00     0.029 A 
ATOM     29  N   UNL A   1      42.226  30.732  29.601  1.00  0.00    -0.354 N 
ATOM     30  N   UNL A   1      44.738  29.677  28.264  1.00  0.00    -0.248 NA
ATOM     31  C   UNL A   1      46.945  30.020  27.571  1.00  0.00     0.031 C 
ATOM     32  C   UNL A   1      42.263  32.836  30.288  1.00  0.00     0.029 A 
ATOM     33  C   UNL A   1      43.032  31.852  29.680  1.00  0.00     0.049 A 
ATOM     34  H   UNL A   1      42.492  29.873  29.199  1.00  0.00     0.167 HD
ATOM     35  C   UNL A   1      45.117  30.969  28.605  1.00  0.00     0.074 A 
ATOM     36  C   UNL A   1      46.494  31.117  28.166  1.00  0.00     0.031 C 
ATOM     37  C   UNL A   1      44.404  31.944  29.227  1.00  0.00     0.034 A 
BRANCH  24  38
ATOM     38  C   UNL A   1      38.554  30.410  30.805  1.00  0.00     0.023 A 
ATOM     39  C   UNL A   1      37.599  31.146  30.079  1.00  0.00     0.031 A 
ATOM     40  C   UNL A   1      38.291  30.160  32.163  1.00  0.00     0.131 A 
ATOM     41  C   UNL A   1      36.496  31.708  30.742  1.00  0.00     0.055 A 
ATOM     42  C   UNL A   1      37.139  30.637  32.793  1.00  0.00     0.041 A 
ATOM     43  F   UNL A   1      39.176  29.492  32.921  1.00  0.00    -0.206 F 
ATOM     44  C   UNL A   1      36.247  31.439  32.089  1.00  0.00     0.022 A 
BRANCH  41  45
ATOM     45  S   UNL A   1      35.520  32.975  29.880  1.00  0.00     0.124 S 
ATOM     46  O   UNL A   1      35.600  34.094  30.816  1.00  0.00    -0.237 OA
ATOM     47  O   UNL A   1      36.247  33.135  28.626  1.00  0.00    -0.237 OA
ATOM     48  O   UNL A   1      34.196  32.367  29.762  1.00  0.00    -0.744 OA
ENDBRANCH  41  45
ENDBRANCH  24  38
BRANCH  25  49
ATOM     49  C   UNL A   1      47.158  27.288  26.405  1.00  0.00     0.023 A 
ATOM     50  C   UNL A   1      48.171  26.562  27.048  1.00  0.00     0.031 A 
ATOM     51  C   UNL A   1      47.317  27.563  25.032  1.00  0.00     0.131 A 
ATOM     52  C   UNL A   1      49.302  26.146  26.323  1.00  0.00     0.055 A 
ATOM     53  C   UNL A   1      48.419  27.108  24.306  1.00  0.00     0.041 A 
ATOM     54  F   UNL A   1      46.379  28.254  24.364  1.00  0.00    -0.206 F 
ATOM     55  C   UNL A   1      49.424  26.401  24.953  1.00  0.00     0.022 A 
BRANCH  52  56
ATOM     56  S   UNL A   1      50.645  25.299  27.201  1.00  0.00     0.124 S 
ATOM     57  O   UNL A   1      51.516  24.903  26.102  1.00  0.00    -0.237 OA
ATOM     58  O   UNL A   1      51.151  26.354  28.074  1.00  0.00    -0.237 OA
ATOM     59  O   UNL A   1      49.966  24.201  27.886  1.00  0.00    -0.744 OA
ENDBRANCH  52  56
ENDBRANCH  25  49
BRANCH  37  60
ATOM     60  C   UNL A   1      45.130  33.228  29.523  1.00  0.00     0.023 A 
ATOM     61  C   UNL A   1      45.860  33.412  30.708  1.00  0.00     0.031 A 
ATOM     62  C   UNL A   1      45.124  34.262  28.570  1.00  0.00     0.131 A 
ATOM     63  C   UNL A   1      46.535  34.621  30.923  1.00  0.00     0.055 A 
ATOM     64  C   UNL A   1      45.840  35.441  28.767  1.00  0.00     0.041 A 
ATOM     65  F   UNL A   1      44.440  34.128  27.422  1.00  0.00    -0.206 F 
ATOM     66  C   UNL A   1      46.547  35.627  29.952  1.00  0.00     0.022 A 
BRANCH  63  67
ATOM     67  S   UNL A   1      47.365  34.885  32.512  1.00  0.00     0.124 S 
ATOM     68  O   UNL A   1      46.241  34.881  33.444  1.00  0.00    -0.237 OA
ATOM     69  O   UNL A   1      48.265  33.739  32.592  1.00  0.00    -0.237 OA
ATOM     70  O   UNL A   1      48.025  36.179  32.343  1.00  0.00    -0.744 OA
ENDBRANCH  63  67
ENDBRANCH  37  60
ENDBRANCH  11  12
ENDBRANCH   4   6
ENDBRANCH   3   4
ENDBRANCH   2   3
ENDBRANCH   1   2
BRANCH   1  71
ATOM     71  O   UNL A   1      35.013  23.172  22.823  1.00  0.00    -0.374 OA
BRANCH  71  72
ATOM     72  C   UNL A   1      33.626  22.994  23.118  1.00  0.00     0.202 C 
BRANCH  72  73
ATOM     73  C   UNL A   1      32.875  24.242  22.648  1.00  0.00     0.261 C 
BRANCH  73  74
ATOM     74  O   UNL A   1      32.762  25.156  23.755  1.00  0.00    -0.460 OA
BRANCH  74  75
ATOM     75  C   UNL A   1      33.145  26.440  23.516  1.00  0.00     0.340 C 
ATOM     76  O   UNL A   1      33.526  26.928  22.474  1.00  0.00    -0.246 OA
BRANCH  75  77
ATOM     77  C   UNL A   1      32.787  27.233  24.719  1.00  0.00     0.084 A 
ATOM     78  C   UNL A   1      33.814  27.942  25.366  1.00  0.00     0.033 A 
ATOM     79  C   UNL A   1      31.485  27.168  25.266  1.00  0.00     0.056 A 
ATOM     80  C   UNL A   1      33.570  28.535  26.596  1.00  0.00     0.018 A 
ATOM     81  C   UNL A   1      31.299  27.710  26.543  1.00  0.00     0.028 A 
ATOM     82  Br  UNL A   1      34.950  29.474  27.479  1.00  0.00    -0.051 Br
ATOM     83  C   UNL A   1      32.326  28.400  27.198  1.00  0.00     0.018 A 
BRANCH  79  84
ATOM     84  N   UNL A   1      30.458  26.483  24.567  1.00  0.00    -0.320 N 
ATOM     85  C   UNL A   1      29.386  26.917  23.808  1.00  0.00     0.265 C 
ATOM     86  H   UNL A   1      30.519  25.503  24.638  1.00  0.00     0.170 HD
ATOM     87  O   UNL A   1      28.412  26.169  23.719  1.00  0.00    -0.268 OA
BRANCH  85  88
ATOM     88  C   UNL A   1      29.462  28.182  23.109  1.00  0.00     0.093 A 
ATOM     89  C   UNL A   1      30.519  28.712  22.388  1.00  0.00     0.027 A 
ATOM     90  S   UNL A   1      28.096  29.219  23.074  1.00  0.00    -0.123 S 
ATOM     91  C   UNL A   1      30.230  30.016  21.886  1.00  0.00     0.028 A 
ATOM     92  C   UNL A   1      28.953  30.397  22.209  1.00  0.00     0.071 A 
ATOM     93  Br  UNL A   1      28.224  32.058  21.741  1.00  0.00    -0.039 Br
ENDBRANCH  85  88
ENDBRANCH  79  84
ENDBRANCH  75  77
ENDBRANCH  74  75
ENDBRANCH  73  74
ENDBRANCH  72  73
ENDBRANCH  71  72
ENDBRANCH   1  71
TORSDOF 19
ENDMDL
