MODEL 1
REMARK VINA RESULT:     -10.9      0.000      0.000
REMARK SMILES [NH3+][C@@]1(C(=O)OCCOCCOC(=O)c2ccc(-c3c4nc(c(-c5cc(S(=O)(=O)[O-])ccc5F)c5ccc([nH]5)c(-c5cc(S(=O)(=O)[O-])ccc5F)c5nc(c(-c6cc(S(=O)(=O)[O-])ccc6F)c6ccc3[nH]6)C=C5)C=C4)cc2)CC[C@H](Sc2cccs2)C1
REMARK SMILES IDX 9 1 8 2 7 3 6 4 5 5 3 6 4 7 2 8 77 9 86 10 78 11 79 12 1 13
REMARK SMILES IDX 80 17 81 18 82 19 85 20 83 21 84 22 10 23 11 24 12 25 13 26
REMARK SMILES IDX 14 27 15 28 76 29 16 30 75 31 17 32 18 33 19 34 69 35 20 36
REMARK SMILES IDX 74 37 68 38 70 39 21 40 73 41 67 42 66 43 22 45 54 46 34 47
REMARK SMILES IDX 53 48 35 49 38 50 52 51 71 52 36 53 37 54 51 56 72 57 39 58
REMARK SMILES IDX 23 59 24 60 32 61 25 62 31 63 33 64 30 65 26 66 27 67 28 68
REMARK SMILES IDX 29 69 55 70 56 71 64 72 57 73 63 74 65 75 62 76 58 77 59 78
REMARK SMILES IDX 60 79 61 80 40 81 41 82 49 83 42 84 48 85 50 86 47 87 43 88
REMARK SMILES IDX 44 89 45 90 46 91
REMARK H PARENT 1 14 1 15 1 16 70 44 38 55
REMARK Flexibility Score: inf
ROOT
ATOM      1  C   UNL A   1      35.881  20.417  24.983  1.00  0.00     0.202 C 
ENDROOT
BRANCH   1   2
ATOM      2  O   UNL A   1      35.455  21.260  26.050  1.00  0.00    -0.374 OA
BRANCH   2   3
ATOM      3  C   UNL A   1      34.496  22.275  25.747  1.00  0.00     0.202 C 
BRANCH   3   4
ATOM      4  C   UNL A   1      34.413  22.723  24.286  1.00  0.00     0.261 C 
BRANCH   4   5
ATOM      5  O   UNL A   1      33.227  23.500  24.032  1.00  0.00    -0.459 OA
BRANCH   5   6
ATOM      6  C   UNL A   1      33.428  24.773  23.596  1.00  0.00     0.368 C 
ATOM      7  O   UNL A   1      33.832  25.063  22.474  1.00  0.00    -0.245 OA
BRANCH   6   8
ATOM      8  C   UNL A   1      33.068  25.838  24.683  1.00  0.00     0.193 C 
ATOM      9  C   UNL A   1      31.864  25.335  25.477  1.00  0.00     0.082 C 
ATOM     10  C   UNL A   1      32.611  27.211  24.145  1.00  0.00     0.095 C 
ATOM     11  C   UNL A   1      30.673  25.814  24.655  1.00  0.00     0.022 C 
ATOM     12  C   UNL A   1      31.070  27.230  24.240  1.00  0.00     0.059 C 
BRANCH   8  13
ATOM     13  N   UNL A   1      34.240  25.989  25.579  1.00  0.00    -0.343 N 
ATOM     14  H   UNL A   1      34.090  25.443  26.428  1.00  0.00     0.345 HD
ATOM     15  H   UNL A   1      34.355  26.972  25.824  1.00  0.00     0.345 HD
ATOM     16  H   UNL A   1      35.078  25.656  25.103  1.00  0.00     0.345 HD
ENDBRANCH   8  13
BRANCH  12  17
ATOM     17  S   UNL A   1      30.363  27.790  22.669  1.00  0.00    -0.112 SA
BRANCH  17  18
ATOM     18  C   UNL A   1      29.491  29.267  23.037  1.00  0.00     0.060 A 
ATOM     19  C   UNL A   1      29.894  30.378  23.750  1.00  0.00     0.027 A 
ATOM     20  S   UNL A   1      27.886  29.457  22.456  1.00  0.00    -0.137 S 
ATOM     21  C   UNL A   1      28.859  31.354  23.874  1.00  0.00     0.013 A 
ATOM     22  C   UNL A   1      27.714  30.978  23.210  1.00  0.00     0.066 A 
ENDBRANCH  17  18
ENDBRANCH  12  17
ENDBRANCH   6   8
ENDBRANCH   5   6
ENDBRANCH   4   5
ENDBRANCH   3   4
ENDBRANCH   2   3
ENDBRANCH   1   2
BRANCH   1  23
ATOM     23  C   UNL A   1      37.393  20.213  24.803  1.00  0.00     0.261 C 
BRANCH  23  24
ATOM     24  O   UNL A   1      38.165  21.374  25.153  1.00  0.00    -0.460 OA
BRANCH  24  25
ATOM     25  C   UNL A   1      39.238  21.105  25.936  1.00  0.00     0.338 C 
ATOM     26  O   UNL A   1      39.925  20.088  25.901  1.00  0.00    -0.246 OA
BRANCH  25  27
ATOM     27  C   UNL A   1      39.625  22.276  26.745  1.00  0.00     0.060 A 
ATOM     28  C   UNL A   1      38.963  23.479  26.466  1.00  0.00     0.016 A 
ATOM     29  C   UNL A   1      40.672  22.244  27.669  1.00  0.00     0.016 A 
ATOM     30  C   UNL A   1      39.403  24.667  27.039  1.00  0.00     0.010 A 
ATOM     31  C   UNL A   1      41.114  23.444  28.245  1.00  0.00     0.010 A 
ATOM     32  C   UNL A   1      40.519  24.667  27.885  1.00  0.00    -0.014 A 
BRANCH  32  33
ATOM     33  C   UNL A   1      41.160  25.970  28.199  1.00  0.00     0.031 A 
ATOM     34  C   UNL A   1      42.547  26.238  27.678  1.00  0.00     0.074 A 
ATOM     35  C   UNL A   1      40.486  26.935  28.849  1.00  0.00     0.049 A 
ATOM     36  N   UNL A   1      43.267  27.329  27.742  1.00  0.00    -0.248 NA
ATOM     37  C   UNL A   1      43.211  25.119  26.995  1.00  0.00     0.031 C 
ATOM     38  C   UNL A   1      39.133  26.803  29.385  1.00  0.00     0.029 A 
ATOM     39  N   UNL A   1      40.851  28.220  29.163  1.00  0.00    -0.354 N 
ATOM     40  C   UNL A   1      44.466  27.030  27.102  1.00  0.00     0.074 A 
ATOM     41  C   UNL A   1      44.394  25.638  26.711  1.00  0.00     0.031 C 
ATOM     42  C   UNL A   1      38.783  27.961  29.968  1.00  0.00     0.029 A 
ATOM     43  C   UNL A   1      39.891  28.910  29.863  1.00  0.00     0.049 A 
ATOM     44  H   UNL A   1      41.719  28.610  28.911  1.00  0.00     0.167 HD
ATOM     45  C   UNL A   1      45.522  27.843  26.845  1.00  0.00     0.034 A 
ATOM     46  C   UNL A   1      39.908  30.159  30.370  1.00  0.00     0.034 A 
ATOM     47  C   UNL A   1      45.588  29.225  27.259  1.00  0.00     0.049 A 
ATOM     48  C   UNL A   1      41.109  31.037  30.121  1.00  0.00     0.074 A 
ATOM     49  C   UNL A   1      46.598  30.146  27.044  1.00  0.00     0.029 A 
ATOM     50  N   UNL A   1      44.607  29.881  27.995  1.00  0.00    -0.354 N 
ATOM     51  N   UNL A   1      42.222  30.755  29.484  1.00  0.00    -0.248 NA
ATOM     52  C   UNL A   1      41.044  32.408  30.642  1.00  0.00     0.031 C 
ATOM     53  C   UNL A   1      46.262  31.332  27.708  1.00  0.00     0.029 A 
ATOM     54  C   UNL A   1      45.004  31.182  28.270  1.00  0.00     0.049 A 
ATOM     55  H   UNL A   1      43.753  29.481  28.279  1.00  0.00     0.167 HD
ATOM     56  C   UNL A   1      42.981  31.923  29.509  1.00  0.00     0.074 A 
ATOM     57  C   UNL A   1      42.189  32.914  30.208  1.00  0.00     0.031 C 
ATOM     58  C   UNL A   1      44.217  32.157  28.994  1.00  0.00     0.034 A 
BRANCH  45  59
ATOM     59  C   UNL A   1      46.704  27.225  26.133  1.00  0.00     0.023 A 
ATOM     60  C   UNL A   1      47.716  26.541  26.834  1.00  0.00     0.031 A 
ATOM     61  C   UNL A   1      46.864  27.386  24.745  1.00  0.00     0.131 A 
ATOM     62  C   UNL A   1      48.881  26.134  26.164  1.00  0.00     0.055 A 
ATOM     63  C   UNL A   1      47.985  26.899  24.070  1.00  0.00     0.041 A 
ATOM     64  F   UNL A   1      45.945  28.047  24.023  1.00  0.00    -0.206 F 
ATOM     65  C   UNL A   1      49.013  26.288  24.783  1.00  0.00     0.022 A 
BRANCH  62  66
ATOM     66  S   UNL A   1      50.299  25.576  27.152  1.00  0.00     0.124 S 
ATOM     67  O   UNL A   1      51.348  25.485  26.140  1.00  0.00    -0.237 OA
ATOM     68  O   UNL A   1      50.443  26.650  28.129  1.00  0.00    -0.237 OA
ATOM     69  O   UNL A   1      49.854  24.294  27.694  1.00  0.00    -0.744 OA
ENDBRANCH  62  66
ENDBRANCH  45  59
BRANCH  46  70
ATOM     70  C   UNL A   1      38.763  30.638  31.194  1.00  0.00     0.023 A 
ATOM     71  C   UNL A   1      37.633  31.237  30.616  1.00  0.00     0.031 A 
ATOM     72  C   UNL A   1      38.800  30.510  32.595  1.00  0.00     0.131 A 
ATOM     73  C   UNL A   1      36.598  31.711  31.438  1.00  0.00     0.055 A 
ATOM     74  C   UNL A   1      37.750  30.944  33.404  1.00  0.00     0.041 A 
ATOM     75  F   UNL A   1      39.857  29.941  33.196  1.00  0.00    -0.206 F 
ATOM     76  C   UNL A   1      36.644  31.556  32.826  1.00  0.00     0.022 A 
BRANCH  73  77
ATOM     77  S   UNL A   1      35.201  32.578  30.671  1.00  0.00     0.124 S 
ATOM     78  O   UNL A   1      35.778  33.888  30.397  1.00  0.00    -0.237 OA
ATOM     79  O   UNL A   1      34.925  31.740  29.508  1.00  0.00    -0.237 OA
ATOM     80  O   UNL A   1      34.173  32.551  31.710  1.00  0.00    -0.744 OA
ENDBRANCH  73  77
ENDBRANCH  46  70
BRANCH  58  81
ATOM     81  C   UNL A   1      44.771  33.555  29.146  1.00  0.00     0.023 A 
ATOM     82  C   UNL A   1      44.317  34.623  28.350  1.00  0.00     0.031 A 
ATOM     83  C   UNL A   1      45.783  33.817  30.085  1.00  0.00     0.131 A 
ATOM     84  C   UNL A   1      44.916  35.887  28.467  1.00  0.00     0.055 A 
ATOM     85  C   UNL A   1      46.334  35.091  30.239  1.00  0.00     0.041 A 
ATOM     86  F   UNL A   1      46.258  32.837  30.871  1.00  0.00    -0.206 F 
ATOM     87  C   UNL A   1      45.911  36.132  29.417  1.00  0.00     0.022 A 
BRANCH  84  88
ATOM     88  S   UNL A   1      44.457  37.184  27.284  1.00  0.00     0.124 S 
ATOM     89  O   UNL A   1      43.464  36.504  26.459  1.00  0.00    -0.237 OA
ATOM     90  O   UNL A   1      43.949  38.236  28.158  1.00  0.00    -0.237 OA
ATOM     91  O   UNL A   1      45.716  37.494  26.609  1.00  0.00    -0.744 OA
ENDBRANCH  84  88
ENDBRANCH  58  81
ENDBRANCH  32  33
ENDBRANCH  25  27
ENDBRANCH  24  25
ENDBRANCH  23  24
ENDBRANCH   1  23
TORSDOF 20
ENDMDL
MODEL 2
REMARK VINA RESULT:     -10.8      4.214      7.159
REMARK SMILES [NH3+][C@@]1(C(=O)OCCOCCOC(=O)c2ccc(-c3c4nc(c(-c5cc(S(=O)(=O)[O-])ccc5F)c5ccc([nH]5)c(-c5cc(S(=O)(=O)[O-])ccc5F)c5nc(c(-c6cc(S(=O)(=O)[O-])ccc6F)c6ccc3[nH]6)C=C5)C=C4)cc2)CC[C@H](Sc2cccs2)C1
REMARK SMILES IDX 9 1 8 2 7 3 6 4 5 5 3 6 4 7 2 8 77 9 86 10 78 11 79 12 1 13
REMARK SMILES IDX 80 17 81 18 82 19 85 20 83 21 84 22 10 23 11 24 12 25 13 26
REMARK SMILES IDX 14 27 15 28 76 29 16 30 75 31 17 32 18 33 19 34 69 35 20 36
REMARK SMILES IDX 74 37 68 38 70 39 21 40 73 41 67 42 66 43 22 45 54 46 34 47
REMARK SMILES IDX 53 48 35 49 38 50 52 51 71 52 36 53 37 54 51 56 72 57 39 58
REMARK SMILES IDX 23 59 24 60 32 61 25 62 31 63 33 64 30 65 26 66 27 67 28 68
REMARK SMILES IDX 29 69 55 70 56 71 64 72 57 73 63 74 65 75 62 76 58 77 59 78
REMARK SMILES IDX 60 79 61 80 40 81 41 82 49 83 42 84 48 85 50 86 47 87 43 88
REMARK SMILES IDX 44 89 45 90 46 91
REMARK H PARENT 1 14 1 15 1 16 70 44 38 55
REMARK Flexibility Score: inf
ROOT
ATOM      1  C   UNL A   1      41.887  19.834  27.571  1.00  0.00     0.202 C 
ENDROOT
BRANCH   1   2
ATOM      2  O   UNL A   1      41.999  19.525  26.185  1.00  0.00    -0.374 OA
BRANCH   2   3
ATOM      3  C   UNL A   1      42.882  18.464  25.813  1.00  0.00     0.202 C 
BRANCH   3   4
ATOM      4  C   UNL A   1      44.217  18.874  25.186  1.00  0.00     0.261 C 
BRANCH   4   5
ATOM      5  O   UNL A   1      44.138  20.170  24.564  1.00  0.00    -0.459 OA
BRANCH   5   6
ATOM      6  C   UNL A   1      44.884  21.154  25.138  1.00  0.00     0.368 C 
ATOM      7  O   UNL A   1      46.048  21.016  25.501  1.00  0.00    -0.245 OA
BRANCH   6   8
ATOM      8  C   UNL A   1      44.096  22.499  25.268  1.00  0.00     0.193 C 
ATOM      9  C   UNL A   1      44.650  23.488  24.244  1.00  0.00     0.082 C 
ATOM     10  C   UNL A   1      44.250  23.234  26.616  1.00  0.00     0.095 C 
ATOM     11  C   UNL A   1      45.820  24.136  24.975  1.00  0.00     0.022 C 
ATOM     12  C   UNL A   1      45.279  24.363  26.386  1.00  0.00     0.059 C 
BRANCH   8  13
ATOM     13  N   UNL A   1      42.668  22.220  24.981  1.00  0.00    -0.343 N 
ATOM     14  H   UNL A   1      42.571  21.267  24.632  1.00  0.00     0.345 HD
ATOM     15  H   UNL A   1      42.329  22.876  24.278  1.00  0.00     0.345 HD
ATOM     16  H   UNL A   1      42.122  22.327  25.837  1.00  0.00     0.345 HD
ENDBRANCH   8  13
BRANCH  12  17
ATOM     17  S   UNL A   1      46.529  24.333  27.697  1.00  0.00    -0.112 SA
BRANCH  17  18
ATOM     18  C   UNL A   1      45.705  24.852  29.155  1.00  0.00     0.060 A 
ATOM     19  C   UNL A   1      44.480  24.470  29.663  1.00  0.00     0.027 A 
ATOM     20  S   UNL A   1      46.464  26.003  30.179  1.00  0.00    -0.137 S 
ATOM     21  C   UNL A   1      44.139  25.175  30.858  1.00  0.00     0.013 A 
ATOM     22  C   UNL A   1      45.136  26.037  31.250  1.00  0.00     0.066 A 
ENDBRANCH  17  18
ENDBRANCH  12  17
ENDBRANCH   6   8
ENDBRANCH   5   6
ENDBRANCH   4   5
ENDBRANCH   3   4
ENDBRANCH   2   3
ENDBRANCH   1   2
BRANCH   1  23
ATOM     23  C   UNL A   1      41.685  21.308  27.953  1.00  0.00     0.261 C 
BRANCH  23  24
ATOM     24  O   UNL A   1      40.306  21.711  27.940  1.00  0.00    -0.460 OA
BRANCH  24  25
ATOM     25  C   UNL A   1      39.955  22.438  26.852  1.00  0.00     0.338 C 
ATOM     26  O   UNL A   1      39.624  21.991  25.757  1.00  0.00    -0.246 OA
BRANCH  25  27
ATOM     27  C   UNL A   1      39.833  23.872  27.175  1.00  0.00     0.060 A 
ATOM     28  C   UNL A   1      40.414  24.771  26.270  1.00  0.00     0.016 A 
ATOM     29  C   UNL A   1      39.273  24.334  28.368  1.00  0.00     0.016 A 
ATOM     30  C   UNL A   1      40.519  26.118  26.595  1.00  0.00     0.010 A 
ATOM     31  C   UNL A   1      39.381  25.694  28.694  1.00  0.00     0.010 A 
ATOM     32  C   UNL A   1      40.057  26.579  27.834  1.00  0.00    -0.014 A 
BRANCH  32  33
ATOM     33  C   UNL A   1      40.487  27.929  28.284  1.00  0.00     0.031 A 
ATOM     34  C   UNL A   1      41.944  28.297  28.180  1.00  0.00     0.074 A 
ATOM     35  C   UNL A   1      39.588  28.844  28.684  1.00  0.00     0.049 A 
ATOM     36  N   UNL A   1      42.536  29.439  28.419  1.00  0.00    -0.248 NA
ATOM     37  C   UNL A   1      42.854  27.226  27.749  1.00  0.00     0.031 C 
ATOM     38  C   UNL A   1      38.150  28.615  28.808  1.00  0.00     0.029 A 
ATOM     39  N   UNL A   1      39.755  30.155  29.054  1.00  0.00    -0.354 N 
ATOM     40  C   UNL A   1      43.887  29.226  28.162  1.00  0.00     0.074 A 
ATOM     41  C   UNL A   1      44.029  27.830  27.806  1.00  0.00     0.031 C 
ATOM     42  C   UNL A   1      37.565  29.748  29.233  1.00  0.00     0.029 A 
ATOM     43  C   UNL A   1      38.587  30.776  29.427  1.00  0.00     0.049 A 
ATOM     44  H   UNL A   1      40.629  30.608  29.053  1.00  0.00     0.167 HD
ATOM     45  C   UNL A   1      44.912  30.114  28.200  1.00  0.00     0.034 A 
ATOM     46  C   UNL A   1      38.369  32.026  29.881  1.00  0.00     0.034 A 
ATOM     47  C   UNL A   1      44.759  31.500  28.577  1.00  0.00     0.049 A 
ATOM     48  C   UNL A   1      39.525  32.990  29.967  1.00  0.00     0.074 A 
ATOM     49  C   UNL A   1      45.721  32.492  28.638  1.00  0.00     0.029 A 
ATOM     50  N   UNL A   1      43.563  32.085  28.979  1.00  0.00    -0.354 N 
ATOM     51  N   UNL A   1      40.793  32.788  29.687  1.00  0.00    -0.248 NA
ATOM     52  C   UNL A   1      39.216  34.355  30.408  1.00  0.00     0.031 C 
ATOM     53  C   UNL A   1      45.124  33.654  29.143  1.00  0.00     0.029 A 
ATOM     54  C   UNL A   1      43.771  33.414  29.321  1.00  0.00     0.049 A 
ATOM     55  H   UNL A   1      42.693  31.624  29.014  1.00  0.00     0.167 HD
ATOM     56  C   UNL A   1      41.428  34.010  29.899  1.00  0.00     0.074 A 
ATOM     57  C   UNL A   1      40.400  34.943  30.311  1.00  0.00     0.031 C 
ATOM     58  C   UNL A   1      42.741  34.332  29.758  1.00  0.00     0.034 A 
BRANCH  45  59
ATOM     59  C   UNL A   1      46.291  29.582  27.879  1.00  0.00     0.023 A 
ATOM     60  C   UNL A   1      46.651  29.196  26.574  1.00  0.00     0.031 A 
ATOM     61  C   UNL A   1      47.235  29.385  28.903  1.00  0.00     0.131 A 
ATOM     62  C   UNL A   1      47.875  28.545  26.346  1.00  0.00     0.055 A 
ATOM     63  C   UNL A   1      48.486  28.819  28.654  1.00  0.00     0.041 A 
ATOM     64  F   UNL A   1      46.944  29.712  30.172  1.00  0.00    -0.206 F 
ATOM     65  C   UNL A   1      48.805  28.375  27.374  1.00  0.00     0.022 A 
BRANCH  62  66
ATOM     66  S   UNL A   1      48.151  27.757  24.735  1.00  0.00     0.124 S 
ATOM     67  O   UNL A   1      48.068  26.340  25.079  1.00  0.00    -0.237 OA
ATOM     68  O   UNL A   1      47.054  28.287  23.933  1.00  0.00    -0.237 OA
ATOM     69  O   UNL A   1      49.484  28.218  24.352  1.00  0.00    -0.744 OA
ENDBRANCH  62  66
ENDBRANCH  45  59
BRANCH  46  70
ATOM     70  C   UNL A   1      37.003  32.423  30.325  1.00  0.00     0.023 A 
ATOM     71  C   UNL A   1      36.104  33.072  29.464  1.00  0.00     0.031 A 
ATOM     72  C   UNL A   1      36.586  32.164  31.644  1.00  0.00     0.131 A 
ATOM     73  C   UNL A   1      34.843  33.465  29.941  1.00  0.00     0.055 A 
ATOM     74  C   UNL A   1      35.316  32.517  32.100  1.00  0.00     0.041 A 
ATOM     75  F   UNL A   1      37.408  31.542  32.505  1.00  0.00    -0.206 F 
ATOM     76  C   UNL A   1      34.439  33.180  31.249  1.00  0.00     0.022 A 
BRANCH  73  77
ATOM     77  S   UNL A   1      33.744  34.398  28.839  1.00  0.00     0.124 S 
ATOM     78  O   UNL A   1      32.761  34.926  29.777  1.00  0.00    -0.237 OA
ATOM     79  O   UNL A   1      34.658  35.371  28.250  1.00  0.00    -0.237 OA
ATOM     80  O   UNL A   1      33.245  33.380  27.917  1.00  0.00    -0.744 OA
ENDBRANCH  73  77
ENDBRANCH  46  70
BRANCH  58  81
ATOM     81  C   UNL A   1      43.128  35.768  30.024  1.00  0.00     0.023 A 
ATOM     82  C   UNL A   1      42.997  36.767  29.042  1.00  0.00     0.031 A 
ATOM     83  C   UNL A   1      43.656  36.139  31.274  1.00  0.00     0.131 A 
ATOM     84  C   UNL A   1      43.445  38.071  29.304  1.00  0.00     0.055 A 
ATOM     85  C   UNL A   1      44.044  37.452  31.550  1.00  0.00     0.041 A 
ATOM     86  F   UNL A   1      43.807  35.229  32.250  1.00  0.00    -0.206 F 
ATOM     87  C   UNL A   1      43.953  38.424  30.557  1.00  0.00     0.022 A 
BRANCH  84  88
ATOM     88  S   UNL A   1      43.458  39.279  27.950  1.00  0.00     0.124 S 
ATOM     89  O   UNL A   1      42.042  39.602  27.818  1.00  0.00    -0.237 OA
ATOM     90  O   UNL A   1      44.308  40.337  28.486  1.00  0.00    -0.237 OA
ATOM     91  O   UNL A   1      44.030  38.533  26.831  1.00  0.00    -0.744 OA
ENDBRANCH  84  88
ENDBRANCH  58  81
ENDBRANCH  32  33
ENDBRANCH  25  27
ENDBRANCH  24  25
ENDBRANCH  23  24
ENDBRANCH   1  23
TORSDOF 20
ENDMDL
MODEL 3
REMARK VINA RESULT:     -10.8      1.570      1.889
REMARK SMILES [NH3+][C@@]1(C(=O)OCCOCCOC(=O)c2ccc(-c3c4nc(c(-c5cc(S(=O)(=O)[O-])ccc5F)c5ccc([nH]5)c(-c5cc(S(=O)(=O)[O-])ccc5F)c5nc(c(-c6cc(S(=O)(=O)[O-])ccc6F)c6ccc3[nH]6)C=C5)C=C4)cc2)CC[C@H](Sc2cccs2)C1
REMARK SMILES IDX 9 1 8 2 7 3 6 4 5 5 3 6 4 7 2 8 77 9 86 10 78 11 79 12 1 13
REMARK SMILES IDX 80 17 81 18 82 19 85 20 83 21 84 22 10 23 11 24 12 25 13 26
REMARK SMILES IDX 14 27 15 28 76 29 16 30 75 31 17 32 18 33 19 34 69 35 20 36
REMARK SMILES IDX 74 37 68 38 70 39 21 40 73 41 67 42 66 43 22 45 54 46 34 47
REMARK SMILES IDX 53 48 35 49 38 50 52 51 71 52 36 53 37 54 51 56 72 57 39 58
REMARK SMILES IDX 23 59 24 60 32 61 25 62 31 63 33 64 30 65 26 66 27 67 28 68
REMARK SMILES IDX 29 69 55 70 56 71 64 72 57 73 63 74 65 75 62 76 58 77 59 78
REMARK SMILES IDX 60 79 61 80 40 81 41 82 49 83 42 84 48 85 50 86 47 87 43 88
REMARK SMILES IDX 44 89 45 90 46 91
REMARK H PARENT 1 14 1 15 1 16 70 44 38 55
REMARK Flexibility Score: inf
ROOT
ATOM      1  C   UNL A   1      35.854  21.135  25.141  1.00  0.00     0.202 C 
ENDROOT
BRANCH   1   2
ATOM      2  O   UNL A   1      35.756  22.277  25.986  1.00  0.00    -0.374 OA
BRANCH   2   3
ATOM      3  C   UNL A   1      35.466  23.534  25.369  1.00  0.00     0.202 C 
BRANCH   3   4
ATOM      4  C   UNL A   1      34.493  23.506  24.187  1.00  0.00     0.261 C 
BRANCH   4   5
ATOM      5  O   UNL A   1      34.202  24.831  23.705  1.00  0.00    -0.459 OA
BRANCH   5   6
ATOM      6  C   UNL A   1      32.898  25.217  23.771  1.00  0.00     0.368 C 
ATOM      7  O   UNL A   1      32.172  25.036  24.743  1.00  0.00    -0.245 OA
BRANCH   6   8
ATOM      8  C   UNL A   1      32.426  25.940  22.467  1.00  0.00     0.193 C 
ATOM      9  C   UNL A   1      33.489  26.961  22.065  1.00  0.00     0.082 C 
ATOM     10  C   UNL A   1      31.137  26.779  22.600  1.00  0.00     0.095 C 
ATOM     11  C   UNL A   1      33.105  28.204  22.859  1.00  0.00     0.022 C 
ATOM     12  C   UNL A   1      31.582  28.252  22.736  1.00  0.00     0.059 C 
BRANCH   8  13
ATOM     13  N   UNL A   1      32.278  24.916  21.405  1.00  0.00    -0.343 N 
ATOM     14  H   UNL A   1      33.088  24.951  20.786  1.00  0.00     0.345 HD
ATOM     15  H   UNL A   1      31.432  25.104  20.868  1.00  0.00     0.345 HD
ATOM     16  H   UNL A   1      32.213  23.992  21.831  1.00  0.00     0.345 HD
ENDBRANCH   8  13
BRANCH  12  17
ATOM     17  S   UNL A   1      30.728  29.027  24.133  1.00  0.00    -0.112 SA
BRANCH  17  18
ATOM     18  C   UNL A   1      29.586  30.156  23.427  1.00  0.00     0.060 A 
ATOM     19  C   UNL A   1      29.120  31.361  23.911  1.00  0.00     0.027 A 
ATOM     20  S   UNL A   1      28.894  29.798  21.896  1.00  0.00    -0.137 S 
ATOM     21  C   UNL A   1      28.144  31.955  23.052  1.00  0.00     0.013 A 
ATOM     22  C   UNL A   1      27.933  31.208  21.918  1.00  0.00     0.066 A 
ENDBRANCH  17  18
ENDBRANCH  12  17
ENDBRANCH   6   8
ENDBRANCH   5   6
ENDBRANCH   4   5
ENDBRANCH   3   4
ENDBRANCH   2   3
ENDBRANCH   1   2
BRANCH   1  23
ATOM     23  C   UNL A   1      37.236  20.485  24.985  1.00  0.00     0.261 C 
BRANCH  23  24
ATOM     24  O   UNL A   1      38.316  21.433  25.045  1.00  0.00    -0.460 OA
BRANCH  24  25
ATOM     25  C   UNL A   1      39.276  21.116  25.946  1.00  0.00     0.338 C 
ATOM     26  O   UNL A   1      39.879  20.049  26.020  1.00  0.00    -0.246 OA
BRANCH  25  27
ATOM     27  C   UNL A   1      39.670  22.287  26.752  1.00  0.00     0.060 A 
ATOM     28  C   UNL A   1      39.017  23.494  26.468  1.00  0.00     0.016 A 
ATOM     29  C   UNL A   1      40.715  22.251  27.679  1.00  0.00     0.016 A 
ATOM     30  C   UNL A   1      39.464  24.681  27.037  1.00  0.00     0.010 A 
ATOM     31  C   UNL A   1      41.165  23.450  28.251  1.00  0.00     0.010 A 
ATOM     32  C   UNL A   1      40.578  24.676  27.886  1.00  0.00    -0.014 A 
BRANCH  32  33
ATOM     33  C   UNL A   1      41.228  25.975  28.196  1.00  0.00     0.031 A 
ATOM     34  C   UNL A   1      42.614  26.237  27.667  1.00  0.00     0.074 A 
ATOM     35  C   UNL A   1      40.563  26.944  28.850  1.00  0.00     0.049 A 
ATOM     36  N   UNL A   1      43.339  27.324  27.727  1.00  0.00    -0.248 NA
ATOM     37  C   UNL A   1      43.267  25.114  26.980  1.00  0.00     0.031 C 
ATOM     38  C   UNL A   1      39.212  26.819  29.394  1.00  0.00     0.029 A 
ATOM     39  N   UNL A   1      40.936  28.227  29.162  1.00  0.00    -0.354 N 
ATOM     40  C   UNL A   1      44.533  27.019  27.080  1.00  0.00     0.074 A 
ATOM     41  C   UNL A   1      44.451  25.627  26.690  1.00  0.00     0.031 C 
ATOM     42  C   UNL A   1      38.871  27.979  29.979  1.00  0.00     0.029 A 
ATOM     43  C   UNL A   1      39.983  28.921  29.868  1.00  0.00     0.049 A 
ATOM     44  H   UNL A   1      41.804  28.613  28.905  1.00  0.00     0.167 HD
ATOM     45  C   UNL A   1      45.591  27.826  26.817  1.00  0.00     0.034 A 
ATOM     46  C   UNL A   1      40.009  30.170  30.374  1.00  0.00     0.034 A 
ATOM     47  C   UNL A   1      45.667  29.208  27.232  1.00  0.00     0.049 A 
ATOM     48  C   UNL A   1      41.213  31.042  30.119  1.00  0.00     0.074 A 
ATOM     49  C   UNL A   1      46.681  30.123  27.011  1.00  0.00     0.029 A 
ATOM     50  N   UNL A   1      44.694  29.869  27.973  1.00  0.00    -0.354 N 
ATOM     51  N   UNL A   1      42.322  30.755  29.475  1.00  0.00    -0.248 NA
ATOM     52  C   UNL A   1      41.158  32.414  30.640  1.00  0.00     0.031 C 
ATOM     53  C   UNL A   1      46.354  31.311  27.677  1.00  0.00     0.029 A 
ATOM     54  C   UNL A   1      45.099  31.168  28.246  1.00  0.00     0.049 A 
ATOM     55  H   UNL A   1      43.839  29.473  28.262  1.00  0.00     0.167 HD
ATOM     56  C   UNL A   1      43.086  31.919  29.496  1.00  0.00     0.074 A 
ATOM     57  C   UNL A   1      42.303  32.914  30.200  1.00  0.00     0.031 C 
ATOM     58  C   UNL A   1      44.321  32.146  28.974  1.00  0.00     0.034 A 
BRANCH  45  59
ATOM     59  C   UNL A   1      46.767  27.202  26.099  1.00  0.00     0.023 A 
ATOM     60  C   UNL A   1      47.770  26.499  26.792  1.00  0.00     0.031 A 
ATOM     61  C   UNL A   1      46.929  27.376  24.713  1.00  0.00     0.131 A 
ATOM     62  C   UNL A   1      48.931  26.086  26.119  1.00  0.00     0.055 A 
ATOM     63  C   UNL A   1      48.044  26.884  24.033  1.00  0.00     0.041 A 
ATOM     64  F   UNL A   1      46.018  28.056  23.999  1.00  0.00    -0.206 F 
ATOM     65  C   UNL A   1      49.064  26.253  24.739  1.00  0.00     0.022 A 
BRANCH  62  66
ATOM     66  S   UNL A   1      50.341  25.501  27.101  1.00  0.00     0.124 S 
ATOM     67  O   UNL A   1      51.340  25.250  26.064  1.00  0.00    -0.237 OA
ATOM     68  O   UNL A   1      50.603  26.634  27.981  1.00  0.00    -0.237 OA
ATOM     69  O   UNL A   1      49.826  24.303  27.760  1.00  0.00    -0.744 OA
ENDBRANCH  62  66
ENDBRANCH  45  59
BRANCH  46  70
ATOM     70  C   UNL A   1      38.872  30.655  31.205  1.00  0.00     0.023 A 
ATOM     71  C   UNL A   1      37.741  31.259  30.633  1.00  0.00     0.031 A 
ATOM     72  C   UNL A   1      38.917  30.528  32.605  1.00  0.00     0.131 A 
ATOM     73  C   UNL A   1      36.713  31.738  31.461  1.00  0.00     0.055 A 
ATOM     74  C   UNL A   1      37.873  30.967  33.421  1.00  0.00     0.041 A 
ATOM     75  F   UNL A   1      39.974  29.955  33.201  1.00  0.00    -0.206 F 
ATOM     76  C   UNL A   1      36.766  31.584  32.849  1.00  0.00     0.022 A 
BRANCH  73  77
ATOM     77  S   UNL A   1      35.315  32.610  30.701  1.00  0.00     0.124 S 
ATOM     78  O   UNL A   1      34.263  32.402  31.688  1.00  0.00    -0.237 OA
ATOM     79  O   UNL A   1      35.830  33.971  30.587  1.00  0.00    -0.237 OA
ATOM     80  O   UNL A   1      35.128  31.911  29.431  1.00  0.00    -0.744 OA
ENDBRANCH  73  77
ENDBRANCH  46  70
BRANCH  58  81
ATOM     81  C   UNL A   1      44.882  33.542  29.123  1.00  0.00     0.023 A 
ATOM     82  C   UNL A   1      45.677  33.908  30.225  1.00  0.00     0.031 A 
ATOM     83  C   UNL A   1      44.600  34.525  28.158  1.00  0.00     0.131 A 
ATOM     84  C   UNL A   1      46.109  35.236  30.366  1.00  0.00     0.055 A 
ATOM     85  C   UNL A   1      45.083  35.830  28.273  1.00  0.00     0.041 A 
ATOM     86  F   UNL A   1      43.844  34.235  27.087  1.00  0.00    -0.206 F 
ATOM     87  C   UNL A   1      45.831  36.196  29.389  1.00  0.00     0.022 A 
BRANCH  84  88
ATOM     88  S   UNL A   1      46.949  35.723  31.898  1.00  0.00     0.124 S 
ATOM     89  O   UNL A   1      46.774  37.172  31.894  1.00  0.00    -0.237 OA
ATOM     90  O   UNL A   1      46.195  34.992  32.912  1.00  0.00    -0.237 OA
ATOM     91  O   UNL A   1      48.322  35.264  31.698  1.00  0.00    -0.744 OA
ENDBRANCH  84  88
ENDBRANCH  58  81
ENDBRANCH  32  33
ENDBRANCH  25  27
ENDBRANCH  24  25
ENDBRANCH  23  24
ENDBRANCH   1  23
TORSDOF 20
ENDMDL
