MODEL 1
REMARK VINA RESULT:      -8.5      0.000      0.000
REMARK SMILES CC(C)[C@H](CO)Nc1ccc(C(=O)OCCOCCOC(=O)c2ccc(-c3c4nc(c(-c5cc(S(=O)(=O)[O-])ccc5F)c5ccc([nH]5)c(-c5cc(S(=O)(=O)[O-])ccc5F)c5nc(c(-c6cc(S(=O)(=O)[O-])ccc6F)c6ccc3[nH]6)C=C5)C=C4)cc2)cc1
REMARK SMILES IDX 16 1 15 2 14 3 12 4 13 5 11 6 8 7 9 8 87 9 10 10 86 11 7 12
REMARK SMILES IDX 4 14 2 15 1 16 3 17 5 18 6 19 17 21 18 22 19 23 20 24 21 25
REMARK SMILES IDX 22 26 23 27 24 28 85 29 25 30 84 31 26 32 27 33 28 34 78 35
REMARK SMILES IDX 29 36 83 37 77 38 79 39 30 40 82 41 76 42 75 43 31 45 63 46
REMARK SMILES IDX 43 47 62 48 44 49 47 50 61 51 80 52 45 53 46 54 60 56 81 57
REMARK SMILES IDX 48 58 32 59 33 60 41 61 34 62 40 63 42 64 39 65 35 66 36 67
REMARK SMILES IDX 37 68 38 69 64 70 65 71 73 72 66 73 72 74 74 75 71 76 67 77
REMARK SMILES IDX 68 78 69 79 70 80 49 81 50 82 58 83 51 84 57 85 59 86 56 87
REMARK SMILES IDX 52 88 53 89 54 90 55 91
REMARK H PARENT 7 13 6 20 79 44 47 55
REMARK Flexibility Score: inf
ROOT
ATOM      1  C   UNL A   1      34.407  33.211  30.935  1.00  0.00     0.202 C 
ENDROOT
BRANCH   1   2
ATOM      2  C   UNL A   1      34.418  33.106  32.464  1.00  0.00     0.261 C 
BRANCH   2   3
ATOM      3  O   UNL A   1      35.759  33.123  32.978  1.00  0.00    -0.460 OA
BRANCH   3   4
ATOM      4  C   UNL A   1      36.328  34.347  33.066  1.00  0.00     0.338 C 
ATOM      5  O   UNL A   1      35.870  35.334  33.627  1.00  0.00    -0.246 OA
BRANCH   4   6
ATOM      6  C   UNL A   1      37.695  34.318  32.503  1.00  0.00     0.060 A 
ATOM      7  C   UNL A   1      40.347  34.386  31.548  1.00  0.00     0.034 A 
ATOM      8  C   UNL A   1      40.080  34.460  32.918  1.00  0.00     0.026 A 
ATOM      9  C   UNL A   1      39.263  34.224  30.672  1.00  0.00     0.026 A 
ATOM     10  C   UNL A   1      38.767  34.438  33.393  1.00  0.00     0.018 A 
ATOM     11  C   UNL A   1      37.945  34.175  31.138  1.00  0.00     0.018 A 
BRANCH   7  12
ATOM     12  N   UNL A   1      41.643  34.584  31.105  1.00  0.00    -0.380 N 
ATOM     13  H   UNL A   1      42.305  34.973  31.721  1.00  0.00     0.160 HD
BRANCH  12  14
ATOM     14  C   UNL A   1      42.057  34.229  29.745  1.00  0.00     0.107 C 
BRANCH  14  15
ATOM     15  C   UNL A   1      43.170  33.148  29.736  1.00  0.00     0.007 C 
ATOM     16  C   UNL A   1      42.661  31.704  29.781  1.00  0.00     0.009 C 
ATOM     17  C   UNL A   1      44.033  33.329  28.479  1.00  0.00     0.009 C 
ENDBRANCH  14  15
BRANCH  14  18
ATOM     18  C   UNL A   1      42.501  35.517  29.006  1.00  0.00     0.181 C 
BRANCH  18  19
ATOM     19  O   UNL A   1      41.798  35.702  27.776  1.00  0.00    -0.394 OA
ATOM     20  H   UNL A   1      42.424  35.969  27.084  1.00  0.00     0.210 HD
ENDBRANCH  18  19
ENDBRANCH  14  18
ENDBRANCH  12  14
ENDBRANCH   7  12
ENDBRANCH   4   6
ENDBRANCH   3   4
ENDBRANCH   2   3
ENDBRANCH   1   2
BRANCH   1  21
ATOM     21  O   UNL A   1      33.896  34.432  30.396  1.00  0.00    -0.374 OA
BRANCH  21  22
ATOM     22  C   UNL A   1      34.047  34.626  28.988  1.00  0.00     0.202 C 
BRANCH  22  23
ATOM     23  C   UNL A   1      33.563  33.486  28.084  1.00  0.00     0.261 C 
BRANCH  23  24
ATOM     24  O   UNL A   1      34.646  32.643  27.649  1.00  0.00    -0.460 OA
BRANCH  24  25
ATOM     25  C   UNL A   1      34.381  31.316  27.697  1.00  0.00     0.338 C 
ATOM     26  O   UNL A   1      33.334  30.766  27.381  1.00  0.00    -0.246 OA
BRANCH  25  27
ATOM     27  C   UNL A   1      35.610  30.563  28.012  1.00  0.00     0.060 A 
ATOM     28  C   UNL A   1      35.589  29.756  29.156  1.00  0.00     0.016 A 
ATOM     29  C   UNL A   1      36.775  30.681  27.250  1.00  0.00     0.016 A 
ATOM     30  C   UNL A   1      36.748  29.103  29.571  1.00  0.00     0.010 A 
ATOM     31  C   UNL A   1      37.940  30.028  27.672  1.00  0.00     0.010 A 
ATOM     32  C   UNL A   1      37.940  29.263  28.853  1.00  0.00    -0.014 A 
BRANCH  32  33
ATOM     33  C   UNL A   1      39.203  28.725  29.421  1.00  0.00     0.031 A 
ATOM     34  C   UNL A   1      39.769  29.343  30.671  1.00  0.00     0.074 A 
ATOM     35  C   UNL A   1      39.802  27.658  28.862  1.00  0.00     0.049 A 
ATOM     36  N   UNL A   1      40.838  29.014  31.350  1.00  0.00    -0.248 NA
ATOM     37  C   UNL A   1      39.031  30.487  31.228  1.00  0.00     0.031 C 
ATOM     38  C   UNL A   1      39.327  26.954  27.671  1.00  0.00     0.029 A 
ATOM     39  N   UNL A   1      40.937  26.977  29.224  1.00  0.00    -0.354 N 
ATOM     40  C   UNL A   1      40.900  29.905  32.417  1.00  0.00     0.074 A 
ATOM     41  C   UNL A   1      39.785  30.816  32.266  1.00  0.00     0.031 C 
ATOM     42  C   UNL A   1      40.164  25.938  27.403  1.00  0.00     0.029 A 
ATOM     43  C   UNL A   1      41.250  25.938  28.379  1.00  0.00     0.049 A 
ATOM     44  H   UNL A   1      41.476  27.210  30.014  1.00  0.00     0.167 HD
ATOM     45  C   UNL A   1      41.796  29.951  33.434  1.00  0.00     0.034 A 
ATOM     46  C   UNL A   1      42.302  25.094  28.385  1.00  0.00     0.034 A 
ATOM     47  C   UNL A   1      42.912  29.043  33.564  1.00  0.00     0.049 A 
ATOM     48  C   UNL A   1      43.330  25.214  29.485  1.00  0.00     0.074 A 
ATOM     49  C   UNL A   1      43.869  28.990  34.564  1.00  0.00     0.029 A 
ATOM     50  N   UNL A   1      43.230  28.037  32.660  1.00  0.00    -0.354 N 
ATOM     51  N   UNL A   1      43.365  26.049  30.499  1.00  0.00    -0.248 NA
ATOM     52  C   UNL A   1      44.452  24.268  29.446  1.00  0.00     0.031 C 
ATOM     53  C   UNL A   1      44.804  28.005  34.225  1.00  0.00     0.029 A 
ATOM     54  C   UNL A   1      44.389  27.385  33.058  1.00  0.00     0.049 A 
ATOM     55  H   UNL A   1      42.709  27.818  31.854  1.00  0.00     0.167 HD
ATOM     56  C   UNL A   1      44.500  25.707  31.232  1.00  0.00     0.074 A 
ATOM     57  C   UNL A   1      45.105  24.578  30.556  1.00  0.00     0.031 C 
ATOM     58  C   UNL A   1      44.997  26.274  32.362  1.00  0.00     0.034 A 
BRANCH  45  59
ATOM     59  C   UNL A   1      41.632  31.052  34.456  1.00  0.00     0.023 A 
ATOM     60  C   UNL A   1      40.581  31.046  35.391  1.00  0.00     0.031 A 
ATOM     61  C   UNL A   1      42.526  32.137  34.479  1.00  0.00     0.131 A 
ATOM     62  C   UNL A   1      40.413  32.134  36.261  1.00  0.00     0.055 A 
ATOM     63  C   UNL A   1      42.399  33.179  35.400  1.00  0.00     0.041 A 
ATOM     64  F   UNL A   1      43.535  32.210  33.596  1.00  0.00    -0.206 F 
ATOM     65  C   UNL A   1      41.328  33.189  36.289  1.00  0.00     0.022 A 
BRANCH  62  66
ATOM     66  S   UNL A   1      38.902  32.221  37.262  1.00  0.00     0.124 S 
ATOM     67  O   UNL A   1      39.448  32.357  38.610  1.00  0.00    -0.237 OA
ATOM     68  O   UNL A   1      38.232  33.398  36.722  1.00  0.00    -0.237 OA
ATOM     69  O   UNL A   1      38.239  30.946  36.994  1.00  0.00    -0.744 OA
ENDBRANCH  62  66
ENDBRANCH  45  59
BRANCH  46  70
ATOM     70  C   UNL A   1      42.467  24.082  27.301  1.00  0.00     0.023 A 
ATOM     71  C   UNL A   1      41.871  22.815  27.389  1.00  0.00     0.031 A 
ATOM     72  C   UNL A   1      43.278  24.354  26.184  1.00  0.00     0.131 A 
ATOM     73  C   UNL A   1      42.133  21.849  26.404  1.00  0.00     0.055 A 
ATOM     74  C   UNL A   1      43.491  23.409  25.179  1.00  0.00     0.041 A 
ATOM     75  F   UNL A   1      43.873  25.550  26.051  1.00  0.00    -0.206 F 
ATOM     76  C   UNL A   1      42.928  22.142  25.293  1.00  0.00     0.022 A 
BRANCH  73  77
ATOM     77  S   UNL A   1      41.490  20.170  26.640  1.00  0.00     0.124 S 
ATOM     78  O   UNL A   1      41.781  19.556  25.351  1.00  0.00    -0.237 OA
ATOM     79  O   UNL A   1      42.283  19.698  27.770  1.00  0.00    -0.237 OA
ATOM     80  O   UNL A   1      40.072  20.386  26.924  1.00  0.00    -0.744 OA
ENDBRANCH  73  77
ENDBRANCH  46  70
BRANCH  58  81
ATOM     81  C   UNL A   1      46.243  25.649  32.948  1.00  0.00     0.023 A 
ATOM     82  C   UNL A   1      46.180  24.514  33.777  1.00  0.00     0.031 A 
ATOM     83  C   UNL A   1      47.505  26.216  32.703  1.00  0.00     0.131 A 
ATOM     84  C   UNL A   1      47.345  24.028  34.388  1.00  0.00     0.055 A 
ATOM     85  C   UNL A   1      48.672  25.686  33.258  1.00  0.00     0.041 A 
ATOM     86  F   UNL A   1      47.627  27.300  31.921  1.00  0.00    -0.206 F 
ATOM     87  C   UNL A   1      48.593  24.596  34.121  1.00  0.00     0.022 A 
BRANCH  84  88
ATOM     88  S   UNL A   1      47.194  22.716  35.632  1.00  0.00     0.124 S 
ATOM     89  O   UNL A   1      46.452  23.389  36.695  1.00  0.00    -0.237 OA
ATOM     90  O   UNL A   1      46.468  21.681  34.906  1.00  0.00    -0.237 OA
ATOM     91  O   UNL A   1      48.581  22.388  35.956  1.00  0.00    -0.744 OA
ENDBRANCH  84  88
ENDBRANCH  58  81
ENDBRANCH  32  33
ENDBRANCH  25  27
ENDBRANCH  24  25
ENDBRANCH  23  24
ENDBRANCH  22  23
ENDBRANCH  21  22
ENDBRANCH   1  21
TORSDOF 22
ENDMDL
MODEL 2
REMARK VINA RESULT:      -8.2      3.808     11.374
REMARK SMILES CC(C)[C@H](CO)Nc1ccc(C(=O)OCCOCCOC(=O)c2ccc(-c3c4nc(c(-c5cc(S(=O)(=O)[O-])ccc5F)c5ccc([nH]5)c(-c5cc(S(=O)(=O)[O-])ccc5F)c5nc(c(-c6cc(S(=O)(=O)[O-])ccc6F)c6ccc3[nH]6)C=C5)C=C4)cc2)cc1
REMARK SMILES IDX 16 1 15 2 14 3 12 4 13 5 11 6 8 7 9 8 87 9 10 10 86 11 7 12
REMARK SMILES IDX 4 14 2 15 1 16 3 17 5 18 6 19 17 21 18 22 19 23 20 24 21 25
REMARK SMILES IDX 22 26 23 27 24 28 85 29 25 30 84 31 26 32 27 33 28 34 78 35
REMARK SMILES IDX 29 36 83 37 77 38 79 39 30 40 82 41 76 42 75 43 31 45 63 46
REMARK SMILES IDX 43 47 62 48 44 49 47 50 61 51 80 52 45 53 46 54 60 56 81 57
REMARK SMILES IDX 48 58 32 59 33 60 41 61 34 62 40 63 42 64 39 65 35 66 36 67
REMARK SMILES IDX 37 68 38 69 64 70 65 71 73 72 66 73 72 74 74 75 71 76 67 77
REMARK SMILES IDX 68 78 69 79 70 80 49 81 50 82 58 83 51 84 57 85 59 86 56 87
REMARK SMILES IDX 52 88 53 89 54 90 55 91
REMARK H PARENT 7 13 6 20 79 44 47 55
REMARK Flexibility Score: inf
ROOT
ATOM      1  C   UNL A   1      42.472  19.760  26.289  1.00  0.00     0.202 C 
ENDROOT
BRANCH   1   2
ATOM      2  C   UNL A   1      43.706  19.899  25.392  1.00  0.00     0.261 C 
BRANCH   2   3
ATOM      3  O   UNL A   1      44.423  21.112  25.675  1.00  0.00    -0.460 OA
BRANCH   3   4
ATOM      4  C   UNL A   1      43.659  22.225  25.763  1.00  0.00     0.338 C 
ATOM      5  O   UNL A   1      42.834  22.619  24.949  1.00  0.00    -0.246 OA
BRANCH   4   6
ATOM      6  C   UNL A   1      43.840  22.867  27.083  1.00  0.00     0.060 A 
ATOM      7  C   UNL A   1      44.031  24.173  29.575  1.00  0.00     0.034 A 
ATOM      8  C   UNL A   1      42.809  23.663  29.128  1.00  0.00     0.026 A 
ATOM      9  C   UNL A   1      45.164  23.968  28.773  1.00  0.00     0.026 A 
ATOM     10  C   UNL A   1      42.708  23.026  27.889  1.00  0.00     0.018 A 
ATOM     11  C   UNL A   1      45.081  23.309  27.542  1.00  0.00     0.018 A 
BRANCH   7  12
ATOM     12  N   UNL A   1      44.057  24.945  30.722  1.00  0.00    -0.380 N 
ATOM     13  H   UNL A   1      43.212  25.133  31.192  1.00  0.00     0.160 HD
BRANCH  12  14
ATOM     14  C   UNL A   1      45.306  25.490  31.258  1.00  0.00     0.107 C 
BRANCH  14  15
ATOM     15  C   UNL A   1      45.654  24.897  32.648  1.00  0.00     0.007 C 
ATOM     16  C   UNL A   1      46.399  25.853  33.584  1.00  0.00     0.009 C 
ATOM     17  C   UNL A   1      44.359  24.442  33.337  1.00  0.00     0.009 C 
ENDBRANCH  14  15
BRANCH  14  18
ATOM     18  C   UNL A   1      45.198  27.036  31.304  1.00  0.00     0.181 C 
BRANCH  18  19
ATOM     19  O   UNL A   1      43.876  27.473  31.627  1.00  0.00    -0.394 OA
ATOM     20  H   UNL A   1      43.594  28.144  30.985  1.00  0.00     0.210 HD
ENDBRANCH  18  19
ENDBRANCH  14  18
ENDBRANCH  12  14
ENDBRANCH   7  12
ENDBRANCH   4   6
ENDBRANCH   3   4
ENDBRANCH   2   3
ENDBRANCH   1   2
BRANCH   1  21
ATOM     21  O   UNL A   1      41.375  19.031  25.734  1.00  0.00    -0.374 OA
BRANCH  21  22
ATOM     22  C   UNL A   1      40.075  19.601  25.898  1.00  0.00     0.202 C 
BRANCH  22  23
ATOM     23  C   UNL A   1      40.015  20.997  26.529  1.00  0.00     0.261 C 
BRANCH  23  24
ATOM     24  O   UNL A   1      39.526  21.988  25.607  1.00  0.00    -0.460 OA
BRANCH  24  25
ATOM     25  C   UNL A   1      38.640  22.863  26.138  1.00  0.00     0.338 C 
ATOM     26  O   UNL A   1      37.443  22.676  26.320  1.00  0.00    -0.246 OA
BRANCH  25  27
ATOM     27  C   UNL A   1      39.346  24.049  26.661  1.00  0.00     0.060 A 
ATOM     28  C   UNL A   1      39.116  24.391  27.999  1.00  0.00     0.016 A 
ATOM     29  C   UNL A   1      40.164  24.846  25.857  1.00  0.00     0.016 A 
ATOM     30  C   UNL A   1      39.664  25.559  28.525  1.00  0.00     0.010 A 
ATOM     31  C   UNL A   1      40.711  26.022  26.386  1.00  0.00     0.010 A 
ATOM     32  C   UNL A   1      40.436  26.401  27.713  1.00  0.00    -0.014 A 
BRANCH  32  33
ATOM     33  C   UNL A   1      40.840  27.732  28.233  1.00  0.00     0.031 A 
ATOM     34  C   UNL A   1      42.295  28.117  28.218  1.00  0.00     0.074 A 
ATOM     35  C   UNL A   1      39.912  28.609  28.656  1.00  0.00     0.049 A 
ATOM     36  N   UNL A   1      42.864  29.233  28.594  1.00  0.00    -0.248 NA
ATOM     37  C   UNL A   1      43.234  27.104  27.711  1.00  0.00     0.031 C 
ATOM     38  C   UNL A   1      38.471  28.363  28.685  1.00  0.00     0.029 A 
ATOM     39  N   UNL A   1      40.043  29.888  29.139  1.00  0.00    -0.354 N 
ATOM     40  C   UNL A   1      44.226  29.062  28.366  1.00  0.00     0.074 A 
ATOM     41  C   UNL A   1      44.399  27.716  27.863  1.00  0.00     0.031 C 
ATOM     42  C   UNL A   1      37.851  29.457  29.158  1.00  0.00     0.029 A 
ATOM     43  C   UNL A   1      38.849  30.468  29.497  1.00  0.00     0.049 A 
ATOM     44  H   UNL A   1      40.911  30.346  29.220  1.00  0.00     0.167 HD
ATOM     45  C   UNL A   1      45.235  29.949  28.549  1.00  0.00     0.034 A 
ATOM     46  C   UNL A   1      38.593  31.671  30.049  1.00  0.00     0.034 A 
ATOM     47  C   UNL A   1      45.049  31.285  29.066  1.00  0.00     0.049 A 
ATOM     48  C   UNL A   1      39.743  32.613  30.316  1.00  0.00     0.074 A 
ATOM     49  C   UNL A   1      45.999  32.271  29.274  1.00  0.00     0.029 A 
ATOM     50  N   UNL A   1      43.831  31.820  29.470  1.00  0.00    -0.354 N 
ATOM     51  N   UNL A   1      41.023  32.445  30.076  1.00  0.00    -0.248 NA
ATOM     52  C   UNL A   1      39.408  33.911  30.915  1.00  0.00     0.031 C 
ATOM     53  C   UNL A   1      45.370  33.369  29.871  1.00  0.00     0.029 A 
ATOM     54  C   UNL A   1      44.012  33.105  29.961  1.00  0.00     0.049 A 
ATOM     55  H   UNL A   1      42.965  31.355  29.415  1.00  0.00     0.167 HD
ATOM     56  C   UNL A   1      41.641  33.630  30.473  1.00  0.00     0.074 A 
ATOM     57  C   UNL A   1      40.589  34.508  30.942  1.00  0.00     0.031 C 
ATOM     58  C   UNL A   1      42.958  33.964  30.450  1.00  0.00     0.034 A 
BRANCH  45  59
ATOM     59  C   UNL A   1      46.637  29.481  28.234  1.00  0.00     0.023 A 
ATOM     60  C   UNL A   1      47.464  28.902  29.213  1.00  0.00     0.031 A 
ATOM     61  C   UNL A   1      47.164  29.640  26.940  1.00  0.00     0.131 A 
ATOM     62  C   UNL A   1      48.790  28.566  28.900  1.00  0.00     0.055 A 
ATOM     63  C   UNL A   1      48.458  29.231  26.614  1.00  0.00     0.041 A 
ATOM     64  F   UNL A   1      46.431  30.208  25.969  1.00  0.00    -0.206 F 
ATOM     65  C   UNL A   1      49.286  28.703  27.601  1.00  0.00     0.022 A 
BRANCH  62  66
ATOM     66  S   UNL A   1      49.904  28.076  30.246  1.00  0.00     0.124 S 
ATOM     67  O   UNL A   1      51.166  27.893  29.534  1.00  0.00    -0.237 OA
ATOM     68  O   UNL A   1      49.837  29.222  31.145  1.00  0.00    -0.237 OA
ATOM     69  O   UNL A   1      49.303  26.845  30.757  1.00  0.00    -0.744 OA
ENDBRANCH  62  66
ENDBRANCH  45  59
BRANCH  46  70
ATOM     70  C   UNL A   1      37.200  32.050  30.426  1.00  0.00     0.023 A 
ATOM     71  C   UNL A   1      36.317  32.607  29.488  1.00  0.00     0.031 A 
ATOM     72  C   UNL A   1      36.753  31.912  31.753  1.00  0.00     0.131 A 
ATOM     73  C   UNL A   1      35.049  33.052  29.899  1.00  0.00     0.055 A 
ATOM     74  C   UNL A   1      35.472  32.305  32.145  1.00  0.00     0.041 A 
ATOM     75  F   UNL A   1      37.557  31.387  32.690  1.00  0.00    -0.206 F 
ATOM     76  C   UNL A   1      34.617  32.892  31.218  1.00  0.00     0.022 A 
BRANCH  73  77
ATOM     77  S   UNL A   1      34.004  33.925  28.702  1.00  0.00     0.124 S 
ATOM     78  O   UNL A   1      34.936  34.902  28.151  1.00  0.00    -0.237 OA
ATOM     79  O   UNL A   1      33.602  32.845  27.808  1.00  0.00    -0.237 OA
ATOM     80  O   UNL A   1      32.933  34.480  29.527  1.00  0.00    -0.744 OA
ENDBRANCH  73  77
ENDBRANCH  46  70
BRANCH  58  81
ATOM     81  C   UNL A   1      43.318  35.355  30.919  1.00  0.00     0.023 A 
ATOM     82  C   UNL A   1      43.401  36.438  30.025  1.00  0.00     0.031 A 
ATOM     83  C   UNL A   1      43.617  35.594  32.271  1.00  0.00     0.131 A 
ATOM     84  C   UNL A   1      43.841  37.690  30.480  1.00  0.00     0.055 A 
ATOM     85  C   UNL A   1      43.989  36.858  32.732  1.00  0.00     0.041 A 
ATOM     86  F   UNL A   1      43.557  34.599  33.170  1.00  0.00    -0.206 F 
ATOM     87  C   UNL A   1      44.121  37.911  31.830  1.00  0.00     0.022 A 
BRANCH  84  88
ATOM     88  S   UNL A   1      44.162  38.996  29.261  1.00  0.00     0.124 S 
ATOM     89  O   UNL A   1      45.255  39.733  29.888  1.00  0.00    -0.237 OA
ATOM     90  O   UNL A   1      44.510  38.231  28.070  1.00  0.00    -0.237 OA
ATOM     91  O   UNL A   1      42.891  39.715  29.187  1.00  0.00    -0.744 OA
ENDBRANCH  84  88
ENDBRANCH  58  81
ENDBRANCH  32  33
ENDBRANCH  25  27
ENDBRANCH  24  25
ENDBRANCH  23  24
ENDBRANCH  22  23
ENDBRANCH  21  22
ENDBRANCH   1  21
TORSDOF 22
ENDMDL
MODEL 3
REMARK VINA RESULT:      -7.8      4.139     10.667
REMARK SMILES CC(C)[C@H](CO)Nc1ccc(C(=O)OCCOCCOC(=O)c2ccc(-c3c4nc(c(-c5cc(S(=O)(=O)[O-])ccc5F)c5ccc([nH]5)c(-c5cc(S(=O)(=O)[O-])ccc5F)c5nc(c(-c6cc(S(=O)(=O)[O-])ccc6F)c6ccc3[nH]6)C=C5)C=C4)cc2)cc1
REMARK SMILES IDX 16 1 15 2 14 3 12 4 13 5 11 6 8 7 9 8 87 9 10 10 86 11 7 12
REMARK SMILES IDX 4 14 2 15 1 16 3 17 5 18 6 19 17 21 18 22 19 23 20 24 21 25
REMARK SMILES IDX 22 26 23 27 24 28 85 29 25 30 84 31 26 32 27 33 28 34 78 35
REMARK SMILES IDX 29 36 83 37 77 38 79 39 30 40 82 41 76 42 75 43 31 45 63 46
REMARK SMILES IDX 43 47 62 48 44 49 47 50 61 51 80 52 45 53 46 54 60 56 81 57
REMARK SMILES IDX 48 58 32 59 33 60 41 61 34 62 40 63 42 64 39 65 35 66 36 67
REMARK SMILES IDX 37 68 38 69 64 70 65 71 73 72 66 73 72 74 74 75 71 76 67 77
REMARK SMILES IDX 68 78 69 79 70 80 49 81 50 82 58 83 51 84 57 85 59 86 56 87
REMARK SMILES IDX 52 88 53 89 54 90 55 91
REMARK H PARENT 7 13 6 20 79 44 47 55
REMARK Flexibility Score: inf
ROOT
ATOM      1  C   UNL A   1      31.165  30.516  25.257  1.00  0.00     0.202 C 
ENDROOT
BRANCH   1   2
ATOM      2  C   UNL A   1      30.706  29.446  24.261  1.00  0.00     0.261 C 
BRANCH   2   3
ATOM      3  O   UNL A   1      31.685  28.403  24.126  1.00  0.00    -0.460 OA
BRANCH   3   4
ATOM      4  C   UNL A   1      31.455  27.523  23.125  1.00  0.00     0.338 C 
ATOM      5  O   UNL A   1      30.750  27.695  22.139  1.00  0.00    -0.246 OA
BRANCH   4   6
ATOM      6  C   UNL A   1      32.304  26.324  23.292  1.00  0.00     0.060 A 
ATOM      7  C   UNL A   1      34.048  24.142  23.682  1.00  0.00     0.034 A 
ATOM      8  C   UNL A   1      33.929  25.143  24.651  1.00  0.00     0.026 A 
ATOM      9  C   UNL A   1      33.237  24.230  22.540  1.00  0.00     0.026 A 
ATOM     10  C   UNL A   1      33.075  26.231  24.456  1.00  0.00     0.018 A 
ATOM     11  C   UNL A   1      32.359  25.301  22.345  1.00  0.00     0.018 A 
BRANCH   7  12
ATOM     12  N   UNL A   1      35.026  23.175  23.832  1.00  0.00    -0.380 N 
ATOM     13  H   UNL A   1      35.703  23.067  23.125  1.00  0.00     0.160 HD
BRANCH  12  14
ATOM     14  C   UNL A   1      35.082  22.310  25.011  1.00  0.00     0.107 C 
BRANCH  14  15
ATOM     15  C   UNL A   1      36.532  22.124  25.532  1.00  0.00     0.007 C 
ATOM     16  C   UNL A   1      37.452  21.336  24.594  1.00  0.00     0.009 C 
ATOM     17  C   UNL A   1      37.153  23.505  25.787  1.00  0.00     0.009 C 
ENDBRANCH  14  15
BRANCH  14  18
ATOM     18  C   UNL A   1      34.417  20.953  24.668  1.00  0.00     0.181 C 
BRANCH  18  19
ATOM     19  O   UNL A   1      34.534  20.010  25.736  1.00  0.00    -0.394 OA
ATOM     20  H   UNL A   1      33.649  19.714  26.002  1.00  0.00     0.210 HD
ENDBRANCH  18  19
ENDBRANCH  14  18
ENDBRANCH  12  14
ENDBRANCH   7  12
ENDBRANCH   4   6
ENDBRANCH   3   4
ENDBRANCH   2   3
ENDBRANCH   1   2
BRANCH   1  21
ATOM     21  O   UNL A   1      32.479  30.347  25.794  1.00  0.00    -0.374 OA
BRANCH  21  22
ATOM     22  C   UNL A   1      32.691  30.806  27.131  1.00  0.00     0.202 C 
BRANCH  22  23
ATOM     23  C   UNL A   1      33.405  32.153  27.287  1.00  0.00     0.261 C 
BRANCH  23  24
ATOM     24  O   UNL A   1      32.566  33.143  27.909  1.00  0.00    -0.460 OA
BRANCH  24  25
ATOM     25  C   UNL A   1      33.229  34.217  28.398  1.00  0.00     0.338 C 
ATOM     26  O   UNL A   1      32.944  35.396  28.224  1.00  0.00    -0.246 OA
BRANCH  25  27
ATOM     27  C   UNL A   1      34.268  33.785  29.351  1.00  0.00     0.060 A 
ATOM     28  C   UNL A   1      35.585  34.175  29.082  1.00  0.00     0.016 A 
ATOM     29  C   UNL A   1      33.982  32.968  30.448  1.00  0.00     0.016 A 
ATOM     30  C   UNL A   1      36.629  33.710  29.880  1.00  0.00     0.010 A 
ATOM     31  C   UNL A   1      35.033  32.498  31.246  1.00  0.00     0.010 A 
ATOM     32  C   UNL A   1      36.365  32.840  30.945  1.00  0.00    -0.014 A 
BRANCH  32  33
ATOM     33  C   UNL A   1      37.502  32.201  31.654  1.00  0.00     0.031 A 
ATOM     34  C   UNL A   1      38.278  31.109  30.968  1.00  0.00     0.074 A 
ATOM     35  C   UNL A   1      37.876  32.634  32.872  1.00  0.00     0.049 A 
ATOM     36  N   UNL A   1      39.319  30.438  31.389  1.00  0.00    -0.248 NA
ATOM     37  C   UNL A   1      37.813  30.721  29.627  1.00  0.00     0.031 C 
ATOM     38  C   UNL A   1      37.225  33.709  33.621  1.00  0.00     0.029 A 
ATOM     39  N   UNL A   1      38.899  32.228  33.692  1.00  0.00    -0.354 N 
ATOM     40  C   UNL A   1      39.639  29.552  30.365  1.00  0.00     0.074 A 
ATOM     41  C   UNL A   1      38.651  29.741  29.324  1.00  0.00     0.031 C 
ATOM     42  C   UNL A   1      37.866  33.877  34.789  1.00  0.00     0.029 A 
ATOM     43  C   UNL A   1      38.951  32.904  34.888  1.00  0.00     0.049 A 
ATOM     44  H   UNL A   1      39.537  31.518  33.446  1.00  0.00     0.167 HD
ATOM     45  C   UNL A   1      40.668  28.671  30.296  1.00  0.00     0.034 A 
ATOM     46  C   UNL A   1      39.770  32.744  35.947  1.00  0.00     0.034 A 
ATOM     47  C   UNL A   1      41.638  28.483  31.349  1.00  0.00     0.049 A 
ATOM     48  C   UNL A   1      40.861  31.703  35.877  1.00  0.00     0.074 A 
ATOM     49  C   UNL A   1      42.730  27.631  31.375  1.00  0.00     0.029 A 
ATOM     50  N   UNL A   1      41.627  29.146  32.570  1.00  0.00    -0.354 N 
ATOM     51  N   UNL A   1      41.165  30.886  34.895  1.00  0.00    -0.248 NA
ATOM     52  C   UNL A   1      41.727  31.574  37.056  1.00  0.00     0.031 C 
ATOM     53  C   UNL A   1      43.331  27.725  32.635  1.00  0.00     0.029 A 
ATOM     54  C   UNL A   1      42.668  28.695  33.369  1.00  0.00     0.049 A 
ATOM     55  H   UNL A   1      40.976  29.837  32.830  1.00  0.00     0.167 HD
ATOM     56  C   UNL A   1      42.275  30.165  35.331  1.00  0.00     0.074 A 
ATOM     57  C   UNL A   1      42.599  30.662  36.652  1.00  0.00     0.031 C 
ATOM     58  C   UNL A   1      42.967  29.182  34.697  1.00  0.00     0.034 A 
BRANCH  45  59
ATOM     59  C   UNL A   1      40.763  27.809  29.058  1.00  0.00     0.023 A 
ATOM     60  C   UNL A   1      41.681  28.085  28.030  1.00  0.00     0.031 A 
ATOM     61  C   UNL A   1      39.903  26.708  28.893  1.00  0.00     0.131 A 
ATOM     62  C   UNL A   1      41.672  27.314  26.857  1.00  0.00     0.055 A 
ATOM     63  C   UNL A   1      39.952  25.897  27.758  1.00  0.00     0.041 A 
ATOM     64  F   UNL A   1      38.989  26.409  29.830  1.00  0.00    -0.206 F 
ATOM     65  C   UNL A   1      40.831  26.206  26.724  1.00  0.00     0.022 A 
BRANCH  62  66
ATOM     66  S   UNL A   1      42.677  27.861  25.449  1.00  0.00     0.124 S 
ATOM     67  O   UNL A   1      43.932  28.221  26.104  1.00  0.00    -0.237 OA
ATOM     68  O   UNL A   1      42.715  26.671  24.607  1.00  0.00    -0.237 OA
ATOM     69  O   UNL A   1      41.923  28.988  24.905  1.00  0.00    -0.744 OA
ENDBRANCH  62  66
ENDBRANCH  45  59
BRANCH  46  70
ATOM     70  C   UNL A   1      39.577  33.559  37.182  1.00  0.00     0.023 A 
ATOM     71  C   UNL A   1      40.332  34.718  37.416  1.00  0.00     0.031 A 
ATOM     72  C   UNL A   1      38.671  33.149  38.177  1.00  0.00     0.131 A 
ATOM     73  C   UNL A   1      40.202  35.402  38.637  1.00  0.00     0.055 A 
ATOM     74  C   UNL A   1      38.506  33.863  39.365  1.00  0.00     0.041 A 
ATOM     75  F   UNL A   1      37.926  32.045  38.005  1.00  0.00    -0.206 F 
ATOM     76  C   UNL A   1      39.285  34.990  39.606  1.00  0.00     0.022 A 
BRANCH  73  77
ATOM     77  S   UNL A   1      41.317  36.793  38.976  1.00  0.00     0.124 S 
ATOM     78  O   UNL A   1      42.056  36.305  40.134  1.00  0.00    -0.237 OA
ATOM     79  O   UNL A   1      42.067  36.890  37.729  1.00  0.00    -0.237 OA
ATOM     80  O   UNL A   1      40.403  37.903  39.240  1.00  0.00    -0.744 OA
ENDBRANCH  73  77
ENDBRANCH  46  70
BRANCH  58  81
ATOM     81  C   UNL A   1      44.162  28.610  35.424  1.00  0.00     0.023 A 
ATOM     82  C   UNL A   1      44.062  27.448  36.211  1.00  0.00     0.031 A 
ATOM     83  C   UNL A   1      45.410  29.255  35.358  1.00  0.00     0.131 A 
ATOM     84  C   UNL A   1      45.167  27.009  36.955  1.00  0.00     0.055 A 
ATOM     85  C   UNL A   1      46.525  28.774  36.046  1.00  0.00     0.041 A 
ATOM     86  F   UNL A   1      45.566  30.368  34.624  1.00  0.00    -0.206 F 
ATOM     87  C   UNL A   1      46.403  27.655  36.865  1.00  0.00     0.022 A 
BRANCH  84  88
ATOM     88  S   UNL A   1      44.937  25.652  38.137  1.00  0.00     0.124 S 
ATOM     89  O   UNL A   1      43.772  24.964  37.586  1.00  0.00    -0.237 OA
ATOM     90  O   UNL A   1      46.204  24.937  38.041  1.00  0.00    -0.237 OA
ATOM     91  O   UNL A   1      44.707  26.339  39.407  1.00  0.00    -0.744 OA
ENDBRANCH  84  88
ENDBRANCH  58  81
ENDBRANCH  32  33
ENDBRANCH  25  27
ENDBRANCH  24  25
ENDBRANCH  23  24
ENDBRANCH  22  23
ENDBRANCH  21  22
ENDBRANCH   1  21
TORSDOF 22
ENDMDL
