MODEL 1
REMARK VINA RESULT:     -10.7      0.000      0.000
REMARK SMILES O=C(OCCOCCOC(=O)[C@H]1CC[C@@]2(CC[N@@H+](C3CC3)C2)C1)c1ccc(-c2c3nc(c(-c4cc(S(=O)(=O)[O-])ccc4F)c4ccc([nH]4)c(-c4cc(S(=O)(=O)[O-])ccc4F)c4nc(c(-c5cc(S(=O)(=O)[O-])ccc5F)c5ccc2[nH]5)C=C4)C=C3)cc1
REMARK SMILES IDX 5 1 4 2 3 3 2 4 1 5 24 6 25 7 86 8 26 9 85 10 27 11 28 12
REMARK SMILES IDX 29 13 79 14 30 15 84 16 78 17 80 18 31 19 83 20 77 21 76 22
REMARK SMILES IDX 32 24 64 25 44 26 63 27 45 28 48 29 62 30 81 31 46 32 47 33
REMARK SMILES IDX 61 35 82 36 49 37 33 38 34 39 42 40 35 41 41 42 43 43 40 44
REMARK SMILES IDX 36 45 37 46 38 47 39 48 65 49 66 50 74 51 67 52 73 53 75 54
REMARK SMILES IDX 72 55 68 56 69 57 70 58 71 59 50 60 51 61 59 62 52 63 58 64
REMARK SMILES IDX 60 65 57 66 53 67 54 68 55 69 56 70 6 71 7 72 8 73 9 74
REMARK SMILES IDX 10 75 11 76 12 77 13 78 23 79 14 80 15 81 16 82 22 83 17 84
REMARK SMILES IDX 18 85 19 87 20 88 21 89
REMARK H PARENT 80 23 48 34 18 86
REMARK Flexibility Score: inf
ROOT
ATOM      1  C   UNL A   1      35.821  22.444  24.868  1.00  0.00     0.202 C 
ENDROOT
BRANCH   1   2
ATOM      2  C   UNL A   1      36.827  21.300  24.720  1.00  0.00     0.261 C 
BRANCH   2   3
ATOM      3  O   UNL A   1      37.560  21.107  25.935  1.00  0.00    -0.460 OA
BRANCH   3   4
ATOM      4  C   UNL A   1      38.893  21.264  26.116  1.00  0.00     0.338 C 
ATOM      5  O   UNL A   1      39.617  20.278  25.979  1.00  0.00    -0.246 OA
BRANCH   4   6
ATOM      6  C   UNL A   1      39.540  22.563  26.482  1.00  0.00     0.060 A 
ATOM      7  C   UNL A   1      39.108  23.824  26.067  1.00  0.00     0.016 A 
ATOM      8  C   UNL A   1      40.607  22.503  27.393  1.00  0.00     0.016 A 
ATOM      9  C   UNL A   1      39.705  24.986  26.511  1.00  0.00     0.010 A 
ATOM     10  C   UNL A   1      41.211  23.672  27.863  1.00  0.00     0.010 A 
ATOM     11  C   UNL A   1      40.754  24.914  27.414  1.00  0.00    -0.014 A 
BRANCH  11  12
ATOM     12  C   UNL A   1      41.432  26.176  27.730  1.00  0.00     0.031 A 
ATOM     13  C   UNL A   1      40.692  27.161  28.574  1.00  0.00     0.074 A 
ATOM     14  C   UNL A   1      42.729  26.322  27.413  1.00  0.00     0.049 A 
ATOM     15  N   UNL A   1      41.042  28.357  28.948  1.00  0.00    -0.248 NA
ATOM     16  C   UNL A   1      39.377  26.727  29.074  1.00  0.00     0.031 C 
ATOM     17  C   UNL A   1      43.550  25.307  26.742  1.00  0.00     0.029 A 
ATOM     18  N   UNL A   1      43.595  27.355  27.637  1.00  0.00    -0.354 N 
ATOM     19  C   UNL A   1      39.977  28.836  29.700  1.00  0.00     0.074 A 
ATOM     20  C   UNL A   1      38.966  27.803  29.722  1.00  0.00     0.031 C 
ATOM     21  C   UNL A   1      44.802  25.771  26.617  1.00  0.00     0.029 A 
ATOM     22  C   UNL A   1      44.848  27.140  27.114  1.00  0.00     0.049 A 
ATOM     23  H   UNL A   1      43.345  28.173  28.125  1.00  0.00     0.167 HD
ATOM     24  C   UNL A   1      39.867  30.044  30.300  1.00  0.00     0.034 A 
ATOM     25  C   UNL A   1      45.887  27.990  27.005  1.00  0.00     0.034 A 
ATOM     26  C   UNL A   1      40.909  31.036  30.220  1.00  0.00     0.049 A 
ATOM     27  C   UNL A   1      45.692  29.378  27.561  1.00  0.00     0.074 A 
ATOM     28  C   UNL A   1      40.916  32.331  30.699  1.00  0.00     0.029 A 
ATOM     29  N   UNL A   1      42.140  30.831  29.599  1.00  0.00    -0.354 N 
ATOM     30  N   UNL A   1      44.647  29.874  28.190  1.00  0.00    -0.248 NA
ATOM     31  C   UNL A   1      46.799  30.322  27.390  1.00  0.00     0.031 C 
ATOM     32  C   UNL A   1      42.115  32.930  30.300  1.00  0.00     0.029 A 
ATOM     33  C   UNL A   1      42.900  31.986  29.654  1.00  0.00     0.049 A 
ATOM     34  H   UNL A   1      42.427  29.986  29.183  1.00  0.00     0.167 HD
ATOM     35  C   UNL A   1      44.980  31.186  28.506  1.00  0.00     0.074 A 
ATOM     36  C   UNL A   1      46.331  31.391  28.016  1.00  0.00     0.031 C 
ATOM     37  C   UNL A   1      44.245  32.138  29.139  1.00  0.00     0.034 A 
BRANCH  24  38
ATOM     38  C   UNL A   1      38.541  30.362  30.949  1.00  0.00     0.023 A 
ATOM     39  C   UNL A   1      37.491  30.978  30.243  1.00  0.00     0.031 A 
ATOM     40  C   UNL A   1      38.376  30.165  32.331  1.00  0.00     0.131 A 
ATOM     41  C   UNL A   1      36.373  31.465  30.940  1.00  0.00     0.055 A 
ATOM     42  C   UNL A   1      37.220  30.567  33.001  1.00  0.00     0.041 A 
ATOM     43  F   UNL A   1      39.358  29.619  33.066  1.00  0.00    -0.206 F 
ATOM     44  C   UNL A   1      36.218  31.240  32.310  1.00  0.00     0.022 A 
BRANCH  41  45
ATOM     45  S   UNL A   1      35.220  32.567  30.069  1.00  0.00     0.124 S 
ATOM     46  O   UNL A   1      34.763  31.709  28.978  1.00  0.00    -0.237 OA
ATOM     47  O   UNL A   1      34.233  32.870  31.098  1.00  0.00    -0.237 OA
ATOM     48  O   UNL A   1      36.061  33.689  29.659  1.00  0.00    -0.744 OA
ENDBRANCH  41  45
ENDBRANCH  24  38
BRANCH  25  49
ATOM     49  C   UNL A   1      47.124  27.593  26.270  1.00  0.00     0.023 A 
ATOM     50  C   UNL A   1      47.286  27.856  24.900  1.00  0.00     0.031 A 
ATOM     51  C   UNL A   1      48.159  26.898  26.926  1.00  0.00     0.131 A 
ATOM     52  C   UNL A   1      48.432  27.395  24.228  1.00  0.00     0.055 A 
ATOM     53  C   UNL A   1      49.322  26.496  26.268  1.00  0.00     0.041 A 
ATOM     54  F   UNL A   1      48.060  26.606  28.234  1.00  0.00    -0.206 F 
ATOM     55  C   UNL A   1      49.457  26.733  24.905  1.00  0.00     0.022 A 
BRANCH  52  56
ATOM     56  S   UNL A   1      48.522  27.588  22.426  1.00  0.00     0.124 S 
ATOM     57  O   UNL A   1      47.288  28.310  22.142  1.00  0.00    -0.237 OA
ATOM     58  O   UNL A   1      49.760  28.344  22.263  1.00  0.00    -0.237 OA
ATOM     59  O   UNL A   1      48.566  26.212  21.938  1.00  0.00    -0.744 OA
ENDBRANCH  52  56
ENDBRANCH  25  49
BRANCH  37  60
ATOM     60  C   UNL A   1      44.922  33.463  29.370  1.00  0.00     0.023 A 
ATOM     61  C   UNL A   1      44.842  34.506  28.433  1.00  0.00     0.031 A 
ATOM     62  C   UNL A   1      45.649  33.683  30.553  1.00  0.00     0.131 A 
ATOM     63  C   UNL A   1      45.527  35.704  28.670  1.00  0.00     0.055 A 
ATOM     64  C   UNL A   1      46.268  34.903  30.816  1.00  0.00     0.041 A 
ATOM     65  F   UNL A   1      45.759  32.715  31.478  1.00  0.00    -0.206 F 
ATOM     66  C   UNL A   1      46.220  35.919  29.865  1.00  0.00     0.022 A 
BRANCH  63  67
ATOM     67  S   UNL A   1      45.585  36.944  27.349  1.00  0.00     0.124 S 
ATOM     68  O   UNL A   1      46.588  37.877  27.854  1.00  0.00    -0.237 OA
ATOM     69  O   UNL A   1      45.979  36.149  26.191  1.00  0.00    -0.237 OA
ATOM     70  O   UNL A   1      44.219  37.463  27.308  1.00  0.00    -0.744 OA
ENDBRANCH  63  67
ENDBRANCH  37  60
ENDBRANCH  11  12
ENDBRANCH   4   6
ENDBRANCH   3   4
ENDBRANCH   2   3
ENDBRANCH   1   2
BRANCH   1  71
ATOM     71  O   UNL A   1      34.609  22.119  25.548  1.00  0.00    -0.374 OA
BRANCH  71  72
ATOM     72  C   UNL A   1      34.607  22.251  26.971  1.00  0.00     0.202 C 
BRANCH  72  73
ATOM     73  C   UNL A   1      33.229  21.878  27.512  1.00  0.00     0.261 C 
BRANCH  73  74
ATOM     74  O   UNL A   1      32.489  23.094  27.705  1.00  0.00    -0.463 OA
BRANCH  74  75
ATOM     75  C   UNL A   1      31.626  23.392  26.697  1.00  0.00     0.309 C 
ATOM     76  O   UNL A   1      30.894  22.597  26.120  1.00  0.00    -0.252 OA
BRANCH  75  77
ATOM     77  C   UNL A   1      31.672  24.877  26.407  1.00  0.00     0.100 C 
ATOM     78  C   UNL A   1      33.102  25.283  26.087  1.00  0.00     0.016 C 
ATOM     79  C   UNL A   1      30.850  25.221  25.157  1.00  0.00     0.028 C 
ATOM     80  C   UNL A   1      33.186  25.108  24.573  1.00  0.00     0.014 C 
ATOM     81  C   UNL A   1      31.847  25.678  24.077  1.00  0.00     0.026 C 
ATOM     82  C   UNL A   1      31.456  25.187  22.682  1.00  0.00     0.074 C 
ATOM     83  C   UNL A   1      31.918  27.213  23.933  1.00  0.00     0.269 C 
ATOM     84  C   UNL A   1      31.846  26.330  21.766  1.00  0.00     0.263 C 
ATOM     85  N   UNL A   1      31.574  27.546  22.546  1.00  0.00    -0.332 N 
ATOM     86  H   UNL A   1      32.153  28.344  22.285  1.00  0.00     0.348 HD
BRANCH  85  87
ATOM     87  C   UNL A   1      30.257  28.136  22.250  1.00  0.00     0.184 C 
ATOM     88  C   UNL A   1      29.356  28.753  23.278  1.00  0.00     0.071 C 
ATOM     89  C   UNL A   1      30.014  29.621  22.240  1.00  0.00     0.071 C 
ENDBRANCH  85  87
ENDBRANCH  75  77
ENDBRANCH  74  75
ENDBRANCH  73  74
ENDBRANCH  72  73
ENDBRANCH  71  72
ENDBRANCH   1  71
TORSDOF 18
ENDMDL
MODEL 2
REMARK VINA RESULT:     -10.7      5.074     10.023
REMARK SMILES O=C(OCCOCCOC(=O)[C@H]1CC[C@@]2(CC[N@@H+](C3CC3)C2)C1)c1ccc(-c2c3nc(c(-c4cc(S(=O)(=O)[O-])ccc4F)c4ccc([nH]4)c(-c4cc(S(=O)(=O)[O-])ccc4F)c4nc(c(-c5cc(S(=O)(=O)[O-])ccc5F)c5ccc2[nH]5)C=C4)C=C3)cc1
REMARK SMILES IDX 5 1 4 2 3 3 2 4 1 5 24 6 25 7 86 8 26 9 85 10 27 11 28 12
REMARK SMILES IDX 29 13 79 14 30 15 84 16 78 17 80 18 31 19 83 20 77 21 76 22
REMARK SMILES IDX 32 24 64 25 44 26 63 27 45 28 48 29 62 30 81 31 46 32 47 33
REMARK SMILES IDX 61 35 82 36 49 37 33 38 34 39 42 40 35 41 41 42 43 43 40 44
REMARK SMILES IDX 36 45 37 46 38 47 39 48 65 49 66 50 74 51 67 52 73 53 75 54
REMARK SMILES IDX 72 55 68 56 69 57 70 58 71 59 50 60 51 61 59 62 52 63 58 64
REMARK SMILES IDX 60 65 57 66 53 67 54 68 55 69 56 70 6 71 7 72 8 73 9 74
REMARK SMILES IDX 10 75 11 76 12 77 13 78 23 79 14 80 15 81 16 82 22 83 17 84
REMARK SMILES IDX 18 85 19 87 20 88 21 89
REMARK H PARENT 80 23 48 34 18 86
REMARK Flexibility Score: inf
ROOT
ATOM      1  C   UNL A   1      31.537  29.062  24.427  1.00  0.00     0.202 C 
ENDROOT
BRANCH   1   2
ATOM      2  C   UNL A   1      31.723  29.660  25.824  1.00  0.00     0.261 C 
BRANCH   2   3
ATOM      3  O   UNL A   1      32.847  30.548  25.852  1.00  0.00    -0.460 OA
BRANCH   3   4
ATOM      4  C   UNL A   1      33.312  31.241  26.919  1.00  0.00     0.338 C 
ATOM      5  O   UNL A   1      32.685  32.235  27.283  1.00  0.00    -0.246 OA
BRANCH   4   6
ATOM      6  C   UNL A   1      34.550  30.876  27.677  1.00  0.00     0.060 A 
ATOM      7  C   UNL A   1      34.874  29.593  28.123  1.00  0.00     0.016 A 
ATOM      8  C   UNL A   1      35.499  31.894  27.864  1.00  0.00     0.016 A 
ATOM      9  C   UNL A   1      36.073  29.315  28.746  1.00  0.00     0.010 A 
ATOM     10  C   UNL A   1      36.724  31.624  28.478  1.00  0.00     0.010 A 
ATOM     11  C   UNL A   1      37.004  30.328  28.920  1.00  0.00    -0.014 A 
BRANCH  11  12
ATOM     12  C   UNL A   1      38.191  29.994  29.714  1.00  0.00     0.031 A 
ATOM     13  C   UNL A   1      39.219  29.116  29.079  1.00  0.00     0.074 A 
ATOM     14  C   UNL A   1      38.395  30.620  30.886  1.00  0.00     0.049 A 
ATOM     15  N   UNL A   1      40.321  28.637  29.579  1.00  0.00    -0.248 NA
ATOM     16  C   UNL A   1      38.971  28.738  27.678  1.00  0.00     0.031 C 
ATOM     17  C   UNL A   1      37.501  31.627  31.467  1.00  0.00     0.029 A 
ATOM     18  N   UNL A   1      39.426  30.534  31.778  1.00  0.00    -0.354 N 
ATOM     19  C   UNL A   1      40.884  27.871  28.567  1.00  0.00     0.074 A 
ATOM     20  C   UNL A   1      39.998  27.944  27.427  1.00  0.00     0.031 C 
ATOM     21  C   UNL A   1      38.029  32.068  32.618  1.00  0.00     0.029 A 
ATOM     22  C   UNL A   1      39.245  31.314  32.896  1.00  0.00     0.049 A 
ATOM     23  H   UNL A   1      40.219  29.970  31.635  1.00  0.00     0.167 HD
ATOM     24  C   UNL A   1      42.036  27.163  28.610  1.00  0.00     0.034 A 
ATOM     25  C   UNL A   1      39.962  31.357  34.035  1.00  0.00     0.034 A 
ATOM     26  C   UNL A   1      42.862  27.119  29.790  1.00  0.00     0.049 A 
ATOM     27  C   UNL A   1      41.168  30.455  34.114  1.00  0.00     0.074 A 
ATOM     28  C   UNL A   1      44.009  26.386  30.022  1.00  0.00     0.029 A 
ATOM     29  N   UNL A   1      42.609  27.845  30.953  1.00  0.00    -0.354 N 
ATOM     30  N   UNL A   1      41.656  29.649  33.194  1.00  0.00    -0.248 NA
ATOM     31  C   UNL A   1      41.914  30.455  35.374  1.00  0.00     0.031 C 
ATOM     32  C   UNL A   1      44.401  26.608  31.347  1.00  0.00     0.029 A 
ATOM     33  C   UNL A   1      43.558  27.551  31.916  1.00  0.00     0.049 A 
ATOM     34  H   UNL A   1      41.863  28.476  31.071  1.00  0.00     0.167 HD
ATOM     35  C   UNL A   1      42.780  29.059  33.760  1.00  0.00     0.074 A 
ATOM     36  C   UNL A   1      42.906  29.622  35.093  1.00  0.00     0.031 C 
ATOM     37  C   UNL A   1      43.631  28.138  33.237  1.00  0.00     0.034 A 
BRANCH  24  38
ATOM     38  C   UNL A   1      42.354  26.307  27.408  1.00  0.00     0.023 A 
ATOM     39  C   UNL A   1      41.896  24.981  27.291  1.00  0.00     0.031 A 
ATOM     40  C   UNL A   1      43.240  26.784  26.427  1.00  0.00     0.131 A 
ATOM     41  C   UNL A   1      42.407  24.153  26.278  1.00  0.00     0.055 A 
ATOM     42  C   UNL A   1      43.670  25.983  25.368  1.00  0.00     0.041 A 
ATOM     43  F   UNL A   1      43.743  28.027  26.505  1.00  0.00    -0.206 F 
ATOM     44  C   UNL A   1      43.271  24.653  25.300  1.00  0.00     0.022 A 
BRANCH  41  45
ATOM     45  S   UNL A   1      42.084  22.368  26.371  1.00  0.00     0.124 S 
ATOM     46  O   UNL A   1      42.608  22.043  27.696  1.00  0.00    -0.237 OA
ATOM     47  O   UNL A   1      40.635  22.300  26.223  1.00  0.00    -0.237 OA
ATOM     48  O   UNL A   1      42.851  21.821  25.254  1.00  0.00    -0.744 OA
ENDBRANCH  41  45
ENDBRANCH  24  38
BRANCH  25  49
ATOM     49  C   UNL A   1      39.508  32.181  35.194  1.00  0.00     0.023 A 
ATOM     50  C   UNL A   1      39.984  33.484  35.406  1.00  0.00     0.031 A 
ATOM     51  C   UNL A   1      38.609  31.654  36.143  1.00  0.00     0.131 A 
ATOM     52  C   UNL A   1      39.593  34.197  36.553  1.00  0.00     0.055 A 
ATOM     53  C   UNL A   1      38.175  32.389  37.248  1.00  0.00     0.041 A 
ATOM     54  F   UNL A   1      38.125  30.409  36.003  1.00  0.00    -0.206 F 
ATOM     55  C   UNL A   1      38.680  33.665  37.465  1.00  0.00     0.022 A 
BRANCH  52  56
ATOM     56  S   UNL A   1      40.371  35.801  36.891  1.00  0.00     0.124 S 
ATOM     57  O   UNL A   1      39.710  36.663  35.919  1.00  0.00    -0.237 OA
ATOM     58  O   UNL A   1      40.017  36.022  38.290  1.00  0.00    -0.237 OA
ATOM     59  O   UNL A   1      41.789  35.552  36.641  1.00  0.00    -0.744 OA
ENDBRANCH  52  56
ENDBRANCH  25  49
BRANCH  37  60
ATOM     60  C   UNL A   1      44.793  27.732  34.105  1.00  0.00     0.023 A 
ATOM     61  C   UNL A   1      44.708  26.646  34.990  1.00  0.00     0.031 A 
ATOM     62  C   UNL A   1      46.005  28.442  34.032  1.00  0.00     0.131 A 
ATOM     63  C   UNL A   1      45.800  26.334  35.811  1.00  0.00     0.055 A 
ATOM     64  C   UNL A   1      47.111  28.081  34.799  1.00  0.00     0.041 A 
ATOM     65  F   UNL A   1      46.134  29.491  33.204  1.00  0.00    -0.206 F 
ATOM     66  C   UNL A   1      47.008  27.030  35.705  1.00  0.00     0.022 A 
BRANCH  63  67
ATOM     67  S   UNL A   1      45.586  25.071  37.093  1.00  0.00     0.124 S 
ATOM     68  O   UNL A   1      45.943  23.850  36.377  1.00  0.00    -0.237 OA
ATOM     69  O   UNL A   1      46.525  25.506  38.121  1.00  0.00    -0.237 OA
ATOM     70  O   UNL A   1      44.174  25.188  37.455  1.00  0.00    -0.744 OA
ENDBRANCH  63  67
ENDBRANCH  37  60
ENDBRANCH  11  12
ENDBRANCH   4   6
ENDBRANCH   3   4
ENDBRANCH   2   3
ENDBRANCH   1   2
BRANCH   1  71
ATOM     71  O   UNL A   1      31.941  27.701  24.278  1.00  0.00    -0.374 OA
BRANCH  71  72
ATOM     72  C   UNL A   1      32.023  26.913  25.467  1.00  0.00     0.202 C 
BRANCH  72  73
ATOM     73  C   UNL A   1      30.811  25.988  25.546  1.00  0.00     0.261 C 
BRANCH  73  74
ATOM     74  O   UNL A   1      31.243  24.668  25.178  1.00  0.00    -0.463 OA
BRANCH  74  75
ATOM     75  C   UNL A   1      31.005  24.342  23.879  1.00  0.00     0.309 C 
ATOM     76  O   UNL A   1      30.049  24.714  23.208  1.00  0.00    -0.252 OA
BRANCH  75  77
ATOM     77  C   UNL A   1      32.127  23.471  23.357  1.00  0.00     0.100 C 
ATOM     78  C   UNL A   1      32.978  24.274  22.386  1.00  0.00     0.016 C 
ATOM     79  C   UNL A   1      33.073  23.049  24.492  1.00  0.00     0.028 C 
ATOM     80  C   UNL A   1      34.043  24.896  23.285  1.00  0.00     0.014 C 
ATOM     81  C   UNL A   1      34.420  23.747  24.234  1.00  0.00     0.026 C 
ATOM     82  C   UNL A   1      35.084  24.220  25.528  1.00  0.00     0.074 C 
ATOM     83  C   UNL A   1      35.468  22.816  23.587  1.00  0.00     0.269 C 
ATOM     84  C   UNL A   1      36.564  23.997  25.286  1.00  0.00     0.263 C 
ATOM     85  N   UNL A   1      36.631  22.769  24.480  1.00  0.00    -0.332 N 
ATOM     86  H   UNL A   1      37.456  22.712  23.882  1.00  0.00     0.348 HD
BRANCH  85  87
ATOM     87  C   UNL A   1      36.874  21.563  25.290  1.00  0.00     0.184 C 
ATOM     88  C   UNL A   1      36.162  20.257  25.096  1.00  0.00     0.071 C 
ATOM     89  C   UNL A   1      37.625  20.369  24.766  1.00  0.00     0.071 C 
ENDBRANCH  85  87
ENDBRANCH  75  77
ENDBRANCH  74  75
ENDBRANCH  73  74
ENDBRANCH  72  73
ENDBRANCH  71  72
ENDBRANCH   1  71
TORSDOF 18
ENDMDL
MODEL 3
REMARK VINA RESULT:     -10.6      5.180      8.200
REMARK SMILES O=C(OCCOCCOC(=O)[C@H]1CC[C@@]2(CC[N@@H+](C3CC3)C2)C1)c1ccc(-c2c3nc(c(-c4cc(S(=O)(=O)[O-])ccc4F)c4ccc([nH]4)c(-c4cc(S(=O)(=O)[O-])ccc4F)c4nc(c(-c5cc(S(=O)(=O)[O-])ccc5F)c5ccc2[nH]5)C=C4)C=C3)cc1
REMARK SMILES IDX 5 1 4 2 3 3 2 4 1 5 24 6 25 7 86 8 26 9 85 10 27 11 28 12
REMARK SMILES IDX 29 13 79 14 30 15 84 16 78 17 80 18 31 19 83 20 77 21 76 22
REMARK SMILES IDX 32 24 64 25 44 26 63 27 45 28 48 29 62 30 81 31 46 32 47 33
REMARK SMILES IDX 61 35 82 36 49 37 33 38 34 39 42 40 35 41 41 42 43 43 40 44
REMARK SMILES IDX 36 45 37 46 38 47 39 48 65 49 66 50 74 51 67 52 73 53 75 54
REMARK SMILES IDX 72 55 68 56 69 57 70 58 71 59 50 60 51 61 59 62 52 63 58 64
REMARK SMILES IDX 60 65 57 66 53 67 54 68 55 69 56 70 6 71 7 72 8 73 9 74
REMARK SMILES IDX 10 75 11 76 12 77 13 78 23 79 14 80 15 81 16 82 22 83 17 84
REMARK SMILES IDX 18 85 19 87 20 88 21 89
REMARK H PARENT 80 23 48 34 18 86
REMARK Flexibility Score: inf
ROOT
ATOM      1  C   UNL A   1      31.847  30.961  26.507  1.00  0.00     0.202 C 
ENDROOT
BRANCH   1   2
ATOM      2  C   UNL A   1      31.387  32.393  26.793  1.00  0.00     0.261 C 
BRANCH   2   3
ATOM      3  O   UNL A   1      32.503  33.290  26.823  1.00  0.00    -0.460 OA
BRANCH   3   4
ATOM      4  C   UNL A   1      33.148  33.752  27.921  1.00  0.00     0.338 C 
ATOM      5  O   UNL A   1      32.748  34.797  28.433  1.00  0.00    -0.246 OA
BRANCH   4   6
ATOM      6  C   UNL A   1      34.326  33.071  28.545  1.00  0.00     0.060 A 
ATOM      7  C   UNL A   1      34.305  31.811  29.145  1.00  0.00     0.016 A 
ATOM      8  C   UNL A   1      35.566  33.720  28.425  1.00  0.00     0.016 A 
ATOM      9  C   UNL A   1      35.449  31.210  29.628  1.00  0.00     0.010 A 
ATOM     10  C   UNL A   1      36.735  33.116  28.895  1.00  0.00     0.010 A 
ATOM     11  C   UNL A   1      36.668  31.858  29.499  1.00  0.00    -0.014 A 
BRANCH  11  12
ATOM     12  C   UNL A   1      37.816  31.227  30.160  1.00  0.00     0.031 A 
ATOM     13  C   UNL A   1      38.060  31.573  31.592  1.00  0.00     0.074 A 
ATOM     14  C   UNL A   1      38.481  30.247  29.526  1.00  0.00     0.049 A 
ATOM     15  N   UNL A   1      39.024  31.197  32.381  1.00  0.00    -0.248 NA
ATOM     16  C   UNL A   1      37.066  32.458  32.223  1.00  0.00     0.031 C 
ATOM     17  C   UNL A   1      38.164  29.747  28.184  1.00  0.00     0.029 A 
ATOM     18  N   UNL A   1      39.533  29.473  29.930  1.00  0.00    -0.354 N 
ATOM     19  C   UNL A   1      38.776  31.826  33.594  1.00  0.00     0.074 A 
ATOM     20  C   UNL A   1      37.574  32.613  33.434  1.00  0.00     0.031 C 
ATOM     21  C   UNL A   1      39.003  28.745  27.881  1.00  0.00     0.029 A 
ATOM     22  C   UNL A   1      39.966  28.596  28.964  1.00  0.00     0.049 A 
ATOM     23  H   UNL A   1      39.940  29.539  30.823  1.00  0.00     0.167 HD
ATOM     24  C   UNL A   1      39.510  31.752  34.729  1.00  0.00     0.034 A 
ATOM     25  C   UNL A   1      41.058  27.808  28.952  1.00  0.00     0.034 A 
ATOM     26  C   UNL A   1      40.712  30.961  34.811  1.00  0.00     0.049 A 
ATOM     27  C   UNL A   1      41.937  27.844  30.176  1.00  0.00     0.074 A 
ATOM     28  C   UNL A   1      41.608  30.847  35.856  1.00  0.00     0.029 A 
ATOM     29  N   UNL A   1      41.189  30.148  33.784  1.00  0.00    -0.354 N 
ATOM     30  N   UNL A   1      41.763  28.515  31.296  1.00  0.00    -0.248 NA
ATOM     31  C   UNL A   1      43.158  27.035  30.140  1.00  0.00     0.031 C 
ATOM     32  C   UNL A   1      42.663  30.032  35.430  1.00  0.00     0.029 A 
ATOM     33  C   UNL A   1      42.383  29.558  34.156  1.00  0.00     0.049 A 
ATOM     34  H   UNL A   1      40.740  30.015  32.918  1.00  0.00     0.167 HD
ATOM     35  C   UNL A   1      42.845  28.192  32.107  1.00  0.00     0.074 A 
ATOM     36  C   UNL A   1      43.651  27.250  31.351  1.00  0.00     0.031 C 
ATOM     37  C   UNL A   1      43.153  28.628  33.356  1.00  0.00     0.034 A 
BRANCH  24  38
ATOM     38  C   UNL A   1      39.088  32.643  35.871  1.00  0.00     0.023 A 
ATOM     39  C   UNL A   1      39.481  33.993  35.952  1.00  0.00     0.031 A 
ATOM     40  C   UNL A   1      38.391  32.096  36.962  1.00  0.00     0.131 A 
ATOM     41  C   UNL A   1      39.265  34.712  37.139  1.00  0.00     0.055 A 
ATOM     42  C   UNL A   1      38.096  32.847  38.101  1.00  0.00     0.041 A 
ATOM     43  F   UNL A   1      38.024  30.804  36.961  1.00  0.00    -0.206 F 
ATOM     44  C   UNL A   1      38.552  34.157  38.204  1.00  0.00     0.022 A 
BRANCH  41  45
ATOM     45  S   UNL A   1      40.099  36.313  37.347  1.00  0.00     0.124 S 
ATOM     46  O   UNL A   1      39.985  36.879  36.004  1.00  0.00    -0.237 OA
ATOM     47  O   UNL A   1      39.297  36.956  38.380  1.00  0.00    -0.237 OA
ATOM     48  O   UNL A   1      41.455  35.945  37.747  1.00  0.00    -0.744 OA
ENDBRANCH  41  45
ENDBRANCH  24  38
BRANCH  25  49
ATOM     49  C   UNL A   1      41.423  27.027  27.733  1.00  0.00     0.023 A 
ATOM     50  C   UNL A   1      41.249  25.636  27.666  1.00  0.00     0.031 A 
ATOM     51  C   UNL A   1      41.999  27.666  26.616  1.00  0.00     0.131 A 
ATOM     52  C   UNL A   1      41.680  24.928  26.531  1.00  0.00     0.055 A 
ATOM     53  C   UNL A   1      42.369  26.967  25.466  1.00  0.00     0.041 A 
ATOM     54  F   UNL A   1      42.203  28.994  26.621  1.00  0.00    -0.206 F 
ATOM     55  C   UNL A   1      42.223  25.586  25.424  1.00  0.00     0.022 A 
BRANCH  52  56
ATOM     56  S   UNL A   1      41.612  23.115  26.554  1.00  0.00     0.124 S 
ATOM     57  O   UNL A   1      42.279  22.810  27.814  1.00  0.00    -0.237 OA
ATOM     58  O   UNL A   1      40.175  22.865  26.512  1.00  0.00    -0.237 OA
ATOM     59  O   UNL A   1      42.346  22.731  25.351  1.00  0.00    -0.744 OA
ENDBRANCH  52  56
ENDBRANCH  25  49
BRANCH  37  60
ATOM     60  C   UNL A   1      44.390  28.044  33.985  1.00  0.00     0.023 A 
ATOM     61  C   UNL A   1      44.347  26.855  34.731  1.00  0.00     0.031 A 
ATOM     62  C   UNL A   1      45.630  28.688  33.824  1.00  0.00     0.131 A 
ATOM     63  C   UNL A   1      45.515  26.375  35.336  1.00  0.00     0.055 A 
ATOM     64  C   UNL A   1      46.801  28.166  34.367  1.00  0.00     0.041 A 
ATOM     65  F   UNL A   1      45.721  29.829  33.123  1.00  0.00    -0.206 F 
ATOM     66  C   UNL A   1      46.746  27.009  35.141  1.00  0.00     0.022 A 
BRANCH  63  67
ATOM     67  S   UNL A   1      45.387  24.966  36.468  1.00  0.00     0.124 S 
ATOM     68  O   UNL A   1      44.903  23.911  35.583  1.00  0.00    -0.237 OA
ATOM     69  O   UNL A   1      46.759  24.820  36.944  1.00  0.00    -0.237 OA
ATOM     70  O   UNL A   1      44.428  25.421  37.473  1.00  0.00    -0.744 OA
ENDBRANCH  63  67
ENDBRANCH  37  60
ENDBRANCH  11  12
ENDBRANCH   4   6
ENDBRANCH   3   4
ENDBRANCH   2   3
ENDBRANCH   1   2
BRANCH   1  71
ATOM     71  O   UNL A   1      31.421  30.411  25.261  1.00  0.00    -0.374 OA
BRANCH  71  72
ATOM     72  C   UNL A   1      31.368  28.986  25.164  1.00  0.00     0.202 C 
BRANCH  72  73
ATOM     73  C   UNL A   1      31.173  28.585  23.703  1.00  0.00     0.261 C 
BRANCH  73  74
ATOM     74  O   UNL A   1      31.876  27.352  23.489  1.00  0.00    -0.463 OA
BRANCH  74  75
ATOM     75  C   UNL A   1      33.230  27.458  23.561  1.00  0.00     0.309 C 
ATOM     76  O   UNL A   1      33.883  28.470  23.334  1.00  0.00    -0.252 OA
BRANCH  75  77
ATOM     77  C   UNL A   1      33.825  26.138  24.002  1.00  0.00     0.100 C 
ATOM     78  C   UNL A   1      34.168  26.211  25.481  1.00  0.00     0.016 C 
ATOM     79  C   UNL A   1      32.803  25.000  23.866  1.00  0.00     0.028 C 
ATOM     80  C   UNL A   1      32.892  25.725  26.162  1.00  0.00     0.014 C 
ATOM     81  C   UNL A   1      32.458  24.535  25.292  1.00  0.00     0.026 C 
ATOM     82  C   UNL A   1      30.978  24.178  25.442  1.00  0.00     0.074 C 
ATOM     83  C   UNL A   1      33.203  23.247  25.703  1.00  0.00     0.269 C 
ATOM     84  C   UNL A   1      30.979  22.995  26.390  1.00  0.00     0.263 C 
ATOM     85  N   UNL A   1      32.193  22.240  26.046  1.00  0.00    -0.332 N 
ATOM     86  H   UNL A   1      32.575  21.695  26.820  1.00  0.00     0.348 HD
BRANCH  85  87
ATOM     87  C   UNL A   1      31.934  21.129  25.114  1.00  0.00     0.184 C 
ATOM     88  C   UNL A   1      32.866  20.713  24.015  1.00  0.00     0.071 C 
ATOM     89  C   UNL A   1      32.655  19.811  25.199  1.00  0.00     0.071 C 
ENDBRANCH  85  87
ENDBRANCH  75  77
ENDBRANCH  74  75
ENDBRANCH  73  74
ENDBRANCH  72  73
ENDBRANCH  71  72
ENDBRANCH   1  71
TORSDOF 18
ENDMDL
