MODEL 1
REMARK VINA RESULT:     -12.3      0.000      0.000
REMARK SMILES COc1ccc(N2C(=O)/C(=C/c3c(C(=O)OCCOCCOC(=O)c4ccc(-c5c6nc(c(-c7cc(S(=O)(=O)[O-])ccc7F)c7ccc([nH]7)c(-c7cc(S(=O)(=O)[O-])ccc7F)c7nc(c(-c8cc(S(=O)(=O)[O-])ccc8F)c8ccc5[nH]8)C=C7)C=C6)cc4)[nH]c4cc(OC)ccc34)SC2=S)cc1
REMARK SMILES IDX 19 1 18 2 17 3 16 4 14 5 15 6 13 7 12 8 96 9 88 10 89 11
REMARK SMILES IDX 95 12 90 14 94 15 91 16 11 17 7 18 8 19 98 20 9 21 10 22
REMARK SMILES IDX 97 23 99 24 6 25 3 26 4 27 101 28 5 29 100 30 2 31 1 32
REMARK SMILES IDX 92 33 93 34 20 35 21 36 22 37 23 38 24 39 25 40 26 41 87 42
REMARK SMILES IDX 27 43 86 44 28 45 29 46 30 47 80 48 31 49 85 50 79 51 81 52
REMARK SMILES IDX 32 53 84 54 78 55 77 56 33 58 65 59 45 60 64 61 46 62 49 63
REMARK SMILES IDX 63 64 82 65 47 66 48 67 62 69 83 70 50 71 34 72 35 73 43 74
REMARK SMILES IDX 36 75 42 76 44 77 41 78 37 79 38 80 39 81 40 82 66 83 67 84
REMARK SMILES IDX 75 85 68 86 74 87 76 88 73 89 69 90 70 91 71 92 72 93 51 94
REMARK SMILES IDX 52 95 60 96 53 97 59 98 61 99 58 100 54 101 55 102 56 103
REMARK SMILES IDX 57 104
REMARK H PARENT 88 13 81 57 49 68
REMARK Flexibility Score: inf
ROOT
ATOM      1  O   UNL A   1      35.956  23.522  24.341  1.00  0.00    -0.374 OA
ENDROOT
BRANCH   1   2
ATOM      2  C   UNL A   1      35.412  24.297  25.404  1.00  0.00     0.202 C 
BRANCH   2   3
ATOM      3  C   UNL A   1      34.669  23.541  26.514  1.00  0.00     0.261 C 
BRANCH   3   4
ATOM      4  O   UNL A   1      33.296  23.931  26.636  1.00  0.00    -0.459 OA
BRANCH   4   5
ATOM      5  C   UNL A   1      32.434  22.910  26.903  1.00  0.00     0.355 C 
ATOM      6  O   UNL A   1      31.616  22.889  27.815  1.00  0.00    -0.244 OA
BRANCH   5   7
ATOM      7  C   UNL A   1      32.468  21.911  25.859  1.00  0.00     0.133 A 
ATOM      8  C   UNL A   1      31.912  21.785  24.586  1.00  0.00     0.016 A 
ATOM      9  C   UNL A   1      32.255  20.474  24.091  1.00  0.00     0.008 A 
ATOM     10  N   UNL A   1      33.132  20.738  26.119  1.00  0.00    -0.348 N 
ATOM     11  C   UNL A   1      32.928  19.824  25.126  1.00  0.00     0.050 A 
ATOM     12  C   UNL A   1      32.046  19.730  22.905  1.00  0.00     0.015 A 
ATOM     13  H   UNL A   1      33.685  20.577  26.917  1.00  0.00     0.167 HD
ATOM     14  C   UNL A   1      33.293  18.477  25.094  1.00  0.00     0.073 A 
ATOM     15  C   UNL A   1      32.470  18.379  22.832  1.00  0.00     0.047 A 
ATOM     16  C   UNL A   1      33.057  17.753  23.929  1.00  0.00     0.120 A 
BRANCH   8  17
ATOM     17  C   UNL A   1      31.020  22.768  24.019  1.00  0.00     0.032 C 
ATOM     18  N   UNL A   1      31.467  26.185  23.058  1.00  0.00    -0.261 N 
ATOM     19  C   UNL A   1      30.601  25.103  23.289  1.00  0.00     0.270 C 
ATOM     20  C   UNL A   1      32.777  25.836  22.735  1.00  0.00     0.152 C 
ATOM     21  O   UNL A   1      29.402  25.123  23.535  1.00  0.00    -0.268 OA
ATOM     22  C   UNL A   1      31.383  23.826  23.269  1.00  0.00     0.081 C 
ATOM     23  S   UNL A   1      32.893  24.091  22.504  1.00  0.00    -0.054 SA
ATOM     24  S   UNL A   1      34.186  26.743  22.705  1.00  0.00    -0.051 S 
BRANCH  18  25
ATOM     25  C   UNL A   1      31.046  27.543  23.294  1.00  0.00     0.051 A 
ATOM     26  C   UNL A   1      30.015  30.123  23.881  1.00  0.00     0.119 A 
ATOM     27  C   UNL A   1      29.567  29.398  22.786  1.00  0.00     0.048 A 
ATOM     28  C   UNL A   1      30.988  29.568  24.695  1.00  0.00     0.048 A 
ATOM     29  C   UNL A   1      30.096  28.143  22.464  1.00  0.00     0.030 A 
ATOM     30  C   UNL A   1      31.499  28.291  24.398  1.00  0.00     0.030 A 
BRANCH  26  31
ATOM     31  O   UNL A   1      29.404  31.324  24.082  1.00  0.00    -0.497 OA
ATOM     32  C   UNL A   1      28.227  31.542  23.305  1.00  0.00     0.278 C 
ENDBRANCH  26  31
ENDBRANCH  18  25
ENDBRANCH   8  17
BRANCH  16  33
ATOM     33  O   UNL A   1      33.405  16.433  24.031  1.00  0.00    -0.497 OA
ATOM     34  C   UNL A   1      34.553  16.123  24.804  1.00  0.00     0.278 C 
ENDBRANCH  16  33
ENDBRANCH   5   7
ENDBRANCH   4   5
ENDBRANCH   3   4
ENDBRANCH   2   3
ENDBRANCH   1   2
BRANCH   1  35
ATOM     35  C   UNL A   1      35.644  22.131  24.292  1.00  0.00     0.202 C 
BRANCH  35  36
ATOM     36  C   UNL A   1      36.648  21.123  24.859  1.00  0.00     0.261 C 
BRANCH  36  37
ATOM     37  O   UNL A   1      38.028  21.483  24.666  1.00  0.00    -0.460 OA
BRANCH  37  38
ATOM     38  C   UNL A   1      38.854  21.063  25.659  1.00  0.00     0.338 C 
ATOM     39  O   UNL A   1      39.191  19.908  25.872  1.00  0.00    -0.246 OA
BRANCH  38  40
ATOM     40  C   UNL A   1      39.414  22.194  26.430  1.00  0.00     0.060 A 
ATOM     41  C   UNL A   1      38.959  23.473  26.101  1.00  0.00     0.016 A 
ATOM     42  C   UNL A   1      40.449  22.039  27.360  1.00  0.00     0.016 A 
ATOM     43  C   UNL A   1      39.561  24.593  26.671  1.00  0.00     0.010 A 
ATOM     44  C   UNL A   1      41.054  23.172  27.933  1.00  0.00     0.010 A 
ATOM     45  C   UNL A   1      40.622  24.460  27.585  1.00  0.00    -0.014 A 
BRANCH  45  46
ATOM     46  C   UNL A   1      41.301  25.707  28.043  1.00  0.00     0.031 A 
ATOM     47  C   UNL A   1      42.635  26.050  27.440  1.00  0.00     0.074 A 
ATOM     48  C   UNL A   1      40.701  26.579  28.876  1.00  0.00     0.049 A 
ATOM     49  N   UNL A   1      43.322  27.159  27.507  1.00  0.00    -0.248 NA
ATOM     50  C   UNL A   1      43.286  24.975  26.678  1.00  0.00     0.031 C 
ATOM     51  C   UNL A   1      39.438  26.344  29.564  1.00  0.00     0.029 A 
ATOM     52  N   UNL A   1      41.025  27.873  29.219  1.00  0.00    -0.354 N 
ATOM     53  C   UNL A   1      44.514  26.903  26.838  1.00  0.00     0.074 A 
ATOM     54  C   UNL A   1      44.429  25.547  26.336  1.00  0.00     0.031 C 
ATOM     55  C   UNL A   1      39.006  27.499  30.097  1.00  0.00     0.029 A 
ATOM     56  C   UNL A   1      39.998  28.543  29.858  1.00  0.00     0.049 A 
ATOM     57  H   UNL A   1      41.900  28.281  29.028  1.00  0.00     0.167 HD
ATOM     58  C   UNL A   1      45.599  27.705  26.707  1.00  0.00     0.034 A 
ATOM     59  C   UNL A   1      39.868  29.852  30.171  1.00  0.00     0.034 A 
ATOM     60  C   UNL A   1      45.684  29.034  27.263  1.00  0.00     0.049 A 
ATOM     61  C   UNL A   1      41.040  30.770  29.901  1.00  0.00     0.074 A 
ATOM     62  C   UNL A   1      46.766  29.896  27.296  1.00  0.00     0.029 A 
ATOM     63  N   UNL A   1      44.637  29.692  27.898  1.00  0.00    -0.354 N 
ATOM     64  N   UNL A   1      42.171  30.511  29.286  1.00  0.00    -0.248 NA
ATOM     65  C   UNL A   1      40.929  32.149  30.398  1.00  0.00     0.031 C 
ATOM     66  C   UNL A   1      46.391  31.050  27.996  1.00  0.00     0.029 A 
ATOM     67  C   UNL A   1      45.053  30.939  28.340  1.00  0.00     0.049 A 
ATOM     68  H   UNL A   1      43.731  29.327  28.018  1.00  0.00     0.167 HD
ATOM     69  C   UNL A   1      42.919  31.682  29.362  1.00  0.00     0.074 A 
ATOM     70  C   UNL A   1      42.073  32.677  29.989  1.00  0.00     0.031 C 
ATOM     71  C   UNL A   1      44.207  31.908  28.995  1.00  0.00     0.034 A 
BRANCH  58  72
ATOM     72  C   UNL A   1      46.815  27.084  26.067  1.00  0.00     0.023 A 
ATOM     73  C   UNL A   1      47.755  26.349  26.807  1.00  0.00     0.031 A 
ATOM     74  C   UNL A   1      47.095  27.343  24.713  1.00  0.00     0.131 A 
ATOM     75  C   UNL A   1      48.973  25.981  26.214  1.00  0.00     0.055 A 
ATOM     76  C   UNL A   1      48.270  26.898  24.105  1.00  0.00     0.041 A 
ATOM     77  F   UNL A   1      46.247  28.068  23.965  1.00  0.00    -0.206 F 
ATOM     78  C   UNL A   1      49.227  26.230  24.862  1.00  0.00     0.022 A 
BRANCH  75  79
ATOM     79  S   UNL A   1      50.296  25.338  27.276  1.00  0.00     0.124 S 
ATOM     80  O   UNL A   1      51.329  25.017  26.295  1.00  0.00    -0.237 OA
ATOM     81  O   UNL A   1      50.576  26.469  28.153  1.00  0.00    -0.237 OA
ATOM     82  O   UNL A   1      49.682  24.182  27.926  1.00  0.00    -0.744 OA
ENDBRANCH  75  79
ENDBRANCH  58  72
BRANCH  59  83
ATOM     83  C   UNL A   1      38.600  30.410  30.746  1.00  0.00     0.023 A 
ATOM     84  C   UNL A   1      37.598  30.915  29.893  1.00  0.00     0.031 A 
ATOM     85  C   UNL A   1      38.376  30.509  32.129  1.00  0.00     0.131 A 
ATOM     86  C   UNL A   1      36.446  31.517  30.425  1.00  0.00     0.055 A 
ATOM     87  C   UNL A   1      37.200  31.052  32.654  1.00  0.00     0.041 A 
ATOM     88  F   UNL A   1      39.299  30.074  33.001  1.00  0.00    -0.206 F 
ATOM     89  C   UNL A   1      36.230  31.572  31.801  1.00  0.00     0.022 A 
BRANCH  86  90
ATOM     90  S   UNL A   1      35.272  32.301  29.287  1.00  0.00     0.124 S 
ATOM     91  O   UNL A   1      34.306  32.885  30.211  1.00  0.00    -0.237 OA
ATOM     92  O   UNL A   1      36.133  33.242  28.577  1.00  0.00    -0.237 OA
ATOM     93  O   UNL A   1      34.776  31.183  28.487  1.00  0.00    -0.744 OA
ENDBRANCH  86  90
ENDBRANCH  59  83
BRANCH  71  94
ATOM     94  C   UNL A   1      44.779  33.267  29.317  1.00  0.00     0.023 A 
ATOM     95  C   UNL A   1      44.767  34.303  28.364  1.00  0.00     0.031 A 
ATOM     96  C   UNL A   1      45.349  33.532  30.573  1.00  0.00     0.131 A 
ATOM     97  C   UNL A   1      45.371  35.534  28.657  1.00  0.00     0.055 A 
ATOM     98  C   UNL A   1      45.898  34.778  30.880  1.00  0.00     0.041 A 
ATOM     99  F   UNL A   1      45.385  32.582  31.521  1.00  0.00    -0.206 F 
ATOM    100  C   UNL A   1      45.925  35.783  29.915  1.00  0.00     0.022 A 
BRANCH  97 101
ATOM    101  S   UNL A   1      45.508  36.773  27.339  1.00  0.00     0.124 S 
ATOM    102  O   UNL A   1      45.956  35.967  26.208  1.00  0.00    -0.237 OA
ATOM    103  O   UNL A   1      44.145  37.289  27.253  1.00  0.00    -0.237 OA
ATOM    104  O   UNL A   1      46.495  37.718  27.857  1.00  0.00    -0.744 OA
ENDBRANCH  97 101
ENDBRANCH  71  94
ENDBRANCH  45  46
ENDBRANCH  38  40
ENDBRANCH  37  38
ENDBRANCH  36  37
ENDBRANCH  35  36
ENDBRANCH   1  35
TORSDOF 21
ENDMDL
MODEL 2
REMARK VINA RESULT:     -11.6      1.879      2.116
REMARK SMILES COc1ccc(N2C(=O)/C(=C/c3c(C(=O)OCCOCCOC(=O)c4ccc(-c5c6nc(c(-c7cc(S(=O)(=O)[O-])ccc7F)c7ccc([nH]7)c(-c7cc(S(=O)(=O)[O-])ccc7F)c7nc(c(-c8cc(S(=O)(=O)[O-])ccc8F)c8ccc5[nH]8)C=C7)C=C6)cc4)[nH]c4cc(OC)ccc34)SC2=S)cc1
REMARK SMILES IDX 19 1 18 2 17 3 16 4 14 5 15 6 13 7 12 8 96 9 88 10 89 11
REMARK SMILES IDX 95 12 90 14 94 15 91 16 11 17 7 18 8 19 98 20 9 21 10 22
REMARK SMILES IDX 97 23 99 24 6 25 3 26 4 27 101 28 5 29 100 30 2 31 1 32
REMARK SMILES IDX 92 33 93 34 20 35 21 36 22 37 23 38 24 39 25 40 26 41 87 42
REMARK SMILES IDX 27 43 86 44 28 45 29 46 30 47 80 48 31 49 85 50 79 51 81 52
REMARK SMILES IDX 32 53 84 54 78 55 77 56 33 58 65 59 45 60 64 61 46 62 49 63
REMARK SMILES IDX 63 64 82 65 47 66 48 67 62 69 83 70 50 71 34 72 35 73 43 74
REMARK SMILES IDX 36 75 42 76 44 77 41 78 37 79 38 80 39 81 40 82 66 83 67 84
REMARK SMILES IDX 75 85 68 86 74 87 76 88 73 89 69 90 70 91 71 92 72 93 51 94
REMARK SMILES IDX 52 95 60 96 53 97 59 98 61 99 58 100 54 101 55 102 56 103
REMARK SMILES IDX 57 104
REMARK H PARENT 88 13 81 57 49 68
REMARK Flexibility Score: inf
ROOT
ATOM      1  O   UNL A   1      35.549  23.146  24.441  1.00  0.00    -0.374 OA
ENDROOT
BRANCH   1   2
ATOM      2  C   UNL A   1      35.646  23.812  25.696  1.00  0.00     0.202 C 
BRANCH   2   3
ATOM      3  C   UNL A   1      34.706  23.342  26.814  1.00  0.00     0.261 C 
BRANCH   3   4
ATOM      4  O   UNL A   1      33.369  23.836  26.668  1.00  0.00    -0.459 OA
BRANCH   4   5
ATOM      5  C   UNL A   1      32.393  22.900  26.833  1.00  0.00     0.355 C 
ATOM      6  O   UNL A   1      31.477  22.963  27.645  1.00  0.00    -0.244 OA
BRANCH   5   7
ATOM      7  C   UNL A   1      32.457  21.890  25.801  1.00  0.00     0.133 A 
ATOM      8  C   UNL A   1      31.934  21.751  24.515  1.00  0.00     0.016 A 
ATOM      9  C   UNL A   1      32.292  20.436  24.042  1.00  0.00     0.008 A 
ATOM     10  N   UNL A   1      33.114  20.721  26.090  1.00  0.00    -0.348 N 
ATOM     11  C   UNL A   1      32.938  19.797  25.101  1.00  0.00     0.050 A 
ATOM     12  C   UNL A   1      32.116  19.680  22.859  1.00  0.00     0.015 A 
ATOM     13  H   UNL A   1      33.645  20.569  26.905  1.00  0.00     0.167 HD
ATOM     14  C   UNL A   1      33.305  18.450  25.092  1.00  0.00     0.073 A 
ATOM     15  C   UNL A   1      32.543  18.329  22.810  1.00  0.00     0.047 A 
ATOM     16  C   UNL A   1      33.101  17.714  23.929  1.00  0.00     0.120 A 
BRANCH   8  17
ATOM     17  C   UNL A   1      31.057  22.727  23.914  1.00  0.00     0.032 C 
ATOM     18  N   UNL A   1      31.517  26.146  22.961  1.00  0.00    -0.261 N 
ATOM     19  C   UNL A   1      30.650  25.058  23.165  1.00  0.00     0.270 C 
ATOM     20  C   UNL A   1      32.840  25.803  22.685  1.00  0.00     0.152 C 
ATOM     21  O   UNL A   1      29.443  25.071  23.368  1.00  0.00    -0.268 OA
ATOM     22  C   UNL A   1      31.440  23.786  23.175  1.00  0.00     0.081 C 
ATOM     23  S   UNL A   1      32.974  24.059  22.463  1.00  0.00    -0.054 SA
ATOM     24  S   UNL A   1      34.243  26.719  22.703  1.00  0.00    -0.051 S 
BRANCH  18  25
ATOM     25  C   UNL A   1      31.079  27.501  23.179  1.00  0.00     0.051 A 
ATOM     26  C   UNL A   1      29.986  30.078  23.660  1.00  0.00     0.119 A 
ATOM     27  C   UNL A   1      29.859  29.457  22.425  1.00  0.00     0.048 A 
ATOM     28  C   UNL A   1      30.666  29.418  24.670  1.00  0.00     0.048 A 
ATOM     29  C   UNL A   1      30.427  28.205  22.164  1.00  0.00     0.030 A 
ATOM     30  C   UNL A   1      31.209  28.143  24.426  1.00  0.00     0.030 A 
BRANCH  26  31
ATOM     31  O   UNL A   1      29.374  31.289  23.776  1.00  0.00    -0.497 OA
ATOM     32  C   UNL A   1      27.948  31.255  23.720  1.00  0.00     0.278 C 
ENDBRANCH  26  31
ENDBRANCH  18  25
ENDBRANCH   8  17
BRANCH  16  33
ATOM     33  O   UNL A   1      33.448  16.396  24.053  1.00  0.00    -0.497 OA
ATOM     34  C   UNL A   1      34.173  16.023  25.213  1.00  0.00     0.278 C 
ENDBRANCH  16  33
ENDBRANCH   5   7
ENDBRANCH   4   5
ENDBRANCH   3   4
ENDBRANCH   2   3
ENDBRANCH   1   2
BRANCH   1  35
ATOM     35  C   UNL A   1      36.018  21.802  24.352  1.00  0.00     0.202 C 
BRANCH  35  36
ATOM     36  C   UNL A   1      37.051  21.305  25.369  1.00  0.00     0.261 C 
BRANCH  36  37
ATOM     37  O   UNL A   1      38.354  21.900  25.232  1.00  0.00    -0.460 OA
BRANCH  37  38
ATOM     38  C   UNL A   1      39.240  21.517  26.189  1.00  0.00     0.338 C 
ATOM     39  O   UNL A   1      39.584  20.371  26.430  1.00  0.00    -0.246 OA
BRANCH  38  40
ATOM     40  C   UNL A   1      39.853  22.678  26.873  1.00  0.00     0.060 A 
ATOM     41  C   UNL A   1      39.439  23.947  26.462  1.00  0.00     0.016 A 
ATOM     42  C   UNL A   1      40.895  22.547  27.798  1.00  0.00     0.016 A 
ATOM     43  C   UNL A   1      40.091  25.080  26.945  1.00  0.00     0.010 A 
ATOM     44  C   UNL A   1      41.551  23.693  28.283  1.00  0.00     0.010 A 
ATOM     45  C   UNL A   1      41.160  24.970  27.852  1.00  0.00    -0.014 A 
BRANCH  45  46
ATOM     46  C   UNL A   1      41.892  26.219  28.214  1.00  0.00     0.031 A 
ATOM     47  C   UNL A   1      43.200  26.498  27.529  1.00  0.00     0.074 A 
ATOM     48  C   UNL A   1      41.356  27.145  29.033  1.00  0.00     0.049 A 
ATOM     49  N   UNL A   1      43.916  27.590  27.508  1.00  0.00    -0.248 NA
ATOM     50  C   UNL A   1      43.786  25.371  26.789  1.00  0.00     0.031 C 
ATOM     51  C   UNL A   1      40.125  26.977  29.794  1.00  0.00     0.029 A 
ATOM     52  N   UNL A   1      41.728  28.445  29.296  1.00  0.00    -0.354 N 
ATOM     53  C   UNL A   1      45.066  27.272  26.793  1.00  0.00     0.074 A 
ATOM     54  C   UNL A   1      44.923  25.896  26.362  1.00  0.00     0.031 C 
ATOM     55  C   UNL A   1      39.749  28.166  30.292  1.00  0.00     0.029 A 
ATOM     56  C   UNL A   1      40.752  29.172  29.952  1.00  0.00     0.049 A 
ATOM     57  H   UNL A   1      42.602  28.820  29.041  1.00  0.00     0.167 HD
ATOM     58  C   UNL A   1      46.162  28.038  26.569  1.00  0.00     0.034 A 
ATOM     59  C   UNL A   1      40.669  30.497  30.206  1.00  0.00     0.034 A 
ATOM     60  C   UNL A   1      46.307  29.388  27.054  1.00  0.00     0.049 A 
ATOM     61  C   UNL A   1      41.848  31.370  29.834  1.00  0.00     0.074 A 
ATOM     62  C   UNL A   1      47.410  30.222  26.991  1.00  0.00     0.029 A 
ATOM     63  N   UNL A   1      45.310  30.104  27.708  1.00  0.00    -0.354 N 
ATOM     64  N   UNL A   1      42.939  31.052  29.176  1.00  0.00    -0.248 NA
ATOM     65  C   UNL A   1      41.795  32.773  30.268  1.00  0.00     0.031 C 
ATOM     66  C   UNL A   1      47.098  31.418  27.651  1.00  0.00     0.029 A 
ATOM     67  C   UNL A   1      45.778  31.359  28.067  1.00  0.00     0.049 A 
ATOM     68  H   UNL A   1      44.403  29.768  27.890  1.00  0.00     0.167 HD
ATOM     69  C   UNL A   1      43.717  32.206  29.157  1.00  0.00     0.074 A 
ATOM     70  C   UNL A   1      42.928  33.251  29.777  1.00  0.00     0.031 C 
ATOM     71  C   UNL A   1      44.989  32.379  28.716  1.00  0.00     0.034 A 
BRANCH  58  72
ATOM     72  C   UNL A   1      47.328  27.355  25.899  1.00  0.00     0.023 A 
ATOM     73  C   UNL A   1      48.230  26.548  26.612  1.00  0.00     0.031 A 
ATOM     74  C   UNL A   1      47.605  27.622  24.546  1.00  0.00     0.131 A 
ATOM     75  C   UNL A   1      49.415  26.118  25.994  1.00  0.00     0.055 A 
ATOM     76  C   UNL A   1      48.742  27.118  23.913  1.00  0.00     0.041 A 
ATOM     77  F   UNL A   1      46.795  28.414  23.825  1.00  0.00    -0.206 F 
ATOM     78  C   UNL A   1      49.666  26.377  24.644  1.00  0.00     0.022 A 
BRANCH  75  79
ATOM     79  S   UNL A   1      50.709  25.373  27.025  1.00  0.00     0.124 S 
ATOM     80  O   UNL A   1      51.650  24.897  26.014  1.00  0.00    -0.237 OA
ATOM     81  O   UNL A   1      51.157  26.501  27.834  1.00  0.00    -0.237 OA
ATOM     82  O   UNL A   1      50.004  24.322  27.755  1.00  0.00    -0.744 OA
ENDBRANCH  75  79
ENDBRANCH  58  72
BRANCH  59  83
ATOM     83  C   UNL A   1      39.446  31.115  30.817  1.00  0.00     0.023 A 
ATOM     84  C   UNL A   1      39.362  31.286  32.213  1.00  0.00     0.031 A 
ATOM     85  C   UNL A   1      38.328  31.491  30.055  1.00  0.00     0.131 A 
ATOM     86  C   UNL A   1      38.187  31.783  32.801  1.00  0.00     0.055 A 
ATOM     87  C   UNL A   1      37.184  32.045  30.638  1.00  0.00     0.041 A 
ATOM     88  F   UNL A   1      38.327  31.330  28.722  1.00  0.00    -0.206 F 
ATOM     89  C   UNL A   1      37.104  32.183  32.020  1.00  0.00     0.022 A 
BRANCH  86  90
ATOM     90  S   UNL A   1      38.071  31.823  34.610  1.00  0.00     0.124 S 
ATOM     91  O   UNL A   1      36.780  32.472  34.811  1.00  0.00    -0.237 OA
ATOM     92  O   UNL A   1      38.135  30.402  34.940  1.00  0.00    -0.237 OA
ATOM     93  O   UNL A   1      39.236  32.610  35.009  1.00  0.00    -0.744 OA
ENDBRANCH  86  90
ENDBRANCH  59  83
BRANCH  71  94
ATOM     94  C   UNL A   1      45.610  33.737  28.942  1.00  0.00     0.023 A 
ATOM     95  C   UNL A   1      46.339  34.015  30.114  1.00  0.00     0.031 A 
ATOM     96  C   UNL A   1      45.466  34.764  27.994  1.00  0.00     0.131 A 
ATOM     97  C   UNL A   1      46.842  35.304  30.339  1.00  0.00     0.055 A 
ATOM     98  C   UNL A   1      46.019  36.030  28.197  1.00  0.00     0.041 A 
ATOM     99  F   UNL A   1      44.783  34.555  26.858  1.00  0.00    -0.206 F 
ATOM    100  C   UNL A   1      46.698  36.311  29.380  1.00  0.00     0.022 A 
BRANCH  97 101
ATOM    101  S   UNL A   1      47.605  35.674  31.942  1.00  0.00     0.124 S 
ATOM    102  O   UNL A   1      48.500  36.776  31.608  1.00  0.00    -0.237 OA
ATOM    103  O   UNL A   1      46.450  36.018  32.766  1.00  0.00    -0.237 OA
ATOM    104  O   UNL A   1      48.269  34.422  32.303  1.00  0.00    -0.744 OA
ENDBRANCH  97 101
ENDBRANCH  71  94
ENDBRANCH  45  46
ENDBRANCH  38  40
ENDBRANCH  37  38
ENDBRANCH  36  37
ENDBRANCH  35  36
ENDBRANCH   1  35
TORSDOF 21
ENDMDL
MODEL 3
REMARK VINA RESULT:     -11.1      1.927      2.194
REMARK SMILES COc1ccc(N2C(=O)/C(=C/c3c(C(=O)OCCOCCOC(=O)c4ccc(-c5c6nc(c(-c7cc(S(=O)(=O)[O-])ccc7F)c7ccc([nH]7)c(-c7cc(S(=O)(=O)[O-])ccc7F)c7nc(c(-c8cc(S(=O)(=O)[O-])ccc8F)c8ccc5[nH]8)C=C7)C=C6)cc4)[nH]c4cc(OC)ccc34)SC2=S)cc1
REMARK SMILES IDX 19 1 18 2 17 3 16 4 14 5 15 6 13 7 12 8 96 9 88 10 89 11
REMARK SMILES IDX 95 12 90 14 94 15 91 16 11 17 7 18 8 19 98 20 9 21 10 22
REMARK SMILES IDX 97 23 99 24 6 25 3 26 4 27 101 28 5 29 100 30 2 31 1 32
REMARK SMILES IDX 92 33 93 34 20 35 21 36 22 37 23 38 24 39 25 40 26 41 87 42
REMARK SMILES IDX 27 43 86 44 28 45 29 46 30 47 80 48 31 49 85 50 79 51 81 52
REMARK SMILES IDX 32 53 84 54 78 55 77 56 33 58 65 59 45 60 64 61 46 62 49 63
REMARK SMILES IDX 63 64 82 65 47 66 48 67 62 69 83 70 50 71 34 72 35 73 43 74
REMARK SMILES IDX 36 75 42 76 44 77 41 78 37 79 38 80 39 81 40 82 66 83 67 84
REMARK SMILES IDX 75 85 68 86 74 87 76 88 73 89 69 90 70 91 71 92 72 93 51 94
REMARK SMILES IDX 52 95 60 96 53 97 59 98 61 99 58 100 54 101 55 102 56 103
REMARK SMILES IDX 57 104
REMARK H PARENT 88 13 81 57 49 68
REMARK Flexibility Score: inf
ROOT
ATOM      1  O   UNL A   1      36.091  22.951  24.298  1.00  0.00    -0.374 OA
ENDROOT
BRANCH   1   2
ATOM      2  C   UNL A   1      36.159  23.576  25.576  1.00  0.00     0.202 C 
BRANCH   2   3
ATOM      3  C   UNL A   1      35.366  22.925  26.718  1.00  0.00     0.261 C 
BRANCH   3   4
ATOM      4  O   UNL A   1      34.096  23.548  26.946  1.00  0.00    -0.459 OA
BRANCH   4   5
ATOM      5  C   UNL A   1      33.060  22.682  27.132  1.00  0.00     0.355 C 
ATOM      6  O   UNL A   1      32.225  22.754  28.025  1.00  0.00    -0.244 OA
BRANCH   5   7
ATOM      7  C   UNL A   1      32.950  21.755  26.029  1.00  0.00     0.133 A 
ATOM      8  C   UNL A   1      32.211  21.702  24.846  1.00  0.00     0.016 A 
ATOM      9  C   UNL A   1      32.491  20.434  24.217  1.00  0.00     0.008 A 
ATOM     10  N   UNL A   1      33.658  20.583  26.106  1.00  0.00    -0.348 N 
ATOM     11  C   UNL A   1      33.319  19.732  25.095  1.00  0.00     0.050 A 
ATOM     12  C   UNL A   1      32.116  19.766  23.028  1.00  0.00     0.015 A 
ATOM     13  H   UNL A   1      34.326  20.381  26.801  1.00  0.00     0.167 HD
ATOM     14  C   UNL A   1      33.690  18.398  24.916  1.00  0.00     0.073 A 
ATOM     15  C   UNL A   1      32.539  18.432  22.800  1.00  0.00     0.047 A 
ATOM     16  C   UNL A   1      33.291  17.747  23.753  1.00  0.00     0.120 A 
BRANCH   8  17
ATOM     17  C   UNL A   1      31.233  22.700  24.487  1.00  0.00     0.032 C 
ATOM     18  N   UNL A   1      31.519  26.077  23.338  1.00  0.00    -0.261 N 
ATOM     19  C   UNL A   1      30.709  25.031  23.810  1.00  0.00     0.270 C 
ATOM     20  C   UNL A   1      32.699  25.676  22.713  1.00  0.00     0.152 C 
ATOM     21  O   UNL A   1      29.610  25.097  24.344  1.00  0.00    -0.268 OA
ATOM     22  C   UNL A   1      31.427  23.727  23.638  1.00  0.00     0.081 C 
ATOM     23  S   UNL A   1      32.707  23.923  22.515  1.00  0.00    -0.054 SA
ATOM     24  S   UNL A   1      34.080  26.534  22.307  1.00  0.00    -0.051 S 
BRANCH  18  25
ATOM     25  C   UNL A   1      31.206  27.453  23.628  1.00  0.00     0.051 A 
ATOM     26  C   UNL A   1      30.383  30.081  24.321  1.00  0.00     0.119 A 
ATOM     27  C   UNL A   1      29.872  29.435  23.205  1.00  0.00     0.048 A 
ATOM     28  C   UNL A   1      31.316  29.422  25.104  1.00  0.00     0.048 A 
ATOM     29  C   UNL A   1      30.299  28.156  22.831  1.00  0.00     0.030 A 
ATOM     30  C   UNL A   1      31.724  28.122  24.755  1.00  0.00     0.030 A 
BRANCH  26  31
ATOM     31  O   UNL A   1      29.869  31.318  24.572  1.00  0.00    -0.497 OA
ATOM     32  C   UNL A   1      28.895  31.771  23.632  1.00  0.00     0.278 C 
ENDBRANCH  26  31
ENDBRANCH  18  25
ENDBRANCH   8  17
BRANCH  16  33
ATOM     33  O   UNL A   1      33.666  16.432  23.711  1.00  0.00    -0.497 OA
ATOM     34  C   UNL A   1      33.511  15.675  24.900  1.00  0.00     0.278 C 
ENDBRANCH  16  33
ENDBRANCH   5   7
ENDBRANCH   4   5
ENDBRANCH   3   4
ENDBRANCH   2   3
ENDBRANCH   1   2
BRANCH   1  35
ATOM     35  C   UNL A   1      36.754  21.700  24.123  1.00  0.00     0.202 C 
BRANCH  35  36
ATOM     36  C   UNL A   1      37.725  21.215  25.204  1.00  0.00     0.261 C 
BRANCH  36  37
ATOM     37  O   UNL A   1      38.876  22.058  25.395  1.00  0.00    -0.460 OA
BRANCH  37  38
ATOM     38  C   UNL A   1      39.617  21.745  26.490  1.00  0.00     0.338 C 
ATOM     39  O   UNL A   1      39.966  20.622  26.821  1.00  0.00    -0.246 OA
BRANCH  38  40
ATOM     40  C   UNL A   1      40.066  22.951  27.219  1.00  0.00     0.060 A 
ATOM     41  C   UNL A   1      39.497  24.169  26.841  1.00  0.00     0.016 A 
ATOM     42  C   UNL A   1      41.107  22.925  28.155  1.00  0.00     0.016 A 
ATOM     43  C   UNL A   1      39.991  25.360  27.369  1.00  0.00     0.010 A 
ATOM     44  C   UNL A   1      41.603  24.130  28.685  1.00  0.00     0.010 A 
ATOM     45  C   UNL A   1      41.056  25.359  28.289  1.00  0.00    -0.014 A 
BRANCH  45  46
ATOM     46  C   UNL A   1      41.615  26.679  28.701  1.00  0.00     0.031 A 
ATOM     47  C   UNL A   1      42.930  27.107  28.110  1.00  0.00     0.074 A 
ATOM     48  C   UNL A   1      40.923  27.534  29.479  1.00  0.00     0.049 A 
ATOM     49  N   UNL A   1      43.518  28.273  28.139  1.00  0.00    -0.248 NA
ATOM     50  C   UNL A   1      43.689  26.058  27.414  1.00  0.00     0.031 C 
ATOM     51  C   UNL A   1      39.667  27.223  30.151  1.00  0.00     0.029 A 
ATOM     52  N   UNL A   1      41.128  28.865  29.767  1.00  0.00    -0.354 N 
ATOM     53  C   UNL A   1      44.744  28.090  27.507  1.00  0.00     0.074 A 
ATOM     54  C   UNL A   1      44.787  26.710  27.069  1.00  0.00     0.031 C 
ATOM     55  C   UNL A   1      39.127  28.360  30.620  1.00  0.00     0.029 A 
ATOM     56  C   UNL A   1      40.033  29.474  30.351  1.00  0.00     0.049 A 
ATOM     57  H   UNL A   1      41.970  29.337  29.575  1.00  0.00     0.167 HD
ATOM     58  C   UNL A   1      45.760  28.975  27.361  1.00  0.00     0.034 A 
ATOM     59  C   UNL A   1      39.784  30.779  30.598  1.00  0.00     0.034 A 
ATOM     60  C   UNL A   1      45.719  30.330  27.855  1.00  0.00     0.049 A 
ATOM     61  C   UNL A   1      40.881  31.781  30.310  1.00  0.00     0.074 A 
ATOM     62  C   UNL A   1      46.723  31.282  27.869  1.00  0.00     0.029 A 
ATOM     63  N   UNL A   1      44.605  30.925  28.435  1.00  0.00    -0.354 N 
ATOM     64  N   UNL A   1      42.045  31.592  29.731  1.00  0.00    -0.248 NA
ATOM     65  C   UNL A   1      40.641  33.167  30.738  1.00  0.00     0.031 C 
ATOM     66  C   UNL A   1      46.234  32.431  28.505  1.00  0.00     0.029 A 
ATOM     67  C   UNL A   1      44.903  32.222  28.826  1.00  0.00     0.049 A 
ATOM     68  H   UNL A   1      43.730  30.489  28.554  1.00  0.00     0.167 HD
ATOM     69  C   UNL A   1      42.688  32.825  29.767  1.00  0.00     0.074 A 
ATOM     70  C   UNL A   1      41.746  33.771  30.328  1.00  0.00     0.031 C 
ATOM     71  C   UNL A   1      43.961  33.143  29.416  1.00  0.00     0.034 A 
BRANCH  58  72
ATOM     72  C   UNL A   1      47.040  28.432  26.776  1.00  0.00     0.023 A 
ATOM     73  C   UNL A   1      47.288  28.433  25.394  1.00  0.00     0.031 A 
ATOM     74  C   UNL A   1      47.970  27.791  27.615  1.00  0.00     0.131 A 
ATOM     75  C   UNL A   1      48.386  27.722  24.884  1.00  0.00     0.055 A 
ATOM     76  C   UNL A   1      49.107  27.161  27.108  1.00  0.00     0.041 A 
ATOM     77  F   UNL A   1      47.767  27.731  28.941  1.00  0.00    -0.206 F 
ATOM     78  C   UNL A   1      49.310  27.106  25.733  1.00  0.00     0.022 A 
BRANCH  75  79
ATOM     79  S   UNL A   1      48.491  27.457  23.092  1.00  0.00     0.124 S 
ATOM     80  O   UNL A   1      49.829  27.967  22.799  1.00  0.00    -0.237 OA
ATOM     81  O   UNL A   1      48.317  26.014  22.975  1.00  0.00    -0.237 OA
ATOM     82  O   UNL A   1      47.394  28.264  22.561  1.00  0.00    -0.744 OA
ENDBRANCH  75  79
ENDBRANCH  58  72
BRANCH  59  83
ATOM     83  C   UNL A   1      38.460  31.252  31.120  1.00  0.00     0.023 A 
ATOM     84  C   UNL A   1      37.528  31.848  30.247  1.00  0.00     0.031 A 
ATOM     85  C   UNL A   1      38.112  31.180  32.479  1.00  0.00     0.131 A 
ATOM     86  C   UNL A   1      36.322  32.372  30.742  1.00  0.00     0.055 A 
ATOM     87  C   UNL A   1      36.884  31.646  32.958  1.00  0.00     0.041 A 
ATOM     88  F   UNL A   1      38.963  30.651  33.372  1.00  0.00    -0.206 F 
ATOM     89  C   UNL A   1      35.984  32.257  32.089  1.00  0.00     0.022 A 
BRANCH  86  90
ATOM     90  S   UNL A   1      35.238  33.278  29.605  1.00  0.00     0.124 S 
ATOM     91  O   UNL A   1      34.725  34.339  30.464  1.00  0.00    -0.237 OA
ATOM     92  O   UNL A   1      36.178  33.689  28.566  1.00  0.00    -0.237 OA
ATOM     93  O   UNL A   1      34.257  32.274  29.197  1.00  0.00    -0.744 OA
ENDBRANCH  86  90
ENDBRANCH  59  83
BRANCH  71  94
ATOM     94  C   UNL A   1      44.408  34.560  29.685  1.00  0.00     0.023 A 
ATOM     95  C   UNL A   1      44.965  34.922  30.927  1.00  0.00     0.031 A 
ATOM     96  C   UNL A   1      44.270  35.558  28.707  1.00  0.00     0.131 A 
ATOM     97  C   UNL A   1      45.303  36.258  31.182  1.00  0.00     0.055 A 
ATOM     98  C   UNL A   1      44.662  36.877  28.946  1.00  0.00     0.041 A 
ATOM     99  F   UNL A   1      43.747  35.270  27.505  1.00  0.00    -0.206 F 
ATOM    100  C   UNL A   1      45.168  37.237  30.194  1.00  0.00     0.022 A 
BRANCH  97 101
ATOM    101  S   UNL A   1      45.834  36.717  32.854  1.00  0.00     0.124 S 
ATOM    102  O   UNL A   1      45.406  38.109  32.939  1.00  0.00    -0.237 OA
ATOM    103  O   UNL A   1      45.096  35.773  33.687  1.00  0.00    -0.237 OA
ATOM    104  O   UNL A   1      47.281  36.514  32.823  1.00  0.00    -0.744 OA
ENDBRANCH  97 101
ENDBRANCH  71  94
ENDBRANCH  45  46
ENDBRANCH  38  40
ENDBRANCH  37  38
ENDBRANCH  36  37
ENDBRANCH  35  36
ENDBRANCH   1  35
TORSDOF 21
ENDMDL
