MODEL 1
REMARK VINA RESULT:     -10.6      0.000      0.000
REMARK SMILES O=C(OCCOCCOC(=O)[C@@H]1CCCN(C(=O)CCCc2ccc(Br)s2)C1)c1ccc(-c2c3nc(c(-c4cc(S(=O)(=O)[O-])ccc4F)c4ccc([nH]4)c(-c4cc(S(=O)(=O)[O-])ccc4F)c4nc(c(-c5cc(S(=O)(=O)[O-])ccc5F)c5ccc2[nH]5)C=C4)C=C3)cc1
REMARK SMILES IDX 7 1 6 2 5 3 4 4 3 5 2 6 1 7 29 8 30 9 91 10 31 11 90 12
REMARK SMILES IDX 32 13 33 14 34 15 84 16 35 17 89 18 83 19 85 20 36 21 88 22
REMARK SMILES IDX 82 23 81 24 37 26 69 27 49 28 68 29 50 30 53 31 67 32 86 33
REMARK SMILES IDX 51 34 52 35 66 37 87 38 54 39 38 40 39 41 47 42 40 43 46 44
REMARK SMILES IDX 48 45 45 46 41 47 42 48 43 49 44 50 70 51 71 52 79 53 72 54
REMARK SMILES IDX 78 55 80 56 77 57 73 58 74 59 75 60 76 61 55 62 56 63 64 64
REMARK SMILES IDX 57 65 63 66 65 67 62 68 58 69 59 70 60 71 61 72 8 73 9 74
REMARK SMILES IDX 10 75 11 76 12 77 13 78 28 79 14 80 16 81 15 82 17 83 18 84
REMARK SMILES IDX 19 85 20 86 21 87 22 88 23 89 27 90 24 91 25 92 26 93
REMARK H PARENT 85 25 53 36
REMARK Flexibility Score: inf
ROOT
ATOM      1  C   UNL A   1      33.718  27.390  25.893  1.00  0.00     0.202 C 
ENDROOT
BRANCH   1   2
ATOM      2  O   UNL A   1      32.377  27.469  26.384  1.00  0.00    -0.374 OA
BRANCH   2   3
ATOM      3  C   UNL A   1      31.969  28.631  27.111  1.00  0.00     0.202 C 
BRANCH   3   4
ATOM      4  C   UNL A   1      31.732  29.963  26.380  1.00  0.00     0.261 C 
BRANCH   4   5
ATOM      5  O   UNL A   1      32.922  30.750  26.245  1.00  0.00    -0.460 OA
BRANCH   5   6
ATOM      6  C   UNL A   1      33.480  31.533  27.201  1.00  0.00     0.338 C 
ATOM      7  O   UNL A   1      32.937  32.594  27.504  1.00  0.00    -0.246 OA
BRANCH   6   8
ATOM      8  C   UNL A   1      34.767  31.182  27.870  1.00  0.00     0.060 A 
ATOM      9  C   UNL A   1      35.076  29.912  28.357  1.00  0.00     0.016 A 
ATOM     10  C   UNL A   1      35.763  32.163  27.928  1.00  0.00     0.016 A 
ATOM     11  C   UNL A   1      36.301  29.588  28.878  1.00  0.00     0.010 A 
ATOM     12  C   UNL A   1      37.013  31.861  28.471  1.00  0.00     0.010 A 
ATOM     13  C   UNL A   1      37.268  30.569  28.944  1.00  0.00    -0.014 A 
BRANCH  13  14
ATOM     14  C   UNL A   1      38.454  30.224  29.716  1.00  0.00     0.031 A 
ATOM     15  C   UNL A   1      39.446  29.334  29.054  1.00  0.00     0.074 A 
ATOM     16  C   UNL A   1      38.682  30.849  30.879  1.00  0.00     0.049 A 
ATOM     17  N   UNL A   1      40.493  28.750  29.555  1.00  0.00    -0.248 NA
ATOM     18  C   UNL A   1      39.224  29.072  27.621  1.00  0.00     0.031 C 
ATOM     19  C   UNL A   1      37.840  31.908  31.447  1.00  0.00     0.029 A 
ATOM     20  N   UNL A   1      39.690  30.697  31.783  1.00  0.00    -0.354 N 
ATOM     21  C   UNL A   1      41.023  27.998  28.515  1.00  0.00     0.074 A 
ATOM     22  C   UNL A   1      40.191  28.214  27.354  1.00  0.00     0.031 C 
ATOM     23  C   UNL A   1      38.352  32.281  32.630  1.00  0.00     0.029 A 
ATOM     24  C   UNL A   1      39.491  31.424  32.931  1.00  0.00     0.049 A 
ATOM     25  H   UNL A   1      40.477  30.125  31.631  1.00  0.00     0.167 HD
ATOM     26  C   UNL A   1      42.098  27.179  28.567  1.00  0.00     0.034 A 
ATOM     27  C   UNL A   1      40.118  31.321  34.116  1.00  0.00     0.034 A 
ATOM     28  C   UNL A   1      42.845  27.002  29.786  1.00  0.00     0.049 A 
ATOM     29  C   UNL A   1      41.220  30.299  34.211  1.00  0.00     0.074 A 
ATOM     30  C   UNL A   1      43.899  26.151  30.049  1.00  0.00     0.029 A 
ATOM     31  N   UNL A   1      42.588  27.700  30.968  1.00  0.00    -0.354 N 
ATOM     32  N   UNL A   1      41.666  29.483  33.278  1.00  0.00    -0.248 NA
ATOM     33  C   UNL A   1      41.898  30.168  35.502  1.00  0.00     0.031 C 
ATOM     34  C   UNL A   1      44.221  26.276  31.405  1.00  0.00     0.029 A 
ATOM     35  C   UNL A   1      43.438  27.277  31.970  1.00  0.00     0.049 A 
ATOM     36  H   UNL A   1      41.897  28.393  31.073  1.00  0.00     0.167 HD
ATOM     37  C   UNL A   1      42.698  28.760  33.860  1.00  0.00     0.074 A 
ATOM     38  C   UNL A   1      42.803  29.238  35.229  1.00  0.00     0.031 C 
ATOM     39  C   UNL A   1      43.495  27.800  33.319  1.00  0.00     0.034 A 
BRANCH  26  40
ATOM     40  C   UNL A   1      42.372  26.345  27.340  1.00  0.00     0.023 A 
ATOM     41  C   UNL A   1      41.881  25.034  27.202  1.00  0.00     0.031 A 
ATOM     42  C   UNL A   1      43.281  26.808  26.372  1.00  0.00     0.131 A 
ATOM     43  C   UNL A   1      42.396  24.195  26.200  1.00  0.00     0.055 A 
ATOM     44  C   UNL A   1      43.709  26.003  25.315  1.00  0.00     0.041 A 
ATOM     45  F   UNL A   1      43.818  28.035  26.469  1.00  0.00    -0.206 F 
ATOM     46  C   UNL A   1      43.287  24.679  25.240  1.00  0.00     0.022 A 
BRANCH  43  47
ATOM     47  S   UNL A   1      42.068  22.412  26.310  1.00  0.00     0.124 S 
ATOM     48  O   UNL A   1      42.575  22.101  27.646  1.00  0.00    -0.237 OA
ATOM     49  O   UNL A   1      40.620  22.346  26.146  1.00  0.00    -0.237 OA
ATOM     50  O   UNL A   1      42.848  21.849  25.211  1.00  0.00    -0.744 OA
ENDBRANCH  43  47
ENDBRANCH  26  40
BRANCH  27  51
ATOM     51  C   UNL A   1      39.636  32.111  35.284  1.00  0.00     0.023 A 
ATOM     52  C   UNL A   1      40.078  33.420  35.519  1.00  0.00     0.031 A 
ATOM     53  C   UNL A   1      38.690  31.566  36.176  1.00  0.00     0.131 A 
ATOM     54  C   UNL A   1      39.586  34.134  36.625  1.00  0.00     0.055 A 
ATOM     55  C   UNL A   1      38.168  32.296  37.244  1.00  0.00     0.041 A 
ATOM     56  F   UNL A   1      38.231  30.316  36.000  1.00  0.00    -0.206 F 
ATOM     57  C   UNL A   1      38.623  33.589  37.478  1.00  0.00     0.022 A 
BRANCH  54  58
ATOM     58  S   UNL A   1      40.264  35.781  36.970  1.00  0.00     0.124 S 
ATOM     59  O   UNL A   1      39.771  36.028  38.321  1.00  0.00    -0.237 OA
ATOM     60  O   UNL A   1      41.700  35.552  36.841  1.00  0.00    -0.237 OA
ATOM     61  O   UNL A   1      39.673  36.619  35.928  1.00  0.00    -0.744 OA
ENDBRANCH  54  58
ENDBRANCH  27  51
BRANCH  39  62
ATOM     62  C   UNL A   1      44.595  27.266  34.194  1.00  0.00     0.023 A 
ATOM     63  C   UNL A   1      44.422  26.126  34.993  1.00  0.00     0.031 A 
ATOM     64  C   UNL A   1      45.859  27.883  34.164  1.00  0.00     0.131 A 
ATOM     65  C   UNL A   1      45.498  25.650  35.756  1.00  0.00     0.055 A 
ATOM     66  C   UNL A   1      46.939  27.369  34.876  1.00  0.00     0.041 A 
ATOM     67  F   UNL A   1      46.067  28.977  33.414  1.00  0.00    -0.206 F 
ATOM     68  C   UNL A   1      46.760  26.249  35.682  1.00  0.00     0.022 A 
BRANCH  65  69
ATOM     69  S   UNL A   1      45.215  24.266  36.890  1.00  0.00     0.124 S 
ATOM     70  O   UNL A   1      44.539  23.303  36.026  1.00  0.00    -0.237 OA
ATOM     71  O   UNL A   1      46.570  23.913  37.300  1.00  0.00    -0.237 OA
ATOM     72  O   UNL A   1      44.383  24.849  37.940  1.00  0.00    -0.744 OA
ENDBRANCH  65  69
ENDBRANCH  39  62
ENDBRANCH  13  14
ENDBRANCH   6   8
ENDBRANCH   5   6
ENDBRANCH   4   5
ENDBRANCH   3   4
ENDBRANCH   2   3
ENDBRANCH   1   2
BRANCH   1  73
ATOM     73  C   UNL A   1      33.910  26.081  25.126  1.00  0.00     0.261 C 
BRANCH  73  74
ATOM     74  O   UNL A   1      33.833  25.005  26.068  1.00  0.00    -0.463 OA
BRANCH  74  75
ATOM     75  C   UNL A   1      34.728  24.008  25.856  1.00  0.00     0.310 C 
ATOM     76  O   UNL A   1      35.741  24.117  25.183  1.00  0.00    -0.252 OA
BRANCH  75  77
ATOM     77  C   UNL A   1      34.300  22.702  26.507  1.00  0.00     0.119 C 
ATOM     78  C   UNL A   1      34.923  21.534  25.748  1.00  0.00     0.019 C 
ATOM     79  C   UNL A   1      32.787  22.481  26.643  1.00  0.00     0.134 C 
ATOM     80  C   UNL A   1      34.194  21.288  24.424  1.00  0.00     0.022 C 
ATOM     81  N   UNL A   1      32.137  22.292  25.358  1.00  0.00    -0.342 N 
ATOM     82  C   UNL A   1      32.673  21.175  24.603  1.00  0.00     0.119 C 
BRANCH  81  83
ATOM     83  C   UNL A   1      31.103  23.154  25.020  1.00  0.00     0.222 C 
ATOM     84  O   UNL A   1      30.338  23.613  25.873  1.00  0.00    -0.275 OA
BRANCH  83  85
ATOM     85  C   UNL A   1      30.844  23.531  23.580  1.00  0.00     0.100 C 
BRANCH  85  86
ATOM     86  C   UNL A   1      30.932  25.019  23.220  1.00  0.00     0.015 C 
BRANCH  86  87
ATOM     87  C   UNL A   1      30.203  26.045  24.090  1.00  0.00     0.047 C 
BRANCH  87  88
ATOM     88  C   UNL A   1      30.020  27.449  23.566  1.00  0.00     0.006 A 
ATOM     89  C   UNL A   1      31.035  28.307  23.166  1.00  0.00     0.016 A 
ATOM     90  S   UNL A   1      28.495  28.212  23.341  1.00  0.00    -0.133 S 
ATOM     91  C   UNL A   1      30.546  29.411  22.406  1.00  0.00     0.028 A 
ATOM     92  C   UNL A   1      29.178  29.385  22.331  1.00  0.00     0.070 A 
ATOM     93  Br  UNL A   1      28.169  30.521  21.238  1.00  0.00    -0.039 Br
ENDBRANCH  87  88
ENDBRANCH  86  87
ENDBRANCH  85  86
ENDBRANCH  83  85
ENDBRANCH  81  83
ENDBRANCH  75  77
ENDBRANCH  74  75
ENDBRANCH  73  74
ENDBRANCH   1  73
TORSDOF 22
ENDMDL
MODEL 2
REMARK VINA RESULT:      -9.7      2.932      8.846
REMARK SMILES O=C(OCCOCCOC(=O)[C@@H]1CCCN(C(=O)CCCc2ccc(Br)s2)C1)c1ccc(-c2c3nc(c(-c4cc(S(=O)(=O)[O-])ccc4F)c4ccc([nH]4)c(-c4cc(S(=O)(=O)[O-])ccc4F)c4nc(c(-c5cc(S(=O)(=O)[O-])ccc5F)c5ccc2[nH]5)C=C4)C=C3)cc1
REMARK SMILES IDX 7 1 6 2 5 3 4 4 3 5 2 6 1 7 29 8 30 9 91 10 31 11 90 12
REMARK SMILES IDX 32 13 33 14 34 15 84 16 35 17 89 18 83 19 85 20 36 21 88 22
REMARK SMILES IDX 82 23 81 24 37 26 69 27 49 28 68 29 50 30 53 31 67 32 86 33
REMARK SMILES IDX 51 34 52 35 66 37 87 38 54 39 38 40 39 41 47 42 40 43 46 44
REMARK SMILES IDX 48 45 45 46 41 47 42 48 43 49 44 50 70 51 71 52 79 53 72 54
REMARK SMILES IDX 78 55 80 56 77 57 73 58 74 59 75 60 76 61 55 62 56 63 64 64
REMARK SMILES IDX 57 65 63 66 65 67 62 68 58 69 59 70 60 71 61 72 8 73 9 74
REMARK SMILES IDX 10 75 11 76 12 77 13 78 28 79 14 80 16 81 15 82 17 83 18 84
REMARK SMILES IDX 19 85 20 86 21 87 22 88 23 89 27 90 24 91 25 92 26 93
REMARK H PARENT 85 25 53 36
REMARK Flexibility Score: inf
ROOT
ATOM      1  C   UNL A   1      33.803  27.785  24.440  1.00  0.00     0.202 C 
ENDROOT
BRANCH   1   2
ATOM      2  O   UNL A   1      33.862  28.829  25.415  1.00  0.00    -0.374 OA
BRANCH   2   3
ATOM      3  C   UNL A   1      32.812  29.799  25.461  1.00  0.00     0.202 C 
BRANCH   3   4
ATOM      4  C   UNL A   1      32.417  30.458  26.792  1.00  0.00     0.261 C 
BRANCH   4   5
ATOM      5  O   UNL A   1      32.581  31.882  26.784  1.00  0.00    -0.460 OA
BRANCH   5   6
ATOM      6  C   UNL A   1      33.413  32.598  27.579  1.00  0.00     0.338 C 
ATOM      7  O   UNL A   1      33.197  33.796  27.755  1.00  0.00    -0.246 OA
BRANCH   6   8
ATOM      8  C   UNL A   1      34.625  31.998  28.213  1.00  0.00     0.060 A 
ATOM      9  C   UNL A   1      34.696  30.685  28.678  1.00  0.00     0.016 A 
ATOM     10  C   UNL A   1      35.790  32.771  28.257  1.00  0.00     0.016 A 
ATOM     11  C   UNL A   1      35.848  30.126  29.167  1.00  0.00     0.010 A 
ATOM     12  C   UNL A   1      36.971  32.228  28.766  1.00  0.00     0.010 A 
ATOM     13  C   UNL A   1      36.985  30.904  29.219  1.00  0.00    -0.014 A 
BRANCH  13  14
ATOM     14  C   UNL A   1      38.101  30.327  29.958  1.00  0.00     0.031 A 
ATOM     15  C   UNL A   1      38.237  30.732  31.383  1.00  0.00     0.074 A 
ATOM     16  C   UNL A   1      38.823  29.349  29.394  1.00  0.00     0.049 A 
ATOM     17  N   UNL A   1      39.208  30.503  32.215  1.00  0.00    -0.248 NA
ATOM     18  C   UNL A   1      37.114  31.500  31.947  1.00  0.00     0.031 C 
ATOM     19  C   UNL A   1      38.563  28.763  28.075  1.00  0.00     0.029 A 
ATOM     20  N   UNL A   1      39.908  28.671  29.860  1.00  0.00    -0.354 N 
ATOM     21  C   UNL A   1      38.844  31.153  33.388  1.00  0.00     0.074 A 
ATOM     22  C   UNL A   1      37.558  31.770  33.161  1.00  0.00     0.031 C 
ATOM     23  C   UNL A   1      39.498  27.833  27.823  1.00  0.00     0.029 A 
ATOM     24  C   UNL A   1      40.459  27.837  28.918  1.00  0.00     0.049 A 
ATOM     25  H   UNL A   1      40.262  28.769  30.773  1.00  0.00     0.167 HD
ATOM     26  C   UNL A   1      39.563  31.236  34.530  1.00  0.00     0.034 A 
ATOM     27  C   UNL A   1      41.658  27.227  28.926  1.00  0.00     0.034 A 
ATOM     28  C   UNL A   1      40.857  30.613  34.647  1.00  0.00     0.049 A 
ATOM     29  C   UNL A   1      42.519  27.445  30.143  1.00  0.00     0.074 A 
ATOM     30  C   UNL A   1      41.762  30.667  35.687  1.00  0.00     0.029 A 
ATOM     31  N   UNL A   1      41.435  29.822  33.653  1.00  0.00    -0.354 N 
ATOM     32  N   UNL A   1      42.254  28.156  31.219  1.00  0.00    -0.248 NA
ATOM     33  C   UNL A   1      43.832  26.799  30.153  1.00  0.00     0.031 C 
ATOM     34  C   UNL A   1      42.913  29.979  35.288  1.00  0.00     0.029 A 
ATOM     35  C   UNL A   1      42.694  29.409  34.039  1.00  0.00     0.049 A 
ATOM     36  H   UNL A   1      41.007  29.591  32.797  1.00  0.00     0.167 HD
ATOM     37  C   UNL A   1      43.356  28.020  32.052  1.00  0.00     0.074 A 
ATOM     38  C   UNL A   1      44.290  27.160  31.345  1.00  0.00     0.031 C 
ATOM     39  C   UNL A   1      43.578  28.543  33.286  1.00  0.00     0.034 A 
BRANCH  26  40
ATOM     40  C   UNL A   1      39.018  32.141  35.607  1.00  0.00     0.023 A 
ATOM     41  C   UNL A   1      39.383  33.496  35.700  1.00  0.00     0.031 A 
ATOM     42  C   UNL A   1      38.255  31.596  36.655  1.00  0.00     0.131 A 
ATOM     43  C   UNL A   1      39.097  34.220  36.870  1.00  0.00     0.055 A 
ATOM     44  C   UNL A   1      37.882  32.351  37.768  1.00  0.00     0.041 A 
ATOM     45  F   UNL A   1      37.908  30.299  36.646  1.00  0.00    -0.206 F 
ATOM     46  C   UNL A   1      38.326  33.664  37.893  1.00  0.00     0.022 A 
BRANCH  43  47
ATOM     47  S   UNL A   1      39.941  35.806  37.135  1.00  0.00     0.124 S 
ATOM     48  O   UNL A   1      39.654  36.506  35.884  1.00  0.00    -0.237 OA
ATOM     49  O   UNL A   1      39.273  36.325  38.324  1.00  0.00    -0.237 OA
ATOM     50  O   UNL A   1      41.339  35.426  37.320  1.00  0.00    -0.744 OA
ENDBRANCH  43  47
ENDBRANCH  26  40
BRANCH  27  51
ATOM     51  C   UNL A   1      42.122  26.482  27.722  1.00  0.00     0.023 A 
ATOM     52  C   UNL A   1      41.980  25.092  27.617  1.00  0.00     0.031 A 
ATOM     53  C   UNL A   1      42.696  27.169  26.632  1.00  0.00     0.131 A 
ATOM     54  C   UNL A   1      42.419  24.431  26.456  1.00  0.00     0.055 A 
ATOM     55  C   UNL A   1      43.085  26.515  25.463  1.00  0.00     0.041 A 
ATOM     56  F   UNL A   1      42.856  28.502  26.677  1.00  0.00    -0.206 F 
ATOM     57  C   UNL A   1      42.954  25.134  25.373  1.00  0.00     0.022 A 
BRANCH  54  58
ATOM     58  S   UNL A   1      42.330  22.620  26.398  1.00  0.00     0.124 S 
ATOM     59  O   UNL A   1      40.946  22.378  26.788  1.00  0.00    -0.237 OA
ATOM     60  O   UNL A   1      42.663  22.345  25.004  1.00  0.00    -0.237 OA
ATOM     61  O   UNL A   1      43.336  22.197  27.371  1.00  0.00    -0.744 OA
ENDBRANCH  54  58
ENDBRANCH  27  51
BRANCH  39  62
ATOM     62  C   UNL A   1      44.850  28.130  33.974  1.00  0.00     0.023 A 
ATOM     63  C   UNL A   1      46.023  28.895  33.889  1.00  0.00     0.031 A 
ATOM     64  C   UNL A   1      44.852  26.981  34.785  1.00  0.00     0.131 A 
ATOM     65  C   UNL A   1      47.166  28.482  34.587  1.00  0.00     0.055 A 
ATOM     66  C   UNL A   1      45.972  26.610  35.523  1.00  0.00     0.041 A 
ATOM     67  F   UNL A   1      43.751  26.219  34.893  1.00  0.00    -0.206 F 
ATOM     68  C   UNL A   1      47.140  27.359  35.422  1.00  0.00     0.022 A 
BRANCH  65  69
ATOM     69  S   UNL A   1      48.710  29.400  34.349  1.00  0.00     0.124 S 
ATOM     70  O   UNL A   1      48.538  30.520  35.269  1.00  0.00    -0.237 OA
ATOM     71  O   UNL A   1      49.721  28.417  34.722  1.00  0.00    -0.237 OA
ATOM     72  O   UNL A   1      48.683  29.752  32.931  1.00  0.00    -0.744 OA
ENDBRANCH  65  69
ENDBRANCH  39  62
ENDBRANCH  13  14
ENDBRANCH   6   8
ENDBRANCH   5   6
ENDBRANCH   4   5
ENDBRANCH   3   4
ENDBRANCH   2   3
ENDBRANCH   1   2
BRANCH   1  73
ATOM     73  C   UNL A   1      33.631  28.389  23.046  1.00  0.00     0.261 C 
BRANCH  73  74
ATOM     74  O   UNL A   1      32.482  27.784  22.443  1.00  0.00    -0.463 OA
BRANCH  74  75
ATOM     75  C   UNL A   1      32.643  26.478  22.113  1.00  0.00     0.310 C 
ATOM     76  O   UNL A   1      33.665  26.002  21.644  1.00  0.00    -0.252 OA
BRANCH  75  77
ATOM     77  C   UNL A   1      31.376  25.667  22.337  1.00  0.00     0.119 C 
ATOM     78  C   UNL A   1      30.393  26.488  23.166  1.00  0.00     0.019 C 
ATOM     79  C   UNL A   1      31.565  24.286  22.979  1.00  0.00     0.134 C 
ATOM     80  C   UNL A   1      30.811  26.523  24.640  1.00  0.00     0.022 C 
ATOM     81  N   UNL A   1      31.999  24.372  24.362  1.00  0.00    -0.342 N 
ATOM     82  C   UNL A   1      31.086  25.121  25.205  1.00  0.00     0.119 C 
BRANCH  81  83
ATOM     83  C   UNL A   1      33.182  23.735  24.714  1.00  0.00     0.222 C 
ATOM     84  O   UNL A   1      34.274  24.303  24.620  1.00  0.00    -0.275 OA
BRANCH  83  85
ATOM     85  C   UNL A   1      33.183  22.300  25.185  1.00  0.00     0.100 C 
BRANCH  85  86
ATOM     86  C   UNL A   1      33.823  21.259  24.259  1.00  0.00     0.015 C 
BRANCH  86  87
ATOM     87  C   UNL A   1      34.526  20.045  24.868  1.00  0.00     0.047 C 
BRANCH  87  88
ATOM     88  C   UNL A   1      33.952  18.670  24.625  1.00  0.00     0.006 A 
ATOM     89  C   UNL A   1      34.321  17.804  23.605  1.00  0.00     0.016 A 
ATOM     90  S   UNL A   1      32.756  17.927  25.612  1.00  0.00    -0.133 S 
ATOM     91  C   UNL A   1      33.868  16.470  23.833  1.00  0.00     0.028 A 
ATOM     92  C   UNL A   1      33.111  16.400  24.974  1.00  0.00     0.070 A 
ATOM     93  Br  UNL A   1      32.526  14.798  25.743  1.00  0.00    -0.039 Br
ENDBRANCH  87  88
ENDBRANCH  86  87
ENDBRANCH  85  86
ENDBRANCH  83  85
ENDBRANCH  81  83
ENDBRANCH  75  77
ENDBRANCH  74  75
ENDBRANCH  73  74
ENDBRANCH   1  73
TORSDOF 22
ENDMDL
MODEL 3
REMARK VINA RESULT:      -9.7      4.735      7.343
REMARK SMILES O=C(OCCOCCOC(=O)[C@@H]1CCCN(C(=O)CCCc2ccc(Br)s2)C1)c1ccc(-c2c3nc(c(-c4cc(S(=O)(=O)[O-])ccc4F)c4ccc([nH]4)c(-c4cc(S(=O)(=O)[O-])ccc4F)c4nc(c(-c5cc(S(=O)(=O)[O-])ccc5F)c5ccc2[nH]5)C=C4)C=C3)cc1
REMARK SMILES IDX 7 1 6 2 5 3 4 4 3 5 2 6 1 7 29 8 30 9 91 10 31 11 90 12
REMARK SMILES IDX 32 13 33 14 34 15 84 16 35 17 89 18 83 19 85 20 36 21 88 22
REMARK SMILES IDX 82 23 81 24 37 26 69 27 49 28 68 29 50 30 53 31 67 32 86 33
REMARK SMILES IDX 51 34 52 35 66 37 87 38 54 39 38 40 39 41 47 42 40 43 46 44
REMARK SMILES IDX 48 45 45 46 41 47 42 48 43 49 44 50 70 51 71 52 79 53 72 54
REMARK SMILES IDX 78 55 80 56 77 57 73 58 74 59 75 60 76 61 55 62 56 63 64 64
REMARK SMILES IDX 57 65 63 66 65 67 62 68 58 69 59 70 60 71 61 72 8 73 9 74
REMARK SMILES IDX 10 75 11 76 12 77 13 78 28 79 14 80 16 81 15 82 17 83 18 84
REMARK SMILES IDX 19 85 20 86 21 87 22 88 23 89 27 90 24 91 25 92 26 93
REMARK H PARENT 85 25 53 36
REMARK Flexibility Score: inf
ROOT
ATOM      1  C   UNL A   1      34.631  21.052  26.144  1.00  0.00     0.202 C 
ENDROOT
BRANCH   1   2
ATOM      2  O   UNL A   1      35.269  21.783  25.093  1.00  0.00    -0.374 OA
BRANCH   2   3
ATOM      3  C   UNL A   1      36.620  22.219  25.269  1.00  0.00     0.202 C 
BRANCH   3   4
ATOM      4  C   UNL A   1      37.727  21.208  25.611  1.00  0.00     0.261 C 
BRANCH   4   5
ATOM      5  O   UNL A   1      39.042  21.774  25.557  1.00  0.00    -0.460 OA
BRANCH   5   6
ATOM      6  C   UNL A   1      39.841  22.052  26.617  1.00  0.00     0.338 C 
ATOM      7  O   UNL A   1      40.248  21.131  27.323  1.00  0.00    -0.246 OA
BRANCH   6   8
ATOM      8  C   UNL A   1      40.206  23.449  26.997  1.00  0.00     0.060 A 
ATOM      9  C   UNL A   1      40.083  24.549  26.149  1.00  0.00     0.016 A 
ATOM     10  C   UNL A   1      40.608  23.683  28.317  1.00  0.00     0.016 A 
ATOM     11  C   UNL A   1      40.331  25.835  26.551  1.00  0.00     0.010 A 
ATOM     12  C   UNL A   1      40.883  24.983  28.744  1.00  0.00     0.010 A 
ATOM     13  C   UNL A   1      40.742  26.050  27.850  1.00  0.00    -0.014 A 
BRANCH  13  14
ATOM     14  C   UNL A   1      41.210  27.399  28.140  1.00  0.00     0.031 A 
ATOM     15  C   UNL A   1      42.610  27.718  27.752  1.00  0.00     0.074 A 
ATOM     16  C   UNL A   1      40.331  28.319  28.562  1.00  0.00     0.049 A 
ATOM     17  N   UNL A   1      43.323  28.768  28.030  1.00  0.00    -0.248 NA
ATOM     18  C   UNL A   1      43.298  26.708  26.930  1.00  0.00     0.031 C 
ATOM     19  C   UNL A   1      38.891  28.096  28.729  1.00  0.00     0.029 A 
ATOM     20  N   UNL A   1      40.515  29.622  28.914  1.00  0.00    -0.354 N 
ATOM     21  C   UNL A   1      44.570  28.520  27.470  1.00  0.00     0.074 A 
ATOM     22  C   UNL A   1      44.507  27.229  26.824  1.00  0.00     0.031 C 
ATOM     23  C   UNL A   1      38.329  29.223  29.193  1.00  0.00     0.029 A 
ATOM     24  C   UNL A   1      39.383  30.198  29.437  1.00  0.00     0.049 A 
ATOM     25  H   UNL A   1      41.369  30.100  28.807  1.00  0.00     0.167 HD
ATOM     26  C   UNL A   1      45.665  29.311  27.536  1.00  0.00     0.034 A 
ATOM     27  C   UNL A   1      39.259  31.350  30.119  1.00  0.00     0.034 A 
ATOM     28  C   UNL A   1      45.637  30.570  28.235  1.00  0.00     0.049 A 
ATOM     29  C   UNL A   1      40.515  32.158  30.317  1.00  0.00     0.074 A 
ATOM     30  C   UNL A   1      46.667  31.454  28.482  1.00  0.00     0.029 A 
ATOM     31  N   UNL A   1      44.492  31.112  28.822  1.00  0.00    -0.354 N 
ATOM     32  N   UNL A   1      41.737  31.890  29.904  1.00  0.00    -0.248 NA
ATOM     33  C   UNL A   1      40.393  33.406  31.072  1.00  0.00     0.031 C 
ATOM     34  C   UNL A   1      46.162  32.485  29.284  1.00  0.00     0.029 A 
ATOM     35  C   UNL A   1      44.795  32.300  29.457  1.00  0.00     0.049 A 
ATOM     36  H   UNL A   1      43.597  30.705  28.790  1.00  0.00     0.167 HD
ATOM     37  C   UNL A   1      42.527  32.951  30.323  1.00  0.00     0.074 A 
ATOM     38  C   UNL A   1      41.638  33.861  31.026  1.00  0.00     0.031 C 
ATOM     39  C   UNL A   1      43.856  33.167  30.140  1.00  0.00     0.034 A 
BRANCH  26  40
ATOM     40  C   UNL A   1      46.946  28.737  26.983  1.00  0.00     0.023 A 
ATOM     41  C   UNL A   1      47.201  28.671  25.602  1.00  0.00     0.031 A 
ATOM     42  C   UNL A   1      47.850  28.093  27.847  1.00  0.00     0.131 A 
ATOM     43  C   UNL A   1      48.252  27.872  25.121  1.00  0.00     0.055 A 
ATOM     44  C   UNL A   1      48.956  27.388  27.367  1.00  0.00     0.041 A 
ATOM     45  F   UNL A   1      47.642  28.084  29.173  1.00  0.00    -0.206 F 
ATOM     46  C   UNL A   1      49.147  27.252  25.996  1.00  0.00     0.022 A 
BRANCH  43  47
ATOM     47  S   UNL A   1      48.293  27.466  23.351  1.00  0.00     0.124 S 
ATOM     48  O   UNL A   1      48.189  26.008  23.380  1.00  0.00    -0.237 OA
ATOM     49  O   UNL A   1      47.127  28.178  22.837  1.00  0.00    -0.237 OA
ATOM     50  O   UNL A   1      49.585  27.982  22.908  1.00  0.00    -0.744 OA
ENDBRANCH  43  47
ENDBRANCH  26  40
BRANCH  27  51
ATOM     51  C   UNL A   1      37.952  31.714  30.733  1.00  0.00     0.023 A 
ATOM     52  C   UNL A   1      37.015  32.507  30.055  1.00  0.00     0.031 A 
ATOM     53  C   UNL A   1      37.606  31.241  32.016  1.00  0.00     0.131 A 
ATOM     54  C   UNL A   1      35.787  32.813  30.666  1.00  0.00     0.055 A 
ATOM     55  C   UNL A   1      36.367  31.508  32.598  1.00  0.00     0.041 A 
ATOM     56  F   UNL A   1      38.464  30.478  32.712  1.00  0.00    -0.206 F 
ATOM     57  C   UNL A   1      35.450  32.306  31.925  1.00  0.00     0.022 A 
BRANCH  54  58
ATOM     58  S   UNL A   1      34.645  33.936  29.814  1.00  0.00     0.124 S 
ATOM     59  O   UNL A   1      33.647  33.007  29.296  1.00  0.00    -0.237 OA
ATOM     60  O   UNL A   1      34.210  34.809  30.900  1.00  0.00    -0.237 OA
ATOM     61  O   UNL A   1      35.486  34.576  28.804  1.00  0.00    -0.744 OA
ENDBRANCH  54  58
ENDBRANCH  27  51
BRANCH  39  62
ATOM     62  C   UNL A   1      44.403  34.474  30.644  1.00  0.00     0.023 A 
ATOM     63  C   UNL A   1      44.334  35.651  29.884  1.00  0.00     0.031 A 
ATOM     64  C   UNL A   1      44.940  34.540  31.942  1.00  0.00     0.131 A 
ATOM     65  C   UNL A   1      44.822  36.849  30.424  1.00  0.00     0.055 A 
ATOM     66  C   UNL A   1      45.367  35.744  32.495  1.00  0.00     0.041 A 
ATOM     67  F   UNL A   1      45.026  33.436  32.702  1.00  0.00    -0.206 F 
ATOM     68  C   UNL A   1      45.314  36.906  31.732  1.00  0.00     0.022 A 
BRANCH  65  69
ATOM     69  S   UNL A   1      44.857  38.325  29.375  1.00  0.00     0.124 S 
ATOM     70  O   UNL A   1      45.821  39.169  30.075  1.00  0.00    -0.237 OA
ATOM     71  O   UNL A   1      45.295  37.788  28.091  1.00  0.00    -0.237 OA
ATOM     72  O   UNL A   1      43.476  38.801  29.408  1.00  0.00    -0.744 OA
ENDBRANCH  65  69
ENDBRANCH  39  62
ENDBRANCH  13  14
ENDBRANCH   6   8
ENDBRANCH   5   6
ENDBRANCH   4   5
ENDBRANCH   3   4
ENDBRANCH   2   3
ENDBRANCH   1   2
BRANCH   1  73
ATOM     73  C   UNL A   1      33.131  21.347  26.139  1.00  0.00     0.261 C 
BRANCH  73  74
ATOM     74  O   UNL A   1      32.913  22.505  25.325  1.00  0.00    -0.463 OA
BRANCH  74  75
ATOM     75  C   UNL A   1      31.611  22.749  25.033  1.00  0.00     0.310 C 
ATOM     76  O   UNL A   1      30.712  22.798  25.857  1.00  0.00    -0.252 OA
BRANCH  75  77
ATOM     77  C   UNL A   1      31.375  22.897  23.537  1.00  0.00     0.119 C 
ATOM     78  C   UNL A   1      32.712  23.111  22.835  1.00  0.00     0.019 C 
ATOM     79  C   UNL A   1      30.389  23.996  23.116  1.00  0.00     0.134 C 
ATOM     80  C   UNL A   1      33.223  24.540  23.049  1.00  0.00     0.022 C 
ATOM     81  N   UNL A   1      30.902  25.330  23.375  1.00  0.00    -0.342 N 
ATOM     82  C   UNL A   1      32.163  25.598  22.709  1.00  0.00     0.119 C 
BRANCH  81  83
ATOM     83  C   UNL A   1      30.149  26.171  24.181  1.00  0.00     0.222 C 
ATOM     84  O   UNL A   1      30.068  25.997  25.401  1.00  0.00    -0.275 OA
BRANCH  83  85
ATOM     85  C   UNL A   1      29.358  27.315  23.590  1.00  0.00     0.100 C 
BRANCH  85  86
ATOM     86  C   UNL A   1      30.149  28.539  23.112  1.00  0.00     0.015 C 
BRANCH  86  87
ATOM     87  C   UNL A   1      30.580  29.596  24.130  1.00  0.00     0.047 C 
BRANCH  87  88
ATOM     88  C   UNL A   1      31.777  29.319  25.008  1.00  0.00     0.006 A 
ATOM     89  C   UNL A   1      32.844  28.490  24.691  1.00  0.00     0.016 A 
ATOM     90  S   UNL A   1      32.034  30.029  26.553  1.00  0.00    -0.133 S 
ATOM     91  C   UNL A   1      33.967  28.696  25.547  1.00  0.00     0.028 A 
ATOM     92  C   UNL A   1      33.674  29.614  26.523  1.00  0.00     0.070 A 
ATOM     93  Br  UNL A   1      34.942  30.328  27.698  1.00  0.00    -0.039 Br
ENDBRANCH  87  88
ENDBRANCH  86  87
ENDBRANCH  85  86
ENDBRANCH  83  85
ENDBRANCH  81  83
ENDBRANCH  75  77
ENDBRANCH  74  75
ENDBRANCH  73  74
ENDBRANCH   1  73
TORSDOF 22
ENDMDL
