MODEL 1
REMARK VINA RESULT:      -9.5      0.000      0.000
REMARK SMILES C[C@@H]1CCC[C@@]1(C[NH3+])C(=O)OCCOCCOC(=O)c1ccc(-c2c3nc(c(-c4cc(S(=O)(=O)[O-])ccc4F)c4ccc([nH]4)c(-c4cc(S(=O)(=O)[O-])ccc4F)c4nc(c(-c5cc(S(=O)(=O)[O-])ccc5F)c5ccc2[nH]5)C=C4)C=C3)cc1
REMARK SMILES IDX 15 1 14 2 13 3 12 4 11 5 9 6 10 7 6 8 1 9 2 10 3 11 4 12
REMARK SMILES IDX 5 13 7 14 8 15 16 19 17 20 18 21 19 22 20 23 21 24 82 25
REMARK SMILES IDX 22 26 81 27 23 28 24 29 25 30 75 31 26 32 80 33 74 34 76 35
REMARK SMILES IDX 27 36 79 37 73 38 72 39 28 41 60 42 40 43 59 44 41 45 44 46
REMARK SMILES IDX 58 47 77 48 42 49 43 50 57 52 78 53 45 54 29 55 30 56 38 57
REMARK SMILES IDX 31 58 37 59 39 60 36 61 32 62 33 63 34 64 35 65 61 66 62 67
REMARK SMILES IDX 70 68 63 69 69 70 71 71 68 72 64 73 65 74 66 75 67 76 46 77
REMARK SMILES IDX 47 78 55 79 48 80 54 81 56 82 53 83 49 84 50 85 51 86 52 87
REMARK H PARENT 8 16 8 17 8 18 76 40 44 51
REMARK Flexibility Score: inf
ROOT
ATOM      1  C   UNL A   1      33.304  34.596  28.440  1.00  0.00     0.202 C 
ENDROOT
BRANCH   1   2
ATOM      2  O   UNL A   1      32.728  34.773  29.733  1.00  0.00    -0.374 OA
BRANCH   2   3
ATOM      3  C   UNL A   1      33.033  35.991  30.413  1.00  0.00     0.202 C 
BRANCH   3   4
ATOM      4  C   UNL A   1      32.842  35.982  31.933  1.00  0.00     0.261 C 
BRANCH   4   5
ATOM      5  O   UNL A   1      34.030  35.540  32.620  1.00  0.00    -0.463 OA
BRANCH   5   6
ATOM      6  C   UNL A   1      34.137  34.198  32.810  1.00  0.00     0.318 C 
ATOM      7  O   UNL A   1      33.232  33.506  33.264  1.00  0.00    -0.251 OA
BRANCH   6   8
ATOM      8  C   UNL A   1      35.510  33.622  32.362  1.00  0.00     0.119 C 
ATOM      9  C   UNL A   1      37.911  34.585  31.883  1.00  0.00     0.009 C 
ATOM     10  C   UNL A   1      36.573  34.730  32.607  1.00  0.00     0.009 C 
ATOM     11  C   UNL A   1      36.811  34.681  34.125  1.00  0.00     0.005 C 
ATOM     12  C   UNL A   1      36.558  33.239  34.557  1.00  0.00     0.002 C 
ATOM     13  C   UNL A   1      35.907  32.523  33.373  1.00  0.00     0.025 C 
BRANCH   8  14
ATOM     14  C   UNL A   1      35.415  33.077  30.908  1.00  0.00     0.278 C 
BRANCH  14  15
ATOM     15  N   UNL A   1      34.450  32.004  30.646  1.00  0.00    -0.357 N 
ATOM     16  H   UNL A   1      34.252  31.506  31.514  1.00  0.00     0.344 HD
ATOM     17  H   UNL A   1      34.842  31.354  29.964  1.00  0.00     0.344 HD
ATOM     18  H   UNL A   1      33.587  32.404  30.279  1.00  0.00     0.344 HD
ENDBRANCH  14  15
ENDBRANCH   8  14
ENDBRANCH   6   8
ENDBRANCH   5   6
ENDBRANCH   4   5
ENDBRANCH   3   4
ENDBRANCH   2   3
ENDBRANCH   1   2
BRANCH   1  19
ATOM     19  C   UNL A   1      33.171  33.204  27.814  1.00  0.00     0.261 C 
BRANCH  19  20
ATOM     20  O   UNL A   1      34.453  32.667  27.446  1.00  0.00    -0.460 OA
BRANCH  20  21
ATOM     21  C   UNL A   1      34.502  31.315  27.397  1.00  0.00     0.338 C 
ATOM     22  O   UNL A   1      33.652  30.568  26.929  1.00  0.00    -0.246 OA
BRANCH  21  23
ATOM     23  C   UNL A   1      35.834  30.840  27.816  1.00  0.00     0.060 A 
ATOM     24  C   UNL A   1      35.967  29.473  28.084  1.00  0.00     0.016 A 
ATOM     25  C   UNL A   1      36.915  31.708  27.996  1.00  0.00     0.016 A 
ATOM     26  C   UNL A   1      37.160  28.974  28.599  1.00  0.00     0.010 A 
ATOM     27  C   UNL A   1      38.112  31.207  28.522  1.00  0.00     0.010 A 
ATOM     28  C   UNL A   1      38.223  29.846  28.865  1.00  0.00    -0.014 A 
BRANCH  28  29
ATOM     29  C   UNL A   1      39.369  29.359  29.672  1.00  0.00     0.031 A 
ATOM     30  C   UNL A   1      39.606  29.971  31.026  1.00  0.00     0.074 A 
ATOM     31  C   UNL A   1      40.142  28.347  29.237  1.00  0.00     0.049 A 
ATOM     32  N   UNL A   1      40.542  29.717  31.903  1.00  0.00    -0.248 NA
ATOM     33  C   UNL A   1      38.657  31.015  31.446  1.00  0.00     0.031 C 
ATOM     34  C   UNL A   1      39.969  27.638  27.969  1.00  0.00     0.029 A 
ATOM     35  N   UNL A   1      41.225  27.738  29.818  1.00  0.00    -0.354 N 
ATOM     36  C   UNL A   1      40.293  30.561  32.980  1.00  0.00     0.074 A 
ATOM     37  C   UNL A   1      39.144  31.367  32.625  1.00  0.00     0.031 C 
ATOM     38  C   UNL A   1      40.919  26.692  27.866  1.00  0.00     0.029 A 
ATOM     39  C   UNL A   1      41.787  26.753  29.040  1.00  0.00     0.049 A 
ATOM     40  H   UNL A   1      41.568  27.984  30.706  1.00  0.00     0.167 HD
ATOM     41  C   UNL A   1      40.954  30.649  34.160  1.00  0.00     0.034 A 
ATOM     42  C   UNL A   1      42.888  26.001  29.247  1.00  0.00     0.034 A 
ATOM     43  C   UNL A   1      42.107  29.850  34.493  1.00  0.00     0.049 A 
ATOM     44  C   UNL A   1      43.666  26.185  30.529  1.00  0.00     0.074 A 
ATOM     45  C   UNL A   1      42.861  29.862  35.654  1.00  0.00     0.029 A 
ATOM     46  N   UNL A   1      42.681  28.898  33.659  1.00  0.00    -0.354 N 
ATOM     47  N   UNL A   1      43.423  26.992  31.538  1.00  0.00    -0.248 NA
ATOM     48  C   UNL A   1      44.861  25.349  30.706  1.00  0.00     0.031 C 
ATOM     49  C   UNL A   1      43.925  28.968  35.496  1.00  0.00     0.029 A 
ATOM     50  C   UNL A   1      43.793  28.340  34.267  1.00  0.00     0.049 A 
ATOM     51  H   UNL A   1      42.346  28.656  32.765  1.00  0.00     0.167 HD
ATOM     52  C   UNL A   1      44.415  26.731  32.481  1.00  0.00     0.074 A 
ATOM     53  C   UNL A   1      45.249  25.685  31.927  1.00  0.00     0.031 C 
ATOM     54  C   UNL A   1      44.617  27.299  33.698  1.00  0.00     0.034 A 
BRANCH  41  55
ATOM     55  C   UNL A   1      40.471  31.683  35.148  1.00  0.00     0.023 A 
ATOM     56  C   UNL A   1      39.555  31.364  36.165  1.00  0.00     0.031 A 
ATOM     57  C   UNL A   1      40.916  33.014  35.055  1.00  0.00     0.131 A 
ATOM     58  C   UNL A   1      39.063  32.375  37.006  1.00  0.00     0.055 A 
ATOM     59  C   UNL A   1      40.480  33.999  35.943  1.00  0.00     0.041 A 
ATOM     60  F   UNL A   1      41.772  33.383  34.089  1.00  0.00    -0.206 F 
ATOM     61  C   UNL A   1      39.538  33.685  36.918  1.00  0.00     0.022 A 
BRANCH  58  62
ATOM     62  S   UNL A   1      37.698  31.979  38.133  1.00  0.00     0.124 S 
ATOM     63  O   UNL A   1      38.328  32.169  39.438  1.00  0.00    -0.237 OA
ATOM     64  O   UNL A   1      36.686  32.960  37.762  1.00  0.00    -0.237 OA
ATOM     65  O   UNL A   1      37.373  30.592  37.804  1.00  0.00    -0.744 OA
ENDBRANCH  58  62
ENDBRANCH  41  55
BRANCH  42  66
ATOM     66  C   UNL A   1      43.356  25.035  28.212  1.00  0.00     0.023 A 
ATOM     67  C   UNL A   1      44.457  25.323  27.390  1.00  0.00     0.031 A 
ATOM     68  C   UNL A   1      42.658  23.835  27.980  1.00  0.00     0.131 A 
ATOM     69  C   UNL A   1      44.794  24.453  26.341  1.00  0.00     0.055 A 
ATOM     70  C   UNL A   1      43.033  22.945  26.972  1.00  0.00     0.041 A 
ATOM     71  F   UNL A   1      41.596  23.510  28.734  1.00  0.00    -0.206 F 
ATOM     72  C   UNL A   1      44.098  23.261  26.133  1.00  0.00     0.022 A 
BRANCH  69  73
ATOM     73  S   UNL A   1      46.096  24.955  25.181  1.00  0.00     0.124 S 
ATOM     74  O   UNL A   1      45.954  23.959  24.125  1.00  0.00    -0.237 OA
ATOM     75  O   UNL A   1      45.688  26.315  24.841  1.00  0.00    -0.237 OA
ATOM     76  O   UNL A   1      47.318  24.853  25.975  1.00  0.00    -0.744 OA
ENDBRANCH  69  73
ENDBRANCH  42  66
BRANCH  54  77
ATOM     77  C   UNL A   1      45.754  26.756  34.529  1.00  0.00     0.023 A 
ATOM     78  C   UNL A   1      45.579  25.677  35.413  1.00  0.00     0.031 A 
ATOM     79  C   UNL A   1      47.030  27.342  34.444  1.00  0.00     0.131 A 
ATOM     80  C   UNL A   1      46.648  25.253  36.219  1.00  0.00     0.055 A 
ATOM     81  C   UNL A   1      48.105  26.878  35.205  1.00  0.00     0.041 A 
ATOM     82  F   UNL A   1      47.254  28.376  33.618  1.00  0.00    -0.206 F 
ATOM     83  C   UNL A   1      47.913  25.836  36.108  1.00  0.00     0.022 A 
BRANCH  80  84
ATOM     84  S   UNL A   1      46.338  23.991  37.484  1.00  0.00     0.124 S 
ATOM     85  O   UNL A   1      45.478  24.705  38.422  1.00  0.00    -0.237 OA
ATOM     86  O   UNL A   1      45.698  22.929  36.714  1.00  0.00    -0.237 OA
ATOM     87  O   UNL A   1      47.673  23.673  37.986  1.00  0.00    -0.744 OA
ENDBRANCH  80  84
ENDBRANCH  54  77
ENDBRANCH  28  29
ENDBRANCH  21  23
ENDBRANCH  20  21
ENDBRANCH  19  20
ENDBRANCH   1  19
TORSDOF 19
ENDMDL
MODEL 2
REMARK VINA RESULT:      -9.4      2.400      2.695
REMARK SMILES C[C@@H]1CCC[C@@]1(C[NH3+])C(=O)OCCOCCOC(=O)c1ccc(-c2c3nc(c(-c4cc(S(=O)(=O)[O-])ccc4F)c4ccc([nH]4)c(-c4cc(S(=O)(=O)[O-])ccc4F)c4nc(c(-c5cc(S(=O)(=O)[O-])ccc5F)c5ccc2[nH]5)C=C4)C=C3)cc1
REMARK SMILES IDX 15 1 14 2 13 3 12 4 11 5 9 6 10 7 6 8 1 9 2 10 3 11 4 12
REMARK SMILES IDX 5 13 7 14 8 15 16 19 17 20 18 21 19 22 20 23 21 24 82 25
REMARK SMILES IDX 22 26 81 27 23 28 24 29 25 30 75 31 26 32 80 33 74 34 76 35
REMARK SMILES IDX 27 36 79 37 73 38 72 39 28 41 60 42 40 43 59 44 41 45 44 46
REMARK SMILES IDX 58 47 77 48 42 49 43 50 57 52 78 53 45 54 29 55 30 56 38 57
REMARK SMILES IDX 31 58 37 59 39 60 36 61 32 62 33 63 34 64 35 65 61 66 62 67
REMARK SMILES IDX 70 68 63 69 69 70 71 71 68 72 64 73 65 74 66 75 67 76 46 77
REMARK SMILES IDX 47 78 55 79 48 80 54 81 56 82 53 83 49 84 50 85 51 86 52 87
REMARK H PARENT 8 16 8 17 8 18 76 40 44 51
REMARK Flexibility Score: inf
ROOT
ATOM      1  C   UNL A   1      33.221  35.034  28.822  1.00  0.00     0.202 C 
ENDROOT
BRANCH   1   2
ATOM      2  O   UNL A   1      32.696  35.080  30.148  1.00  0.00    -0.374 OA
BRANCH   2   3
ATOM      3  C   UNL A   1      33.092  36.186  30.961  1.00  0.00     0.202 C 
BRANCH   3   4
ATOM      4  C   UNL A   1      33.220  35.910  32.462  1.00  0.00     0.261 C 
BRANCH   4   5
ATOM      5  O   UNL A   1      34.539  35.443  32.811  1.00  0.00    -0.463 OA
BRANCH   5   6
ATOM      6  C   UNL A   1      34.672  34.097  32.946  1.00  0.00     0.318 C 
ATOM      7  O   UNL A   1      33.763  33.363  33.318  1.00  0.00    -0.251 OA
BRANCH   6   8
ATOM      8  C   UNL A   1      36.083  33.578  32.551  1.00  0.00     0.119 C 
ATOM      9  C   UNL A   1      38.536  34.530  32.573  1.00  0.00     0.009 C 
ATOM     10  C   UNL A   1      37.121  34.569  33.149  1.00  0.00     0.009 C 
ATOM     11  C   UNL A   1      37.170  34.193  34.640  1.00  0.00     0.005 C 
ATOM     12  C   UNL A   1      36.849  32.702  34.720  1.00  0.00     0.002 C 
ATOM     13  C   UNL A   1      36.340  32.276  33.343  1.00  0.00     0.025 C 
BRANCH   8  14
ATOM     14  C   UNL A   1      36.161  33.355  31.012  1.00  0.00     0.278 C 
BRANCH  14  15
ATOM     15  N   UNL A   1      35.955  34.520  30.145  1.00  0.00    -0.357 N 
ATOM     16  H   UNL A   1      34.988  34.833  30.222  1.00  0.00     0.344 HD
ATOM     17  H   UNL A   1      36.153  34.262  29.178  1.00  0.00     0.344 HD
ATOM     18  H   UNL A   1      36.581  35.272  30.432  1.00  0.00     0.344 HD
ENDBRANCH  14  15
ENDBRANCH   8  14
ENDBRANCH   6   8
ENDBRANCH   5   6
ENDBRANCH   4   5
ENDBRANCH   3   4
ENDBRANCH   2   3
ENDBRANCH   1   2
BRANCH   1  19
ATOM     19  C   UNL A   1      33.068  33.709  28.069  1.00  0.00     0.261 C 
BRANCH  19  20
ATOM     20  O   UNL A   1      34.333  33.047  27.903  1.00  0.00    -0.460 OA
BRANCH  20  21
ATOM     21  C   UNL A   1      34.251  31.701  27.791  1.00  0.00     0.338 C 
ATOM     22  O   UNL A   1      33.279  31.054  27.422  1.00  0.00    -0.246 OA
BRANCH  21  23
ATOM     23  C   UNL A   1      35.581  31.093  27.989  1.00  0.00     0.060 A 
ATOM     24  C   UNL A   1      35.622  29.714  28.225  1.00  0.00     0.016 A 
ATOM     25  C   UNL A   1      36.756  31.851  27.999  1.00  0.00     0.016 A 
ATOM     26  C   UNL A   1      36.828  29.095  28.540  1.00  0.00     0.010 A 
ATOM     27  C   UNL A   1      37.967  31.228  28.324  1.00  0.00     0.010 A 
ATOM     28  C   UNL A   1      37.999  29.857  28.638  1.00  0.00    -0.014 A 
BRANCH  28  29
ATOM     29  C   UNL A   1      39.205  29.246  29.249  1.00  0.00     0.031 A 
ATOM     30  C   UNL A   1      39.709  29.803  30.554  1.00  0.00     0.074 A 
ATOM     31  C   UNL A   1      39.801  28.178  28.688  1.00  0.00     0.049 A 
ATOM     32  N   UNL A   1      40.743  29.442  31.269  1.00  0.00    -0.248 NA
ATOM     33  C   UNL A   1      38.941  30.919  31.127  1.00  0.00     0.031 C 
ATOM     34  C   UNL A   1      39.364  27.518  27.458  1.00  0.00     0.029 A 
ATOM     35  N   UNL A   1      40.899  27.458  29.085  1.00  0.00    -0.354 N 
ATOM     36  C   UNL A   1      40.747  30.280  32.379  1.00  0.00     0.074 A 
ATOM     37  C   UNL A   1      39.639  31.197  32.217  1.00  0.00     0.031 C 
ATOM     38  C   UNL A   1      40.192  26.491  27.198  1.00  0.00     0.029 A 
ATOM     39  C   UNL A   1      41.236  26.443  28.220  1.00  0.00     0.049 A 
ATOM     40  H   UNL A   1      41.399  27.650  29.910  1.00  0.00     0.167 HD
ATOM     41  C   UNL A   1      41.591  30.279  33.440  1.00  0.00     0.034 A 
ATOM     42  C   UNL A   1      42.278  25.588  28.243  1.00  0.00     0.034 A 
ATOM     43  C   UNL A   1      42.701  29.369  33.579  1.00  0.00     0.049 A 
ATOM     44  C   UNL A   1      43.262  25.669  29.388  1.00  0.00     0.074 A 
ATOM     45  C   UNL A   1      43.625  29.284  34.606  1.00  0.00     0.029 A 
ATOM     46  N   UNL A   1      43.043  28.388  32.656  1.00  0.00    -0.354 N 
ATOM     47  N   UNL A   1      43.259  26.472  30.429  1.00  0.00    -0.248 NA
ATOM     48  C   UNL A   1      44.385  24.722  29.365  1.00  0.00     0.031 C 
ATOM     49  C   UNL A   1      44.561  28.300  34.274  1.00  0.00     0.029 A 
ATOM     50  C   UNL A   1      44.179  27.715  33.077  1.00  0.00     0.049 A 
ATOM     51  H   UNL A   1      42.551  28.199  31.825  1.00  0.00     0.167 HD
ATOM     52  C   UNL A   1      44.356  26.098  31.201  1.00  0.00     0.074 A 
ATOM     53  C   UNL A   1      44.990  24.992  30.512  1.00  0.00     0.031 C 
ATOM     54  C   UNL A   1      44.800  26.616  32.375  1.00  0.00     0.034 A 
BRANCH  41  55
ATOM     55  C   UNL A   1      41.370  31.330  34.500  1.00  0.00     0.023 A 
ATOM     56  C   UNL A   1      41.883  32.633  34.372  1.00  0.00     0.031 A 
ATOM     57  C   UNL A   1      40.655  31.017  35.670  1.00  0.00     0.131 A 
ATOM     58  C   UNL A   1      41.731  33.552  35.421  1.00  0.00     0.055 A 
ATOM     59  C   UNL A   1      40.442  31.959  36.677  1.00  0.00     0.041 A 
ATOM     60  F   UNL A   1      40.162  29.782  35.860  1.00  0.00    -0.206 F 
ATOM     61  C   UNL A   1      40.993  33.232  36.562  1.00  0.00     0.022 A 
BRANCH  58  62
ATOM     62  S   UNL A   1      42.621  35.130  35.329  1.00  0.00     0.124 S 
ATOM     63  O   UNL A   1      43.997  34.681  35.131  1.00  0.00    -0.237 OA
ATOM     64  O   UNL A   1      41.990  35.783  34.190  1.00  0.00    -0.237 OA
ATOM     65  O   UNL A   1      42.357  35.747  36.628  1.00  0.00    -0.744 OA
ENDBRANCH  58  62
ENDBRANCH  41  55
BRANCH  42  66
ATOM     66  C   UNL A   1      42.484  24.607  27.140  1.00  0.00     0.023 A 
ATOM     67  C   UNL A   1      41.963  23.305  27.215  1.00  0.00     0.031 A 
ATOM     68  C   UNL A   1      43.272  24.936  26.021  1.00  0.00     0.131 A 
ATOM     69  C   UNL A   1      42.281  22.365  26.222  1.00  0.00     0.055 A 
ATOM     70  C   UNL A   1      43.539  24.014  25.008  1.00  0.00     0.041 A 
ATOM     71  F   UNL A   1      43.798  26.165  25.899  1.00  0.00    -0.206 F 
ATOM     72  C   UNL A   1      43.055  22.713  25.113  1.00  0.00     0.022 A 
BRANCH  69  73
ATOM     73  S   UNL A   1      41.754  20.645  26.453  1.00  0.00     0.124 S 
ATOM     74  O   UNL A   1      42.448  19.971  25.361  1.00  0.00    -0.237 OA
ATOM     75  O   UNL A   1      42.242  20.359  27.799  1.00  0.00    -0.237 OA
ATOM     76  O   UNL A   1      40.300  20.713  26.322  1.00  0.00    -0.744 OA
ENDBRANCH  69  73
ENDBRANCH  42  66
BRANCH  54  77
ATOM     77  C   UNL A   1      45.997  25.951  33.011  1.00  0.00     0.023 A 
ATOM     78  C   UNL A   1      45.860  24.884  33.917  1.00  0.00     0.031 A 
ATOM     79  C   UNL A   1      47.295  26.405  32.715  1.00  0.00     0.131 A 
ATOM     80  C   UNL A   1      46.997  24.345  34.538  1.00  0.00     0.055 A 
ATOM     81  C   UNL A   1      48.426  25.825  33.291  1.00  0.00     0.041 A 
ATOM     82  F   UNL A   1      47.484  27.421  31.858  1.00  0.00    -0.206 F 
ATOM     83  C   UNL A   1      48.280  24.798  34.219  1.00  0.00     0.022 A 
BRANCH  80  84
ATOM     84  S   UNL A   1      46.772  23.106  35.844  1.00  0.00     0.124 S 
ATOM     85  O   UNL A   1      47.134  23.857  37.041  1.00  0.00    -0.237 OA
ATOM     86  O   UNL A   1      45.360  22.764  35.708  1.00  0.00    -0.237 OA
ATOM     87  O   UNL A   1      47.704  22.043  35.472  1.00  0.00    -0.744 OA
ENDBRANCH  80  84
ENDBRANCH  54  77
ENDBRANCH  28  29
ENDBRANCH  21  23
ENDBRANCH  20  21
ENDBRANCH  19  20
ENDBRANCH   1  19
TORSDOF 19
ENDMDL
MODEL 3
REMARK VINA RESULT:      -9.2      3.378      5.571
REMARK SMILES C[C@@H]1CCC[C@@]1(C[NH3+])C(=O)OCCOCCOC(=O)c1ccc(-c2c3nc(c(-c4cc(S(=O)(=O)[O-])ccc4F)c4ccc([nH]4)c(-c4cc(S(=O)(=O)[O-])ccc4F)c4nc(c(-c5cc(S(=O)(=O)[O-])ccc5F)c5ccc2[nH]5)C=C4)C=C3)cc1
REMARK SMILES IDX 15 1 14 2 13 3 12 4 11 5 9 6 10 7 6 8 1 9 2 10 3 11 4 12
REMARK SMILES IDX 5 13 7 14 8 15 16 19 17 20 18 21 19 22 20 23 21 24 82 25
REMARK SMILES IDX 22 26 81 27 23 28 24 29 25 30 75 31 26 32 80 33 74 34 76 35
REMARK SMILES IDX 27 36 79 37 73 38 72 39 28 41 60 42 40 43 59 44 41 45 44 46
REMARK SMILES IDX 58 47 77 48 42 49 43 50 57 52 78 53 45 54 29 55 30 56 38 57
REMARK SMILES IDX 31 58 37 59 39 60 36 61 32 62 33 63 34 64 35 65 61 66 62 67
REMARK SMILES IDX 70 68 63 69 69 70 71 71 68 72 64 73 65 74 66 75 67 76 46 77
REMARK SMILES IDX 47 78 55 79 48 80 54 81 56 82 53 83 49 84 50 85 51 86 52 87
REMARK H PARENT 8 16 8 17 8 18 76 40 44 51
REMARK Flexibility Score: inf
ROOT
ATOM      1  C   UNL A   1      31.524  31.273  26.424  1.00  0.00     0.202 C 
ENDROOT
BRANCH   1   2
ATOM      2  O   UNL A   1      32.366  30.301  27.042  1.00  0.00    -0.374 OA
BRANCH   2   3
ATOM      3  C   UNL A   1      31.794  29.016  27.291  1.00  0.00     0.202 C 
BRANCH   3   4
ATOM      4  C   UNL A   1      32.446  27.834  26.565  1.00  0.00     0.261 C 
BRANCH   4   5
ATOM      5  O   UNL A   1      32.530  28.058  25.144  1.00  0.00    -0.463 OA
BRANCH   5   6
ATOM      6  C   UNL A   1      33.061  27.041  24.416  1.00  0.00     0.318 C 
ATOM      7  O   UNL A   1      33.691  26.113  24.912  1.00  0.00    -0.251 OA
BRANCH   6   8
ATOM      8  C   UNL A   1      32.762  27.154  22.895  1.00  0.00     0.119 C 
ATOM      9  C   UNL A   1      32.706  25.511  20.841  1.00  0.00     0.009 C 
ATOM     10  C   UNL A   1      32.595  25.707  22.352  1.00  0.00     0.009 C 
ATOM     11  C   UNL A   1      31.184  25.303  22.813  1.00  0.00     0.005 C 
ATOM     12  C   UNL A   1      30.366  26.590  22.879  1.00  0.00     0.002 C 
ATOM     13  C   UNL A   1      31.347  27.755  22.740  1.00  0.00     0.025 C 
BRANCH   8  14
ATOM     14  C   UNL A   1      33.848  28.023  22.197  1.00  0.00     0.278 C 
BRANCH  14  15
ATOM     15  N   UNL A   1      34.388  29.165  22.943  1.00  0.00    -0.357 N 
ATOM     16  H   UNL A   1      35.319  29.389  22.595  1.00  0.00     0.344 HD
ATOM     17  H   UNL A   1      34.445  28.927  23.934  1.00  0.00     0.344 HD
ATOM     18  H   UNL A   1      33.775  29.971  22.821  1.00  0.00     0.344 HD
ENDBRANCH  14  15
ENDBRANCH   8  14
ENDBRANCH   6   8
ENDBRANCH   5   6
ENDBRANCH   4   5
ENDBRANCH   3   4
ENDBRANCH   2   3
ENDBRANCH   1   2
BRANCH   1  19
ATOM     19  C   UNL A   1      31.511  32.670  27.053  1.00  0.00     0.261 C 
BRANCH  19  20
ATOM     20  O   UNL A   1      32.775  33.335  26.885  1.00  0.00    -0.460 OA
BRANCH  20  21
ATOM     21  C   UNL A   1      33.323  33.793  28.034  1.00  0.00     0.338 C 
ATOM     22  O   UNL A   1      32.808  34.563  28.836  1.00  0.00    -0.246 OA
BRANCH  21  23
ATOM     23  C   UNL A   1      34.585  33.082  28.314  1.00  0.00     0.060 A 
ATOM     24  C   UNL A   1      34.487  31.740  28.700  1.00  0.00     0.016 A 
ATOM     25  C   UNL A   1      35.830  33.715  28.257  1.00  0.00     0.016 A 
ATOM     26  C   UNL A   1      35.624  31.041  29.095  1.00  0.00     0.010 A 
ATOM     27  C   UNL A   1      36.972  33.014  28.663  1.00  0.00     0.010 A 
ATOM     28  C   UNL A   1      36.866  31.689  29.124  1.00  0.00    -0.014 A 
BRANCH  28  29
ATOM     29  C   UNL A   1      38.004  31.032  29.813  1.00  0.00     0.031 A 
ATOM     30  C   UNL A   1      38.284  31.398  31.246  1.00  0.00     0.074 A 
ATOM     31  C   UNL A   1      38.731  30.082  29.198  1.00  0.00     0.049 A 
ATOM     32  N   UNL A   1      39.222  30.966  32.048  1.00  0.00    -0.248 NA
ATOM     33  C   UNL A   1      37.381  32.388  31.855  1.00  0.00     0.031 C 
ATOM     34  C   UNL A   1      38.512  29.604  27.833  1.00  0.00     0.029 A 
ATOM     35  N   UNL A   1      39.799  29.346  29.645  1.00  0.00    -0.354 N 
ATOM     36  C   UNL A   1      39.022  31.625  33.256  1.00  0.00     0.074 A 
ATOM     37  C   UNL A   1      37.899  32.519  33.066  1.00  0.00     0.031 C 
ATOM     38  C   UNL A   1      39.424  28.657  27.552  1.00  0.00     0.029 A 
ATOM     39  C   UNL A   1      40.311  28.487  28.701  1.00  0.00     0.049 A 
ATOM     40  H   UNL A   1      40.164  29.425  30.555  1.00  0.00     0.167 HD
ATOM     41  C   UNL A   1      39.704  31.489  34.420  1.00  0.00     0.034 A 
ATOM     42  C   UNL A   1      41.385  27.673  28.755  1.00  0.00     0.034 A 
ATOM     43  C   UNL A   1      40.830  30.605  34.589  1.00  0.00     0.049 A 
ATOM     44  C   UNL A   1      42.189  27.610  30.033  1.00  0.00     0.074 A 
ATOM     45  C   UNL A   1      41.601  30.394  35.719  1.00  0.00     0.029 A 
ATOM     46  N   UNL A   1      41.354  29.789  33.595  1.00  0.00    -0.354 N 
ATOM     47  N   UNL A   1      41.992  28.243  31.169  1.00  0.00    -0.248 NA
ATOM     48  C   UNL A   1      43.354  26.715  30.041  1.00  0.00     0.031 C 
ATOM     49  C   UNL A   1      42.628  29.503  35.391  1.00  0.00     0.029 A 
ATOM     50  C   UNL A   1      42.454  29.096  34.077  1.00  0.00     0.049 A 
ATOM     51  H   UNL A   1      40.997  29.713  32.681  1.00  0.00     0.167 HD
ATOM     52  C   UNL A   1      42.987  27.792  32.033  1.00  0.00     0.074 A 
ATOM     53  C   UNL A   1      43.772  26.826  31.293  1.00  0.00     0.031 C 
ATOM     54  C   UNL A   1      43.228  28.139  33.323  1.00  0.00     0.034 A 
BRANCH  41  55
ATOM     55  C   UNL A   1      39.275  32.357  35.578  1.00  0.00     0.023 A 
ATOM     56  C   UNL A   1      39.683  33.698  35.689  1.00  0.00     0.031 A 
ATOM     57  C   UNL A   1      38.466  31.828  36.599  1.00  0.00     0.131 A 
ATOM     58  C   UNL A   1      39.335  34.443  36.827  1.00  0.00     0.055 A 
ATOM     59  C   UNL A   1      38.061  32.598  37.691  1.00  0.00     0.041 A 
ATOM     60  F   UNL A   1      38.066  30.547  36.560  1.00  0.00    -0.206 F 
ATOM     61  C   UNL A   1      38.507  33.910  37.816  1.00  0.00     0.022 A 
BRANCH  58  62
ATOM     62  S   UNL A   1      40.087  36.078  37.057  1.00  0.00     0.124 S 
ATOM     63  O   UNL A   1      39.311  36.605  38.177  1.00  0.00    -0.237 OA
ATOM     64  O   UNL A   1      41.479  35.749  37.341  1.00  0.00    -0.237 OA
ATOM     65  O   UNL A   1      39.853  36.746  35.778  1.00  0.00    -0.744 OA
ENDBRANCH  58  62
ENDBRANCH  41  55
BRANCH  42  66
ATOM     66  C   UNL A   1      41.801  26.880  27.563  1.00  0.00     0.023 A 
ATOM     67  C   UNL A   1      41.519  25.507  27.466  1.00  0.00     0.031 A 
ATOM     68  C   UNL A   1      42.555  27.470  26.532  1.00  0.00     0.131 A 
ATOM     69  C   UNL A   1      42.034  24.761  26.394  1.00  0.00     0.055 A 
ATOM     70  C   UNL A   1      43.016  26.735  25.439  1.00  0.00     0.041 A 
ATOM     71  F   UNL A   1      42.855  28.778  26.574  1.00  0.00    -0.206 F 
ATOM     72  C   UNL A   1      42.770  25.367  25.374  1.00  0.00     0.022 A 
BRANCH  69  73
ATOM     73  S   UNL A   1      41.816  22.960  26.406  1.00  0.00     0.124 S 
ATOM     74  O   UNL A   1      42.457  22.573  25.154  1.00  0.00    -0.237 OA
ATOM     75  O   UNL A   1      42.515  22.580  27.630  1.00  0.00    -0.237 OA
ATOM     76  O   UNL A   1      40.365  22.793  26.442  1.00  0.00    -0.744 OA
ENDBRANCH  69  73
ENDBRANCH  42  66
BRANCH  54  77
ATOM     77  C   UNL A   1      44.356  27.423  34.027  1.00  0.00     0.023 A 
ATOM     78  C   UNL A   1      44.152  26.221  34.726  1.00  0.00     0.031 A 
ATOM     79  C   UNL A   1      45.654  27.967  34.009  1.00  0.00     0.131 A 
ATOM     80  C   UNL A   1      45.216  25.630  35.426  1.00  0.00     0.055 A 
ATOM     81  C   UNL A   1      46.721  27.343  34.657  1.00  0.00     0.041 A 
ATOM     82  F   UNL A   1      45.906  29.113  33.358  1.00  0.00    -0.206 F 
ATOM     83  C   UNL A   1      46.503  26.175  35.382  1.00  0.00     0.022 A 
BRANCH  80  84
ATOM     84  S   UNL A   1      44.876  24.190  36.475  1.00  0.00     0.124 S 
ATOM     85  O   UNL A   1      43.949  23.424  35.647  1.00  0.00    -0.237 OA
ATOM     86  O   UNL A   1      46.204  23.610  36.649  1.00  0.00    -0.237 OA
ATOM     87  O   UNL A   1      44.292  24.774  37.681  1.00  0.00    -0.744 OA
ENDBRANCH  80  84
ENDBRANCH  54  77
ENDBRANCH  28  29
ENDBRANCH  21  23
ENDBRANCH  20  21
ENDBRANCH  19  20
ENDBRANCH   1  19
TORSDOF 19
ENDMDL
