MODEL 1
REMARK VINA RESULT:     -12.2      0.000      0.000
REMARK SMILES CS(=O)(=O)c1ccc(/C=C(/C(=O)OCCOCCOC(=O)c2ccc(-c3c4nc(c(-c5cc(S(=O)(=O)[O-])ccc5F)c5ccc([nH]5)c(-c5cc(S(=O)(=O)[O-])ccc5F)c5nc(c(-c6cc(S(=O)(=O)[O-])ccc6F)c6ccc3[nH]6)C=C5)C=C4)cc2)c2ccc(-c3ccc(S(C)(=O)=O)cc3)cc2)cc1
REMARK SMILES IDX 16 1 15 2 14 3 13 4 11 5 12 6 10 7 9 8 8 9 5 10 6 11 102 12
REMARK SMILES IDX 7 13 101 14 2 15 1 16 3 17 4 18 85 19 86 20 100 21 87 22
REMARK SMILES IDX 99 23 88 24 89 25 90 26 98 27 91 28 97 29 92 30 93 31 94 32
REMARK SMILES IDX 95 33 96 34 17 35 18 36 19 37 20 38 21 39 22 40 23 41 84 42
REMARK SMILES IDX 24 43 83 44 25 45 26 46 27 47 77 48 28 49 82 50 76 51 78 52
REMARK SMILES IDX 29 53 81 54 75 55 74 56 30 58 62 59 42 60 61 61 43 62 46 63
REMARK SMILES IDX 60 64 79 65 44 66 45 67 59 69 80 70 47 71 31 72 32 73 40 74
REMARK SMILES IDX 33 75 39 76 41 77 38 78 34 79 35 80 36 81 37 82 63 83 64 84
REMARK SMILES IDX 72 85 65 86 71 87 73 88 70 89 66 90 67 91 68 92 69 93 48 94
REMARK SMILES IDX 49 95 57 96 50 97 56 98 58 99 55 100 51 101 52 102 53 103
REMARK SMILES IDX 54 104
REMARK H PARENT 78 57 46 68
REMARK Flexibility Score: inf
ROOT
ATOM      1  O   UNL A   1      35.061  21.582  25.796  1.00  0.00    -0.374 OA
ENDROOT
BRANCH   1   2
ATOM      2  C   UNL A   1      33.847  20.834  25.878  1.00  0.00     0.202 C 
BRANCH   2   3
ATOM      3  C   UNL A   1      32.546  21.562  25.528  1.00  0.00     0.261 C 
BRANCH   3   4
ATOM      4  O   UNL A   1      32.785  22.935  25.162  1.00  0.00    -0.460 OA
BRANCH   4   5
ATOM      5  C   UNL A   1      32.246  23.846  26.011  1.00  0.00     0.338 C 
ATOM      6  O   UNL A   1      32.179  23.735  27.227  1.00  0.00    -0.246 OA
BRANCH   5   7
ATOM      7  C   UNL A   1      31.843  25.105  25.306  1.00  0.00     0.067 C 
ATOM      8  C   UNL A   1      30.984  25.074  24.260  1.00  0.00     0.024 C 
BRANCH   8   9
ATOM      9  C   UNL A   1      30.269  26.218  23.633  1.00  0.00    -0.025 A 
ATOM     10  C   UNL A   1      28.915  28.594  22.955  1.00  0.00     0.067 A 
ATOM     11  C   UNL A   1      30.228  28.395  22.535  1.00  0.00     0.021 A 
ATOM     12  C   UNL A   1      28.230  27.572  23.608  1.00  0.00     0.021 A 
ATOM     13  C   UNL A   1      30.878  27.194  22.834  1.00  0.00     0.009 A 
ATOM     14  C   UNL A   1      28.910  26.392  23.946  1.00  0.00     0.009 A 
BRANCH  10  15
ATOM     15  S   UNL A   1      28.213  30.209  22.725  1.00  0.00     0.175 S 
ATOM     16  C   UNL A   1      27.989  30.428  20.982  1.00  0.00     0.163 C 
ATOM     17  O   UNL A   1      29.203  31.167  23.177  1.00  0.00    -0.224 OA
ATOM     18  O   UNL A   1      26.886  30.172  23.312  1.00  0.00    -0.224 OA
ENDBRANCH  10  15
ENDBRANCH   8   9
BRANCH   7  19
ATOM     19  C   UNL A   1      32.370  26.352  25.890  1.00  0.00    -0.011 A 
ATOM     20  C   UNL A   1      33.636  26.814  25.505  1.00  0.00     0.009 A 
ATOM     21  C   UNL A   1      31.609  27.109  26.780  1.00  0.00     0.009 A 
ATOM     22  C   UNL A   1      34.125  28.030  25.983  1.00  0.00     0.009 A 
ATOM     23  C   UNL A   1      32.094  28.336  27.239  1.00  0.00     0.009 A 
ATOM     24  C   UNL A   1      33.356  28.822  26.847  1.00  0.00    -0.018 A 
BRANCH  24  25
ATOM     25  C   UNL A   1      33.845  30.128  27.318  1.00  0.00    -0.018 A 
ATOM     26  C   UNL A   1      32.983  31.235  27.421  1.00  0.00     0.010 A 
ATOM     27  C   UNL A   1      35.187  30.295  27.698  1.00  0.00     0.010 A 
ATOM     28  C   UNL A   1      33.441  32.466  27.899  1.00  0.00     0.021 A 
ATOM     29  C   UNL A   1      35.656  31.519  28.178  1.00  0.00     0.021 A 
ATOM     30  C   UNL A   1      34.779  32.599  28.270  1.00  0.00     0.067 A 
BRANCH  30  31
ATOM     31  S   UNL A   1      35.354  34.154  28.899  1.00  0.00     0.175 S 
ATOM     32  C   UNL A   1      34.691  34.211  30.542  1.00  0.00     0.163 C 
ATOM     33  O   UNL A   1      36.799  34.073  28.992  1.00  0.00    -0.224 OA
ATOM     34  O   UNL A   1      34.715  35.210  28.134  1.00  0.00    -0.224 OA
ENDBRANCH  30  31
ENDBRANCH  24  25
ENDBRANCH   7  19
ENDBRANCH   5   7
ENDBRANCH   4   5
ENDBRANCH   3   4
ENDBRANCH   2   3
ENDBRANCH   1   2
BRANCH   1  35
ATOM     35  C   UNL A   1      35.966  21.255  24.747  1.00  0.00     0.202 C 
BRANCH  35  36
ATOM     36  C   UNL A   1      37.392  20.826  25.112  1.00  0.00     0.261 C 
BRANCH  36  37
ATOM     37  O   UNL A   1      38.264  21.931  25.378  1.00  0.00    -0.460 OA
BRANCH  37  38
ATOM     38  C   UNL A   1      39.295  21.631  26.204  1.00  0.00     0.338 C 
ATOM     39  O   UNL A   1      39.829  20.539  26.346  1.00  0.00    -0.246 OA
BRANCH  38  40
ATOM     40  C   UNL A   1      39.840  22.869  26.787  1.00  0.00     0.060 A 
ATOM     41  C   UNL A   1      39.306  24.083  26.339  1.00  0.00     0.016 A 
ATOM     42  C   UNL A   1      40.878  22.847  27.722  1.00  0.00     0.016 A 
ATOM     43  C   UNL A   1      39.839  25.287  26.788  1.00  0.00     0.010 A 
ATOM     44  C   UNL A   1      41.420  24.057  28.165  1.00  0.00     0.010 A 
ATOM     45  C   UNL A   1      40.924  25.280  27.673  1.00  0.00    -0.014 A 
BRANCH  45  46
ATOM     46  C   UNL A   1      41.640  26.546  27.955  1.00  0.00     0.031 A 
ATOM     47  C   UNL A   1      42.989  26.769  27.330  1.00  0.00     0.074 A 
ATOM     48  C   UNL A   1      41.081  27.497  28.724  1.00  0.00     0.049 A 
ATOM     49  N   UNL A   1      43.809  27.779  27.455  1.00  0.00    -0.248 NA
ATOM     50  C   UNL A   1      43.478  25.698  26.449  1.00  0.00     0.031 C 
ATOM     51  C   UNL A   1      39.757  27.411  29.339  1.00  0.00     0.029 A 
ATOM     52  N   UNL A   1      41.558  28.719  29.119  1.00  0.00    -0.354 N 
ATOM     53  C   UNL A   1      44.914  27.468  26.670  1.00  0.00     0.074 A 
ATOM     54  C   UNL A   1      44.677  26.151  26.117  1.00  0.00     0.031 C 
ATOM     55  C   UNL A   1      39.528  28.536  30.035  1.00  0.00     0.029 A 
ATOM     56  C   UNL A   1      40.703  29.402  29.950  1.00  0.00     0.049 A 
ATOM     57  H   UNL A   1      42.431  29.075  28.834  1.00  0.00     0.167 HD
ATOM     58  C   UNL A   1      46.019  28.217  26.423  1.00  0.00     0.034 A 
ATOM     59  C   UNL A   1      40.862  30.580  30.586  1.00  0.00     0.034 A 
ATOM     60  C   UNL A   1      46.243  29.519  27.003  1.00  0.00     0.049 A 
ATOM     61  C   UNL A   1      42.144  31.351  30.385  1.00  0.00     0.074 A 
ATOM     62  C   UNL A   1      47.318  30.372  26.821  1.00  0.00     0.029 A 
ATOM     63  N   UNL A   1      45.384  30.153  27.895  1.00  0.00    -0.354 N 
ATOM     64  N   UNL A   1      43.182  31.051  29.639  1.00  0.00    -0.248 NA
ATOM     65  C   UNL A   1      42.270  32.621  31.110  1.00  0.00     0.031 C 
ATOM     66  C   UNL A   1      47.148  31.478  27.661  1.00  0.00     0.029 A 
ATOM     67  C   UNL A   1      45.924  31.363  28.304  1.00  0.00     0.049 A 
ATOM     68  H   UNL A   1      44.518  29.793  28.194  1.00  0.00     0.167 HD
ATOM     69  C   UNL A   1      44.072  32.113  29.780  1.00  0.00     0.074 A 
ATOM     70  C   UNL A   1      43.442  33.063  30.674  1.00  0.00     0.031 C 
ATOM     71  C   UNL A   1      45.294  32.293  29.213  1.00  0.00     0.034 A 
BRANCH  58  72
ATOM     72  C   UNL A   1      47.081  27.606  25.539  1.00  0.00     0.023 A 
ATOM     73  C   UNL A   1      47.338  28.093  24.245  1.00  0.00     0.031 A 
ATOM     74  C   UNL A   1      47.803  26.478  25.970  1.00  0.00     0.131 A 
ATOM     75  C   UNL A   1      48.214  27.400  23.395  1.00  0.00     0.055 A 
ATOM     76  C   UNL A   1      48.745  25.849  25.153  1.00  0.00     0.041 A 
ATOM     77  F   UNL A   1      47.586  25.951  27.185  1.00  0.00    -0.206 F 
ATOM     78  C   UNL A   1      48.940  26.297  23.849  1.00  0.00     0.022 A 
BRANCH  75  79
ATOM     79  S   UNL A   1      48.251  27.848  21.638  1.00  0.00     0.124 S 
ATOM     80  O   UNL A   1      48.649  26.586  21.020  1.00  0.00    -0.237 OA
ATOM     81  O   UNL A   1      46.878  28.275  21.393  1.00  0.00    -0.237 OA
ATOM     82  O   UNL A   1      49.256  28.907  21.575  1.00  0.00    -0.744 OA
ENDBRANCH  75  79
ENDBRANCH  58  72
BRANCH  59  83
ATOM     83  C   UNL A   1      39.796  31.092  31.492  1.00  0.00     0.023 A 
ATOM     84  C   UNL A   1      39.943  31.039  32.887  1.00  0.00     0.031 A 
ATOM     85  C   UNL A   1      38.598  31.617  30.974  1.00  0.00     0.131 A 
ATOM     86  C   UNL A   1      38.895  31.471  33.716  1.00  0.00     0.055 A 
ATOM     87  C   UNL A   1      37.580  32.090  31.802  1.00  0.00     0.041 A 
ATOM     88  F   UNL A   1      38.408  31.691  29.647  1.00  0.00    -0.206 F 
ATOM     89  C   UNL A   1      37.722  32.010  33.183  1.00  0.00     0.022 A 
BRANCH  86  90
ATOM     90  S   UNL A   1      39.064  31.260  35.509  1.00  0.00     0.124 S 
ATOM     91  O   UNL A   1      38.323  32.411  36.014  1.00  0.00    -0.237 OA
ATOM     92  O   UNL A   1      38.447  29.955  35.721  1.00  0.00    -0.237 OA
ATOM     93  O   UNL A   1      40.510  31.304  35.722  1.00  0.00    -0.744 OA
ENDBRANCH  86  90
ENDBRANCH  59  83
BRANCH  71  94
ATOM     94  C   UNL A   1      46.008  33.590  29.515  1.00  0.00     0.023 A 
ATOM     95  C   UNL A   1      45.881  34.719  28.687  1.00  0.00     0.031 A 
ATOM     96  C   UNL A   1      46.836  33.693  30.648  1.00  0.00     0.131 A 
ATOM     97  C   UNL A   1      46.615  35.881  28.971  1.00  0.00     0.055 A 
ATOM     98  C   UNL A   1      47.512  34.872  30.961  1.00  0.00     0.041 A 
ATOM     99  F   UNL A   1      46.998  32.646  31.472  1.00  0.00    -0.206 F 
ATOM    100  C   UNL A   1      47.415  35.971  30.112  1.00  0.00     0.022 A 
BRANCH  97 101
ATOM    101  S   UNL A   1      46.590  37.244  27.773  1.00  0.00     0.124 S 
ATOM    102  O   UNL A   1      45.489  38.063  28.269  1.00  0.00    -0.237 OA
ATOM    103  O   UNL A   1      47.925  37.814  27.920  1.00  0.00    -0.237 OA
ATOM    104  O   UNL A   1      46.339  36.575  26.498  1.00  0.00    -0.744 OA
ENDBRANCH  97 101
ENDBRANCH  71  94
ENDBRANCH  45  46
ENDBRANCH  38  40
ENDBRANCH  37  38
ENDBRANCH  36  37
ENDBRANCH  35  36
ENDBRANCH   1  35
TORSDOF 22
ENDMDL
MODEL 2
REMARK VINA RESULT:     -12.1      4.271     10.869
REMARK SMILES CS(=O)(=O)c1ccc(/C=C(/C(=O)OCCOCCOC(=O)c2ccc(-c3c4nc(c(-c5cc(S(=O)(=O)[O-])ccc5F)c5ccc([nH]5)c(-c5cc(S(=O)(=O)[O-])ccc5F)c5nc(c(-c6cc(S(=O)(=O)[O-])ccc6F)c6ccc3[nH]6)C=C5)C=C4)cc2)c2ccc(-c3ccc(S(C)(=O)=O)cc3)cc2)cc1
REMARK SMILES IDX 16 1 15 2 14 3 13 4 11 5 12 6 10 7 9 8 8 9 5 10 6 11 102 12
REMARK SMILES IDX 7 13 101 14 2 15 1 16 3 17 4 18 85 19 86 20 100 21 87 22
REMARK SMILES IDX 99 23 88 24 89 25 90 26 98 27 91 28 97 29 92 30 93 31 94 32
REMARK SMILES IDX 95 33 96 34 17 35 18 36 19 37 20 38 21 39 22 40 23 41 84 42
REMARK SMILES IDX 24 43 83 44 25 45 26 46 27 47 77 48 28 49 82 50 76 51 78 52
REMARK SMILES IDX 29 53 81 54 75 55 74 56 30 58 62 59 42 60 61 61 43 62 46 63
REMARK SMILES IDX 60 64 79 65 44 66 45 67 59 69 80 70 47 71 31 72 32 73 40 74
REMARK SMILES IDX 33 75 39 76 41 77 38 78 34 79 35 80 36 81 37 82 63 83 64 84
REMARK SMILES IDX 72 85 65 86 71 87 73 88 70 89 66 90 67 91 68 92 69 93 48 94
REMARK SMILES IDX 49 95 57 96 50 97 56 98 58 99 55 100 51 101 52 102 53 103
REMARK SMILES IDX 54 104
REMARK H PARENT 78 57 46 68
REMARK Flexibility Score: inf
ROOT
ATOM      1  O   UNL A   1      32.447  28.919  25.212  1.00  0.00    -0.374 OA
ENDROOT
BRANCH   1   2
ATOM      2  C   UNL A   1      31.843  28.874  23.919  1.00  0.00     0.202 C 
BRANCH   2   3
ATOM      3  C   UNL A   1      31.789  27.515  23.213  1.00  0.00     0.261 C 
BRANCH   3   4
ATOM      4  O   UNL A   1      33.004  26.766  23.407  1.00  0.00    -0.460 OA
BRANCH   4   5
ATOM      5  C   UNL A   1      33.219  25.792  22.487  1.00  0.00     0.338 C 
ATOM      6  O   UNL A   1      33.483  25.971  21.307  1.00  0.00    -0.246 OA
BRANCH   5   7
ATOM      7  C   UNL A   1      33.230  24.426  23.104  1.00  0.00     0.067 C 
ATOM      8  C   UNL A   1      32.149  23.614  23.019  1.00  0.00     0.024 C 
BRANCH   8   9
ATOM      9  C   UNL A   1      32.077  22.158  23.316  1.00  0.00    -0.025 A 
ATOM     10  C   UNL A   1      32.455  19.390  23.684  1.00  0.00     0.067 A 
ATOM     11  C   UNL A   1      32.397  20.239  24.787  1.00  0.00     0.021 A 
ATOM     12  C   UNL A   1      32.208  19.890  22.407  1.00  0.00     0.021 A 
ATOM     13  C   UNL A   1      32.161  21.604  24.600  1.00  0.00     0.009 A 
ATOM     14  C   UNL A   1      32.024  21.269  22.229  1.00  0.00     0.009 A 
BRANCH  10  15
ATOM     15  S   UNL A   1      32.956  17.709  23.964  1.00  0.00     0.175 S 
ATOM     16  C   UNL A   1      34.626  17.761  24.547  1.00  0.00     0.163 C 
ATOM     17  O   UNL A   1      32.947  17.047  22.675  1.00  0.00    -0.224 OA
ATOM     18  O   UNL A   1      32.148  17.215  25.064  1.00  0.00    -0.224 OA
ENDBRANCH  10  15
ENDBRANCH   8   9
BRANCH   7  19
ATOM     19  C   UNL A   1      34.511  24.016  23.709  1.00  0.00    -0.011 A 
ATOM     20  C   UNL A   1      34.721  24.215  25.080  1.00  0.00     0.009 A 
ATOM     21  C   UNL A   1      35.497  23.386  22.951  1.00  0.00     0.009 A 
ATOM     22  C   UNL A   1      35.892  23.766  25.692  1.00  0.00     0.009 A 
ATOM     23  C   UNL A   1      36.658  22.920  23.571  1.00  0.00     0.009 A 
ATOM     24  C   UNL A   1      36.876  23.096  24.951  1.00  0.00    -0.018 A 
BRANCH  24  25
ATOM     25  C   UNL A   1      38.092  22.578  25.599  1.00  0.00    -0.018 A 
ATOM     26  C   UNL A   1      38.478  21.232  25.454  1.00  0.00     0.010 A 
ATOM     27  C   UNL A   1      38.912  23.424  26.363  1.00  0.00     0.010 A 
ATOM     28  C   UNL A   1      39.651  20.750  26.042  1.00  0.00     0.021 A 
ATOM     29  C   UNL A   1      40.086  22.954  26.955  1.00  0.00     0.021 A 
ATOM     30  C   UNL A   1      40.444  21.616  26.793  1.00  0.00     0.067 A 
BRANCH  30  31
ATOM     31  S   UNL A   1      41.944  21.008  27.519  1.00  0.00     0.175 S 
ATOM     32  C   UNL A   1      43.129  21.151  26.209  1.00  0.00     0.163 C 
ATOM     33  O   UNL A   1      42.316  21.932  28.574  1.00  0.00    -0.224 OA
ATOM     34  O   UNL A   1      41.766  19.594  27.796  1.00  0.00    -0.224 OA
ENDBRANCH  30  31
ENDBRANCH  24  25
ENDBRANCH   7  19
ENDBRANCH   5   7
ENDBRANCH   4   5
ENDBRANCH   3   4
ENDBRANCH   2   3
ENDBRANCH   1   2
BRANCH   1  35
ATOM     35  C   UNL A   1      31.706  29.527  26.264  1.00  0.00     0.202 C 
BRANCH  35  36
ATOM     36  C   UNL A   1      32.226  30.836  26.871  1.00  0.00     0.261 C 
BRANCH  36  37
ATOM     37  O   UNL A   1      33.654  30.943  26.844  1.00  0.00    -0.460 OA
BRANCH  37  38
ATOM     38  C   UNL A   1      34.147  31.922  27.640  1.00  0.00     0.338 C 
ATOM     39  O   UNL A   1      33.555  32.920  28.030  1.00  0.00    -0.246 OA
BRANCH  38  40
ATOM     40  C   UNL A   1      35.468  31.524  28.155  1.00  0.00     0.060 A 
ATOM     41  C   UNL A   1      35.645  30.180  28.507  1.00  0.00     0.016 A 
ATOM     42  C   UNL A   1      36.500  32.449  28.328  1.00  0.00     0.016 A 
ATOM     43  C   UNL A   1      36.842  29.762  29.080  1.00  0.00     0.010 A 
ATOM     44  C   UNL A   1      37.698  32.030  28.913  1.00  0.00     0.010 A 
ATOM     45  C   UNL A   1      37.860  30.693  29.322  1.00  0.00    -0.014 A 
BRANCH  45  46
ATOM     46  C   UNL A   1      39.026  30.297  30.147  1.00  0.00     0.031 A 
ATOM     47  C   UNL A   1      39.111  30.796  31.563  1.00  0.00     0.074 A 
ATOM     48  C   UNL A   1      39.970  29.477  29.655  1.00  0.00     0.049 A 
ATOM     49  N   UNL A   1      40.045  30.606  32.458  1.00  0.00    -0.248 NA
ATOM     50  C   UNL A   1      37.990  31.628  32.024  1.00  0.00     0.031 C 
ATOM     51  C   UNL A   1      39.962  28.891  28.315  1.00  0.00     0.029 A 
ATOM     52  N   UNL A   1      41.120  28.997  30.227  1.00  0.00    -0.354 N 
ATOM     53  C   UNL A   1      39.627  31.296  33.591  1.00  0.00     0.074 A 
ATOM     54  C   UNL A   1      38.382  31.949  33.247  1.00  0.00     0.031 C 
ATOM     55  C   UNL A   1      41.058  28.128  28.169  1.00  0.00     0.029 A 
ATOM     56  C   UNL A   1      41.864  28.205  29.386  1.00  0.00     0.049 A 
ATOM     57  H   UNL A   1      41.386  29.200  31.153  1.00  0.00     0.167 HD
ATOM     58  C   UNL A   1      40.223  31.368  34.808  1.00  0.00     0.034 A 
ATOM     59  C   UNL A   1      43.068  27.629  29.572  1.00  0.00     0.034 A 
ATOM     60  C   UNL A   1      41.476  30.725  35.121  1.00  0.00     0.049 A 
ATOM     61  C   UNL A   1      43.767  27.807  30.898  1.00  0.00     0.074 A 
ATOM     62  C   UNL A   1      42.170  30.722  36.319  1.00  0.00     0.029 A 
ATOM     63  N   UNL A   1      42.237  29.985  34.223  1.00  0.00    -0.354 N 
ATOM     64  N   UNL A   1      43.364  28.459  31.965  1.00  0.00    -0.248 NA
ATOM     65  C   UNL A   1      45.081  27.169  31.043  1.00  0.00     0.031 C 
ATOM     66  C   UNL A   1      43.381  30.051  36.122  1.00  0.00     0.029 A 
ATOM     67  C   UNL A   1      43.410  29.556  34.827  1.00  0.00     0.049 A 
ATOM     68  H   UNL A   1      41.980  29.793  33.292  1.00  0.00     0.167 HD
ATOM     69  C   UNL A   1      44.361  28.280  32.919  1.00  0.00     0.074 A 
ATOM     70  C   UNL A   1      45.378  27.452  32.303  1.00  0.00     0.031 C 
ATOM     71  C   UNL A   1      44.427  28.747  34.194  1.00  0.00     0.034 A 
BRANCH  58  72
ATOM     72  C   UNL A   1      39.545  32.221  35.855  1.00  0.00     0.023 A 
ATOM     73  C   UNL A   1      38.887  31.653  36.962  1.00  0.00     0.031 A 
ATOM     74  C   UNL A   1      39.499  33.620  35.713  1.00  0.00     0.131 A 
ATOM     75  C   UNL A   1      38.133  32.465  37.822  1.00  0.00     0.055 A 
ATOM     76  C   UNL A   1      38.825  34.432  36.627  1.00  0.00     0.041 A 
ATOM     77  F   UNL A   1      40.085  34.220  34.666  1.00  0.00    -0.206 F 
ATOM     78  C   UNL A   1      38.119  33.854  37.678  1.00  0.00     0.022 A 
BRANCH  75  79
ATOM     79  S   UNL A   1      37.024  31.667  39.016  1.00  0.00     0.124 S 
ATOM     80  O   UNL A   1      37.848  31.657  40.222  1.00  0.00    -0.237 OA
ATOM     81  O   UNL A   1      35.878  32.567  39.031  1.00  0.00    -0.237 OA
ATOM     82  O   UNL A   1      36.779  30.351  38.428  1.00  0.00    -0.744 OA
ENDBRANCH  75  79
ENDBRANCH  58  72
BRANCH  59  83
ATOM     83  C   UNL A   1      43.705  26.852  28.471  1.00  0.00     0.023 A 
ATOM     84  C   UNL A   1      44.693  27.424  27.657  1.00  0.00     0.031 A 
ATOM     85  C   UNL A   1      43.310  25.529  28.200  1.00  0.00     0.131 A 
ATOM     86  C   UNL A   1      45.230  26.689  26.587  1.00  0.00     0.055 A 
ATOM     87  C   UNL A   1      43.882  24.785  27.167  1.00  0.00     0.041 A 
ATOM     88  F   UNL A   1      42.369  24.933  28.950  1.00  0.00    -0.206 F 
ATOM     89  C   UNL A   1      44.842  25.369  26.347  1.00  0.00     0.022 A 
BRANCH  86  90
ATOM     90  S   UNL A   1      46.403  27.508  25.473  1.00  0.00     0.124 S 
ATOM     91  O   UNL A   1      47.309  26.414  25.142  1.00  0.00    -0.237 OA
ATOM     92  O   UNL A   1      45.530  27.967  24.397  1.00  0.00    -0.237 OA
ATOM     93  O   UNL A   1      46.976  28.566  26.302  1.00  0.00    -0.744 OA
ENDBRANCH  86  90
ENDBRANCH  59  83
BRANCH  71  94
ATOM     94  C   UNL A   1      45.624  28.333  35.018  1.00  0.00     0.023 A 
ATOM     95  C   UNL A   1      45.635  27.146  35.770  1.00  0.00     0.031 A 
ATOM     96  C   UNL A   1      46.771  29.149  35.056  1.00  0.00     0.131 A 
ATOM     97  C   UNL A   1      46.744  26.836  36.572  1.00  0.00     0.055 A 
ATOM     98  C   UNL A   1      47.895  28.802  35.804  1.00  0.00     0.041 A 
ATOM     99  F   UNL A   1      46.815  30.296  34.361  1.00  0.00    -0.206 F 
ATOM    100  C   UNL A   1      47.882  27.647  36.579  1.00  0.00     0.022 A 
BRANCH  97 101
ATOM    101  S   UNL A   1      46.643  25.407  37.686  1.00  0.00     0.124 S 
ATOM    102  O   UNL A   1      46.258  26.033  38.947  1.00  0.00    -0.237 OA
ATOM    103  O   UNL A   1      45.623  24.584  37.047  1.00  0.00    -0.237 OA
ATOM    104  O   UNL A   1      47.995  24.853  37.657  1.00  0.00    -0.744 OA
ENDBRANCH  97 101
ENDBRANCH  71  94
ENDBRANCH  45  46
ENDBRANCH  38  40
ENDBRANCH  37  38
ENDBRANCH  36  37
ENDBRANCH  35  36
ENDBRANCH   1  35
TORSDOF 22
ENDMDL
MODEL 3
REMARK VINA RESULT:     -12.0      1.231      7.375
REMARK SMILES CS(=O)(=O)c1ccc(/C=C(/C(=O)OCCOCCOC(=O)c2ccc(-c3c4nc(c(-c5cc(S(=O)(=O)[O-])ccc5F)c5ccc([nH]5)c(-c5cc(S(=O)(=O)[O-])ccc5F)c5nc(c(-c6cc(S(=O)(=O)[O-])ccc6F)c6ccc3[nH]6)C=C5)C=C4)cc2)c2ccc(-c3ccc(S(C)(=O)=O)cc3)cc2)cc1
REMARK SMILES IDX 16 1 15 2 14 3 13 4 11 5 12 6 10 7 9 8 8 9 5 10 6 11 102 12
REMARK SMILES IDX 7 13 101 14 2 15 1 16 3 17 4 18 85 19 86 20 100 21 87 22
REMARK SMILES IDX 99 23 88 24 89 25 90 26 98 27 91 28 97 29 92 30 93 31 94 32
REMARK SMILES IDX 95 33 96 34 17 35 18 36 19 37 20 38 21 39 22 40 23 41 84 42
REMARK SMILES IDX 24 43 83 44 25 45 26 46 27 47 77 48 28 49 82 50 76 51 78 52
REMARK SMILES IDX 29 53 81 54 75 55 74 56 30 58 62 59 42 60 61 61 43 62 46 63
REMARK SMILES IDX 60 64 79 65 44 66 45 67 59 69 80 70 47 71 31 72 32 73 40 74
REMARK SMILES IDX 33 75 39 76 41 77 38 78 34 79 35 80 36 81 37 82 63 83 64 84
REMARK SMILES IDX 72 85 65 86 71 87 73 88 70 89 66 90 67 91 68 92 69 93 48 94
REMARK SMILES IDX 49 95 57 96 50 97 56 98 58 99 55 100 51 101 52 102 53 103
REMARK SMILES IDX 54 104
REMARK H PARENT 78 57 46 68
REMARK Flexibility Score: inf
ROOT
ATOM      1  O   UNL A   1      35.851  21.986  25.712  1.00  0.00    -0.374 OA
ENDROOT
BRANCH   1   2
ATOM      2  C   UNL A   1      34.673  22.577  25.162  1.00  0.00     0.202 C 
BRANCH   2   3
ATOM      3  C   UNL A   1      33.353  22.339  25.902  1.00  0.00     0.261 C 
BRANCH   3   4
ATOM      4  O   UNL A   1      32.257  23.030  25.272  1.00  0.00    -0.460 OA
BRANCH   4   5
ATOM      5  C   UNL A   1      31.642  23.948  26.060  1.00  0.00     0.338 C 
ATOM      6  O   UNL A   1      31.421  23.827  27.256  1.00  0.00    -0.246 OA
BRANCH   5   7
ATOM      7  C   UNL A   1      31.366  25.225  25.327  1.00  0.00     0.067 C 
ATOM      8  C   UNL A   1      30.546  25.247  24.250  1.00  0.00     0.024 C 
BRANCH   8   9
ATOM      9  C   UNL A   1      29.947  26.436  23.585  1.00  0.00    -0.025 A 
ATOM     10  C   UNL A   1      28.825  28.908  22.829  1.00  0.00     0.067 A 
ATOM     11  C   UNL A   1      30.120  28.579  22.433  1.00  0.00     0.021 A 
ATOM     12  C   UNL A   1      28.041  27.968  23.495  1.00  0.00     0.021 A 
ATOM     13  C   UNL A   1      30.653  27.332  22.771  1.00  0.00     0.009 A 
ATOM     14  C   UNL A   1      28.606  26.741  23.871  1.00  0.00     0.009 A 
BRANCH  10  15
ATOM     15  S   UNL A   1      28.277  30.573  22.548  1.00  0.00     0.175 S 
ATOM     16  C   UNL A   1      27.895  30.705  20.824  1.00  0.00     0.163 C 
ATOM     17  O   UNL A   1      29.404  31.441  22.830  1.00  0.00    -0.224 OA
ATOM     18  O   UNL A   1      27.022  30.722  23.262  1.00  0.00    -0.224 OA
ENDBRANCH  10  15
ENDBRANCH   8   9
BRANCH   7  19
ATOM     19  C   UNL A   1      31.967  26.435  25.918  1.00  0.00    -0.011 A 
ATOM     20  C   UNL A   1      33.223  26.869  25.474  1.00  0.00     0.009 A 
ATOM     21  C   UNL A   1      31.285  27.186  26.874  1.00  0.00     0.009 A 
ATOM     22  C   UNL A   1      33.780  28.053  25.959  1.00  0.00     0.009 A 
ATOM     23  C   UNL A   1      31.836  28.380  27.343  1.00  0.00     0.009 A 
ATOM     24  C   UNL A   1      33.089  28.839  26.892  1.00  0.00    -0.018 A 
BRANCH  24  25
ATOM     25  C   UNL A   1      33.648  30.113  27.374  1.00  0.00    -0.018 A 
ATOM     26  C   UNL A   1      35.007  30.227  27.723  1.00  0.00     0.010 A 
ATOM     27  C   UNL A   1      32.839  31.257  27.476  1.00  0.00     0.010 A 
ATOM     28  C   UNL A   1      35.544  31.444  28.149  1.00  0.00     0.021 A 
ATOM     29  C   UNL A   1      33.365  32.479  27.899  1.00  0.00     0.021 A 
ATOM     30  C   UNL A   1      34.715  32.563  28.238  1.00  0.00     0.067 A 
BRANCH  30  31
ATOM     31  S   UNL A   1      35.402  34.113  28.755  1.00  0.00     0.175 S 
ATOM     32  C   UNL A   1      34.887  34.254  30.445  1.00  0.00     0.163 C 
ATOM     33  O   UNL A   1      36.846  33.974  28.728  1.00  0.00    -0.224 OA
ATOM     34  O   UNL A   1      34.742  35.167  28.007  1.00  0.00    -0.224 OA
ENDBRANCH  30  31
ENDBRANCH  24  25
ENDBRANCH   7  19
ENDBRANCH   5   7
ENDBRANCH   4   5
ENDBRANCH   3   4
ENDBRANCH   2   3
ENDBRANCH   1   2
BRANCH   1  35
ATOM     35  C   UNL A   1      36.405  20.866  25.031  1.00  0.00     0.202 C 
BRANCH  35  36
ATOM     36  C   UNL A   1      37.906  20.587  25.171  1.00  0.00     0.261 C 
BRANCH  36  37
ATOM     37  O   UNL A   1      38.662  21.742  25.553  1.00  0.00    -0.460 OA
BRANCH  37  38
ATOM     38  C   UNL A   1      39.593  21.499  26.508  1.00  0.00     0.338 C 
ATOM     39  O   UNL A   1      40.028  20.406  26.848  1.00  0.00    -0.246 OA
BRANCH  38  40
ATOM     40  C   UNL A   1      40.178  22.770  26.966  1.00  0.00     0.060 A 
ATOM     41  C   UNL A   1      39.692  23.949  26.387  1.00  0.00     0.016 A 
ATOM     42  C   UNL A   1      41.206  22.809  27.911  1.00  0.00     0.016 A 
ATOM     43  C   UNL A   1      40.265  25.173  26.716  1.00  0.00     0.010 A 
ATOM     44  C   UNL A   1      41.788  24.039  28.232  1.00  0.00     0.010 A 
ATOM     45  C   UNL A   1      41.342  25.220  27.610  1.00  0.00    -0.014 A 
BRANCH  45  46
ATOM     46  C   UNL A   1      42.101  26.483  27.768  1.00  0.00     0.031 A 
ATOM     47  C   UNL A   1      41.492  27.597  28.573  1.00  0.00     0.074 A 
ATOM     48  C   UNL A   1      43.328  26.619  27.236  1.00  0.00     0.049 A 
ATOM     49  N   UNL A   1      41.954  28.794  28.821  1.00  0.00    -0.248 NA
ATOM     50  C   UNL A   1      40.178  27.319  29.172  1.00  0.00     0.031 C 
ATOM     51  C   UNL A   1      44.038  25.586  26.482  1.00  0.00     0.029 A 
ATOM     52  N   UNL A   1      44.192  27.683  27.248  1.00  0.00    -0.354 N 
ATOM     53  C   UNL A   1      40.988  29.417  29.605  1.00  0.00     0.074 A 
ATOM     54  C   UNL A   1      39.894  28.478  29.743  1.00  0.00     0.031 C 
ATOM     55  C   UNL A   1      45.233  26.070  26.103  1.00  0.00     0.029 A 
ATOM     56  C   UNL A   1      45.354  27.456  26.551  1.00  0.00     0.049 A 
ATOM     57  H   UNL A   1      43.999  28.529  27.713  1.00  0.00     0.167 HD
ATOM     58  C   UNL A   1      41.017  30.652  30.166  1.00  0.00     0.034 A 
ATOM     59  C   UNL A   1      46.386  28.282  26.286  1.00  0.00     0.034 A 
ATOM     60  C   UNL A   1      42.110  31.579  29.997  1.00  0.00     0.049 A 
ATOM     61  C   UNL A   1      46.353  29.690  26.829  1.00  0.00     0.074 A 
ATOM     62  C   UNL A   1      42.253  32.851  30.522  1.00  0.00     0.029 A 
ATOM     63  N   UNL A   1      43.244  31.340  29.226  1.00  0.00    -0.354 N 
ATOM     64  N   UNL A   1      45.437  30.269  27.571  1.00  0.00    -0.248 NA
ATOM     65  C   UNL A   1      47.495  30.551  26.501  1.00  0.00     0.031 C 
ATOM     66  C   UNL A   1      43.428  33.409  30.007  1.00  0.00     0.029 A 
ATOM     67  C   UNL A   1      44.068  32.455  29.229  1.00  0.00     0.049 A 
ATOM     68  H   UNL A   1      43.432  30.501  28.748  1.00  0.00     0.167 HD
ATOM     69  C   UNL A   1      45.910  31.554  27.826  1.00  0.00     0.074 A 
ATOM     70  C   UNL A   1      47.196  31.658  27.166  1.00  0.00     0.031 C 
ATOM     71  C   UNL A   1      45.341  32.554  28.549  1.00  0.00     0.034 A 
BRANCH  58  72
ATOM     72  C   UNL A   1      39.801  31.076  30.957  1.00  0.00     0.023 A 
ATOM     73  C   UNL A   1      39.823  31.164  32.360  1.00  0.00     0.031 A 
ATOM     74  C   UNL A   1      38.582  31.334  30.304  1.00  0.00     0.131 A 
ATOM     75  C   UNL A   1      38.635  31.402  33.068  1.00  0.00     0.055 A 
ATOM     76  C   UNL A   1      37.423  31.665  31.009  1.00  0.00     0.041 A 
ATOM     77  F   UNL A   1      38.489  31.243  28.968  1.00  0.00    -0.206 F 
ATOM     78  C   UNL A   1      37.440  31.679  32.401  1.00  0.00     0.022 A 
BRANCH  75  79
ATOM     79  S   UNL A   1      38.635  31.161  34.866  1.00  0.00     0.124 S 
ATOM     80  O   UNL A   1      39.882  31.818  35.251  1.00  0.00    -0.237 OA
ATOM     81  O   UNL A   1      37.405  31.832  35.273  1.00  0.00    -0.237 OA
ATOM     82  O   UNL A   1      38.634  29.707  35.017  1.00  0.00    -0.744 OA
ENDBRANCH  75  79
ENDBRANCH  58  72
BRANCH  59  83
ATOM     83  C   UNL A   1      47.524  27.814  25.446  1.00  0.00     0.023 A 
ATOM     84  C   UNL A   1      47.513  27.977  24.052  1.00  0.00     0.031 A 
ATOM     85  C   UNL A   1      48.631  27.168  26.026  1.00  0.00     0.131 A 
ATOM     86  C   UNL A   1      48.570  27.469  23.281  1.00  0.00     0.055 A 
ATOM     87  C   UNL A   1      49.703  26.708  25.260  1.00  0.00     0.041 A 
ATOM     88  F   UNL A   1      48.692  26.987  27.356  1.00  0.00    -0.206 F 
ATOM     89  C   UNL A   1      49.672  26.850  23.877  1.00  0.00     0.022 A 
BRANCH  86  90
ATOM     90  S   UNL A   1      48.457  27.576  21.475  1.00  0.00     0.124 S 
ATOM     91  O   UNL A   1      49.612  28.406  21.154  1.00  0.00    -0.237 OA
ATOM     92  O   UNL A   1      48.544  26.173  21.082  1.00  0.00    -0.237 OA
ATOM     93  O   UNL A   1      47.155  28.202  21.253  1.00  0.00    -0.744 OA
ENDBRANCH  86  90
ENDBRANCH  59  83
BRANCH  71  94
ATOM     94  C   UNL A   1      46.131  33.833  28.696  1.00  0.00     0.023 A 
ATOM     95  C   UNL A   1      47.040  34.029  29.751  1.00  0.00     0.031 A 
ATOM     96  C   UNL A   1      45.963  34.877  27.768  1.00  0.00     0.131 A 
ATOM     97  C   UNL A   1      47.702  35.259  29.884  1.00  0.00     0.055 A 
ATOM     98  C   UNL A   1      46.673  36.073  27.869  1.00  0.00     0.041 A 
ATOM     99  F   UNL A   1      45.105  34.748  26.743  1.00  0.00    -0.206 F 
ATOM    100  C   UNL A   1      47.538  36.276  28.940  1.00  0.00     0.022 A 
BRANCH  97 101
ATOM    101  S   UNL A   1      48.707  35.553  31.366  1.00  0.00     0.124 S 
ATOM    102  O   UNL A   1      49.773  34.569  31.209  1.00  0.00    -0.237 OA
ATOM    103  O   UNL A   1      49.099  36.949  31.206  1.00  0.00    -0.237 OA
ATOM    104  O   UNL A   1      47.780  35.292  32.466  1.00  0.00    -0.744 OA
ENDBRANCH  97 101
ENDBRANCH  71  94
ENDBRANCH  45  46
ENDBRANCH  38  40
ENDBRANCH  37  38
ENDBRANCH  36  37
ENDBRANCH  35  36
ENDBRANCH   1  35
TORSDOF 22
ENDMDL
