MODEL 1
REMARK VINA RESULT:     -11.2      0.000      0.000
REMARK SMILES C[C@@H](C(=O)OCCOCCOC(=O)c1ccc(-c2c3nc(c(-c4cc(S(=O)(=O)[O-])ccc4F)c4ccc([nH]4)c(-c4cc(S(=O)(=O)[O-])ccc4F)c4nc(c(-c5cc(S(=O)(=O)[O-])ccc5F)c5ccc2[nH]5)C=C4)C=C3)cc1)c1ccc(C[C@H]2CCCC2=O)cc1Cl
REMARK SMILES IDX 8 1 7 2 6 3 5 4 3 5 4 6 2 7 1 8 77 9 78 10 89 11 79 12 88 13
REMARK SMILES IDX 90 14 80 15 81 16 82 17 83 18 86 19 84 20 85 21 87 22 9 23
REMARK SMILES IDX 10 24 11 25 12 26 13 27 14 28 15 29 76 30 16 31 75 32 17 33
REMARK SMILES IDX 18 34 19 35 69 36 20 37 74 38 68 39 70 40 21 41 73 42 67 43
REMARK SMILES IDX 66 44 22 46 54 47 34 48 53 49 35 50 38 51 52 52 71 53 36 54
REMARK SMILES IDX 37 55 51 57 72 58 39 59 23 60 24 61 32 62 25 63 31 64 33 65
REMARK SMILES IDX 30 66 26 67 27 68 28 69 29 70 55 71 56 72 64 73 57 74 63 75
REMARK SMILES IDX 65 76 62 77 58 78 59 79 60 80 61 81 40 82 41 83 49 84 42 85
REMARK SMILES IDX 48 86 50 87 47 88 43 89 44 90 45 91 46 92
REMARK H PARENT 70 45 38 56
REMARK Flexibility Score: inf
ROOT
ATOM      1  O   UNL A   1      34.272  21.809  24.651  1.00  0.00    -0.374 OA
ENDROOT
BRANCH   1   2
ATOM      2  C   UNL A   1      34.314  22.961  25.491  1.00  0.00     0.202 C 
BRANCH   2   3
ATOM      3  C   UNL A   1      33.904  24.312  24.891  1.00  0.00     0.261 C 
BRANCH   3   4
ATOM      4  O   UNL A   1      32.781  24.240  23.999  1.00  0.00    -0.463 OA
BRANCH   4   5
ATOM      5  C   UNL A   1      33.096  24.480  22.694  1.00  0.00     0.313 C 
ATOM      6  O   UNL A   1      34.046  23.946  22.132  1.00  0.00    -0.252 OA
BRANCH   5   7
ATOM      7  C   UNL A   1      32.132  25.483  22.019  1.00  0.00     0.127 C 
ATOM      8  C   UNL A   1      32.491  25.721  20.539  1.00  0.00     0.025 C 
BRANCH   7   9
ATOM      9  C   UNL A   1      32.046  26.772  22.855  1.00  0.00    -0.015 A 
ATOM     10  C   UNL A   1      33.049  27.755  22.809  1.00  0.00     0.006 A 
ATOM     11  C   UNL A   1      30.987  26.989  23.758  1.00  0.00     0.045 A 
ATOM     12  C   UNL A   1      33.045  28.846  23.687  1.00  0.00     0.004 A 
ATOM     13  C   UNL A   1      31.041  28.027  24.699  1.00  0.00     0.024 A 
ATOM     14  Cl  UNL A   1      29.533  26.046  23.731  1.00  0.00    -0.084 Cl
ATOM     15  C   UNL A   1      32.093  28.950  24.702  1.00  0.00    -0.046 A 
BRANCH  15  16
ATOM     16  C   UNL A   1      32.100  30.074  25.713  1.00  0.00     0.047 C 
BRANCH  16  17
ATOM     17  C   UNL A   1      32.743  29.846  27.089  1.00  0.00     0.060 C 
ATOM     18  C   UNL A   1      33.561  28.565  27.273  1.00  0.00     0.012 C 
ATOM     19  C   UNL A   1      33.728  30.919  27.481  1.00  0.00     0.136 C 
ATOM     20  C   UNL A   1      35.025  28.969  27.153  1.00  0.00     0.009 C 
ATOM     21  C   UNL A   1      35.111  30.376  27.728  1.00  0.00     0.076 C 
ATOM     22  O   UNL A   1      33.433  32.102  27.605  1.00  0.00    -0.299 OA
ENDBRANCH  16  17
ENDBRANCH  15  16
ENDBRANCH   7   9
ENDBRANCH   5   7
ENDBRANCH   4   5
ENDBRANCH   3   4
ENDBRANCH   2   3
ENDBRANCH   1   2
BRANCH   1  23
ATOM     23  C   UNL A   1      35.114  20.707  24.992  1.00  0.00     0.202 C 
BRANCH  23  24
ATOM     24  C   UNL A   1      36.622  20.881  24.782  1.00  0.00     0.261 C 
BRANCH  24  25
ATOM     25  O   UNL A   1      37.259  21.468  25.932  1.00  0.00    -0.460 OA
BRANCH  25  26
ATOM     26  C   UNL A   1      38.607  21.340  25.958  1.00  0.00     0.338 C 
ATOM     27  O   UNL A   1      39.268  20.461  25.415  1.00  0.00    -0.246 OA
BRANCH  26  28
ATOM     28  C   UNL A   1      39.222  22.538  26.558  1.00  0.00     0.060 A 
ATOM     29  C   UNL A   1      38.678  23.782  26.213  1.00  0.00     0.016 A 
ATOM     30  C   UNL A   1      40.345  22.459  27.386  1.00  0.00     0.016 A 
ATOM     31  C   UNL A   1      39.286  24.957  26.649  1.00  0.00     0.010 A 
ATOM     32  C   UNL A   1      40.961  23.641  27.812  1.00  0.00     0.010 A 
ATOM     33  C   UNL A   1      40.458  24.893  27.413  1.00  0.00    -0.014 A 
BRANCH  33  34
ATOM     34  C   UNL A   1      41.244  26.133  27.636  1.00  0.00     0.031 A 
ATOM     35  C   UNL A   1      40.631  27.238  28.452  1.00  0.00     0.074 A 
ATOM     36  C   UNL A   1      42.498  26.253  27.163  1.00  0.00     0.049 A 
ATOM     37  N   UNL A   1      41.111  28.417  28.752  1.00  0.00    -0.248 NA
ATOM     38  C   UNL A   1      39.290  26.977  28.998  1.00  0.00     0.031 C 
ATOM     39  C   UNL A   1      43.214  25.228  26.406  1.00  0.00     0.029 A 
ATOM     40  N   UNL A   1      43.388  27.293  27.249  1.00  0.00    -0.354 N 
ATOM     41  C   UNL A   1      40.135  29.038  29.525  1.00  0.00     0.074 A 
ATOM     42  C   UNL A   1      39.019  28.120  29.606  1.00  0.00     0.031 C 
ATOM     43  C   UNL A   1      44.433  25.697  26.085  1.00  0.00     0.029 A 
ATOM     44  C   UNL A   1      44.568  27.066  26.580  1.00  0.00     0.049 A 
ATOM     45  H   UNL A   1      43.200  28.123  27.742  1.00  0.00     0.167 HD
ATOM     46  C   UNL A   1      40.173  30.256  30.120  1.00  0.00     0.034 A 
ATOM     47  C   UNL A   1      45.623  27.879  26.371  1.00  0.00     0.034 A 
ATOM     48  C   UNL A   1      41.287  31.166  30.014  1.00  0.00     0.049 A 
ATOM     49  C   UNL A   1      45.605  29.268  26.963  1.00  0.00     0.074 A 
ATOM     50  C   UNL A   1      41.432  32.422  30.574  1.00  0.00     0.029 A 
ATOM     51  N   UNL A   1      42.446  30.920  29.288  1.00  0.00    -0.354 N 
ATOM     52  N   UNL A   1      44.676  29.846  27.690  1.00  0.00    -0.248 NA
ATOM     53  C   UNL A   1      46.781  30.111  26.712  1.00  0.00     0.031 C 
ATOM     54  C   UNL A   1      42.643  32.965  30.129  1.00  0.00     0.029 A 
ATOM     55  C   UNL A   1      43.295  32.016  29.358  1.00  0.00     0.049 A 
ATOM     56  H   UNL A   1      42.638  30.090  28.795  1.00  0.00     0.167 HD
ATOM     57  C   UNL A   1      45.171  31.108  28.008  1.00  0.00     0.074 A 
ATOM     58  C   UNL A   1      46.484  31.201  27.404  1.00  0.00     0.031 C 
ATOM     59  C   UNL A   1      44.597  32.099  28.738  1.00  0.00     0.034 A 
BRANCH  46  60
ATOM     60  C   UNL A   1      38.946  30.686  30.889  1.00  0.00     0.023 A 
ATOM     61  C   UNL A   1      37.966  31.516  30.316  1.00  0.00     0.031 A 
ATOM     62  C   UNL A   1      38.773  30.293  32.228  1.00  0.00     0.131 A 
ATOM     63  C   UNL A   1      36.900  31.985  31.099  1.00  0.00     0.055 A 
ATOM     64  C   UNL A   1      37.667  30.698  32.979  1.00  0.00     0.041 A 
ATOM     65  F   UNL A   1      39.687  29.522  32.837  1.00  0.00    -0.206 F 
ATOM     66  C   UNL A   1      36.731  31.562  32.420  1.00  0.00     0.022 A 
BRANCH  63  67
ATOM     67  S   UNL A   1      35.823  33.275  30.415  1.00  0.00     0.124 S 
ATOM     68  O   UNL A   1      34.498  32.697  30.630  1.00  0.00    -0.237 OA
ATOM     69  O   UNL A   1      36.157  34.432  31.237  1.00  0.00    -0.237 OA
ATOM     70  O   UNL A   1      36.236  33.362  29.016  1.00  0.00    -0.744 OA
ENDBRANCH  63  67
ENDBRANCH  46  60
BRANCH  47  71
ATOM     71  C   UNL A   1      46.765  27.428  25.523  1.00  0.00     0.023 A 
ATOM     72  C   UNL A   1      46.938  27.906  24.215  1.00  0.00     0.031 A 
ATOM     73  C   UNL A   1      47.675  26.467  26.000  1.00  0.00     0.131 A 
ATOM     74  C   UNL A   1      47.969  27.391  23.413  1.00  0.00     0.055 A 
ATOM     75  C   UNL A   1      48.731  25.997  25.217  1.00  0.00     0.041 A 
ATOM     76  F   UNL A   1      47.554  25.976  27.243  1.00  0.00    -0.206 F 
ATOM     77  C   UNL A   1      48.875  26.450  23.910  1.00  0.00     0.022 A 
BRANCH  74  78
ATOM     78  S   UNL A   1      48.063  27.909  21.678  1.00  0.00     0.124 S 
ATOM     79  O   UNL A   1      48.386  26.654  21.010  1.00  0.00    -0.237 OA
ATOM     80  O   UNL A   1      46.721  28.434  21.445  1.00  0.00    -0.237 OA
ATOM     81  O   UNL A   1      49.128  28.910  21.679  1.00  0.00    -0.744 OA
ENDBRANCH  74  78
ENDBRANCH  47  71
BRANCH  59  82
ATOM     82  C   UNL A   1      45.411  33.352  28.959  1.00  0.00     0.023 A 
ATOM     83  C   UNL A   1      45.302  34.468  28.110  1.00  0.00     0.031 A 
ATOM     84  C   UNL A   1      46.316  33.425  30.033  1.00  0.00     0.131 A 
ATOM     85  C   UNL A   1      46.122  35.587  28.318  1.00  0.00     0.055 A 
ATOM     86  C   UNL A   1      47.086  34.564  30.270  1.00  0.00     0.041 A 
ATOM     87  F   UNL A   1      46.462  32.390  30.874  1.00  0.00    -0.206 F 
ATOM     88  C   UNL A   1      47.002  35.649  29.402  1.00  0.00     0.022 A 
BRANCH  85  89
ATOM     89  S   UNL A   1      46.094  36.929  27.097  1.00  0.00     0.124 S 
ATOM     90  O   UNL A   1      44.669  37.235  27.015  1.00  0.00    -0.237 OA
ATOM     91  O   UNL A   1      46.929  37.944  27.730  1.00  0.00    -0.237 OA
ATOM     92  O   UNL A   1      46.666  36.316  25.900  1.00  0.00    -0.744 OA
ENDBRANCH  85  89
ENDBRANCH  59  82
ENDBRANCH  33  34
ENDBRANCH  26  28
ENDBRANCH  25  26
ENDBRANCH  24  25
ENDBRANCH  23  24
ENDBRANCH   1  23
TORSDOF 20
ENDMDL
MODEL 2
REMARK VINA RESULT:     -11.1      2.389      7.995
REMARK SMILES C[C@@H](C(=O)OCCOCCOC(=O)c1ccc(-c2c3nc(c(-c4cc(S(=O)(=O)[O-])ccc4F)c4ccc([nH]4)c(-c4cc(S(=O)(=O)[O-])ccc4F)c4nc(c(-c5cc(S(=O)(=O)[O-])ccc5F)c5ccc2[nH]5)C=C4)C=C3)cc1)c1ccc(C[C@H]2CCCC2=O)cc1Cl
REMARK SMILES IDX 8 1 7 2 6 3 5 4 3 5 4 6 2 7 1 8 77 9 78 10 89 11 79 12 88 13
REMARK SMILES IDX 90 14 80 15 81 16 82 17 83 18 86 19 84 20 85 21 87 22 9 23
REMARK SMILES IDX 10 24 11 25 12 26 13 27 14 28 15 29 76 30 16 31 75 32 17 33
REMARK SMILES IDX 18 34 19 35 69 36 20 37 74 38 68 39 70 40 21 41 73 42 67 43
REMARK SMILES IDX 66 44 22 46 54 47 34 48 53 49 35 50 38 51 52 52 71 53 36 54
REMARK SMILES IDX 37 55 51 57 72 58 39 59 23 60 24 61 32 62 25 63 31 64 33 65
REMARK SMILES IDX 30 66 26 67 27 68 28 69 29 70 55 71 56 72 64 73 57 74 63 75
REMARK SMILES IDX 65 76 62 77 58 78 59 79 60 80 61 81 40 82 41 83 49 84 42 85
REMARK SMILES IDX 48 86 50 87 47 88 43 89 44 90 45 91 46 92
REMARK H PARENT 70 45 38 56
REMARK Flexibility Score: inf
ROOT
ATOM      1  O   UNL A   1      36.136  21.099  25.494  1.00  0.00    -0.374 OA
ENDROOT
BRANCH   1   2
ATOM      2  C   UNL A   1      35.537  22.390  25.418  1.00  0.00     0.202 C 
BRANCH   2   3
ATOM      3  C   UNL A   1      34.008  22.487  25.487  1.00  0.00     0.261 C 
BRANCH   3   4
ATOM      4  O   UNL A   1      33.526  23.512  26.372  1.00  0.00    -0.463 OA
BRANCH   4   5
ATOM      5  C   UNL A   1      33.018  24.602  25.728  1.00  0.00     0.313 C 
ATOM      6  O   UNL A   1      33.555  25.103  24.747  1.00  0.00    -0.252 OA
BRANCH   5   7
ATOM      7  C   UNL A   1      31.708  25.118  26.367  1.00  0.00     0.127 C 
ATOM      8  C   UNL A   1      30.679  23.988  26.564  1.00  0.00     0.025 C 
BRANCH   7   9
ATOM      9  C   UNL A   1      31.170  26.318  25.567  1.00  0.00    -0.015 A 
ATOM     10  C   UNL A   1      30.279  26.154  24.492  1.00  0.00     0.006 A 
ATOM     11  C   UNL A   1      31.607  27.631  25.833  1.00  0.00     0.045 A 
ATOM     12  C   UNL A   1      29.920  27.229  23.669  1.00  0.00     0.004 A 
ATOM     13  C   UNL A   1      31.323  28.680  24.949  1.00  0.00     0.024 A 
ATOM     14  Cl  UNL A   1      32.456  28.051  27.285  1.00  0.00    -0.084 Cl
ATOM     15  C   UNL A   1      30.506  28.486  23.830  1.00  0.00    -0.046 A 
BRANCH  15  16
ATOM     16  C   UNL A   1      30.198  29.651  22.916  1.00  0.00     0.047 C 
BRANCH  16  17
ATOM     17  C   UNL A   1      28.858  30.387  23.058  1.00  0.00     0.060 C 
ATOM     18  C   UNL A   1      28.851  31.666  23.900  1.00  0.00     0.012 C 
ATOM     19  C   UNL A   1      28.286  30.860  21.745  1.00  0.00     0.136 C 
ATOM     20  C   UNL A   1      28.875  32.828  22.915  1.00  0.00     0.009 C 
ATOM     21  C   UNL A   1      28.092  32.352  21.700  1.00  0.00     0.076 C 
ATOM     22  O   UNL A   1      27.992  30.110  20.821  1.00  0.00    -0.299 OA
ENDBRANCH  16  17
ENDBRANCH  15  16
ENDBRANCH   7   9
ENDBRANCH   5   7
ENDBRANCH   4   5
ENDBRANCH   3   4
ENDBRANCH   2   3
ENDBRANCH   1   2
BRANCH   1  23
ATOM     23  C   UNL A   1      37.116  20.762  24.511  1.00  0.00     0.202 C 
BRANCH  23  24
ATOM     24  C   UNL A   1      38.234  19.802  24.930  1.00  0.00     0.261 C 
BRANCH  24  25
ATOM     25  O   UNL A   1      38.733  20.105  26.247  1.00  0.00    -0.460 OA
BRANCH  25  26
ATOM     26  C   UNL A   1      40.072  20.302  26.312  1.00  0.00     0.338 C 
ATOM     27  O   UNL A   1      40.940  19.599  25.804  1.00  0.00    -0.246 OA
BRANCH  26  28
ATOM     28  C   UNL A   1      40.366  21.620  26.903  1.00  0.00     0.060 A 
ATOM     29  C   UNL A   1      39.690  22.728  26.376  1.00  0.00     0.016 A 
ATOM     30  C   UNL A   1      41.325  21.785  27.906  1.00  0.00     0.016 A 
ATOM     31  C   UNL A   1      40.009  24.013  26.807  1.00  0.00     0.010 A 
ATOM     32  C   UNL A   1      41.653  23.079  28.329  1.00  0.00     0.010 A 
ATOM     33  C   UNL A   1      41.025  24.199  27.753  1.00  0.00    -0.014 A 
BRANCH  33  34
ATOM     34  C   UNL A   1      41.543  25.568  27.999  1.00  0.00     0.031 A 
ATOM     35  C   UNL A   1      42.927  25.912  27.517  1.00  0.00     0.074 A 
ATOM     36  C   UNL A   1      40.780  26.502  28.594  1.00  0.00     0.049 A 
ATOM     37  N   UNL A   1      43.599  27.027  27.643  1.00  0.00    -0.248 NA
ATOM     38  C   UNL A   1      43.648  24.850  26.799  1.00  0.00     0.031 C 
ATOM     39  C   UNL A   1      39.407  26.299  29.055  1.00  0.00     0.029 A 
ATOM     40  N   UNL A   1      41.055  27.807  28.917  1.00  0.00    -0.354 N 
ATOM     41  C   UNL A   1      44.822  26.803  27.018  1.00  0.00     0.074 A 
ATOM     42  C   UNL A   1      44.812  25.432  26.556  1.00  0.00     0.031 C 
ATOM     43  C   UNL A   1      38.963  27.439  29.613  1.00  0.00     0.029 A 
ATOM     44  C   UNL A   1      40.030  28.438  29.583  1.00  0.00     0.049 A 
ATOM     45  H   UNL A   1      41.904  28.249  28.692  1.00  0.00     0.167 HD
ATOM     46  C   UNL A   1      45.853  27.666  26.838  1.00  0.00     0.034 A 
ATOM     47  C   UNL A   1      39.972  29.669  30.128  1.00  0.00     0.034 A 
ATOM     48  C   UNL A   1      45.853  29.026  27.321  1.00  0.00     0.049 A 
ATOM     49  C   UNL A   1      41.167  30.583  30.000  1.00  0.00     0.074 A 
ATOM     50  C   UNL A   1      46.841  29.986  27.196  1.00  0.00     0.029 A 
ATOM     51  N   UNL A   1      44.816  29.615  28.035  1.00  0.00    -0.354 N 
ATOM     52  N   UNL A   1      42.320  30.361  29.409  1.00  0.00    -0.248 NA
ATOM     53  C   UNL A   1      41.051  31.917  30.604  1.00  0.00     0.031 C 
ATOM     54  C   UNL A   1      46.434  31.130  27.894  1.00  0.00     0.029 A 
ATOM     55  C   UNL A   1      45.156  30.914  28.385  1.00  0.00     0.049 A 
ATOM     56  H   UNL A   1      43.965  29.176  28.260  1.00  0.00     0.167 HD
ATOM     57  C   UNL A   1      43.052  31.538  29.546  1.00  0.00     0.074 A 
ATOM     58  C   UNL A   1      42.205  32.470  30.263  1.00  0.00     0.031 C 
ATOM     59  C   UNL A   1      44.306  31.828  29.113  1.00  0.00     0.034 A 
BRANCH  46  60
ATOM     60  C   UNL A   1      47.081  27.137  26.136  1.00  0.00     0.023 A 
ATOM     61  C   UNL A   1      48.091  26.448  26.829  1.00  0.00     0.031 A 
ATOM     62  C   UNL A   1      47.264  27.361  24.760  1.00  0.00     0.131 A 
ATOM     63  C   UNL A   1      49.267  26.073  26.163  1.00  0.00     0.055 A 
ATOM     64  C   UNL A   1      48.401  26.914  24.085  1.00  0.00     0.041 A 
ATOM     65  F   UNL A   1      46.345  28.035  24.049  1.00  0.00    -0.206 F 
ATOM     66  C   UNL A   1      49.419  26.280  24.790  1.00  0.00     0.022 A 
BRANCH  63  67
ATOM     67  S   UNL A   1      50.660  25.449  27.145  1.00  0.00     0.124 S 
ATOM     68  O   UNL A   1      50.894  26.561  28.064  1.00  0.00    -0.237 OA
ATOM     69  O   UNL A   1      50.109  24.235  27.736  1.00  0.00    -0.237 OA
ATOM     70  O   UNL A   1      51.713  25.239  26.153  1.00  0.00    -0.744 OA
ENDBRANCH  63  67
ENDBRANCH  46  60
BRANCH  47  71
ATOM     71  C   UNL A   1      38.765  30.100  30.891  1.00  0.00     0.023 A 
ATOM     72  C   UNL A   1      37.734  30.828  30.277  1.00  0.00     0.031 A 
ATOM     73  C   UNL A   1      38.651  29.828  32.267  1.00  0.00     0.131 A 
ATOM     74  C   UNL A   1      36.656  31.298  31.046  1.00  0.00     0.055 A 
ATOM     75  C   UNL A   1      37.553  30.251  33.016  1.00  0.00     0.041 A 
ATOM     76  F   UNL A   1      39.610  29.136  32.903  1.00  0.00    -0.206 F 
ATOM     77  C   UNL A   1      36.552  31.003  32.408  1.00  0.00     0.022 A 
BRANCH  74  78
ATOM     78  S   UNL A   1      35.428  32.373  30.257  1.00  0.00     0.124 S 
ATOM     79  O   UNL A   1      36.227  33.551  29.936  1.00  0.00    -0.237 OA
ATOM     80  O   UNL A   1      34.998  31.561  29.123  1.00  0.00    -0.237 OA
ATOM     81  O   UNL A   1      34.423  32.565  31.300  1.00  0.00    -0.744 OA
ENDBRANCH  74  78
ENDBRANCH  47  71
BRANCH  59  82
ATOM     82  C   UNL A   1      44.817  33.226  29.367  1.00  0.00     0.023 A 
ATOM     83  C   UNL A   1      44.605  34.272  28.451  1.00  0.00     0.031 A 
ATOM     84  C   UNL A   1      45.535  33.512  30.542  1.00  0.00     0.131 A 
ATOM     85  C   UNL A   1      45.150  35.540  28.701  1.00  0.00     0.055 A 
ATOM     86  C   UNL A   1      46.023  34.790  30.814  1.00  0.00     0.041 A 
ATOM     87  F   UNL A   1      45.768  32.552  31.451  1.00  0.00    -0.206 F 
ATOM     88  C   UNL A   1      45.844  35.810  29.883  1.00  0.00     0.022 A 
BRANCH  85  89
ATOM     89  S   UNL A   1      45.022  36.813  27.415  1.00  0.00     0.124 S 
ATOM     90  O   UNL A   1      43.672  37.324  27.626  1.00  0.00    -0.237 OA
ATOM     91  O   UNL A   1      46.109  37.721  27.766  1.00  0.00    -0.237 OA
ATOM     92  O   UNL A   1      45.216  36.068  26.173  1.00  0.00    -0.744 OA
ENDBRANCH  85  89
ENDBRANCH  59  82
ENDBRANCH  33  34
ENDBRANCH  26  28
ENDBRANCH  25  26
ENDBRANCH  24  25
ENDBRANCH  23  24
ENDBRANCH   1  23
TORSDOF 20
ENDMDL
MODEL 3
REMARK VINA RESULT:     -11.0      4.818      8.459
REMARK SMILES C[C@@H](C(=O)OCCOCCOC(=O)c1ccc(-c2c3nc(c(-c4cc(S(=O)(=O)[O-])ccc4F)c4ccc([nH]4)c(-c4cc(S(=O)(=O)[O-])ccc4F)c4nc(c(-c5cc(S(=O)(=O)[O-])ccc5F)c5ccc2[nH]5)C=C4)C=C3)cc1)c1ccc(C[C@H]2CCCC2=O)cc1Cl
REMARK SMILES IDX 8 1 7 2 6 3 5 4 3 5 4 6 2 7 1 8 77 9 78 10 89 11 79 12 88 13
REMARK SMILES IDX 90 14 80 15 81 16 82 17 83 18 86 19 84 20 85 21 87 22 9 23
REMARK SMILES IDX 10 24 11 25 12 26 13 27 14 28 15 29 76 30 16 31 75 32 17 33
REMARK SMILES IDX 18 34 19 35 69 36 20 37 74 38 68 39 70 40 21 41 73 42 67 43
REMARK SMILES IDX 66 44 22 46 54 47 34 48 53 49 35 50 38 51 52 52 71 53 36 54
REMARK SMILES IDX 37 55 51 57 72 58 39 59 23 60 24 61 32 62 25 63 31 64 33 65
REMARK SMILES IDX 30 66 26 67 27 68 28 69 29 70 55 71 56 72 64 73 57 74 63 75
REMARK SMILES IDX 65 76 62 77 58 78 59 79 60 80 61 81 40 82 41 83 49 84 42 85
REMARK SMILES IDX 48 86 50 87 47 88 43 89 44 90 45 91 46 92
REMARK H PARENT 70 45 38 56
REMARK Flexibility Score: inf
ROOT
ATOM      1  O   UNL A   1      31.088  30.448  25.190  1.00  0.00    -0.374 OA
ENDROOT
BRANCH   1   2
ATOM      2  C   UNL A   1      31.525  29.239  24.574  1.00  0.00     0.202 C 
BRANCH   2   3
ATOM      3  C   UNL A   1      30.478  28.355  23.884  1.00  0.00     0.261 C 
BRANCH   3   4
ATOM      4  O   UNL A   1      31.038  27.323  23.056  1.00  0.00    -0.463 OA
BRANCH   4   5
ATOM      5  C   UNL A   1      31.275  26.154  23.717  1.00  0.00     0.313 C 
ATOM      6  O   UNL A   1      30.397  25.534  24.306  1.00  0.00    -0.252 OA
BRANCH   5   7
ATOM      7  C   UNL A   1      32.754  25.709  23.635  1.00  0.00     0.127 C 
ATOM      8  C   UNL A   1      33.468  26.307  22.406  1.00  0.00     0.025 C 
BRANCH   7   9
ATOM      9  C   UNL A   1      32.847  24.175  23.724  1.00  0.00    -0.015 A 
ATOM     10  C   UNL A   1      32.484  23.346  22.649  1.00  0.00     0.006 A 
ATOM     11  C   UNL A   1      33.234  23.534  24.917  1.00  0.00     0.045 A 
ATOM     12  C   UNL A   1      32.417  21.954  22.789  1.00  0.00     0.004 A 
ATOM     13  C   UNL A   1      33.070  22.151  25.080  1.00  0.00     0.024 A 
ATOM     14  Cl  UNL A   1      33.990  24.382  26.226  1.00  0.00    -0.084 Cl
ATOM     15  C   UNL A   1      32.621  21.344  24.028  1.00  0.00    -0.046 A 
BRANCH  15  16
ATOM     16  C   UNL A   1      32.487  19.853  24.234  1.00  0.00     0.047 C 
BRANCH  16  17
ATOM     17  C   UNL A   1      33.543  18.911  23.637  1.00  0.00     0.060 C 
ATOM     18  C   UNL A   1      34.574  18.319  24.602  1.00  0.00     0.012 C 
ATOM     19  C   UNL A   1      32.959  17.679  22.991  1.00  0.00     0.136 C 
ATOM     20  C   UNL A   1      34.119  16.895  24.897  1.00  0.00     0.009 C 
ATOM     21  C   UNL A   1      33.456  16.403  23.618  1.00  0.00     0.076 C 
ATOM     22  O   UNL A   1      32.179  17.710  22.046  1.00  0.00    -0.299 OA
ENDBRANCH  16  17
ENDBRANCH  15  16
ENDBRANCH   7   9
ENDBRANCH   5   7
ENDBRANCH   4   5
ENDBRANCH   3   4
ENDBRANCH   2   3
ENDBRANCH   1   2
BRANCH   1  23
ATOM     23  C   UNL A   1      31.719  30.838  26.410  1.00  0.00     0.202 C 
BRANCH  23  24
ATOM     24  C   UNL A   1      31.566  32.298  26.847  1.00  0.00     0.261 C 
BRANCH  24  25
ATOM     25  O   UNL A   1      32.787  33.041  26.670  1.00  0.00    -0.460 OA
BRANCH  25  26
ATOM     26  C   UNL A   1      33.313  33.544  27.813  1.00  0.00     0.338 C 
ATOM     27  O   UNL A   1      32.766  34.318  28.591  1.00  0.00    -0.246 OA
BRANCH  26  28
ATOM     28  C   UNL A   1      34.582  32.865  28.133  1.00  0.00     0.060 A 
ATOM     29  C   UNL A   1      34.519  31.505  28.464  1.00  0.00     0.016 A 
ATOM     30  C   UNL A   1      35.799  33.549  28.173  1.00  0.00     0.016 A 
ATOM     31  C   UNL A   1      35.662  30.835  28.892  1.00  0.00     0.010 A 
ATOM     32  C   UNL A   1      36.945  32.877  28.615  1.00  0.00     0.010 A 
ATOM     33  C   UNL A   1      36.873  31.530  29.014  1.00  0.00    -0.014 A 
BRANCH  33  34
ATOM     34  C   UNL A   1      38.006  30.887  29.725  1.00  0.00     0.031 A 
ATOM     35  C   UNL A   1      38.255  31.255  31.163  1.00  0.00     0.074 A 
ATOM     36  C   UNL A   1      38.768  29.959  29.120  1.00  0.00     0.049 A 
ATOM     37  N   UNL A   1      39.197  30.850  31.975  1.00  0.00    -0.248 NA
ATOM     38  C   UNL A   1      37.314  32.213  31.762  1.00  0.00     0.031 C 
ATOM     39  C   UNL A   1      38.588  29.485  27.748  1.00  0.00     0.029 A 
ATOM     40  N   UNL A   1      39.850  29.253  29.581  1.00  0.00    -0.354 N 
ATOM     41  C   UNL A   1      38.962  31.500  33.182  1.00  0.00     0.074 A 
ATOM     42  C   UNL A   1      37.815  32.359  32.978  1.00  0.00     0.031 C 
ATOM     43  C   UNL A   1      39.537  28.573  27.475  1.00  0.00     0.029 A 
ATOM     44  C   UNL A   1      40.413  28.426  28.637  1.00  0.00     0.049 A 
ATOM     45  H   UNL A   1      40.191  29.330  30.501  1.00  0.00     0.167 HD
ATOM     46  C   UNL A   1      39.634  31.382  34.354  1.00  0.00     0.034 A 
ATOM     47  C   UNL A   1      41.521  27.661  28.696  1.00  0.00     0.034 A 
ATOM     48  C   UNL A   1      40.787  30.533  34.535  1.00  0.00     0.049 A 
ATOM     49  C   UNL A   1      42.311  27.616  29.983  1.00  0.00     0.074 A 
ATOM     50  C   UNL A   1      41.544  30.337  35.676  1.00  0.00     0.029 A 
ATOM     51  N   UNL A   1      41.357  29.746  33.541  1.00  0.00    -0.354 N 
ATOM     52  N   UNL A   1      42.081  28.237  31.118  1.00  0.00    -0.248 NA
ATOM     53  C   UNL A   1      43.506  26.762  29.998  1.00  0.00     0.031 C 
ATOM     54  C   UNL A   1      42.612  29.491  35.355  1.00  0.00     0.029 A 
ATOM     55  C   UNL A   1      42.476  29.091  34.035  1.00  0.00     0.049 A 
ATOM     56  H   UNL A   1      41.018  29.666  32.621  1.00  0.00     0.167 HD
ATOM     57  C   UNL A   1      43.085  27.823  31.989  1.00  0.00     0.074 A 
ATOM     58  C   UNL A   1      43.913  26.890  31.252  1.00  0.00     0.031 C 
ATOM     59  C   UNL A   1      43.301  28.174  33.283  1.00  0.00     0.034 A 
BRANCH  46  60
ATOM     60  C   UNL A   1      39.164  32.236  35.508  1.00  0.00     0.023 A 
ATOM     61  C   UNL A   1      39.591  33.567  35.665  1.00  0.00     0.031 A 
ATOM     62  C   UNL A   1      38.310  31.700  36.487  1.00  0.00     0.131 A 
ATOM     63  C   UNL A   1      39.222  34.290  36.810  1.00  0.00     0.055 A 
ATOM     64  C   UNL A   1      37.882  32.451  37.584  1.00  0.00     0.041 A 
ATOM     65  F   UNL A   1      37.890  30.428  36.405  1.00  0.00    -0.206 F 
ATOM     66  C   UNL A   1      38.351  33.749  37.758  1.00  0.00     0.022 A 
BRANCH  63  67
ATOM     67  S   UNL A   1      40.019  35.890  37.119  1.00  0.00     0.124 S 
ATOM     68  O   UNL A   1      39.340  36.327  38.337  1.00  0.00    -0.237 OA
ATOM     69  O   UNL A   1      41.422  35.520  37.266  1.00  0.00    -0.237 OA
ATOM     70  O   UNL A   1      39.701  36.670  35.924  1.00  0.00    -0.744 OA
ENDBRANCH  63  67
ENDBRANCH  46  60
BRANCH  47  71
ATOM     71  C   UNL A   1      41.985  26.912  27.493  1.00  0.00     0.023 A 
ATOM     72  C   UNL A   1      41.814  25.523  27.384  1.00  0.00     0.031 A 
ATOM     73  C   UNL A   1      42.657  27.577  26.450  1.00  0.00     0.131 A 
ATOM     74  C   UNL A   1      42.346  24.837  26.280  1.00  0.00     0.055 A 
ATOM     75  C   UNL A   1      43.138  26.899  25.329  1.00  0.00     0.041 A 
ATOM     76  F   UNL A   1      42.848  28.905  26.504  1.00  0.00    -0.206 F 
ATOM     77  C   UNL A   1      42.995  25.517  25.246  1.00  0.00     0.022 A 
BRANCH  74  78
ATOM     78  S   UNL A   1      42.251  23.027  26.253  1.00  0.00     0.124 S 
ATOM     79  O   UNL A   1      42.695  22.726  24.896  1.00  0.00    -0.237 OA
ATOM     80  O   UNL A   1      43.170  22.659  27.325  1.00  0.00    -0.237 OA
ATOM     81  O   UNL A   1      40.841  22.756  26.524  1.00  0.00    -0.744 OA
ENDBRANCH  74  78
ENDBRANCH  47  71
BRANCH  59  82
ATOM     82  C   UNL A   1      44.455  27.509  33.994  1.00  0.00     0.023 A 
ATOM     83  C   UNL A   1      44.335  26.235  34.577  1.00  0.00     0.031 A 
ATOM     84  C   UNL A   1      45.694  28.167  34.096  1.00  0.00     0.131 A 
ATOM     85  C   UNL A   1      45.416  25.682  35.279  1.00  0.00     0.055 A 
ATOM     86  C   UNL A   1      46.785  27.587  34.744  1.00  0.00     0.041 A 
ATOM     87  F   UNL A   1      45.867  29.385  33.560  1.00  0.00    -0.206 F 
ATOM     88  C   UNL A   1      46.645  26.343  35.353  1.00  0.00     0.022 A 
BRANCH  85  89
ATOM     89  S   UNL A   1      45.169  24.126  36.178  1.00  0.00     0.124 S 
ATOM     90  O   UNL A   1      43.809  23.764  35.792  1.00  0.00    -0.237 OA
ATOM     91  O   UNL A   1      46.231  23.283  35.639  1.00  0.00    -0.237 OA
ATOM     92  O   UNL A   1      45.334  24.509  37.579  1.00  0.00    -0.744 OA
ENDBRANCH  85  89
ENDBRANCH  59  82
ENDBRANCH  33  34
ENDBRANCH  26  28
ENDBRANCH  25  26
ENDBRANCH  24  25
ENDBRANCH  23  24
ENDBRANCH   1  23
TORSDOF 20
ENDMDL
