MODEL 1
REMARK VINA RESULT:     -12.5      0.000      0.000
REMARK SMILES O=C(Cn1c(-c2nc(-c3ccc(C(F)(F)F)cc3)no2)cc2ccccc21)OCCOCCOC(=O)c1ccc(-c2c3nc(c(-c4cc(S(=O)(=O)[O-])ccc4F)c4ccc([nH]4)c(-c4cc(S(=O)(=O)[O-])ccc4F)c4nc(c(-c5cc(S(=O)(=O)[O-])ccc5F)c5ccc2[nH]5)C=C4)C=C3)cc1
REMARK SMILES IDX 30 1 29 2 28 3 2 4 1 5 3 6 4 7 5 8 27 9 21 10 22 11 26 12
REMARK SMILES IDX 23 13 25 14 24 15 6 16 7 17 20 18 8 19 19 20 9 21 10 22
REMARK SMILES IDX 18 23 11 24 17 25 12 26 13 27 14 28 15 29 16 30 31 31 32 32
REMARK SMILES IDX 33 33 34 34 35 35 36 36 37 37 38 38 99 39 39 40 98 41 40 42
REMARK SMILES IDX 41 43 42 44 92 45 43 46 97 47 91 48 93 49 44 50 96 51 90 52
REMARK SMILES IDX 89 53 45 55 77 56 57 57 76 58 58 59 61 60 75 61 94 62 59 63
REMARK SMILES IDX 60 64 74 66 95 67 62 68 46 69 47 70 55 71 48 72 54 73 56 74
REMARK SMILES IDX 53 75 49 76 50 77 51 78 52 79 78 80 79 81 87 82 80 83 86 84
REMARK SMILES IDX 88 85 85 86 81 87 82 88 83 89 84 90 63 91 64 92 72 93 65 94
REMARK SMILES IDX 71 95 73 96 70 97 66 98 67 99 68 100 69 101
REMARK H PARENT 93 54 61 65
REMARK Flexibility Score: inf
ROOT
ATOM      1  C   UNL A   1      35.543  22.763  23.859  1.00  0.00     0.202 C 
ENDROOT
BRANCH   1   2
ATOM      2  C   UNL A   1      34.880  24.133  23.887  1.00  0.00     0.261 C 
BRANCH   2   3
ATOM      3  O   UNL A   1      34.231  24.471  22.666  1.00  0.00    -0.462 OA
BRANCH   3   4
ATOM      4  C   UNL A   1      33.687  25.704  22.550  1.00  0.00     0.326 C 
ATOM      5  O   UNL A   1      34.011  26.411  21.601  1.00  0.00    -0.250 OA
BRANCH   4   6
ATOM      6  C   UNL A   1      32.853  26.209  23.718  1.00  0.00     0.245 C 
BRANCH   6   7
ATOM      7  N   UNL A   1      31.422  26.148  23.437  1.00  0.00    -0.325 N 
ATOM      8  C   UNL A   1      30.556  25.175  23.861  1.00  0.00     0.109 A 
ATOM      9  C   UNL A   1      30.695  27.220  22.977  1.00  0.00     0.049 A 
ATOM     10  C   UNL A   1      29.282  25.708  23.843  1.00  0.00     0.042 A 
ATOM     11  C   UNL A   1      29.407  27.072  23.482  1.00  0.00     0.000 A 
ATOM     12  C   UNL A   1      31.095  28.360  22.304  1.00  0.00     0.027 A 
ATOM     13  C   UNL A   1      28.573  28.199  23.528  1.00  0.00     0.010 A 
ATOM     14  C   UNL A   1      30.379  29.504  22.603  1.00  0.00     0.002 A 
ATOM     15  C   UNL A   1      29.131  29.432  23.195  1.00  0.00     0.001 A 
BRANCH   8  16
ATOM     16  C   UNL A   1      31.017  23.959  24.415  1.00  0.00     0.274 A 
ATOM     17  N   UNL A   1      31.365  22.896  23.723  1.00  0.00    -0.185 NA
ATOM     18  O   UNL A   1      31.283  23.842  25.749  1.00  0.00    -0.332 OA
ATOM     19  C   UNL A   1      31.829  22.069  24.707  1.00  0.00     0.202 A 
ATOM     20  N   UNL A   1      31.840  22.596  25.939  1.00  0.00    -0.057 NA
BRANCH  19  21
ATOM     21  C   UNL A   1      32.195  20.695  24.501  1.00  0.00     0.023 A 
ATOM     22  C   UNL A   1      32.930  20.068  25.514  1.00  0.00     0.013 A 
ATOM     23  C   UNL A   1      31.954  20.042  23.291  1.00  0.00     0.013 A 
ATOM     24  C   UNL A   1      33.494  18.823  25.294  1.00  0.00     0.014 A 
ATOM     25  C   UNL A   1      32.529  18.790  23.068  1.00  0.00     0.014 A 
ATOM     26  C   UNL A   1      33.330  18.187  24.055  1.00  0.00     0.056 A 
BRANCH  26  27
ATOM     27  C   UNL A   1      34.077  16.906  23.798  1.00  0.00     0.416 C 
ATOM     28  F   UNL A   1      33.272  15.812  23.926  1.00  0.00    -0.166 F 
ATOM     29  F   UNL A   1      34.592  16.840  22.539  1.00  0.00    -0.166 F 
ATOM     30  F   UNL A   1      35.123  16.699  24.644  1.00  0.00    -0.166 F 
ENDBRANCH  26  27
ENDBRANCH  19  21
ENDBRANCH   8  16
ENDBRANCH   6   7
ENDBRANCH   4   6
ENDBRANCH   3   4
ENDBRANCH   2   3
ENDBRANCH   1   2
BRANCH   1  31
ATOM     31  O   UNL A   1      36.939  22.671  24.101  1.00  0.00    -0.374 OA
BRANCH  31  32
ATOM     32  C   UNL A   1      37.397  21.380  24.494  1.00  0.00     0.202 C 
BRANCH  32  33
ATOM     33  C   UNL A   1      38.407  21.349  25.661  1.00  0.00     0.261 C 
BRANCH  33  34
ATOM     34  O   UNL A   1      38.641  22.654  26.230  1.00  0.00    -0.460 OA
BRANCH  34  35
ATOM     35  C   UNL A   1      39.858  22.822  26.825  1.00  0.00     0.338 C 
ATOM     36  O   UNL A   1      40.850  22.136  26.617  1.00  0.00    -0.246 OA
BRANCH  35  37
ATOM     37  C   UNL A   1      39.905  24.152  27.507  1.00  0.00     0.060 A 
ATOM     38  C   UNL A   1      38.909  25.121  27.335  1.00  0.00     0.016 A 
ATOM     39  C   UNL A   1      41.119  24.511  28.122  1.00  0.00     0.016 A 
ATOM     40  C   UNL A   1      39.162  26.440  27.728  1.00  0.00     0.010 A 
ATOM     41  C   UNL A   1      41.361  25.829  28.529  1.00  0.00     0.010 A 
ATOM     42  C   UNL A   1      40.390  26.808  28.325  1.00  0.00    -0.014 A 
BRANCH  42  43
ATOM     43  C   UNL A   1      40.469  28.156  28.936  1.00  0.00     0.031 A 
ATOM     44  C   UNL A   1      41.606  28.939  28.387  1.00  0.00     0.074 A 
ATOM     45  C   UNL A   1      39.599  28.796  29.750  1.00  0.00     0.049 A 
ATOM     46  N   UNL A   1      42.693  29.334  28.966  1.00  0.00    -0.248 NA
ATOM     47  C   UNL A   1      41.567  29.158  26.933  1.00  0.00     0.031 C 
ATOM     48  C   UNL A   1      38.220  28.404  30.040  1.00  0.00     0.029 A 
ATOM     49  N   UNL A   1      39.756  29.953  30.484  1.00  0.00    -0.354 N 
ATOM     50  C   UNL A   1      43.381  30.041  27.980  1.00  0.00     0.074 A 
ATOM     51  C   UNL A   1      42.757  29.711  26.725  1.00  0.00     0.031 C 
ATOM     52  C   UNL A   1      37.634  29.341  30.813  1.00  0.00     0.029 A 
ATOM     53  C   UNL A   1      38.582  30.413  31.076  1.00  0.00     0.049 A 
ATOM     54  H   UNL A   1      40.621  30.413  30.581  1.00  0.00     0.167 HD
ATOM     55  C   UNL A   1      44.238  31.057  28.275  1.00  0.00     0.034 A 
ATOM     56  C   UNL A   1      38.327  31.625  31.641  1.00  0.00     0.034 A 
ATOM     57  C   UNL A   1      44.675  31.012  29.641  1.00  0.00     0.049 A 
ATOM     58  C   UNL A   1      39.593  32.352  31.875  1.00  0.00     0.074 A 
ATOM     59  C   UNL A   1      45.370  30.106  30.413  1.00  0.00     0.029 A 
ATOM     60  N   UNL A   1      44.120  31.912  30.514  1.00  0.00    -0.354 N 
ATOM     61  N   UNL A   1      40.455  32.095  32.816  1.00  0.00    -0.248 NA
ATOM     62  C   UNL A   1      40.093  33.171  30.783  1.00  0.00     0.031 C 
ATOM     63  C   UNL A   1      44.848  30.255  31.727  1.00  0.00     0.029 A 
ATOM     64  C   UNL A   1      43.894  31.276  31.705  1.00  0.00     0.049 A 
ATOM     65  H   UNL A   1      43.916  32.855  30.317  1.00  0.00     0.167 HD
ATOM     66  C   UNL A   1      41.690  32.299  32.219  1.00  0.00     0.074 A 
ATOM     67  C   UNL A   1      41.401  33.076  31.017  1.00  0.00     0.031 C 
ATOM     68  C   UNL A   1      42.791  31.585  32.600  1.00  0.00     0.034 A 
BRANCH  55  69
ATOM     69  C   UNL A   1      44.365  32.289  27.408  1.00  0.00     0.023 A 
ATOM     70  C   UNL A   1      43.782  33.525  27.754  1.00  0.00     0.031 A 
ATOM     71  C   UNL A   1      45.267  32.325  26.329  1.00  0.00     0.131 A 
ATOM     72  C   UNL A   1      44.047  34.699  27.044  1.00  0.00     0.055 A 
ATOM     73  C   UNL A   1      45.598  33.515  25.666  1.00  0.00     0.041 A 
ATOM     74  F   UNL A   1      45.904  31.214  25.927  1.00  0.00    -0.206 F 
ATOM     75  C   UNL A   1      44.982  34.711  26.018  1.00  0.00     0.022 A 
BRANCH  72  76
ATOM     76  S   UNL A   1      43.170  36.231  27.463  1.00  0.00     0.124 S 
ATOM     77  O   UNL A   1      44.267  37.185  27.568  1.00  0.00    -0.237 OA
ATOM     78  O   UNL A   1      42.293  36.393  26.306  1.00  0.00    -0.237 OA
ATOM     79  O   UNL A   1      42.487  35.903  28.712  1.00  0.00    -0.744 OA
ENDBRANCH  72  76
ENDBRANCH  55  69
BRANCH  56  80
ATOM     80  C   UNL A   1      37.026  32.344  31.564  1.00  0.00     0.023 A 
ATOM     81  C   UNL A   1      36.494  32.652  30.299  1.00  0.00     0.031 A 
ATOM     82  C   UNL A   1      36.412  32.955  32.669  1.00  0.00     0.131 A 
ATOM     83  C   UNL A   1      35.406  33.513  30.147  1.00  0.00     0.055 A 
ATOM     84  C   UNL A   1      35.322  33.830  32.522  1.00  0.00     0.041 A 
ATOM     85  F   UNL A   1      36.887  32.763  33.910  1.00  0.00    -0.206 F 
ATOM     86  C   UNL A   1      34.812  34.112  31.254  1.00  0.00     0.022 A 
BRANCH  83  87
ATOM     87  S   UNL A   1      34.791  33.864  28.481  1.00  0.00     0.124 S 
ATOM     88  O   UNL A   1      33.601  33.022  28.398  1.00  0.00    -0.237 OA
ATOM     89  O   UNL A   1      34.547  35.299  28.551  1.00  0.00    -0.237 OA
ATOM     90  O   UNL A   1      35.895  33.447  27.619  1.00  0.00    -0.744 OA
ENDBRANCH  83  87
ENDBRANCH  56  80
BRANCH  68  91
ATOM     91  C   UNL A   1      42.773  30.829  33.913  1.00  0.00     0.023 A 
ATOM     92  C   UNL A   1      42.471  29.455  33.866  1.00  0.00     0.031 A 
ATOM     93  C   UNL A   1      42.822  31.433  35.180  1.00  0.00     0.131 A 
ATOM     94  C   UNL A   1      42.172  28.751  35.039  1.00  0.00     0.055 A 
ATOM     95  C   UNL A   1      42.589  30.712  36.357  1.00  0.00     0.041 A 
ATOM     96  F   UNL A   1      43.015  32.751  35.312  1.00  0.00    -0.206 F 
ATOM     97  C   UNL A   1      42.239  29.369  36.289  1.00  0.00     0.022 A 
BRANCH  94  98
ATOM     98  S   UNL A   1      41.545  27.054  34.955  1.00  0.00     0.124 S 
ATOM     99  O   UNL A   1      42.717  26.316  34.491  1.00  0.00    -0.237 OA
ATOM    100  O   UNL A   1      41.151  26.800  36.338  1.00  0.00    -0.237 OA
ATOM    101  O   UNL A   1      40.440  27.132  34.003  1.00  0.00    -0.744 OA
ENDBRANCH  94  98
ENDBRANCH  68  91
ENDBRANCH  42  43
ENDBRANCH  35  37
ENDBRANCH  34  35
ENDBRANCH  33  34
ENDBRANCH  32  33
ENDBRANCH  31  32
ENDBRANCH   1  31
TORSDOF 21
ENDMDL
MODEL 2
REMARK VINA RESULT:     -12.4      3.799      9.370
REMARK SMILES O=C(Cn1c(-c2nc(-c3ccc(C(F)(F)F)cc3)no2)cc2ccccc21)OCCOCCOC(=O)c1ccc(-c2c3nc(c(-c4cc(S(=O)(=O)[O-])ccc4F)c4ccc([nH]4)c(-c4cc(S(=O)(=O)[O-])ccc4F)c4nc(c(-c5cc(S(=O)(=O)[O-])ccc5F)c5ccc2[nH]5)C=C4)C=C3)cc1
REMARK SMILES IDX 30 1 29 2 28 3 2 4 1 5 3 6 4 7 5 8 27 9 21 10 22 11 26 12
REMARK SMILES IDX 23 13 25 14 24 15 6 16 7 17 20 18 8 19 19 20 9 21 10 22
REMARK SMILES IDX 18 23 11 24 17 25 12 26 13 27 14 28 15 29 16 30 31 31 32 32
REMARK SMILES IDX 33 33 34 34 35 35 36 36 37 37 38 38 99 39 39 40 98 41 40 42
REMARK SMILES IDX 41 43 42 44 92 45 43 46 97 47 91 48 93 49 44 50 96 51 90 52
REMARK SMILES IDX 89 53 45 55 77 56 57 57 76 58 58 59 61 60 75 61 94 62 59 63
REMARK SMILES IDX 60 64 74 66 95 67 62 68 46 69 47 70 55 71 48 72 54 73 56 74
REMARK SMILES IDX 53 75 49 76 50 77 51 78 52 79 78 80 79 81 87 82 80 83 86 84
REMARK SMILES IDX 88 85 85 86 81 87 82 88 83 89 84 90 63 91 64 92 72 93 65 94
REMARK SMILES IDX 71 95 73 96 70 97 66 98 67 99 68 100 69 101
REMARK H PARENT 93 54 61 65
REMARK Flexibility Score: inf
ROOT
ATOM      1  C   UNL A   1      31.239  27.106  26.510  1.00  0.00     0.202 C 
ENDROOT
BRANCH   1   2
ATOM      2  C   UNL A   1      32.187  25.916  26.513  1.00  0.00     0.261 C 
BRANCH   2   3
ATOM      3  O   UNL A   1      31.525  24.665  26.362  1.00  0.00    -0.462 OA
BRANCH   3   4
ATOM      4  C   UNL A   1      32.230  23.535  26.592  1.00  0.00     0.326 C 
ATOM      5  O   UNL A   1      32.233  23.054  27.720  1.00  0.00    -0.250 OA
BRANCH   4   6
ATOM      6  C   UNL A   1      33.136  23.041  25.473  1.00  0.00     0.245 C 
BRANCH   6   7
ATOM      7  N   UNL A   1      32.410  22.244  24.491  1.00  0.00    -0.325 N 
ATOM      8  C   UNL A   1      31.965  22.677  23.269  1.00  0.00     0.109 A 
ATOM      9  C   UNL A   1      32.352  20.871  24.523  1.00  0.00     0.049 A 
ATOM     10  C   UNL A   1      31.802  21.568  22.462  1.00  0.00     0.042 A 
ATOM     11  C   UNL A   1      32.253  20.446  23.202  1.00  0.00     0.000 A 
ATOM     12  C   UNL A   1      32.531  19.985  25.570  1.00  0.00     0.027 A 
ATOM     13  C   UNL A   1      32.589  19.118  22.899  1.00  0.00     0.010 A 
ATOM     14  C   UNL A   1      33.116  18.779  25.229  1.00  0.00     0.002 A 
ATOM     15  C   UNL A   1      33.138  18.341  23.917  1.00  0.00     0.001 A 
BRANCH   8  16
ATOM     16  C   UNL A   1      31.937  24.049  22.932  1.00  0.00     0.274 A 
ATOM     17  N   UNL A   1      30.999  24.898  23.293  1.00  0.00    -0.185 NA
ATOM     18  O   UNL A   1      32.992  24.648  22.306  1.00  0.00    -0.332 OA
ATOM     19  C   UNL A   1      31.500  26.077  22.816  1.00  0.00     0.202 A 
ATOM     20  N   UNL A   1      32.710  25.997  22.248  1.00  0.00    -0.057 NA
BRANCH  19  21
ATOM     21  C   UNL A   1      30.776  27.319  22.812  1.00  0.00     0.023 A 
ATOM     22  C   UNL A   1      29.460  27.294  23.285  1.00  0.00     0.013 A 
ATOM     23  C   UNL A   1      31.304  28.477  22.240  1.00  0.00     0.013 A 
ATOM     24  C   UNL A   1      28.640  28.398  23.116  1.00  0.00     0.014 A 
ATOM     25  C   UNL A   1      30.475  29.587  22.063  1.00  0.00     0.014 A 
ATOM     26  C   UNL A   1      29.129  29.542  22.470  1.00  0.00     0.056 A 
BRANCH  26  27
ATOM     27  C   UNL A   1      28.172  30.665  22.171  1.00  0.00     0.416 C 
ATOM     28  F   UNL A   1      28.733  31.887  22.399  1.00  0.00    -0.166 F 
ATOM     29  F   UNL A   1      27.769  30.680  20.871  1.00  0.00    -0.166 F 
ATOM     30  F   UNL A   1      27.035  30.634  22.918  1.00  0.00    -0.166 F 
ENDBRANCH  26  27
ENDBRANCH  19  21
ENDBRANCH   8  16
ENDBRANCH   6   7
ENDBRANCH   4   6
ENDBRANCH   3   4
ENDBRANCH   2   3
ENDBRANCH   1   2
BRANCH   1  31
ATOM     31  O   UNL A   1      31.709  28.358  26.035  1.00  0.00    -0.374 OA
BRANCH  31  32
ATOM     32  C   UNL A   1      31.834  29.371  27.031  1.00  0.00     0.202 C 
BRANCH  32  33
ATOM     33  C   UNL A   1      33.000  30.363  26.841  1.00  0.00     0.261 C 
BRANCH  33  34
ATOM     34  O   UNL A   1      33.771  30.555  28.046  1.00  0.00    -0.460 OA
BRANCH  34  35
ATOM     35  C   UNL A   1      34.711  31.543  27.989  1.00  0.00     0.338 C 
ATOM     36  O   UNL A   1      34.476  32.742  27.918  1.00  0.00    -0.246 OA
BRANCH  35  37
ATOM     37  C   UNL A   1      36.049  30.988  28.358  1.00  0.00     0.060 A 
ATOM     38  C   UNL A   1      37.043  31.766  28.964  1.00  0.00     0.016 A 
ATOM     39  C   UNL A   1      36.382  29.724  27.837  1.00  0.00     0.016 A 
ATOM     40  C   UNL A   1      38.361  31.293  28.990  1.00  0.00     0.010 A 
ATOM     41  C   UNL A   1      37.699  29.248  27.880  1.00  0.00     0.010 A 
ATOM     42  C   UNL A   1      38.703  30.033  28.446  1.00  0.00    -0.014 A 
BRANCH  42  43
ATOM     43  C   UNL A   1      40.057  29.511  28.745  1.00  0.00     0.031 A 
ATOM     44  C   UNL A   1      40.265  29.334  30.205  1.00  0.00     0.074 A 
ATOM     45  C   UNL A   1      41.011  29.037  27.911  1.00  0.00     0.049 A 
ATOM     46  N   UNL A   1      41.050  29.972  31.010  1.00  0.00    -0.248 NA
ATOM     47  C   UNL A   1      39.324  28.414  30.862  1.00  0.00     0.031 C 
ATOM     48  C   UNL A   1      40.849  28.689  26.501  1.00  0.00     0.029 A 
ATOM     49  N   UNL A   1      42.337  28.746  28.154  1.00  0.00    -0.354 N 
ATOM     50  C   UNL A   1      40.845  29.374  32.253  1.00  0.00     0.074 A 
ATOM     51  C   UNL A   1      39.638  28.595  32.140  1.00  0.00     0.031 C 
ATOM     52  C   UNL A   1      41.993  28.156  26.029  1.00  0.00     0.029 A 
ATOM     53  C   UNL A   1      42.981  28.109  27.096  1.00  0.00     0.049 A 
ATOM     54  H   UNL A   1      42.788  28.968  29.000  1.00  0.00     0.167 HD
ATOM     55  C   UNL A   1      41.811  29.329  33.210  1.00  0.00     0.034 A 
ATOM     56  C   UNL A   1      44.182  27.467  27.086  1.00  0.00     0.034 A 
ATOM     57  C   UNL A   1      42.835  30.308  32.985  1.00  0.00     0.049 A 
ATOM     58  C   UNL A   1      44.946  27.806  28.306  1.00  0.00     0.074 A 
ATOM     59  C   UNL A   1      42.871  31.684  32.911  1.00  0.00     0.029 A 
ATOM     60  N   UNL A   1      44.033  29.867  32.484  1.00  0.00    -0.354 N 
ATOM     61  N   UNL A   1      45.551  28.936  28.535  1.00  0.00    -0.248 NA
ATOM     62  C   UNL A   1      44.720  26.976  29.477  1.00  0.00     0.031 C 
ATOM     63  C   UNL A   1      43.902  31.983  31.980  1.00  0.00     0.029 A 
ATOM     64  C   UNL A   1      44.479  30.779  31.566  1.00  0.00     0.049 A 
ATOM     65  H   UNL A   1      44.493  29.035  32.740  1.00  0.00     0.167 HD
ATOM     66  C   UNL A   1      45.349  29.168  29.888  1.00  0.00     0.074 A 
ATOM     67  C   UNL A   1      44.944  27.877  30.433  1.00  0.00     0.031 C 
ATOM     68  C   UNL A   1      45.255  30.438  30.385  1.00  0.00     0.034 A 
BRANCH  55  69
ATOM     69  C   UNL A   1      41.992  28.140  34.128  1.00  0.00     0.023 A 
ATOM     70  C   UNL A   1      42.773  27.021  33.774  1.00  0.00     0.031 A 
ATOM     71  C   UNL A   1      41.582  28.194  35.472  1.00  0.00     0.131 A 
ATOM     72  C   UNL A   1      43.080  26.009  34.687  1.00  0.00     0.055 A 
ATOM     73  C   UNL A   1      41.957  27.222  36.411  1.00  0.00     0.041 A 
ATOM     74  F   UNL A   1      40.858  29.227  35.930  1.00  0.00    -0.206 F 
ATOM     75  C   UNL A   1      42.705  26.117  36.019  1.00  0.00     0.022 A 
BRANCH  72  76
ATOM     76  S   UNL A   1      43.983  24.535  34.137  1.00  0.00     0.124 S 
ATOM     77  O   UNL A   1      43.000  23.481  34.358  1.00  0.00    -0.237 OA
ATOM     78  O   UNL A   1      44.260  24.864  32.740  1.00  0.00    -0.237 OA
ATOM     79  O   UNL A   1      45.155  24.507  35.007  1.00  0.00    -0.744 OA
ENDBRANCH  72  76
ENDBRANCH  55  69
BRANCH  56  80
ATOM     80  C   UNL A   1      44.487  26.243  26.297  1.00  0.00     0.023 A 
ATOM     81  C   UNL A   1      43.640  25.127  26.419  1.00  0.00     0.031 A 
ATOM     82  C   UNL A   1      45.704  26.038  25.627  1.00  0.00     0.131 A 
ATOM     83  C   UNL A   1      43.984  23.881  25.892  1.00  0.00     0.055 A 
ATOM     84  C   UNL A   1      46.060  24.783  25.103  1.00  0.00     0.041 A 
ATOM     85  F   UNL A   1      46.600  27.032  25.513  1.00  0.00    -0.206 F 
ATOM     86  C   UNL A   1      45.196  23.695  25.234  1.00  0.00     0.022 A 
BRANCH  83  87
ATOM     87  S   UNL A   1      42.838  22.495  26.102  1.00  0.00     0.124 S 
ATOM     88  O   UNL A   1      41.534  23.140  25.987  1.00  0.00    -0.237 OA
ATOM     89  O   UNL A   1      43.217  21.628  24.993  1.00  0.00    -0.237 OA
ATOM     90  O   UNL A   1      43.157  21.994  27.438  1.00  0.00    -0.744 OA
ENDBRANCH  83  87
ENDBRANCH  56  80
BRANCH  68  91
ATOM     91  C   UNL A   1      45.730  31.605  29.544  1.00  0.00     0.023 A 
ATOM     92  C   UNL A   1      44.901  32.023  28.486  1.00  0.00     0.031 A 
ATOM     93  C   UNL A   1      47.020  32.158  29.606  1.00  0.00     0.131 A 
ATOM     94  C   UNL A   1      45.382  32.903  27.509  1.00  0.00     0.055 A 
ATOM     95  C   UNL A   1      47.475  33.090  28.666  1.00  0.00     0.041 A 
ATOM     96  F   UNL A   1      47.904  31.753  30.527  1.00  0.00    -0.206 F 
ATOM     97  C   UNL A   1      46.663  33.450  27.598  1.00  0.00     0.022 A 
BRANCH  94  98
ATOM     98  S   UNL A   1      44.406  33.244  26.022  1.00  0.00     0.124 S 
ATOM     99  O   UNL A   1      43.845  31.931  25.715  1.00  0.00    -0.237 OA
ATOM    100  O   UNL A   1      43.449  34.239  26.501  1.00  0.00    -0.237 OA
ATOM    101  O   UNL A   1      45.387  33.744  25.063  1.00  0.00    -0.744 OA
ENDBRANCH  94  98
ENDBRANCH  68  91
ENDBRANCH  42  43
ENDBRANCH  35  37
ENDBRANCH  34  35
ENDBRANCH  33  34
ENDBRANCH  32  33
ENDBRANCH  31  32
ENDBRANCH   1  31
TORSDOF 21
ENDMDL
MODEL 3
REMARK VINA RESULT:     -11.8      6.751     14.847
REMARK SMILES O=C(Cn1c(-c2nc(-c3ccc(C(F)(F)F)cc3)no2)cc2ccccc21)OCCOCCOC(=O)c1ccc(-c2c3nc(c(-c4cc(S(=O)(=O)[O-])ccc4F)c4ccc([nH]4)c(-c4cc(S(=O)(=O)[O-])ccc4F)c4nc(c(-c5cc(S(=O)(=O)[O-])ccc5F)c5ccc2[nH]5)C=C4)C=C3)cc1
REMARK SMILES IDX 30 1 29 2 28 3 2 4 1 5 3 6 4 7 5 8 27 9 21 10 22 11 26 12
REMARK SMILES IDX 23 13 25 14 24 15 6 16 7 17 20 18 8 19 19 20 9 21 10 22
REMARK SMILES IDX 18 23 11 24 17 25 12 26 13 27 14 28 15 29 16 30 31 31 32 32
REMARK SMILES IDX 33 33 34 34 35 35 36 36 37 37 38 38 99 39 39 40 98 41 40 42
REMARK SMILES IDX 41 43 42 44 92 45 43 46 97 47 91 48 93 49 44 50 96 51 90 52
REMARK SMILES IDX 89 53 45 55 77 56 57 57 76 58 58 59 61 60 75 61 94 62 59 63
REMARK SMILES IDX 60 64 74 66 95 67 62 68 46 69 47 70 55 71 48 72 54 73 56 74
REMARK SMILES IDX 53 75 49 76 50 77 51 78 52 79 78 80 79 81 87 82 80 83 86 84
REMARK SMILES IDX 88 85 85 86 81 87 82 88 83 89 84 90 63 91 64 92 72 93 65 94
REMARK SMILES IDX 71 95 73 96 70 97 66 98 67 99 68 100 69 101
REMARK H PARENT 93 54 61 65
REMARK Flexibility Score: inf
ROOT
ATOM      1  C   UNL A   1      47.039  41.065  23.274  1.00  0.00     0.202 C 
ENDROOT
BRANCH   1   2
ATOM      2  C   UNL A   1      46.450  42.287  22.582  1.00  0.00     0.261 C 
BRANCH   2   3
ATOM      3  O   UNL A   1      45.675  41.966  21.432  1.00  0.00    -0.462 OA
BRANCH   3   4
ATOM      4  C   UNL A   1      45.827  42.727  20.325  1.00  0.00     0.326 C 
ATOM      5  O   UNL A   1      46.748  42.479  19.553  1.00  0.00    -0.250 OA
BRANCH   4   6
ATOM      6  C   UNL A   1      44.957  43.969  20.211  1.00  0.00     0.245 C 
BRANCH   6   7
ATOM      7  N   UNL A   1      43.590  43.648  19.815  1.00  0.00    -0.325 N 
ATOM      8  C   UNL A   1      42.528  43.460  20.659  1.00  0.00     0.109 A 
ATOM      9  C   UNL A   1      43.117  43.800  18.533  1.00  0.00     0.049 A 
ATOM     10  C   UNL A   1      41.371  43.681  19.937  1.00  0.00     0.042 A 
ATOM     11  C   UNL A   1      41.763  44.103  18.642  1.00  0.00     0.000 A 
ATOM     12  C   UNL A   1      43.787  43.849  17.324  1.00  0.00     0.027 A 
ATOM     13  C   UNL A   1      41.123  44.709  17.552  1.00  0.00     0.010 A 
ATOM     14  C   UNL A   1      43.228  44.684  16.373  1.00  0.00     0.002 A 
ATOM     15  C   UNL A   1      41.914  45.102  16.473  1.00  0.00     0.001 A 
BRANCH   8  16
ATOM     16  C   UNL A   1      42.704  43.300  22.052  1.00  0.00     0.274 A 
ATOM     17  N   UNL A   1      42.563  42.169  22.709  1.00  0.00    -0.185 NA
ATOM     18  O   UNL A   1      43.192  44.313  22.826  1.00  0.00    -0.332 OA
ATOM     19  C   UNL A   1      42.949  42.535  23.968  1.00  0.00     0.202 A 
ATOM     20  N   UNL A   1      43.374  43.799  24.092  1.00  0.00    -0.057 NA
BRANCH  19  21
ATOM     21  C   UNL A   1      42.833  41.690  25.125  1.00  0.00     0.023 A 
ATOM     22  C   UNL A   1      41.647  40.962  25.270  1.00  0.00     0.013 A 
ATOM     23  C   UNL A   1      43.795  41.688  26.135  1.00  0.00     0.013 A 
ATOM     24  C   UNL A   1      41.380  40.297  26.455  1.00  0.00     0.014 A 
ATOM     25  C   UNL A   1      43.522  41.024  27.333  1.00  0.00     0.014 A 
ATOM     26  C   UNL A   1      42.300  40.352  27.512  1.00  0.00     0.056 A 
BRANCH  26  27
ATOM     27  C   UNL A   1      41.914  39.744  28.834  1.00  0.00     0.416 C 
ATOM     28  F   UNL A   1      42.907  39.869  29.761  1.00  0.00    -0.166 F 
ATOM     29  F   UNL A   1      40.818  40.335  29.385  1.00  0.00    -0.166 F 
ATOM     30  F   UNL A   1      41.633  38.414  28.769  1.00  0.00    -0.166 F 
ENDBRANCH  26  27
ENDBRANCH  19  21
ENDBRANCH   8  16
ENDBRANCH   6   7
ENDBRANCH   4   6
ENDBRANCH   3   4
ENDBRANCH   2   3
ENDBRANCH   1   2
BRANCH   1  31
ATOM     31  O   UNL A   1      46.258  40.382  24.242  1.00  0.00    -0.374 OA
BRANCH  31  32
ATOM     32  C   UNL A   1      46.970  39.965  25.405  1.00  0.00     0.202 C 
BRANCH  32  33
ATOM     33  C   UNL A   1      46.750  38.502  25.842  1.00  0.00     0.261 C 
BRANCH  33  34
ATOM     34  O   UNL A   1      45.475  38.298  26.486  1.00  0.00    -0.460 OA
BRANCH  34  35
ATOM     35  C   UNL A   1      45.519  38.175  27.845  1.00  0.00     0.338 C 
ATOM     36  O   UNL A   1      45.980  39.005  28.618  1.00  0.00    -0.246 OA
BRANCH  35  37
ATOM     37  C   UNL A   1      44.634  37.051  28.278  1.00  0.00     0.060 A 
ATOM     38  C   UNL A   1      44.388  36.765  29.627  1.00  0.00     0.016 A 
ATOM     39  C   UNL A   1      44.264  36.115  27.295  1.00  0.00     0.016 A 
ATOM     40  C   UNL A   1      43.828  35.529  29.974  1.00  0.00     0.010 A 
ATOM     41  C   UNL A   1      43.689  34.886  27.646  1.00  0.00     0.010 A 
ATOM     42  C   UNL A   1      43.477  34.577  28.988  1.00  0.00    -0.014 A 
BRANCH  42  43
ATOM     43  C   UNL A   1      42.663  33.419  29.426  1.00  0.00     0.031 A 
ATOM     44  C   UNL A   1      41.361  33.849  29.996  1.00  0.00     0.074 A 
ATOM     45  C   UNL A   1      42.859  32.094  29.231  1.00  0.00     0.049 A 
ATOM     46  N   UNL A   1      40.927  33.774  31.212  1.00  0.00    -0.248 NA
ATOM     47  C   UNL A   1      40.505  34.619  29.082  1.00  0.00     0.031 C 
ATOM     48  C   UNL A   1      43.812  31.475  28.312  1.00  0.00     0.029 A 
ATOM     49  N   UNL A   1      42.228  31.010  29.804  1.00  0.00    -0.354 N 
ATOM     50  C   UNL A   1      39.640  34.309  31.161  1.00  0.00     0.074 A 
ATOM     51  C   UNL A   1      39.530  34.998  29.902  1.00  0.00     0.031 C 
ATOM     52  C   UNL A   1      43.647  30.137  28.318  1.00  0.00     0.029 A 
ATOM     53  C   UNL A   1      42.571  29.787  29.233  1.00  0.00     0.049 A 
ATOM     54  H   UNL A   1      41.592  31.093  30.550  1.00  0.00     0.167 HD
ATOM     55  C   UNL A   1      38.657  33.927  32.022  1.00  0.00     0.034 A 
ATOM     56  C   UNL A   1      41.966  28.576  29.376  1.00  0.00     0.034 A 
ATOM     57  C   UNL A   1      39.187  33.302  33.200  1.00  0.00     0.049 A 
ATOM     58  C   UNL A   1      41.036  28.607  30.525  1.00  0.00     0.074 A 
ATOM     59  C   UNL A   1      40.028  33.696  34.219  1.00  0.00     0.029 A 
ATOM     60  N   UNL A   1      39.088  31.938  33.291  1.00  0.00    -0.354 N 
ATOM     61  N   UNL A   1      41.377  28.585  31.781  1.00  0.00    -0.248 NA
ATOM     62  C   UNL A   1      39.677  29.050  30.261  1.00  0.00     0.031 C 
ATOM     63  C   UNL A   1      40.727  32.520  34.603  1.00  0.00     0.029 A 
ATOM     64  C   UNL A   1      40.248  31.456  33.835  1.00  0.00     0.049 A 
ATOM     65  H   UNL A   1      38.314  31.397  33.012  1.00  0.00     0.167 HD
ATOM     66  C   UNL A   1      40.479  29.441  32.400  1.00  0.00     0.074 A 
ATOM     67  C   UNL A   1      39.389  29.596  31.442  1.00  0.00     0.031 C 
ATOM     68  C   UNL A   1      40.831  30.166  33.504  1.00  0.00     0.034 A 
BRANCH  55  69
ATOM     69  C   UNL A   1      37.211  33.798  31.599  1.00  0.00     0.023 A 
ATOM     70  C   UNL A   1      36.199  34.653  32.082  1.00  0.00     0.031 A 
ATOM     71  C   UNL A   1      36.842  32.969  30.524  1.00  0.00     0.131 A 
ATOM     72  C   UNL A   1      34.904  34.645  31.559  1.00  0.00     0.055 A 
ATOM     73  C   UNL A   1      35.567  33.015  29.942  1.00  0.00     0.041 A 
ATOM     74  F   UNL A   1      37.730  32.133  29.964  1.00  0.00    -0.206 F 
ATOM     75  C   UNL A   1      34.586  33.853  30.464  1.00  0.00     0.022 A 
BRANCH  72  76
ATOM     76  S   UNL A   1      33.616  35.681  32.307  1.00  0.00     0.124 S 
ATOM     77  O   UNL A   1      32.718  34.681  32.872  1.00  0.00    -0.237 OA
ATOM     78  O   UNL A   1      34.389  36.459  33.272  1.00  0.00    -0.237 OA
ATOM     79  O   UNL A   1      33.093  36.444  31.178  1.00  0.00    -0.744 OA
ENDBRANCH  72  76
ENDBRANCH  55  69
BRANCH  56  80
ATOM     80  C   UNL A   1      41.828  27.560  28.298  1.00  0.00     0.023 A 
ATOM     81  C   UNL A   1      42.653  26.421  28.328  1.00  0.00     0.031 A 
ATOM     82  C   UNL A   1      41.103  27.779  27.115  1.00  0.00     0.131 A 
ATOM     83  C   UNL A   1      42.741  25.547  27.244  1.00  0.00     0.055 A 
ATOM     84  C   UNL A   1      41.195  26.907  26.016  1.00  0.00     0.041 A 
ATOM     85  F   UNL A   1      40.333  28.870  26.975  1.00  0.00    -0.206 F 
ATOM     86  C   UNL A   1      42.018  25.781  26.078  1.00  0.00     0.022 A 
BRANCH  83  87
ATOM     87  S   UNL A   1      43.836  24.109  27.363  1.00  0.00     0.124 S 
ATOM     88  O   UNL A   1      42.918  22.993  27.157  1.00  0.00    -0.237 OA
ATOM     89  O   UNL A   1      44.777  24.364  26.280  1.00  0.00    -0.237 OA
ATOM     90  O   UNL A   1      44.381  24.211  28.716  1.00  0.00    -0.744 OA
ENDBRANCH  83  87
ENDBRANCH  56  80
BRANCH  68  91
ATOM     91  C   UNL A   1      42.070  29.779  34.286  1.00  0.00     0.023 A 
ATOM     92  C   UNL A   1      43.319  30.106  33.725  1.00  0.00     0.031 A 
ATOM     93  C   UNL A   1      42.071  28.939  35.411  1.00  0.00     0.131 A 
ATOM     94  C   UNL A   1      44.498  29.555  34.241  1.00  0.00     0.055 A 
ATOM     95  C   UNL A   1      43.256  28.443  35.967  1.00  0.00     0.041 A 
ATOM     96  F   UNL A   1      40.926  28.507  35.954  1.00  0.00    -0.206 F 
ATOM     97  C   UNL A   1      44.477  28.731  35.369  1.00  0.00     0.022 A 
BRANCH  94  98
ATOM     98  S   UNL A   1      46.071  29.776  33.372  1.00  0.00     0.124 S 
ATOM     99  O   UNL A   1      46.761  30.739  34.226  1.00  0.00    -0.237 OA
ATOM    100  O   UNL A   1      46.622  28.424  33.379  1.00  0.00    -0.237 OA
ATOM    101  O   UNL A   1      45.681  30.277  32.057  1.00  0.00    -0.744 OA
ENDBRANCH  94  98
ENDBRANCH  68  91
ENDBRANCH  42  43
ENDBRANCH  35  37
ENDBRANCH  34  35
ENDBRANCH  33  34
ENDBRANCH  32  33
ENDBRANCH  31  32
ENDBRANCH   1  31
TORSDOF 21
ENDMDL
