MODEL 1
REMARK VINA RESULT:     -11.6      0.000      0.000
REMARK SMILES O=C(OCCOCCOC(=O)c1cc(-c2cc(Cl)ccc2Cl)cc([N+](=O)[O-])c1)c1ccc(-c2c3nc(c(-c4cc(S(=O)(=O)[O-])ccc4F)c4ccc([nH]4)c(-c4cc(S(=O)(=O)[O-])ccc4F)c4nc(c(-c5cc(S(=O)(=O)[O-])ccc5F)c5ccc2[nH]5)C=C4)C=C3)cc1
REMARK SMILES IDX 5 1 4 2 3 3 2 4 1 5 29 6 30 7 91 8 31 9 90 10 32 11 33 12
REMARK SMILES IDX 34 13 84 14 35 15 89 16 83 17 85 18 36 19 88 20 82 21 81 22
REMARK SMILES IDX 37 24 69 25 49 26 68 27 50 28 53 29 67 30 86 31 51 32 52 33
REMARK SMILES IDX 66 35 87 36 54 37 38 38 39 39 47 40 40 41 46 42 48 43 45 44
REMARK SMILES IDX 41 45 42 46 43 47 44 48 70 49 71 50 79 51 72 52 78 53 80 54
REMARK SMILES IDX 77 55 73 56 74 57 75 58 76 59 55 60 56 61 64 62 57 63 63 64
REMARK SMILES IDX 65 65 62 66 58 67 59 68 60 69 61 70 6 71 7 72 8 73 9 74
REMARK SMILES IDX 10 75 11 76 12 77 13 78 28 79 14 80 24 81 23 82 15 83 16 84
REMARK SMILES IDX 21 85 17 86 20 87 22 88 18 89 19 90 25 91 26 92 27 93
REMARK H PARENT 85 23 53 34
REMARK Flexibility Score: inf
ROOT
ATOM      1  C   UNL A   1      31.243  32.092  26.602  1.00  0.00     0.202 C 
ENDROOT
BRANCH   1   2
ATOM      2  C   UNL A   1      32.633  32.684  26.871  1.00  0.00     0.261 C 
BRANCH   2   3
ATOM      3  O   UNL A   1      32.526  33.856  27.696  1.00  0.00    -0.460 OA
BRANCH   3   4
ATOM      4  C   UNL A   1      33.351  34.248  28.697  1.00  0.00     0.338 C 
ATOM      5  O   UNL A   1      33.094  35.293  29.295  1.00  0.00    -0.246 OA
BRANCH   4   6
ATOM      6  C   UNL A   1      34.555  33.474  29.122  1.00  0.00     0.060 A 
ATOM      7  C   UNL A   1      34.517  32.310  29.889  1.00  0.00     0.016 A 
ATOM      8  C   UNL A   1      35.804  33.913  28.655  1.00  0.00     0.016 A 
ATOM      9  C   UNL A   1      35.668  31.648  30.266  1.00  0.00     0.010 A 
ATOM     10  C   UNL A   1      36.975  33.225  28.992  1.00  0.00     0.010 A 
ATOM     11  C   UNL A   1      36.903  32.104  29.826  1.00  0.00    -0.014 A 
BRANCH  11  12
ATOM     12  C   UNL A   1      38.085  31.461  30.422  1.00  0.00     0.031 A 
ATOM     13  C   UNL A   1      38.381  31.750  31.861  1.00  0.00     0.074 A 
ATOM     14  C   UNL A   1      38.720  30.491  29.739  1.00  0.00     0.049 A 
ATOM     15  N   UNL A   1      39.335  31.291  32.620  1.00  0.00    -0.248 NA
ATOM     16  C   UNL A   1      37.457  32.674  32.542  1.00  0.00     0.031 C 
ATOM     17  C   UNL A   1      38.361  30.044  28.388  1.00  0.00     0.029 A 
ATOM     18  N   UNL A   1      39.751  29.669  30.098  1.00  0.00    -0.354 N 
ATOM     19  C   UNL A   1      39.148  31.893  33.860  1.00  0.00     0.074 A 
ATOM     20  C   UNL A   1      37.996  32.758  33.746  1.00  0.00     0.031 C 
ATOM     21  C   UNL A   1      39.138  29.002  28.052  1.00  0.00     0.029 A 
ATOM     22  C   UNL A   1      40.098  28.764  29.122  1.00  0.00     0.049 A 
ATOM     23  H   UNL A   1      40.201  29.720  30.972  1.00  0.00     0.167 HD
ATOM     24  C   UNL A   1      39.890  31.737  34.981  1.00  0.00     0.034 A 
ATOM     25  C   UNL A   1      41.106  27.872  29.097  1.00  0.00     0.034 A 
ATOM     26  C   UNL A   1      41.037  30.865  35.031  1.00  0.00     0.049 A 
ATOM     27  C   UNL A   1      41.992  27.805  30.317  1.00  0.00     0.074 A 
ATOM     28  C   UNL A   1      41.935  30.669  36.062  1.00  0.00     0.029 A 
ATOM     29  N   UNL A   1      41.441  30.038  33.985  1.00  0.00    -0.354 N 
ATOM     30  N   UNL A   1      41.880  28.456  31.455  1.00  0.00    -0.248 NA
ATOM     31  C   UNL A   1      43.137  26.894  30.250  1.00  0.00     0.031 C 
ATOM     32  C   UNL A   1      42.921  29.782  35.613  1.00  0.00     0.029 A 
ATOM     33  C   UNL A   1      42.590  29.352  34.336  1.00  0.00     0.049 A 
ATOM     34  H   UNL A   1      40.977  29.954  33.122  1.00  0.00     0.167 HD
ATOM     35  C   UNL A   1      42.927  28.008  32.253  1.00  0.00     0.074 A 
ATOM     36  C   UNL A   1      43.642  27.018  31.469  1.00  0.00     0.031 C 
ATOM     37  C   UNL A   1      43.270  28.372  33.518  1.00  0.00     0.034 A 
BRANCH  24  38
ATOM     38  C   UNL A   1      39.545  32.620  36.156  1.00  0.00     0.023 A 
ATOM     39  C   UNL A   1      38.762  32.167  37.234  1.00  0.00     0.031 A 
ATOM     40  C   UNL A   1      39.904  33.980  36.133  1.00  0.00     0.131 A 
ATOM     41  C   UNL A   1      38.285  33.082  38.187  1.00  0.00     0.055 A 
ATOM     42  C   UNL A   1      39.502  34.867  37.133  1.00  0.00     0.041 A 
ATOM     43  F   UNL A   1      40.617  34.481  35.113  1.00  0.00    -0.206 F 
ATOM     44  C   UNL A   1      38.672  34.424  38.158  1.00  0.00     0.022 A 
BRANCH  41  45
ATOM     45  S   UNL A   1      37.004  32.537  39.352  1.00  0.00     0.124 S 
ATOM     46  O   UNL A   1      37.394  31.150  39.591  1.00  0.00    -0.237 OA
ATOM     47  O   UNL A   1      37.185  33.454  40.472  1.00  0.00    -0.237 OA
ATOM     48  O   UNL A   1      35.761  32.707  38.601  1.00  0.00    -0.744 OA
ENDBRANCH  41  45
ENDBRANCH  24  38
BRANCH  25  49
ATOM     49  C   UNL A   1      41.373  27.040  27.885  1.00  0.00     0.023 A 
ATOM     50  C   UNL A   1      41.092  25.665  27.862  1.00  0.00     0.031 A 
ATOM     51  C   UNL A   1      41.973  27.603  26.742  1.00  0.00     0.131 A 
ATOM     52  C   UNL A   1      41.453  24.893  26.744  1.00  0.00     0.055 A 
ATOM     53  C   UNL A   1      42.273  26.844  25.609  1.00  0.00     0.041 A 
ATOM     54  F   UNL A   1      42.275  28.911  26.705  1.00  0.00    -0.206 F 
ATOM     55  C   UNL A   1      42.027  25.476  25.612  1.00  0.00     0.022 A 
BRANCH  52  56
ATOM     56  S   UNL A   1      41.258  23.091  26.828  1.00  0.00     0.124 S 
ATOM     57  O   UNL A   1      41.986  22.770  28.050  1.00  0.00    -0.237 OA
ATOM     58  O   UNL A   1      39.807  22.947  26.890  1.00  0.00    -0.237 OA
ATOM     59  O   UNL A   1      41.877  22.623  25.590  1.00  0.00    -0.744 OA
ENDBRANCH  52  56
ENDBRANCH  25  49
BRANCH  37  60
ATOM     60  C   UNL A   1      44.433  27.638  34.134  1.00  0.00     0.023 A 
ATOM     61  C   UNL A   1      44.264  26.426  34.823  1.00  0.00     0.031 A 
ATOM     62  C   UNL A   1      45.728  28.176  34.039  1.00  0.00     0.131 A 
ATOM     63  C   UNL A   1      45.362  25.828  35.455  1.00  0.00     0.055 A 
ATOM     64  C   UNL A   1      46.830  27.538  34.606  1.00  0.00     0.041 A 
ATOM     65  F   UNL A   1      45.942  29.334  33.393  1.00  0.00    -0.206 F 
ATOM     66  C   UNL A   1      46.647  26.365  35.333  1.00  0.00     0.022 A 
BRANCH  63  67
ATOM     67  S   UNL A   1      45.069  24.407  36.540  1.00  0.00     0.124 S 
ATOM     68  O   UNL A   1      46.429  23.973  36.845  1.00  0.00    -0.237 OA
ATOM     69  O   UNL A   1      44.329  25.006  37.645  1.00  0.00    -0.237 OA
ATOM     70  O   UNL A   1      44.299  23.490  35.703  1.00  0.00    -0.744 OA
ENDBRANCH  63  67
ENDBRANCH  37  60
ENDBRANCH  11  12
ENDBRANCH   4   6
ENDBRANCH   3   4
ENDBRANCH   2   3
ENDBRANCH   1   2
BRANCH   1  71
ATOM     71  O   UNL A   1      31.217  30.986  25.700  1.00  0.00    -0.374 OA
BRANCH  71  72
ATOM     72  C   UNL A   1      32.348  30.109  25.739  1.00  0.00     0.202 C 
BRANCH  72  73
ATOM     73  C   UNL A   1      32.199  29.125  26.900  1.00  0.00     0.261 C 
BRANCH  73  74
ATOM     74  O   UNL A   1      33.030  27.982  26.635  1.00  0.00    -0.460 OA
BRANCH  74  75
ATOM     75  C   UNL A   1      32.353  26.813  26.506  1.00  0.00     0.338 C 
ATOM     76  O   UNL A   1      31.349  26.454  27.095  1.00  0.00    -0.246 OA
BRANCH  75  77
ATOM     77  C   UNL A   1      32.920  26.099  25.346  1.00  0.00     0.067 A 
ATOM     78  C   UNL A   1      33.372  24.784  25.529  1.00  0.00     0.025 A 
ATOM     79  C   UNL A   1      32.968  26.700  24.089  1.00  0.00     0.101 A 
ATOM     80  C   UNL A   1      33.841  24.028  24.445  1.00  0.00    -0.009 A 
ATOM     81  C   UNL A   1      33.468  25.964  23.014  1.00  0.00     0.270 A 
ATOM     82  C   UNL A   1      33.879  24.630  23.177  1.00  0.00     0.094 A 
BRANCH  80  83
ATOM     83  C   UNL A   1      34.343  22.662  24.653  1.00  0.00     0.002 A 
ATOM     84  C   UNL A   1      35.728  22.420  24.733  1.00  0.00     0.030 A 
ATOM     85  C   UNL A   1      33.470  21.559  24.758  1.00  0.00     0.048 A 
ATOM     86  C   UNL A   1      36.215  21.122  24.908  1.00  0.00     0.041 A 
ATOM     87  C   UNL A   1      33.965  20.263  24.929  1.00  0.00     0.023 A 
ATOM     88  Cl  UNL A   1      31.751  21.752  24.676  1.00  0.00    -0.084 Cl
ATOM     89  Cl  UNL A   1      37.910  20.851  25.015  1.00  0.00    -0.084 Cl
ATOM     90  C   UNL A   1      35.339  20.042  25.002  1.00  0.00     0.022 A 
ENDBRANCH  80  83
BRANCH  81  91
ATOM     91  N   UNL A   1      33.599  26.609  21.703  1.00  0.00     0.062 N 
ATOM     92  O   UNL A   1      34.017  27.776  21.673  1.00  0.00    -0.258 OA
ATOM     93  O   UNL A   1      33.277  25.953  20.702  1.00  0.00    -0.258 OA
ENDBRANCH  81  91
ENDBRANCH  75  77
ENDBRANCH  74  75
ENDBRANCH  73  74
ENDBRANCH  72  73
ENDBRANCH  71  72
ENDBRANCH   1  71
TORSDOF 19
ENDMDL
MODEL 2
REMARK VINA RESULT:     -11.5      5.361      8.545
REMARK SMILES O=C(OCCOCCOC(=O)c1cc(-c2cc(Cl)ccc2Cl)cc([N+](=O)[O-])c1)c1ccc(-c2c3nc(c(-c4cc(S(=O)(=O)[O-])ccc4F)c4ccc([nH]4)c(-c4cc(S(=O)(=O)[O-])ccc4F)c4nc(c(-c5cc(S(=O)(=O)[O-])ccc5F)c5ccc2[nH]5)C=C4)C=C3)cc1
REMARK SMILES IDX 5 1 4 2 3 3 2 4 1 5 29 6 30 7 91 8 31 9 90 10 32 11 33 12
REMARK SMILES IDX 34 13 84 14 35 15 89 16 83 17 85 18 36 19 88 20 82 21 81 22
REMARK SMILES IDX 37 24 69 25 49 26 68 27 50 28 53 29 67 30 86 31 51 32 52 33
REMARK SMILES IDX 66 35 87 36 54 37 38 38 39 39 47 40 40 41 46 42 48 43 45 44
REMARK SMILES IDX 41 45 42 46 43 47 44 48 70 49 71 50 79 51 72 52 78 53 80 54
REMARK SMILES IDX 77 55 73 56 74 57 75 58 76 59 55 60 56 61 64 62 57 63 63 64
REMARK SMILES IDX 65 65 62 66 58 67 59 68 60 69 61 70 6 71 7 72 8 73 9 74
REMARK SMILES IDX 10 75 11 76 12 77 13 78 28 79 14 80 24 81 23 82 15 83 16 84
REMARK SMILES IDX 21 85 17 86 20 87 22 88 18 89 19 90 25 91 26 92 27 93
REMARK H PARENT 85 23 53 34
REMARK Flexibility Score: inf
ROOT
ATOM      1  C   UNL A   1      34.926  20.981  24.958  1.00  0.00     0.202 C 
ENDROOT
BRANCH   1   2
ATOM      2  C   UNL A   1      36.381  20.500  24.912  1.00  0.00     0.261 C 
BRANCH   2   3
ATOM      3  O   UNL A   1      37.161  21.167  25.918  1.00  0.00    -0.460 OA
BRANCH   3   4
ATOM      4  C   UNL A   1      38.503  21.351  25.947  1.00  0.00     0.338 C 
ATOM      5  O   UNL A   1      39.231  20.426  25.590  1.00  0.00    -0.246 OA
BRANCH   4   6
ATOM      6  C   UNL A   1      39.149  22.626  26.382  1.00  0.00     0.060 A 
ATOM      7  C   UNL A   1      38.662  23.899  26.090  1.00  0.00     0.016 A 
ATOM      8  C   UNL A   1      40.285  22.528  27.202  1.00  0.00     0.016 A 
ATOM      9  C   UNL A   1      39.315  25.042  26.505  1.00  0.00     0.010 A 
ATOM     10  C   UNL A   1      40.930  23.679  27.668  1.00  0.00     0.010 A 
ATOM     11  C   UNL A   1      40.456  24.940  27.290  1.00  0.00    -0.014 A 
BRANCH  11  12
ATOM     12  C   UNL A   1      41.195  26.189  27.531  1.00  0.00     0.031 A 
ATOM     13  C   UNL A   1      40.595  27.177  28.484  1.00  0.00     0.074 A 
ATOM     14  C   UNL A   1      42.454  26.307  27.072  1.00  0.00     0.049 A 
ATOM     15  N   UNL A   1      41.057  28.328  28.884  1.00  0.00    -0.248 NA
ATOM     16  C   UNL A   1      39.302  26.802  29.080  1.00  0.00     0.031 C 
ATOM     17  C   UNL A   1      43.156  25.292  26.279  1.00  0.00     0.029 A 
ATOM     18  N   UNL A   1      43.384  27.292  27.249  1.00  0.00    -0.354 N 
ATOM     19  C   UNL A   1      40.096  28.832  29.754  1.00  0.00     0.074 A 
ATOM     20  C   UNL A   1      39.023  27.866  29.814  1.00  0.00     0.031 C 
ATOM     21  C   UNL A   1      44.420  25.695  26.073  1.00  0.00     0.029 A 
ATOM     22  C   UNL A   1      44.590  27.025  26.644  1.00  0.00     0.049 A 
ATOM     23  H   UNL A   1      43.208  28.114  27.761  1.00  0.00     0.167 HD
ATOM     24  C   UNL A   1      40.118  30.006  30.427  1.00  0.00     0.034 A 
ATOM     25  C   UNL A   1      45.689  27.796  26.540  1.00  0.00     0.034 A 
ATOM     26  C   UNL A   1      41.214  30.936  30.320  1.00  0.00     0.049 A 
ATOM     27  C   UNL A   1      45.640  29.152  27.200  1.00  0.00     0.074 A 
ATOM     28  C   UNL A   1      41.341  32.198  30.868  1.00  0.00     0.029 A 
ATOM     29  N   UNL A   1      42.384  30.692  29.604  1.00  0.00    -0.354 N 
ATOM     30  N   UNL A   1      44.684  29.677  27.936  1.00  0.00    -0.248 NA
ATOM     31  C   UNL A   1      46.804  30.019  27.012  1.00  0.00     0.031 C 
ATOM     32  C   UNL A   1      42.551  32.743  30.422  1.00  0.00     0.029 A 
ATOM     33  C   UNL A   1      43.224  31.789  29.673  1.00  0.00     0.049 A 
ATOM     34  H   UNL A   1      42.584  29.859  29.118  1.00  0.00     0.167 HD
ATOM     35  C   UNL A   1      45.149  30.928  28.327  1.00  0.00     0.074 A 
ATOM     36  C   UNL A   1      46.477  31.064  27.757  1.00  0.00     0.031 C 
ATOM     37  C   UNL A   1      44.543  31.879  29.087  1.00  0.00     0.034 A 
BRANCH  24  38
ATOM     38  C   UNL A   1      38.875  30.370  31.204  1.00  0.00     0.023 A 
ATOM     39  C   UNL A   1      37.820  31.107  30.635  1.00  0.00     0.031 A 
ATOM     40  C   UNL A   1      38.803  30.078  32.578  1.00  0.00     0.131 A 
ATOM     41  C   UNL A   1      36.794  31.607  31.453  1.00  0.00     0.055 A 
ATOM     42  C   UNL A   1      37.734  30.501  33.369  1.00  0.00     0.041 A 
ATOM     43  F   UNL A   1      39.797  29.411  33.187  1.00  0.00    -0.206 F 
ATOM     44  C   UNL A   1      36.730  31.287  32.812  1.00  0.00     0.022 A 
BRANCH  41  45
ATOM     45  S   UNL A   1      35.650  32.837  30.762  1.00  0.00     0.124 S 
ATOM     46  O   UNL A   1      36.254  34.088  31.216  1.00  0.00    -0.237 OA
ATOM     47  O   UNL A   1      35.730  32.572  29.330  1.00  0.00    -0.237 OA
ATOM     48  O   UNL A   1      34.371  32.507  31.388  1.00  0.00    -0.744 OA
ENDBRANCH  41  45
ENDBRANCH  24  38
BRANCH  25  49
ATOM     49  C   UNL A   1      46.874  27.351  25.746  1.00  0.00     0.023 A 
ATOM     50  C   UNL A   1      47.088  27.797  24.433  1.00  0.00     0.031 A 
ATOM     51  C   UNL A   1      47.787  26.417  26.275  1.00  0.00     0.131 A 
ATOM     52  C   UNL A   1      48.154  27.277  23.679  1.00  0.00     0.055 A 
ATOM     53  C   UNL A   1      48.880  25.950  25.544  1.00  0.00     0.041 A 
ATOM     54  F   UNL A   1      47.633  25.943  27.521  1.00  0.00    -0.206 F 
ATOM     55  C   UNL A   1      49.060  26.369  24.230  1.00  0.00     0.022 A 
BRANCH  52  56
ATOM     56  S   UNL A   1      48.283  27.726  21.926  1.00  0.00     0.124 S 
ATOM     57  O   UNL A   1      48.432  26.420  21.294  1.00  0.00    -0.237 OA
ATOM     58  O   UNL A   1      47.014  28.409  21.695  1.00  0.00    -0.237 OA
ATOM     59  O   UNL A   1      49.466  28.582  21.878  1.00  0.00    -0.744 OA
ENDBRANCH  52  56
ENDBRANCH  25  49
BRANCH  37  60
ATOM     60  C   UNL A   1      45.354  33.113  29.386  1.00  0.00     0.023 A 
ATOM     61  C   UNL A   1      45.390  34.209  28.508  1.00  0.00     0.031 A 
ATOM     62  C   UNL A   1      46.115  33.180  30.567  1.00  0.00     0.131 A 
ATOM     63  C   UNL A   1      46.228  35.296  28.788  1.00  0.00     0.055 A 
ATOM     64  C   UNL A   1      46.889  34.297  30.877  1.00  0.00     0.041 A 
ATOM     65  F   UNL A   1      46.117  32.158  31.438  1.00  0.00    -0.206 F 
ATOM     66  C   UNL A   1      46.961  35.356  29.976  1.00  0.00     0.022 A 
BRANCH  63  67
ATOM     67  S   UNL A   1      46.442  36.574  27.521  1.00  0.00     0.124 S 
ATOM     68  O   UNL A   1      45.346  36.276  26.603  1.00  0.00    -0.237 OA
ATOM     69  O   UNL A   1      46.308  37.804  28.293  1.00  0.00    -0.237 OA
ATOM     70  O   UNL A   1      47.779  36.313  26.994  1.00  0.00    -0.744 OA
ENDBRANCH  63  67
ENDBRANCH  37  60
ENDBRANCH  11  12
ENDBRANCH   4   6
ENDBRANCH   3   4
ENDBRANCH   2   3
ENDBRANCH   1   2
BRANCH   1  71
ATOM     71  O   UNL A   1      34.711  22.317  24.501  1.00  0.00    -0.374 OA
BRANCH  71  72
ATOM     72  C   UNL A   1      33.677  22.495  23.527  1.00  0.00     0.202 C 
BRANCH  72  73
ATOM     73  C   UNL A   1      33.055  23.884  23.683  1.00  0.00     0.261 C 
BRANCH  73  74
ATOM     74  O   UNL A   1      34.064  24.867  23.396  1.00  0.00    -0.460 OA
BRANCH  74  75
ATOM     75  C   UNL A   1      33.651  25.877  22.589  1.00  0.00     0.338 C 
ATOM     76  O   UNL A   1      33.625  25.909  21.373  1.00  0.00    -0.246 OA
BRANCH  75  77
ATOM     77  C   UNL A   1      33.014  26.895  23.448  1.00  0.00     0.067 A 
ATOM     78  C   UNL A   1      31.795  27.448  23.031  1.00  0.00     0.025 A 
ATOM     79  C   UNL A   1      33.586  27.265  24.664  1.00  0.00     0.101 A 
ATOM     80  C   UNL A   1      31.101  28.355  23.847  1.00  0.00    -0.009 A 
ATOM     81  C   UNL A   1      32.917  28.195  25.462  1.00  0.00     0.270 A 
ATOM     82  C   UNL A   1      31.673  28.720  25.075  1.00  0.00     0.094 A 
BRANCH  80  83
ATOM     83  C   UNL A   1      29.840  28.955  23.386  1.00  0.00     0.002 A 
ATOM     84  C   UNL A   1      29.802  30.305  22.988  1.00  0.00     0.030 A 
ATOM     85  C   UNL A   1      28.639  28.217  23.346  1.00  0.00     0.048 A 
ATOM     86  C   UNL A   1      28.603  30.890  22.569  1.00  0.00     0.041 A 
ATOM     87  C   UNL A   1      27.443  28.811  22.931  1.00  0.00     0.023 A 
ATOM     88  Cl  UNL A   1      28.582  26.550  23.812  1.00  0.00    -0.084 Cl
ATOM     89  Cl  UNL A   1      28.582  32.537  22.076  1.00  0.00    -0.084 Cl
ATOM     90  C   UNL A   1      27.424  30.150  22.543  1.00  0.00     0.022 A 
ENDBRANCH  80  83
BRANCH  81  91
ATOM     91  N   UNL A   1      33.545  28.655  26.705  1.00  0.00     0.062 N 
ATOM     92  O   UNL A   1      32.806  29.094  27.598  1.00  0.00    -0.258 OA
ATOM     93  O   UNL A   1      34.780  28.585  26.788  1.00  0.00    -0.258 OA
ENDBRANCH  81  91
ENDBRANCH  75  77
ENDBRANCH  74  75
ENDBRANCH  73  74
ENDBRANCH  72  73
ENDBRANCH  71  72
ENDBRANCH   1  71
TORSDOF 19
ENDMDL
MODEL 3
REMARK VINA RESULT:     -11.5      2.042      3.399
REMARK SMILES O=C(OCCOCCOC(=O)c1cc(-c2cc(Cl)ccc2Cl)cc([N+](=O)[O-])c1)c1ccc(-c2c3nc(c(-c4cc(S(=O)(=O)[O-])ccc4F)c4ccc([nH]4)c(-c4cc(S(=O)(=O)[O-])ccc4F)c4nc(c(-c5cc(S(=O)(=O)[O-])ccc5F)c5ccc2[nH]5)C=C4)C=C3)cc1
REMARK SMILES IDX 5 1 4 2 3 3 2 4 1 5 29 6 30 7 91 8 31 9 90 10 32 11 33 12
REMARK SMILES IDX 34 13 84 14 35 15 89 16 83 17 85 18 36 19 88 20 82 21 81 22
REMARK SMILES IDX 37 24 69 25 49 26 68 27 50 28 53 29 67 30 86 31 51 32 52 33
REMARK SMILES IDX 66 35 87 36 54 37 38 38 39 39 47 40 40 41 46 42 48 43 45 44
REMARK SMILES IDX 41 45 42 46 43 47 44 48 70 49 71 50 79 51 72 52 78 53 80 54
REMARK SMILES IDX 77 55 73 56 74 57 75 58 76 59 55 60 56 61 64 62 57 63 63 64
REMARK SMILES IDX 65 65 62 66 58 67 59 68 60 69 61 70 6 71 7 72 8 73 9 74
REMARK SMILES IDX 10 75 11 76 12 77 13 78 28 79 14 80 24 81 23 82 15 83 16 84
REMARK SMILES IDX 21 85 17 86 20 87 22 88 18 89 19 90 25 91 26 92 27 93
REMARK H PARENT 85 23 53 34
REMARK Flexibility Score: inf
ROOT
ATOM      1  C   UNL A   1      33.140  31.920  27.611  1.00  0.00     0.202 C 
ENDROOT
BRANCH   1   2
ATOM      2  C   UNL A   1      32.630  33.315  27.229  1.00  0.00     0.261 C 
BRANCH   2   3
ATOM      3  O   UNL A   1      32.496  34.137  28.400  1.00  0.00    -0.460 OA
BRANCH   3   4
ATOM      4  C   UNL A   1      33.476  34.578  29.226  1.00  0.00     0.338 C 
ATOM      5  O   UNL A   1      33.384  35.712  29.693  1.00  0.00    -0.246 OA
BRANCH   4   6
ATOM      6  C   UNL A   1      34.662  33.755  29.607  1.00  0.00     0.060 A 
ATOM      7  C   UNL A   1      34.614  32.633  30.434  1.00  0.00     0.016 A 
ATOM      8  C   UNL A   1      35.898  34.096  29.033  1.00  0.00     0.016 A 
ATOM      9  C   UNL A   1      35.750  31.924  30.766  1.00  0.00     0.010 A 
ATOM     10  C   UNL A   1      37.049  33.357  29.324  1.00  0.00     0.010 A 
ATOM     11  C   UNL A   1      36.975  32.284  30.219  1.00  0.00    -0.014 A 
BRANCH  11  12
ATOM     12  C   UNL A   1      38.159  31.601  30.766  1.00  0.00     0.031 A 
ATOM     13  C   UNL A   1      38.498  31.845  32.204  1.00  0.00     0.074 A 
ATOM     14  C   UNL A   1      38.755  30.638  30.040  1.00  0.00     0.049 A 
ATOM     15  N   UNL A   1      39.462  31.346  32.924  1.00  0.00    -0.248 NA
ATOM     16  C   UNL A   1      37.611  32.768  32.933  1.00  0.00     0.031 C 
ATOM     17  C   UNL A   1      38.352  30.236  28.687  1.00  0.00     0.029 A 
ATOM     18  N   UNL A   1      39.778  29.786  30.349  1.00  0.00    -0.354 N 
ATOM     19  C   UNL A   1      39.321  31.918  34.183  1.00  0.00     0.074 A 
ATOM     20  C   UNL A   1      38.184  32.809  34.124  1.00  0.00     0.031 C 
ATOM     21  C   UNL A   1      39.098  29.188  28.302  1.00  0.00     0.029 A 
ATOM     22  C   UNL A   1      40.081  28.902  29.340  1.00  0.00     0.049 A 
ATOM     23  H   UNL A   1      40.252  29.804  31.211  1.00  0.00     0.167 HD
ATOM     24  C   UNL A   1      40.089  31.717  35.280  1.00  0.00     0.034 A 
ATOM     25  C   UNL A   1      41.069  27.991  29.264  1.00  0.00     0.034 A 
ATOM     26  C   UNL A   1      41.218  30.821  35.276  1.00  0.00     0.049 A 
ATOM     27  C   UNL A   1      41.985  27.873  30.456  1.00  0.00     0.074 A 
ATOM     28  C   UNL A   1      42.139  30.579  36.276  1.00  0.00     0.029 A 
ATOM     29  N   UNL A   1      41.578  30.015  34.198  1.00  0.00    -0.354 N 
ATOM     30  N   UNL A   1      41.917  28.495  31.614  1.00  0.00    -0.248 NA
ATOM     31  C   UNL A   1      43.109  26.942  30.335  1.00  0.00     0.031 C 
ATOM     32  C   UNL A   1      43.095  29.686  35.777  1.00  0.00     0.029 A 
ATOM     33  C   UNL A   1      42.721  29.297  34.498  1.00  0.00     0.049 A 
ATOM     34  H   UNL A   1      41.089  29.964  33.345  1.00  0.00     0.167 HD
ATOM     35  C   UNL A   1      42.975  28.004  32.372  1.00  0.00     0.074 A 
ATOM     36  C   UNL A   1      43.649  27.023  31.542  1.00  0.00     0.031 C 
ATOM     37  C   UNL A   1      43.359  28.326  33.636  1.00  0.00     0.034 A 
BRANCH  24  38
ATOM     38  C   UNL A   1      39.792  32.574  36.487  1.00  0.00     0.023 A 
ATOM     39  C   UNL A   1      38.936  32.150  37.520  1.00  0.00     0.031 A 
ATOM     40  C   UNL A   1      40.281  33.892  36.541  1.00  0.00     0.131 A 
ATOM     41  C   UNL A   1      38.519  33.062  38.503  1.00  0.00     0.055 A 
ATOM     42  C   UNL A   1      39.935  34.767  37.572  1.00  0.00     0.041 A 
ATOM     43  F   UNL A   1      41.072  34.368  35.566  1.00  0.00    -0.206 F 
ATOM     44  C   UNL A   1      39.034  34.360  38.551  1.00  0.00     0.022 A 
BRANCH  41  45
ATOM     45  S   UNL A   1      37.155  32.592  39.605  1.00  0.00     0.124 S 
ATOM     46  O   UNL A   1      37.534  31.232  39.980  1.00  0.00    -0.237 OA
ATOM     47  O   UNL A   1      37.242  33.594  40.661  1.00  0.00    -0.237 OA
ATOM     48  O   UNL A   1      35.973  32.687  38.749  1.00  0.00    -0.744 OA
ENDBRANCH  41  45
ENDBRANCH  24  38
BRANCH  25  49
ATOM     49  C   UNL A   1      41.287  27.188  28.023  1.00  0.00     0.023 A 
ATOM     50  C   UNL A   1      40.955  25.825  27.963  1.00  0.00     0.031 A 
ATOM     51  C   UNL A   1      41.891  27.763  26.888  1.00  0.00     0.131 A 
ATOM     52  C   UNL A   1      41.270  25.075  26.816  1.00  0.00     0.055 A 
ATOM     53  C   UNL A   1      42.145  27.029  25.728  1.00  0.00     0.041 A 
ATOM     54  F   UNL A   1      42.241  29.059  26.885  1.00  0.00    -0.206 F 
ATOM     55  C   UNL A   1      41.848  25.671  25.693  1.00  0.00     0.022 A 
BRANCH  52  56
ATOM     56  S   UNL A   1      41.008  23.280  26.849  1.00  0.00     0.124 S 
ATOM     57  O   UNL A   1      41.866  22.834  25.757  1.00  0.00    -0.237 OA
ATOM     58  O   UNL A   1      41.452  22.935  28.196  1.00  0.00    -0.237 OA
ATOM     59  O   UNL A   1      39.572  23.141  26.613  1.00  0.00    -0.744 OA
ENDBRANCH  52  56
ENDBRANCH  25  49
BRANCH  37  60
ATOM     60  C   UNL A   1      44.522  27.553  34.201  1.00  0.00     0.023 A 
ATOM     61  C   UNL A   1      44.339  26.378  34.948  1.00  0.00     0.031 A 
ATOM     62  C   UNL A   1      45.834  28.016  33.998  1.00  0.00     0.131 A 
ATOM     63  C   UNL A   1      45.446  25.744  35.527  1.00  0.00     0.055 A 
ATOM     64  C   UNL A   1      46.937  27.339  34.513  1.00  0.00     0.041 A 
ATOM     65  F   UNL A   1      46.062  29.137  33.292  1.00  0.00    -0.206 F 
ATOM     66  C   UNL A   1      46.745  26.205  35.297  1.00  0.00     0.022 A 
BRANCH  63  67
ATOM     67  S   UNL A   1      45.156  24.381  36.685  1.00  0.00     0.124 S 
ATOM     68  O   UNL A   1      44.722  23.312  35.791  1.00  0.00    -0.237 OA
ATOM     69  O   UNL A   1      46.469  24.206  37.295  1.00  0.00    -0.237 OA
ATOM     70  O   UNL A   1      44.121  24.902  37.575  1.00  0.00    -0.744 OA
ENDBRANCH  63  67
ENDBRANCH  37  60
ENDBRANCH  11  12
ENDBRANCH   4   6
ENDBRANCH   3   4
ENDBRANCH   2   3
ENDBRANCH   1   2
BRANCH   1  71
ATOM     71  O   UNL A   1      32.507  30.834  26.934  1.00  0.00    -0.374 OA
BRANCH  71  72
ATOM     72  C   UNL A   1      33.376  29.872  26.326  1.00  0.00     0.202 C 
BRANCH  72  73
ATOM     73  C   UNL A   1      33.442  28.615  27.194  1.00  0.00     0.261 C 
BRANCH  73  74
ATOM     74  O   UNL A   1      32.687  27.576  26.546  1.00  0.00    -0.460 OA
BRANCH  74  75
ATOM     75  C   UNL A   1      33.415  26.785  25.719  1.00  0.00     0.338 C 
ATOM     76  O   UNL A   1      34.372  26.084  25.995  1.00  0.00    -0.246 OA
BRANCH  75  77
ATOM     77  C   UNL A   1      32.713  26.737  24.422  1.00  0.00     0.067 A 
ATOM     78  C   UNL A   1      31.576  27.541  24.251  1.00  0.00     0.025 A 
ATOM     79  C   UNL A   1      33.190  25.946  23.378  1.00  0.00     0.101 A 
ATOM     80  C   UNL A   1      30.919  27.601  23.014  1.00  0.00    -0.009 A 
ATOM     81  C   UNL A   1      32.517  25.975  22.155  1.00  0.00     0.270 A 
ATOM     82  C   UNL A   1      31.406  26.812  21.959  1.00  0.00     0.094 A 
BRANCH  80  83
ATOM     83  C   UNL A   1      29.709  28.422  22.854  1.00  0.00     0.002 A 
ATOM     84  C   UNL A   1      29.794  29.704  22.278  1.00  0.00     0.030 A 
ATOM     85  C   UNL A   1      28.444  27.969  23.283  1.00  0.00     0.048 A 
ATOM     86  C   UNL A   1      28.652  30.500  22.142  1.00  0.00     0.041 A 
ATOM     87  C   UNL A   1      27.309  28.773  23.149  1.00  0.00     0.023 A 
ATOM     88  Cl  UNL A   1      28.236  26.407  24.001  1.00  0.00    -0.084 Cl
ATOM     89  Cl  UNL A   1      28.776  32.058  21.425  1.00  0.00    -0.084 Cl
ATOM     90  C   UNL A   1      27.411  30.041  22.579  1.00  0.00     0.022 A 
ENDBRANCH  80  83
BRANCH  81  91
ATOM     91  N   UNL A   1      32.959  25.089  21.074  1.00  0.00     0.062 N 
ATOM     92  O   UNL A   1      32.947  25.537  19.918  1.00  0.00    -0.258 OA
ATOM     93  O   UNL A   1      33.311  23.940  21.377  1.00  0.00    -0.258 OA
ENDBRANCH  81  91
ENDBRANCH  75  77
ENDBRANCH  74  75
ENDBRANCH  73  74
ENDBRANCH  72  73
ENDBRANCH  71  72
ENDBRANCH   1  71
TORSDOF 19
ENDMDL
