MODEL 1
REMARK VINA RESULT:     -10.4      0.000      0.000
REMARK SMILES CCOc1cc(OCC)cc(-c2ccc([C@@H](C)C(=O)OCCOCCOC(=O)c3ccc(-c4c5nc(c(-c6cc(S(=O)(=O)[O-])ccc6F)c6ccc([nH]6)c(-c6cc(S(=O)(=O)[O-])ccc6F)c6nc(c(-c7cc(S(=O)(=O)[O-])ccc7F)c7ccc4[nH]7)C=C6)C=C5)cc3)cc2)c1
REMARK SMILES IDX 22 1 21 2 20 3 18 4 19 5 16 6 17 7 15 8 12 9 13 10 93 11
REMARK SMILES IDX 14 12 92 13 11 14 4 15 5 16 94 17 6 18 10 19 3 20 2 21 1 22
REMARK SMILES IDX 7 23 8 24 9 25 23 26 24 27 25 28 26 29 27 30 28 31 29 32
REMARK SMILES IDX 30 33 91 34 31 35 90 36 32 37 33 38 34 39 84 40 35 41 89 42
REMARK SMILES IDX 83 43 85 44 36 45 88 46 82 47 81 48 37 50 69 51 49 52 68 53
REMARK SMILES IDX 50 54 53 55 67 56 86 57 51 58 52 59 66 61 87 62 54 63 38 64
REMARK SMILES IDX 39 65 47 66 40 67 46 68 48 69 45 70 41 71 42 72 43 73 44 74
REMARK SMILES IDX 70 75 71 76 79 77 72 78 78 79 80 80 77 81 73 82 74 83 75 84
REMARK SMILES IDX 76 85 55 86 56 87 64 88 57 89 63 90 65 91 62 92 58 93 59 94
REMARK SMILES IDX 60 95 61 96
REMARK H PARENT 85 49 53 60
REMARK Flexibility Score: inf
ROOT
ATOM      1  C   UNL A   1      36.765  22.666  25.028  1.00  0.00     0.202 C 
ENDROOT
BRANCH   1   2
ATOM      2  C   UNL A   1      35.755  21.812  24.258  1.00  0.00     0.261 C 
BRANCH   2   3
ATOM      3  O   UNL A   1      34.700  21.344  25.117  1.00  0.00    -0.463 OA
BRANCH   3   4
ATOM      4  C   UNL A   1      34.032  20.239  24.698  1.00  0.00     0.313 C 
ATOM      5  O   UNL A   1      34.522  19.115  24.624  1.00  0.00    -0.252 OA
BRANCH   4   6
ATOM      6  C   UNL A   1      32.596  20.513  24.278  1.00  0.00     0.126 C 
ATOM      7  C   UNL A   1      32.240  19.644  23.075  1.00  0.00     0.025 C 
BRANCH   6   8
ATOM      8  C   UNL A   1      32.184  21.965  24.067  1.00  0.00    -0.034 A 
ATOM      9  C   UNL A   1      31.678  24.741  23.713  1.00  0.00    -0.018 A 
ATOM     10  C   UNL A   1      31.224  24.060  24.853  1.00  0.00     0.009 A 
ATOM     11  C   UNL A   1      32.337  23.998  22.726  1.00  0.00     0.009 A 
ATOM     12  C   UNL A   1      31.477  22.695  25.031  1.00  0.00     0.005 A 
ATOM     13  C   UNL A   1      32.585  22.632  22.898  1.00  0.00     0.005 A 
BRANCH   9  14
ATOM     14  C   UNL A   1      31.536  26.201  23.591  1.00  0.00    -0.011 A 
ATOM     15  C   UNL A   1      32.204  28.463  24.172  1.00  0.00     0.123 A 
ATOM     16  C   UNL A   1      31.166  28.982  23.398  1.00  0.00     0.092 A 
ATOM     17  C   UNL A   1      32.374  27.083  24.283  1.00  0.00     0.055 A 
ATOM     18  C   UNL A   1      30.300  28.123  22.717  1.00  0.00     0.123 A 
ATOM     19  C   UNL A   1      30.499  26.744  22.811  1.00  0.00     0.055 A 
BRANCH  15  20
ATOM     20  O   UNL A   1      32.942  29.334  24.925  1.00  0.00    -0.494 OA
BRANCH  20  21
ATOM     21  C   UNL A   1      32.158  30.136  25.817  1.00  0.00     0.226 C 
ATOM     22  C   UNL A   1      32.665  30.047  27.248  1.00  0.00     0.049 C 
ENDBRANCH  20  21
ENDBRANCH  15  20
BRANCH  18  23
ATOM     23  O   UNL A   1      29.312  28.734  21.994  1.00  0.00    -0.494 OA
BRANCH  23  24
ATOM     24  C   UNL A   1      29.191  30.156  22.097  1.00  0.00     0.226 C 
ATOM     25  C   UNL A   1      27.761  30.573  22.404  1.00  0.00     0.049 C 
ENDBRANCH  23  24
ENDBRANCH  18  23
ENDBRANCH   9  14
ENDBRANCH   6   8
ENDBRANCH   4   6
ENDBRANCH   3   4
ENDBRANCH   2   3
ENDBRANCH   1   2
BRANCH   1  26
ATOM     26  O   UNL A   1      37.463  22.014  26.091  1.00  0.00    -0.374 OA
BRANCH  26  27
ATOM     27  C   UNL A   1      38.852  21.752  25.892  1.00  0.00     0.202 C 
BRANCH  27  28
ATOM     28  C   UNL A   1      39.268  20.283  25.744  1.00  0.00     0.261 C 
BRANCH  28  29
ATOM     29  O   UNL A   1      40.255  19.887  26.712  1.00  0.00    -0.460 OA
BRANCH  29  30
ATOM     30  C   UNL A   1      41.517  19.779  26.233  1.00  0.00     0.338 C 
ATOM     31  O   UNL A   1      41.980  18.849  25.583  1.00  0.00    -0.246 OA
BRANCH  30  32
ATOM     32  C   UNL A   1      42.239  21.049  26.434  1.00  0.00     0.060 A 
ATOM     33  C   UNL A   1      42.524  21.434  27.750  1.00  0.00     0.016 A 
ATOM     34  C   UNL A   1      42.583  21.876  25.363  1.00  0.00     0.016 A 
ATOM     35  C   UNL A   1      43.127  22.665  28.004  1.00  0.00     0.010 A 
ATOM     36  C   UNL A   1      43.177  23.116  25.622  1.00  0.00     0.010 A 
ATOM     37  C   UNL A   1      43.429  23.528  26.944  1.00  0.00    -0.014 A 
BRANCH  37  38
ATOM     38  C   UNL A   1      43.900  24.909  27.225  1.00  0.00     0.031 A 
ATOM     39  C   UNL A   1      42.924  25.919  27.763  1.00  0.00     0.074 A 
ATOM     40  C   UNL A   1      45.185  25.252  27.020  1.00  0.00     0.049 A 
ATOM     41  N   UNL A   1      43.097  27.191  28.011  1.00  0.00    -0.248 NA
ATOM     42  C   UNL A   1      41.572  25.425  28.060  1.00  0.00     0.031 C 
ATOM     43  C   UNL A   1      46.234  24.344  26.556  1.00  0.00     0.029 A 
ATOM     44  N   UNL A   1      45.823  26.457  27.166  1.00  0.00    -0.354 N 
ATOM     45  C   UNL A   1      41.876  27.655  28.488  1.00  0.00     0.074 A 
ATOM     46  C   UNL A   1      40.963  26.531  28.462  1.00  0.00     0.031 C 
ATOM     47  C   UNL A   1      47.384  25.031  26.441  1.00  0.00     0.029 A 
ATOM     48  C   UNL A   1      47.143  26.433  26.777  1.00  0.00     0.049 A 
ATOM     49  H   UNL A   1      45.379  27.263  27.515  1.00  0.00     0.167 HD
ATOM     50  C   UNL A   1      41.551  28.900  28.914  1.00  0.00     0.034 A 
ATOM     51  C   UNL A   1      48.040  27.434  26.668  1.00  0.00     0.034 A 
ATOM     52  C   UNL A   1      42.470  30.012  28.921  1.00  0.00     0.049 A 
ATOM     53  C   UNL A   1      47.622  28.838  27.038  1.00  0.00     0.074 A 
ATOM     54  C   UNL A   1      42.251  31.309  29.354  1.00  0.00     0.029 A 
ATOM     55  N   UNL A   1      43.778  29.966  28.457  1.00  0.00    -0.354 N 
ATOM     56  N   UNL A   1      46.467  29.262  27.496  1.00  0.00    -0.248 NA
ATOM     57  C   UNL A   1      48.627  29.897  26.875  1.00  0.00     0.031 C 
ATOM     58  C   UNL A   1      43.397  32.063  29.079  1.00  0.00     0.029 A 
ATOM     59  C   UNL A   1      44.362  31.221  28.549  1.00  0.00     0.049 A 
ATOM     60  H   UNL A   1      44.226  29.159  28.113  1.00  0.00     0.167 HD
ATOM     61  C   UNL A   1      46.617  30.632  27.699  1.00  0.00     0.074 A 
ATOM     62  C   UNL A   1      47.978  30.959  27.326  1.00  0.00     0.031 C 
ATOM     63  C   UNL A   1      45.715  31.538  28.156  1.00  0.00     0.034 A 
BRANCH  50  64
ATOM     64  C   UNL A   1      40.125  29.134  29.350  1.00  0.00     0.023 A 
ATOM     65  C   UNL A   1      39.752  29.129  30.706  1.00  0.00     0.031 A 
ATOM     66  C   UNL A   1      39.117  29.345  28.392  1.00  0.00     0.131 A 
ATOM     67  C   UNL A   1      38.401  29.263  31.060  1.00  0.00     0.055 A 
ATOM     68  C   UNL A   1      37.785  29.557  28.755  1.00  0.00     0.041 A 
ATOM     69  F   UNL A   1      39.408  29.339  27.081  1.00  0.00    -0.206 F 
ATOM     70  C   UNL A   1      37.418  29.501  30.096  1.00  0.00     0.022 A 
BRANCH  67  71
ATOM     71  S   UNL A   1      37.926  28.984  32.789  1.00  0.00     0.124 S 
ATOM     72  O   UNL A   1      36.651  29.692  32.864  1.00  0.00    -0.237 OA
ATOM     73  O   UNL A   1      37.856  27.530  32.865  1.00  0.00    -0.237 OA
ATOM     74  O   UNL A   1      39.016  29.597  33.546  1.00  0.00    -0.744 OA
ENDBRANCH  67  71
ENDBRANCH  50  64
BRANCH  51  75
ATOM     75  C   UNL A   1      49.406  27.168  26.131  1.00  0.00     0.023 A 
ATOM     76  C   UNL A   1      49.730  27.446  24.793  1.00  0.00     0.031 A 
ATOM     77  C   UNL A   1      50.394  26.578  26.939  1.00  0.00     0.131 A 
ATOM     78  C   UNL A   1      50.993  27.092  24.292  1.00  0.00     0.055 A 
ATOM     79  C   UNL A   1      51.668  26.278  26.451  1.00  0.00     0.041 A 
ATOM     80  F   UNL A   1      50.137  26.287  28.224  1.00  0.00    -0.206 F 
ATOM     81  C   UNL A   1      51.969  26.524  25.116  1.00  0.00     0.022 A 
BRANCH  78  82
ATOM     82  S   UNL A   1      51.316  27.307  22.521  1.00  0.00     0.124 S 
ATOM     83  O   UNL A   1      52.521  26.506  22.340  1.00  0.00    -0.237 OA
ATOM     84  O   UNL A   1      50.095  26.774  21.924  1.00  0.00    -0.237 OA
ATOM     85  O   UNL A   1      51.498  28.749  22.380  1.00  0.00    -0.744 OA
ENDBRANCH  78  82
ENDBRANCH  51  75
BRANCH  63  86
ATOM     86  C   UNL A   1      46.186  32.964  28.309  1.00  0.00     0.023 A 
ATOM     87  C   UNL A   1      46.773  33.425  29.500  1.00  0.00     0.031 A 
ATOM     88  C   UNL A   1      46.052  33.873  27.243  1.00  0.00     0.131 A 
ATOM     89  C   UNL A   1      47.163  34.769  29.612  1.00  0.00     0.055 A 
ATOM     90  C   UNL A   1      46.493  35.193  27.341  1.00  0.00     0.041 A 
ATOM     91  F   UNL A   1      45.495  33.487  26.083  1.00  0.00    -0.206 F 
ATOM     92  C   UNL A   1      47.044  35.650  28.535  1.00  0.00     0.022 A 
BRANCH  89  93
ATOM     93  S   UNL A   1      47.764  35.372  31.214  1.00  0.00     0.124 S 
ATOM     94  O   UNL A   1      47.991  34.127  31.941  1.00  0.00    -0.237 OA
ATOM     95  O   UNL A   1      48.960  36.118  30.839  1.00  0.00    -0.237 OA
ATOM     96  O   UNL A   1      46.658  36.188  31.711  1.00  0.00    -0.744 OA
ENDBRANCH  89  93
ENDBRANCH  63  86
ENDBRANCH  37  38
ENDBRANCH  30  32
ENDBRANCH  29  30
ENDBRANCH  28  29
ENDBRANCH  27  28
ENDBRANCH  26  27
ENDBRANCH   1  26
TORSDOF 23
ENDMDL
MODEL 2
REMARK VINA RESULT:      -9.6      5.505     11.577
REMARK SMILES CCOc1cc(OCC)cc(-c2ccc([C@@H](C)C(=O)OCCOCCOC(=O)c3ccc(-c4c5nc(c(-c6cc(S(=O)(=O)[O-])ccc6F)c6ccc([nH]6)c(-c6cc(S(=O)(=O)[O-])ccc6F)c6nc(c(-c7cc(S(=O)(=O)[O-])ccc7F)c7ccc4[nH]7)C=C6)C=C5)cc3)cc2)c1
REMARK SMILES IDX 22 1 21 2 20 3 18 4 19 5 16 6 17 7 15 8 12 9 13 10 93 11
REMARK SMILES IDX 14 12 92 13 11 14 4 15 5 16 94 17 6 18 10 19 3 20 2 21 1 22
REMARK SMILES IDX 7 23 8 24 9 25 23 26 24 27 25 28 26 29 27 30 28 31 29 32
REMARK SMILES IDX 30 33 91 34 31 35 90 36 32 37 33 38 34 39 84 40 35 41 89 42
REMARK SMILES IDX 83 43 85 44 36 45 88 46 82 47 81 48 37 50 69 51 49 52 68 53
REMARK SMILES IDX 50 54 53 55 67 56 86 57 51 58 52 59 66 61 87 62 54 63 38 64
REMARK SMILES IDX 39 65 47 66 40 67 46 68 48 69 45 70 41 71 42 72 43 73 44 74
REMARK SMILES IDX 70 75 71 76 79 77 72 78 78 79 80 80 77 81 73 82 74 83 75 84
REMARK SMILES IDX 76 85 55 86 56 87 64 88 57 89 63 90 65 91 62 92 58 93 59 94
REMARK SMILES IDX 60 95 61 96
REMARK H PARENT 85 49 53 60
REMARK Flexibility Score: inf
ROOT
ATOM      1  C   UNL A   1      32.158  29.173  26.876  1.00  0.00     0.202 C 
ENDROOT
BRANCH   1   2
ATOM      2  C   UNL A   1      32.147  28.874  25.374  1.00  0.00     0.261 C 
BRANCH   2   3
ATOM      3  O   UNL A   1      30.925  28.229  24.976  1.00  0.00    -0.463 OA
BRANCH   3   4
ATOM      4  C   UNL A   1      31.057  27.067  24.285  1.00  0.00     0.313 C 
ATOM      5  O   UNL A   1      30.187  26.204  24.200  1.00  0.00    -0.252 OA
BRANCH   4   6
ATOM      6  C   UNL A   1      32.421  26.893  23.636  1.00  0.00     0.126 C 
ATOM      7  C   UNL A   1      32.296  27.069  22.125  1.00  0.00     0.025 C 
BRANCH   6   8
ATOM      8  C   UNL A   1      33.223  25.647  23.995  1.00  0.00    -0.034 A 
ATOM      9  C   UNL A   1      34.941  23.457  24.577  1.00  0.00    -0.018 A 
ATOM     10  C   UNL A   1      34.024  23.399  23.516  1.00  0.00     0.009 A 
ATOM     11  C   UNL A   1      34.942  24.606  25.378  1.00  0.00     0.009 A 
ATOM     12  C   UNL A   1      33.181  24.477  23.226  1.00  0.00     0.005 A 
ATOM     13  C   UNL A   1      34.096  25.683  25.094  1.00  0.00     0.005 A 
BRANCH   9  14
ATOM     14  C   UNL A   1      35.923  22.383  24.796  1.00  0.00    -0.011 A 
ATOM     15  C   UNL A   1      36.518  20.030  24.910  1.00  0.00     0.123 A 
ATOM     16  C   UNL A   1      37.809  20.363  25.317  1.00  0.00     0.092 A 
ATOM     17  C   UNL A   1      35.577  21.032  24.671  1.00  0.00     0.055 A 
ATOM     18  C   UNL A   1      38.172  21.703  25.475  1.00  0.00     0.123 A 
ATOM     19  C   UNL A   1      37.232  22.698  25.203  1.00  0.00     0.055 A 
BRANCH  15  20
ATOM     20  O   UNL A   1      36.168  18.708  24.898  1.00  0.00    -0.494 OA
BRANCH  20  21
ATOM     21  C   UNL A   1      34.820  18.469  24.472  1.00  0.00     0.226 C 
ATOM     22  C   UNL A   1      34.591  17.008  24.117  1.00  0.00     0.049 C 
ENDBRANCH  20  21
ENDBRANCH  15  20
BRANCH  18  23
ATOM     23  O   UNL A   1      39.460  21.919  25.887  1.00  0.00    -0.494 OA
BRANCH  23  24
ATOM     24  C   UNL A   1      40.231  20.785  26.293  1.00  0.00     0.226 C 
ATOM     25  C   UNL A   1      41.147  21.122  27.458  1.00  0.00     0.049 C 
ENDBRANCH  23  24
ENDBRANCH  18  23
ENDBRANCH   9  14
ENDBRANCH   6   8
ENDBRANCH   4   6
ENDBRANCH   3   4
ENDBRANCH   2   3
ENDBRANCH   1   2
BRANCH   1  26
ATOM     26  O   UNL A   1      32.493  30.509  27.251  1.00  0.00    -0.374 OA
BRANCH  26  27
ATOM     27  C   UNL A   1      33.874  30.795  27.474  1.00  0.00     0.202 C 
BRANCH  27  28
ATOM     28  C   UNL A   1      34.267  32.273  27.596  1.00  0.00     0.261 C 
BRANCH  28  29
ATOM     29  O   UNL A   1      33.225  33.077  28.177  1.00  0.00    -0.460 OA
BRANCH  29  30
ATOM     30  C   UNL A   1      33.654  34.117  28.929  1.00  0.00     0.338 C 
ATOM     31  O   UNL A   1      33.128  35.220  29.029  1.00  0.00    -0.246 OA
BRANCH  30  32
ATOM     32  C   UNL A   1      34.770  33.685  29.791  1.00  0.00     0.060 A 
ATOM     33  C   UNL A   1      36.045  34.191  29.505  1.00  0.00     0.016 A 
ATOM     34  C   UNL A   1      34.587  32.762  30.822  1.00  0.00     0.016 A 
ATOM     35  C   UNL A   1      37.151  33.750  30.231  1.00  0.00     0.010 A 
ATOM     36  C   UNL A   1      35.701  32.312  31.541  1.00  0.00     0.010 A 
ATOM     37  C   UNL A   1      36.991  32.786  31.234  1.00  0.00    -0.014 A 
BRANCH  37  38
ATOM     38  C   UNL A   1      38.186  32.183  31.879  1.00  0.00     0.031 A 
ATOM     39  C   UNL A   1      38.906  31.062  31.183  1.00  0.00     0.074 A 
ATOM     40  C   UNL A   1      38.633  32.643  33.062  1.00  0.00     0.049 A 
ATOM     41  N   UNL A   1      39.921  30.346  31.591  1.00  0.00    -0.248 NA
ATOM     42  C   UNL A   1      38.413  30.701  29.845  1.00  0.00     0.031 C 
ATOM     43  C   UNL A   1      38.052  33.763  33.803  1.00  0.00     0.029 A 
ATOM     44  N   UNL A   1      39.672  32.221  33.851  1.00  0.00    -0.354 N 
ATOM     45  C   UNL A   1      40.187  29.444  30.566  1.00  0.00     0.074 A 
ATOM     46  C   UNL A   1      39.203  29.685  29.531  1.00  0.00     0.031 C 
ATOM     47  C   UNL A   1      38.735  33.927  34.949  1.00  0.00     0.029 A 
ATOM     48  C   UNL A   1      39.770  32.898  35.044  1.00  0.00     0.049 A 
ATOM     49  H   UNL A   1      40.289  31.500  33.589  1.00  0.00     0.167 HD
ATOM     50  C   UNL A   1      41.166  28.509  30.494  1.00  0.00     0.034 A 
ATOM     51  C   UNL A   1      40.575  32.689  36.106  1.00  0.00     0.034 A 
ATOM     52  C   UNL A   1      42.131  28.273  31.541  1.00  0.00     0.049 A 
ATOM     53  C   UNL A   1      41.583  31.564  36.050  1.00  0.00     0.074 A 
ATOM     54  C   UNL A   1      43.178  27.368  31.560  1.00  0.00     0.029 A 
ATOM     55  N   UNL A   1      42.157  28.934  32.762  1.00  0.00    -0.354 N 
ATOM     56  N   UNL A   1      41.831  30.724  35.073  1.00  0.00    -0.248 NA
ATOM     57  C   UNL A   1      42.417  31.359  37.243  1.00  0.00     0.031 C 
ATOM     58  C   UNL A   1      43.785  27.426  32.820  1.00  0.00     0.029 A 
ATOM     59  C   UNL A   1      43.171  28.424  33.560  1.00  0.00     0.049 A 
ATOM     60  H   UNL A   1      41.545  29.660  33.024  1.00  0.00     0.167 HD
ATOM     61  C   UNL A   1      42.866  29.909  35.524  1.00  0.00     0.074 A 
ATOM     62  C   UNL A   1      43.204  30.367  36.855  1.00  0.00     0.031 C 
ATOM     63  C   UNL A   1      43.485  28.878  34.894  1.00  0.00     0.034 A 
BRANCH  50  64
ATOM     64  C   UNL A   1      41.200  27.633  29.265  1.00  0.00     0.023 A 
ATOM     65  C   UNL A   1      42.196  27.770  28.283  1.00  0.00     0.031 A 
ATOM     66  C   UNL A   1      40.206  26.659  29.063  1.00  0.00     0.131 A 
ATOM     67  C   UNL A   1      42.138  26.994  27.115  1.00  0.00     0.055 A 
ATOM     68  C   UNL A   1      40.198  25.835  27.935  1.00  0.00     0.041 A 
ATOM     69  F   UNL A   1      39.215  26.497  29.955  1.00  0.00    -0.206 F 
ATOM     70  C   UNL A   1      41.160  26.011  26.945  1.00  0.00     0.022 A 
BRANCH  67  71
ATOM     71  S   UNL A   1      43.277  27.383  25.758  1.00  0.00     0.124 S 
ATOM     72  O   UNL A   1      43.465  28.822  25.933  1.00  0.00    -0.237 OA
ATOM     73  O   UNL A   1      44.431  26.546  26.064  1.00  0.00    -0.237 OA
ATOM     74  O   UNL A   1      42.528  27.002  24.562  1.00  0.00    -0.744 OA
ENDBRANCH  67  71
ENDBRANCH  50  64
BRANCH  51  75
ATOM     75  C   UNL A   1      40.431  33.515  37.339  1.00  0.00     0.023 A 
ATOM     76  C   UNL A   1      39.641  33.084  38.417  1.00  0.00     0.031 A 
ATOM     77  C   UNL A   1      41.039  34.781  37.432  1.00  0.00     0.131 A 
ATOM     78  C   UNL A   1      39.444  33.928  39.521  1.00  0.00     0.055 A 
ATOM     79  C   UNL A   1      40.885  35.594  38.556  1.00  0.00     0.041 A 
ATOM     80  F   UNL A   1      41.800  35.244  36.429  1.00  0.00    -0.206 F 
ATOM     81  C   UNL A   1      40.073  35.174  39.604  1.00  0.00     0.022 A 
BRANCH  78  82
ATOM     82  S   UNL A   1      38.282  33.412  40.814  1.00  0.00     0.124 S 
ATOM     83  O   UNL A   1      38.885  32.167  41.274  1.00  0.00    -0.237 OA
ATOM     84  O   UNL A   1      38.343  34.537  41.741  1.00  0.00    -0.237 OA
ATOM     85  O   UNL A   1      37.018  33.266  40.097  1.00  0.00    -0.744 OA
ENDBRANCH  78  82
ENDBRANCH  51  75
BRANCH  63  86
ATOM     86  C   UNL A   1      44.616  28.198  35.630  1.00  0.00     0.023 A 
ATOM     87  C   UNL A   1      45.941  28.654  35.533  1.00  0.00     0.031 A 
ATOM     88  C   UNL A   1      44.359  27.082  36.447  1.00  0.00     0.131 A 
ATOM     89  C   UNL A   1      46.967  27.971  36.203  1.00  0.00     0.055 A 
ATOM     90  C   UNL A   1      45.374  26.440  37.157  1.00  0.00     0.041 A 
ATOM     91  F   UNL A   1      43.111  26.601  36.574  1.00  0.00    -0.206 F 
ATOM     92  C   UNL A   1      46.689  26.879  37.030  1.00  0.00     0.022 A 
BRANCH  89  93
ATOM     93  S   UNL A   1      48.684  28.483  35.926  1.00  0.00     0.124 S 
ATOM     94  O   UNL A   1      49.421  27.532  36.753  1.00  0.00    -0.237 OA
ATOM     95  O   UNL A   1      48.832  28.321  34.484  1.00  0.00    -0.237 OA
ATOM     96  O   UNL A   1      48.711  29.866  36.399  1.00  0.00    -0.744 OA
ENDBRANCH  89  93
ENDBRANCH  63  86
ENDBRANCH  37  38
ENDBRANCH  30  32
ENDBRANCH  29  30
ENDBRANCH  28  29
ENDBRANCH  27  28
ENDBRANCH  26  27
ENDBRANCH   1  26
TORSDOF 23
ENDMDL
MODEL 3
REMARK VINA RESULT:      -9.6      5.210      9.582
REMARK SMILES CCOc1cc(OCC)cc(-c2ccc([C@@H](C)C(=O)OCCOCCOC(=O)c3ccc(-c4c5nc(c(-c6cc(S(=O)(=O)[O-])ccc6F)c6ccc([nH]6)c(-c6cc(S(=O)(=O)[O-])ccc6F)c6nc(c(-c7cc(S(=O)(=O)[O-])ccc7F)c7ccc4[nH]7)C=C6)C=C5)cc3)cc2)c1
REMARK SMILES IDX 22 1 21 2 20 3 18 4 19 5 16 6 17 7 15 8 12 9 13 10 93 11
REMARK SMILES IDX 14 12 92 13 11 14 4 15 5 16 94 17 6 18 10 19 3 20 2 21 1 22
REMARK SMILES IDX 7 23 8 24 9 25 23 26 24 27 25 28 26 29 27 30 28 31 29 32
REMARK SMILES IDX 30 33 91 34 31 35 90 36 32 37 33 38 34 39 84 40 35 41 89 42
REMARK SMILES IDX 83 43 85 44 36 45 88 46 82 47 81 48 37 50 69 51 49 52 68 53
REMARK SMILES IDX 50 54 53 55 67 56 86 57 51 58 52 59 66 61 87 62 54 63 38 64
REMARK SMILES IDX 39 65 47 66 40 67 46 68 48 69 45 70 41 71 42 72 43 73 44 74
REMARK SMILES IDX 70 75 71 76 79 77 72 78 78 79 80 80 77 81 73 82 74 83 75 84
REMARK SMILES IDX 76 85 55 86 56 87 64 88 57 89 63 90 65 91 62 92 58 93 59 94
REMARK SMILES IDX 60 95 61 96
REMARK H PARENT 85 49 53 60
REMARK Flexibility Score: inf
ROOT
ATOM      1  C   UNL A   1      45.219  24.040  28.084  1.00  0.00     0.202 C 
ENDROOT
BRANCH   1   2
ATOM      2  C   UNL A   1      44.039  23.158  28.503  1.00  0.00     0.261 C 
BRANCH   2   3
ATOM      3  O   UNL A   1      43.220  22.806  27.374  1.00  0.00    -0.463 OA
BRANCH   3   4
ATOM      4  C   UNL A   1      42.362  23.762  26.933  1.00  0.00     0.313 C 
ATOM      5  O   UNL A   1      42.533  24.437  25.922  1.00  0.00    -0.252 OA
BRANCH   4   6
ATOM      6  C   UNL A   1      41.156  23.966  27.836  1.00  0.00     0.126 C 
ATOM      7  C   UNL A   1      40.023  23.045  27.393  1.00  0.00     0.025 C 
BRANCH   6   8
ATOM      8  C   UNL A   1      40.670  25.393  28.058  1.00  0.00    -0.034 A 
ATOM      9  C   UNL A   1      39.719  27.987  28.733  1.00  0.00    -0.018 A 
ATOM     10  C   UNL A   1      38.966  27.127  27.920  1.00  0.00     0.009 A 
ATOM     11  C   UNL A   1      40.982  27.552  29.153  1.00  0.00     0.009 A 
ATOM     12  C   UNL A   1      39.431  25.848  27.591  1.00  0.00     0.005 A 
ATOM     13  C   UNL A   1      41.452  26.276  28.820  1.00  0.00     0.005 A 
BRANCH   9  14
ATOM     14  C   UNL A   1      39.172  29.273  29.195  1.00  0.00    -0.011 A 
ATOM     15  C   UNL A   1      38.905  30.988  30.894  1.00  0.00     0.123 A 
ATOM     16  C   UNL A   1      38.028  31.690  30.066  1.00  0.00     0.092 A 
ATOM     17  C   UNL A   1      39.456  29.779  30.469  1.00  0.00     0.055 A 
ATOM     18  C   UNL A   1      37.709  31.193  28.801  1.00  0.00     0.123 A 
ATOM     19  C   UNL A   1      38.291  29.998  28.373  1.00  0.00     0.055 A 
BRANCH  15  20
ATOM     20  O   UNL A   1      39.084  31.441  32.172  1.00  0.00    -0.494 OA
BRANCH  20  21
ATOM     21  C   UNL A   1      37.863  31.608  32.904  1.00  0.00     0.226 C 
ATOM     22  C   UNL A   1      38.041  31.287  34.379  1.00  0.00     0.049 C 
ENDBRANCH  20  21
ENDBRANCH  15  20
BRANCH  18  23
ATOM     23  O   UNL A   1      36.833  31.954  28.074  1.00  0.00    -0.494 OA
BRANCH  23  24
ATOM     24  C   UNL A   1      35.540  31.408  27.802  1.00  0.00     0.226 C 
ATOM     25  C   UNL A   1      34.432  32.352  28.241  1.00  0.00     0.049 C 
ENDBRANCH  23  24
ENDBRANCH  18  23
ENDBRANCH   9  14
ENDBRANCH   6   8
ENDBRANCH   4   6
ENDBRANCH   3   4
ENDBRANCH   2   3
ENDBRANCH   1   2
BRANCH   1  26
ATOM     26  O   UNL A   1      46.260  23.395  27.350  1.00  0.00    -0.374 OA
BRANCH  26  27
ATOM     27  C   UNL A   1      46.001  23.100  25.977  1.00  0.00     0.202 C 
BRANCH  27  28
ATOM     28  C   UNL A   1      46.284  24.214  24.961  1.00  0.00     0.261 C 
BRANCH  28  29
ATOM     29  O   UNL A   1      47.230  25.181  25.449  1.00  0.00    -0.460 OA
BRANCH  29  30
ATOM     30  C   UNL A   1      47.020  26.451  25.030  1.00  0.00     0.338 C 
ATOM     31  O   UNL A   1      47.234  26.901  23.910  1.00  0.00    -0.246 OA
BRANCH  30  32
ATOM     32  C   UNL A   1      46.298  27.209  26.069  1.00  0.00     0.060 A 
ATOM     33  C   UNL A   1      47.059  27.825  27.070  1.00  0.00     0.016 A 
ATOM     34  C   UNL A   1      44.904  27.270  26.099  1.00  0.00     0.016 A 
ATOM     35  C   UNL A   1      46.427  28.481  28.126  1.00  0.00     0.010 A 
ATOM     36  C   UNL A   1      44.271  27.918  27.166  1.00  0.00     0.010 A 
ATOM     37  C   UNL A   1      45.029  28.506  28.197  1.00  0.00    -0.014 A 
BRANCH  37  38
ATOM     38  C   UNL A   1      44.359  29.041  29.411  1.00  0.00     0.031 A 
ATOM     39  C   UNL A   1      43.886  30.468  29.416  1.00  0.00     0.074 A 
ATOM     40  C   UNL A   1      44.160  28.259  30.487  1.00  0.00     0.049 A 
ATOM     41  N   UNL A   1      43.344  31.161  30.384  1.00  0.00    -0.248 NA
ATOM     42  C   UNL A   1      44.047  31.213  28.158  1.00  0.00     0.031 C 
ATOM     43  C   UNL A   1      44.522  26.844  30.577  1.00  0.00     0.029 A 
ATOM     44  N   UNL A   1      43.611  28.544  31.712  1.00  0.00    -0.354 N 
ATOM     45  C   UNL A   1      43.104  32.426  29.857  1.00  0.00     0.074 A 
ATOM     46  C   UNL A   1      43.590  32.411  28.493  1.00  0.00     0.031 C 
ATOM     47  C   UNL A   1      44.201  26.390  31.801  1.00  0.00     0.029 A 
ATOM     48  C   UNL A   1      43.653  27.490  32.594  1.00  0.00     0.049 A 
ATOM     49  H   UNL A   1      43.226  29.421  31.938  1.00  0.00     0.167 HD
ATOM     50  C   UNL A   1      42.525  33.496  30.456  1.00  0.00     0.034 A 
ATOM     51  C   UNL A   1      43.324  27.430  33.901  1.00  0.00     0.034 A 
ATOM     52  C   UNL A   1      42.057  33.497  31.821  1.00  0.00     0.049 A 
ATOM     53  C   UNL A   1      42.788  28.669  34.579  1.00  0.00     0.074 A 
ATOM     54  C   UNL A   1      41.434  34.519  32.517  1.00  0.00     0.029 A 
ATOM     55  N   UNL A   1      42.177  32.433  32.704  1.00  0.00    -0.354 N 
ATOM     56  N   UNL A   1      42.557  29.856  34.069  1.00  0.00    -0.248 NA
ATOM     57  C   UNL A   1      42.470  28.559  36.010  1.00  0.00     0.031 C 
ATOM     58  C   UNL A   1      41.250  34.100  33.839  1.00  0.00     0.029 A 
ATOM     59  C   UNL A   1      41.683  32.788  33.951  1.00  0.00     0.049 A 
ATOM     60  H   UNL A   1      42.557  31.552  32.478  1.00  0.00     0.167 HD
ATOM     61  C   UNL A   1      42.043  30.625  35.111  1.00  0.00     0.074 A 
ATOM     62  C   UNL A   1      41.986  29.763  36.273  1.00  0.00     0.031 C 
ATOM     63  C   UNL A   1      41.650  31.924  35.107  1.00  0.00     0.034 A 
BRANCH  50  64
ATOM     64  C   UNL A   1      42.421  34.769  29.651  1.00  0.00     0.023 A 
ATOM     65  C   UNL A   1      43.510  35.648  29.508  1.00  0.00     0.031 A 
ATOM     66  C   UNL A   1      41.206  35.121  29.036  1.00  0.00     0.131 A 
ATOM     67  C   UNL A   1      43.342  36.862  28.825  1.00  0.00     0.055 A 
ATOM     68  C   UNL A   1      41.068  36.294  28.291  1.00  0.00     0.041 A 
ATOM     69  F   UNL A   1      40.125  34.333  29.157  1.00  0.00    -0.206 F 
ATOM     70  C   UNL A   1      42.137  37.181  28.195  1.00  0.00     0.022 A 
BRANCH  67  71
ATOM     71  S   UNL A   1      44.682  38.084  28.890  1.00  0.00     0.124 S 
ATOM     72  O   UNL A   1      44.863  38.248  30.330  1.00  0.00    -0.237 OA
ATOM     73  O   UNL A   1      45.762  37.407  28.182  1.00  0.00    -0.237 OA
ATOM     74  O   UNL A   1      44.118  39.246  28.204  1.00  0.00    -0.744 OA
ENDBRANCH  67  71
ENDBRANCH  50  64
BRANCH  51  75
ATOM     75  C   UNL A   1      43.544  26.176  34.678  1.00  0.00     0.023 A 
ATOM     76  C   UNL A   1      44.838  25.731  34.993  1.00  0.00     0.031 A 
ATOM     77  C   UNL A   1      42.458  25.372  35.070  1.00  0.00     0.131 A 
ATOM     78  C   UNL A   1      45.016  24.497  35.639  1.00  0.00     0.055 A 
ATOM     79  C   UNL A   1      42.636  24.173  35.761  1.00  0.00     0.041 A 
ATOM     80  F   UNL A   1      41.200  25.747  34.791  1.00  0.00    -0.206 F 
ATOM     81  C   UNL A   1      43.923  23.722  36.038  1.00  0.00     0.022 A 
BRANCH  78  82
ATOM     82  S   UNL A   1      46.702  23.875  35.875  1.00  0.00     0.124 S 
ATOM     83  O   UNL A   1      47.058  24.464  37.160  1.00  0.00    -0.237 OA
ATOM     84  O   UNL A   1      46.494  22.430  35.865  1.00  0.00    -0.237 OA
ATOM     85  O   UNL A   1      47.425  24.406  34.722  1.00  0.00    -0.744 OA
ENDBRANCH  78  82
ENDBRANCH  51  75
BRANCH  63  86
ATOM     86  C   UNL A   1      41.091  32.480  36.395  1.00  0.00     0.023 A 
ATOM     87  C   UNL A   1      39.756  32.265  36.776  1.00  0.00     0.031 A 
ATOM     88  C   UNL A   1      41.912  33.229  37.258  1.00  0.00     0.131 A 
ATOM     89  C   UNL A   1      39.267  32.831  37.963  1.00  0.00     0.055 A 
ATOM     90  C   UNL A   1      41.437  33.742  38.466  1.00  0.00     0.041 A 
ATOM     91  F   UNL A   1      43.196  33.469  36.943  1.00  0.00    -0.206 F 
ATOM     92  C   UNL A   1      40.104  33.552  38.820  1.00  0.00     0.022 A 
BRANCH  89  93
ATOM     93  S   UNL A   1      37.501  32.675  38.343  1.00  0.00     0.124 S 
ATOM     94  O   UNL A   1      37.315  31.227  38.327  1.00  0.00    -0.237 OA
ATOM     95  O   UNL A   1      37.403  33.314  39.651  1.00  0.00    -0.237 OA
ATOM     96  O   UNL A   1      36.848  33.396  37.252  1.00  0.00    -0.744 OA
ENDBRANCH  89  93
ENDBRANCH  63  86
ENDBRANCH  37  38
ENDBRANCH  30  32
ENDBRANCH  29  30
ENDBRANCH  28  29
ENDBRANCH  27  28
ENDBRANCH  26  27
ENDBRANCH   1  26
TORSDOF 23
ENDMDL
