MODEL 1
REMARK VINA RESULT:     -11.3      0.000      0.000
REMARK SMILES Cc1n[nH]c(C)c1CC(=O)N1CC[C@H](C(=O)OCCOCCOC(=O)c2ccc(-c3c4nc(c(-c5cc(S(=O)(=O)[O-])ccc5F)c5ccc([nH]5)c(-c5cc(S(=O)(=O)[O-])ccc5F)c5nc(c(-c6cc(S(=O)(=O)[O-])ccc6F)c6ccc3[nH]6)C=C5)C=C4)cc2)[C@H]1C
REMARK SMILES IDX 20 1 19 2 18 3 17 4 15 5 16 6 14 7 11 8 12 9 89 10 13 11
REMARK SMILES IDX 90 12 9 13 10 14 8 15 7 16 1 17 2 18 3 19 4 20 5 21 6 23
REMARK SMILES IDX 21 24 22 25 23 26 24 27 25 28 26 29 27 30 88 31 28 32 87 33
REMARK SMILES IDX 29 34 30 35 31 36 81 37 32 38 86 39 80 40 82 41 33 42 85 43
REMARK SMILES IDX 79 44 78 45 34 47 66 48 46 49 65 50 47 51 50 52 64 53 83 54
REMARK SMILES IDX 48 55 49 56 63 58 84 59 51 60 35 61 36 62 44 63 37 64 43 65
REMARK SMILES IDX 45 66 42 67 38 68 39 69 40 70 41 71 67 72 68 73 76 74 69 75
REMARK SMILES IDX 75 76 77 77 74 78 70 79 71 80 72 81 73 82 52 83 53 84 61 85
REMARK SMILES IDX 54 86 60 87 62 88 59 89 55 90 56 91 57 92 58 93
REMARK H PARENT 4 22 82 46 50 57
REMARK Flexibility Score: inf
ROOT
ATOM      1  O   UNL A   1      36.143  18.673  24.683  1.00  0.00    -0.374 OA
ENDROOT
BRANCH   1   2
ATOM      2  C   UNL A   1      34.734  18.890  24.634  1.00  0.00     0.202 C 
BRANCH   2   3
ATOM      3  C   UNL A   1      34.230  20.296  24.979  1.00  0.00     0.261 C 
BRANCH   3   4
ATOM      4  O   UNL A   1      33.002  20.640  24.301  1.00  0.00    -0.463 OA
BRANCH   4   5
ATOM      5  C   UNL A   1      32.334  21.683  24.842  1.00  0.00     0.311 C 
ATOM      6  O   UNL A   1      31.361  21.575  25.585  1.00  0.00    -0.252 OA
BRANCH   5   7
ATOM      7  C   UNL A   1      32.846  23.054  24.450  1.00  0.00     0.123 C 
ATOM      8  N   UNL A   1      31.631  25.072  24.934  1.00  0.00    -0.339 N 
ATOM      9  C   UNL A   1      31.099  24.546  23.692  1.00  0.00     0.121 C 
ATOM     10  C   UNL A   1      32.775  24.270  25.402  1.00  0.00     0.096 C 
ATOM     11  C   UNL A   1      32.116  23.540  23.191  1.00  0.00     0.039 C 
ATOM     12  C   UNL A   1      34.086  25.042  25.239  1.00  0.00     0.032 C 
BRANCH   8  13
ATOM     13  C   UNL A   1      30.919  26.073  25.576  1.00  0.00     0.227 C 
ATOM     14  O   UNL A   1      29.848  25.781  26.131  1.00  0.00    -0.275 OA
BRANCH  13  15
ATOM     15  C   UNL A   1      31.241  27.558  25.401  1.00  0.00     0.139 C 
BRANCH  15  16
ATOM     16  C   UNL A   1      31.091  28.216  24.075  1.00  0.00     0.005 A 
ATOM     17  C   UNL A   1      28.668  27.526  23.424  1.00  0.00     0.069 C 
ATOM     18  C   UNL A   1      29.952  28.227  23.231  1.00  0.00     0.063 A 
ATOM     19  N   UNL A   1      30.167  28.915  22.107  1.00  0.00    -0.181 NA
ATOM     20  N   UNL A   1      31.461  29.233  22.158  1.00  0.00    -0.282 N 
ATOM     21  C   UNL A   1      32.088  28.762  23.277  1.00  0.00     0.036 A 
ATOM     22  H   UNL A   1      31.919  29.756  21.461  1.00  0.00     0.190 HD
ATOM     23  C   UNL A   1      33.563  28.842  23.427  1.00  0.00     0.066 C 
ENDBRANCH  15  16
ENDBRANCH  13  15
ENDBRANCH   8  13
ENDBRANCH   5   7
ENDBRANCH   4   5
ENDBRANCH   3   4
ENDBRANCH   2   3
ENDBRANCH   1   2
BRANCH   1  24
ATOM     24  C   UNL A   1      36.968  19.836  24.715  1.00  0.00     0.202 C 
BRANCH  24  25
ATOM     25  C   UNL A   1      38.381  19.702  25.293  1.00  0.00     0.261 C 
BRANCH  25  26
ATOM     26  O   UNL A   1      38.937  20.965  25.690  1.00  0.00    -0.460 OA
BRANCH  26  27
ATOM     27  C   UNL A   1      40.064  20.879  26.437  1.00  0.00     0.338 C 
ATOM     28  O   UNL A   1      40.824  19.923  26.520  1.00  0.00    -0.246 OA
BRANCH  27  29
ATOM     29  C   UNL A   1      40.366  22.202  27.012  1.00  0.00     0.060 A 
ATOM     30  C   UNL A   1      39.613  23.300  26.584  1.00  0.00     0.016 A 
ATOM     31  C   UNL A   1      41.396  22.371  27.935  1.00  0.00     0.016 A 
ATOM     32  C   UNL A   1      39.919  24.577  27.052  1.00  0.00     0.010 A 
ATOM     33  C   UNL A   1      41.673  23.644  28.439  1.00  0.00     0.010 A 
ATOM     34  C   UNL A   1      40.971  24.765  27.961  1.00  0.00    -0.014 A 
BRANCH  34  35
ATOM     35  C   UNL A   1      41.461  26.138  28.256  1.00  0.00     0.031 A 
ATOM     36  C   UNL A   1      42.850  26.518  27.809  1.00  0.00     0.074 A 
ATOM     37  C   UNL A   1      40.673  27.043  28.869  1.00  0.00     0.049 A 
ATOM     38  N   UNL A   1      43.506  27.636  27.987  1.00  0.00    -0.248 NA
ATOM     39  C   UNL A   1      43.607  25.490  27.078  1.00  0.00     0.031 C 
ATOM     40  C   UNL A   1      39.308  26.797  29.333  1.00  0.00     0.029 A 
ATOM     41  N   UNL A   1      40.910  28.352  29.206  1.00  0.00    -0.354 N 
ATOM     42  C   UNL A   1      44.751  27.441  27.395  1.00  0.00     0.074 A 
ATOM     43  C   UNL A   1      44.781  26.077  26.916  1.00  0.00     0.031 C 
ATOM     44  C   UNL A   1      38.827  27.923  29.889  1.00  0.00     0.029 A 
ATOM     45  C   UNL A   1      39.860  28.955  29.859  1.00  0.00     0.049 A 
ATOM     46  H   UNL A   1      41.753  28.817  28.999  1.00  0.00     0.167 HD
ATOM     47  C   UNL A   1      45.766  28.326  27.236  1.00  0.00     0.034 A 
ATOM     48  C   UNL A   1      39.754  30.191  30.392  1.00  0.00     0.034 A 
ATOM     49  C   UNL A   1      45.719  29.687  27.711  1.00  0.00     0.049 A 
ATOM     50  C   UNL A   1      40.921  31.143  30.256  1.00  0.00     0.074 A 
ATOM     51  C   UNL A   1      46.684  30.672  27.605  1.00  0.00     0.029 A 
ATOM     52  N   UNL A   1      44.644  30.255  28.383  1.00  0.00    -0.354 N 
ATOM     53  N   UNL A   1      42.089  30.946  29.688  1.00  0.00    -0.248 NA
ATOM     54  C   UNL A   1      40.750  32.488  30.823  1.00  0.00     0.031 C 
ATOM     55  C   UNL A   1      46.219  31.813  28.266  1.00  0.00     0.029 A 
ATOM     56  C   UNL A   1      44.932  31.569  28.714  1.00  0.00     0.049 A 
ATOM     57  H   UNL A   1      43.801  29.792  28.593  1.00  0.00     0.167 HD
ATOM     58  C   UNL A   1      42.775  32.153  29.801  1.00  0.00     0.074 A 
ATOM     59  C   UNL A   1      41.885  33.075  30.473  1.00  0.00     0.031 C 
ATOM     60  C   UNL A   1      44.029  32.473  29.387  1.00  0.00     0.034 A 
BRANCH  47  61
ATOM     61  C   UNL A   1      47.014  27.833  26.545  1.00  0.00     0.023 A 
ATOM     62  C   UNL A   1      47.225  28.039  25.169  1.00  0.00     0.031 A 
ATOM     63  C   UNL A   1      47.992  27.120  27.259  1.00  0.00     0.131 A 
ATOM     64  C   UNL A   1      48.343  27.473  24.538  1.00  0.00     0.055 A 
ATOM     65  C   UNL A   1      49.147  26.632  26.641  1.00  0.00     0.041 A 
ATOM     66  F   UNL A   1      47.838  26.871  28.569  1.00  0.00    -0.206 F 
ATOM     67  C   UNL A   1      49.319  26.795  25.269  1.00  0.00     0.022 A 
BRANCH  64  68
ATOM     68  S   UNL A   1      48.430  27.517  22.726  1.00  0.00     0.124 S 
ATOM     69  O   UNL A   1      47.223  28.270  22.393  1.00  0.00    -0.237 OA
ATOM     70  O   UNL A   1      49.696  28.200  22.487  1.00  0.00    -0.237 OA
ATOM     71  O   UNL A   1      48.402  26.105  22.348  1.00  0.00    -0.744 OA
ENDBRANCH  64  68
ENDBRANCH  47  61
BRANCH  48  72
ATOM     72  C   UNL A   1      38.525  30.596  31.137  1.00  0.00     0.023 A 
ATOM     73  C   UNL A   1      37.461  31.251  30.497  1.00  0.00     0.031 A 
ATOM     74  C   UNL A   1      38.429  30.395  32.526  1.00  0.00     0.131 A 
ATOM     75  C   UNL A   1      36.377  31.732  31.250  1.00  0.00     0.055 A 
ATOM     76  C   UNL A   1      37.321  30.820  33.262  1.00  0.00     0.041 A 
ATOM     77  F   UNL A   1      39.418  29.778  33.194  1.00  0.00    -0.206 F 
ATOM     78  C   UNL A   1      36.293  31.509  32.626  1.00  0.00     0.022 A 
BRANCH  75  79
ATOM     79  S   UNL A   1      35.128  32.756  30.423  1.00  0.00     0.124 S 
ATOM     80  O   UNL A   1      34.168  32.977  31.498  1.00  0.00    -0.237 OA
ATOM     81  O   UNL A   1      35.911  33.916  30.012  1.00  0.00    -0.237 OA
ATOM     82  O   UNL A   1      34.658  31.905  29.332  1.00  0.00    -0.744 OA
ENDBRANCH  75  79
ENDBRANCH  48  72
BRANCH  60  83
ATOM     83  C   UNL A   1      44.484  33.896  29.605  1.00  0.00     0.023 A 
ATOM     84  C   UNL A   1      44.060  34.946  28.773  1.00  0.00     0.031 A 
ATOM     85  C   UNL A   1      45.358  34.202  30.664  1.00  0.00     0.131 A 
ATOM     86  C   UNL A   1      44.555  36.243  28.977  1.00  0.00     0.055 A 
ATOM     87  C   UNL A   1      45.797  35.505  30.902  1.00  0.00     0.041 A 
ATOM     88  F   UNL A   1      45.795  33.238  31.490  1.00  0.00    -0.206 F 
ATOM     89  C   UNL A   1      45.407  36.532  30.047  1.00  0.00     0.022 A 
BRANCH  86  90
ATOM     90  S   UNL A   1      44.147  37.532  27.770  1.00  0.00     0.124 S 
ATOM     91  O   UNL A   1      43.621  36.749  26.655  1.00  0.00    -0.237 OA
ATOM     92  O   UNL A   1      43.173  38.343  28.494  1.00  0.00    -0.237 OA
ATOM     93  O   UNL A   1      45.430  38.186  27.517  1.00  0.00    -0.744 OA
ENDBRANCH  86  90
ENDBRANCH  60  83
ENDBRANCH  34  35
ENDBRANCH  27  29
ENDBRANCH  26  27
ENDBRANCH  25  26
ENDBRANCH  24  25
ENDBRANCH   1  24
TORSDOF 20
ENDMDL
MODEL 2
REMARK VINA RESULT:     -11.3      4.793     10.564
REMARK SMILES Cc1n[nH]c(C)c1CC(=O)N1CC[C@H](C(=O)OCCOCCOC(=O)c2ccc(-c3c4nc(c(-c5cc(S(=O)(=O)[O-])ccc5F)c5ccc([nH]5)c(-c5cc(S(=O)(=O)[O-])ccc5F)c5nc(c(-c6cc(S(=O)(=O)[O-])ccc6F)c6ccc3[nH]6)C=C5)C=C4)cc2)[C@H]1C
REMARK SMILES IDX 20 1 19 2 18 3 17 4 15 5 16 6 14 7 11 8 12 9 89 10 13 11
REMARK SMILES IDX 90 12 9 13 10 14 8 15 7 16 1 17 2 18 3 19 4 20 5 21 6 23
REMARK SMILES IDX 21 24 22 25 23 26 24 27 25 28 26 29 27 30 88 31 28 32 87 33
REMARK SMILES IDX 29 34 30 35 31 36 81 37 32 38 86 39 80 40 82 41 33 42 85 43
REMARK SMILES IDX 79 44 78 45 34 47 66 48 46 49 65 50 47 51 50 52 64 53 83 54
REMARK SMILES IDX 48 55 49 56 63 58 84 59 51 60 35 61 36 62 44 63 37 64 43 65
REMARK SMILES IDX 45 66 42 67 38 68 39 69 40 70 41 71 67 72 68 73 76 74 69 75
REMARK SMILES IDX 75 76 77 77 74 78 70 79 71 80 72 81 73 82 52 83 53 84 61 85
REMARK SMILES IDX 54 86 60 87 62 88 59 89 55 90 56 91 57 92 58 93
REMARK H PARENT 4 22 82 46 50 57
REMARK Flexibility Score: inf
ROOT
ATOM      1  O   UNL A   1      31.741  30.501  27.106  1.00  0.00    -0.374 OA
ENDROOT
BRANCH   1   2
ATOM      2  C   UNL A   1      32.562  29.616  26.344  1.00  0.00     0.202 C 
BRANCH   2   3
ATOM      3  C   UNL A   1      31.884  28.383  25.737  1.00  0.00     0.261 C 
BRANCH   3   4
ATOM      4  O   UNL A   1      32.041  28.300  24.303  1.00  0.00    -0.463 OA
BRANCH   4   5
ATOM      5  C   UNL A   1      30.965  27.808  23.648  1.00  0.00     0.311 C 
ATOM      6  O   UNL A   1      29.894  28.399  23.530  1.00  0.00    -0.252 OA
BRANCH   5   7
ATOM      7  C   UNL A   1      31.141  26.421  23.065  1.00  0.00     0.123 C 
ATOM      8  N   UNL A   1      32.923  24.954  23.741  1.00  0.00    -0.339 N 
ATOM      9  C   UNL A   1      33.458  25.820  22.709  1.00  0.00     0.121 C 
ATOM     10  C   UNL A   1      31.482  25.191  23.937  1.00  0.00     0.096 C 
ATOM     11  C   UNL A   1      32.260  26.437  22.015  1.00  0.00     0.039 C 
ATOM     12  C   UNL A   1      30.658  24.019  23.399  1.00  0.00     0.032 C 
BRANCH   8  13
ATOM     13  C   UNL A   1      33.816  24.207  24.492  1.00  0.00     0.227 C 
ATOM     14  O   UNL A   1      34.475  24.777  25.376  1.00  0.00    -0.275 OA
BRANCH  13  15
ATOM     15  C   UNL A   1      34.231  22.785  24.109  1.00  0.00     0.139 C 
BRANCH  15  16
ATOM     16  C   UNL A   1      33.520  21.608  24.678  1.00  0.00     0.005 A 
ATOM     17  C   UNL A   1      32.113  20.814  22.638  1.00  0.00     0.069 C 
ATOM     18  C   UNL A   1      32.623  20.730  24.020  1.00  0.00     0.063 A 
ATOM     19  N   UNL A   1      32.165  19.777  24.835  1.00  0.00    -0.181 NA
ATOM     20  N   UNL A   1      32.652  20.106  26.033  1.00  0.00    -0.282 N 
ATOM     21  C   UNL A   1      33.401  21.248  26.015  1.00  0.00     0.036 A 
ATOM     22  H   UNL A   1      32.489  19.578  26.848  1.00  0.00     0.190 HD
ATOM     23  C   UNL A   1      33.868  21.886  27.271  1.00  0.00     0.066 C 
ENDBRANCH  15  16
ENDBRANCH  13  15
ENDBRANCH   8  13
ENDBRANCH   5   7
ENDBRANCH   4   5
ENDBRANCH   3   4
ENDBRANCH   2   3
ENDBRANCH   1   2
BRANCH   1  24
ATOM     24  C   UNL A   1      31.207  31.629  26.418  1.00  0.00     0.202 C 
BRANCH  24  25
ATOM     25  C   UNL A   1      31.810  33.007  26.715  1.00  0.00     0.261 C 
BRANCH  25  26
ATOM     26  O   UNL A   1      32.559  33.029  27.940  1.00  0.00    -0.460 OA
BRANCH  26  27
ATOM     27  C   UNL A   1      33.625  33.864  27.939  1.00  0.00     0.338 C 
ATOM     28  O   UNL A   1      33.608  35.083  27.820  1.00  0.00    -0.246 OA
BRANCH  27  29
ATOM     29  C   UNL A   1      34.836  33.107  28.303  1.00  0.00     0.060 A 
ATOM     30  C   UNL A   1      34.694  31.767  28.674  1.00  0.00     0.016 A 
ATOM     31  C   UNL A   1      36.091  33.711  28.312  1.00  0.00     0.016 A 
ATOM     32  C   UNL A   1      35.808  31.040  29.094  1.00  0.00     0.010 A 
ATOM     33  C   UNL A   1      37.215  32.971  28.688  1.00  0.00     0.010 A 
ATOM     34  C   UNL A   1      37.073  31.644  29.133  1.00  0.00    -0.014 A 
BRANCH  34  35
ATOM     35  C   UNL A   1      38.201  30.959  29.819  1.00  0.00     0.031 A 
ATOM     36  C   UNL A   1      38.465  31.282  31.268  1.00  0.00     0.074 A 
ATOM     37  C   UNL A   1      38.949  30.038  29.182  1.00  0.00     0.049 A 
ATOM     38  N   UNL A   1      39.410  30.845  32.061  1.00  0.00    -0.248 NA
ATOM     39  C   UNL A   1      37.548  32.242  31.903  1.00  0.00     0.031 C 
ATOM     40  C   UNL A   1      38.779  29.630  27.787  1.00  0.00     0.029 A 
ATOM     41  N   UNL A   1      40.001  29.276  29.627  1.00  0.00    -0.354 N 
ATOM     42  C   UNL A   1      39.202  31.481  33.282  1.00  0.00     0.074 A 
ATOM     43  C   UNL A   1      38.086  32.384  33.102  1.00  0.00     0.031 C 
ATOM     44  C   UNL A   1      39.693  28.689  27.493  1.00  0.00     0.029 A 
ATOM     45  C   UNL A   1      40.538  28.456  28.662  1.00  0.00     0.049 A 
ATOM     46  H   UNL A   1      40.340  29.315  30.550  1.00  0.00     0.167 HD
ATOM     47  C   UNL A   1      39.860  31.308  34.455  1.00  0.00     0.034 A 
ATOM     48  C   UNL A   1      41.604  27.628  28.711  1.00  0.00     0.034 A 
ATOM     49  C   UNL A   1      40.965  30.398  34.622  1.00  0.00     0.049 A 
ATOM     50  C   UNL A   1      42.360  27.494  30.013  1.00  0.00     0.074 A 
ATOM     51  C   UNL A   1      41.704  30.138  35.762  1.00  0.00     0.029 A 
ATOM     52  N   UNL A   1      41.491  29.596  33.617  1.00  0.00    -0.354 N 
ATOM     53  N   UNL A   1      42.147  28.097  31.161  1.00  0.00    -0.248 NA
ATOM     54  C   UNL A   1      43.493  26.558  30.030  1.00  0.00     0.031 C 
ATOM     55  C   UNL A   1      42.714  29.228  35.431  1.00  0.00     0.029 A 
ATOM     56  C   UNL A   1      42.556  28.858  34.106  1.00  0.00     0.049 A 
ATOM     57  H   UNL A   1      41.155  29.558  32.691  1.00  0.00     0.167 HD
ATOM     58  C   UNL A   1      43.099  27.588  32.041  1.00  0.00     0.074 A 
ATOM     59  C   UNL A   1      43.873  26.616  31.297  1.00  0.00     0.031 C 
ATOM     60  C   UNL A   1      43.316  27.893  33.346  1.00  0.00     0.034 A 
BRANCH  47  61
ATOM     61  C   UNL A   1      39.410  32.141  35.631  1.00  0.00     0.023 A 
ATOM     62  C   UNL A   1      39.918  33.434  35.855  1.00  0.00     0.031 A 
ATOM     63  C   UNL A   1      38.489  31.628  36.560  1.00  0.00     0.131 A 
ATOM     64  C   UNL A   1      39.561  34.136  37.016  1.00  0.00     0.055 A 
ATOM     65  C   UNL A   1      38.072  32.366  37.670  1.00  0.00     0.041 A 
ATOM     66  F   UNL A   1      37.987  30.391  36.414  1.00  0.00    -0.206 F 
ATOM     67  C   UNL A   1      38.620  33.623  37.911  1.00  0.00     0.022 A 
BRANCH  64  68
ATOM     68  S   UNL A   1      40.449  35.668  37.411  1.00  0.00     0.124 S 
ATOM     69  O   UNL A   1      41.838  35.259  37.216  1.00  0.00    -0.237 OA
ATOM     70  O   UNL A   1      39.915  36.605  36.429  1.00  0.00    -0.237 OA
ATOM     71  O   UNL A   1      40.072  35.934  38.798  1.00  0.00    -0.744 OA
ENDBRANCH  64  68
ENDBRANCH  47  61
BRANCH  48  72
ATOM     72  C   UNL A   1      42.052  26.891  27.492  1.00  0.00     0.023 A 
ATOM     73  C   UNL A   1      41.813  25.516  27.337  1.00  0.00     0.031 A 
ATOM     74  C   UNL A   1      42.793  27.544  26.490  1.00  0.00     0.131 A 
ATOM     75  C   UNL A   1      42.359  24.828  26.241  1.00  0.00     0.055 A 
ATOM     76  C   UNL A   1      43.281  26.868  25.370  1.00  0.00     0.041 A 
ATOM     77  F   UNL A   1      43.056  28.858  26.586  1.00  0.00    -0.206 F 
ATOM     78  C   UNL A   1      43.079  25.497  25.249  1.00  0.00     0.022 A 
BRANCH  75  79
ATOM     79  S   UNL A   1      42.211  23.020  26.185  1.00  0.00     0.124 S 
ATOM     80  O   UNL A   1      43.023  22.621  27.330  1.00  0.00    -0.237 OA
ATOM     81  O   UNL A   1      40.771  22.831  26.320  1.00  0.00    -0.237 OA
ATOM     82  O   UNL A   1      42.763  22.674  24.877  1.00  0.00    -0.744 OA
ENDBRANCH  75  79
ENDBRANCH  48  72
BRANCH  60  83
ATOM     83  C   UNL A   1      44.402  27.125  34.062  1.00  0.00     0.023 A 
ATOM     84  C   UNL A   1      44.207  25.806  34.507  1.00  0.00     0.031 A 
ATOM     85  C   UNL A   1      45.649  27.728  34.303  1.00  0.00     0.131 A 
ATOM     86  C   UNL A   1      45.224  25.153  35.220  1.00  0.00     0.055 A 
ATOM     87  C   UNL A   1      46.680  27.050  34.956  1.00  0.00     0.041 A 
ATOM     88  F   UNL A   1      45.890  28.986  33.901  1.00  0.00    -0.206 F 
ATOM     89  C   UNL A   1      46.465  25.760  35.432  1.00  0.00     0.022 A 
BRANCH  86  90
ATOM     90  S   UNL A   1      44.872  23.531  35.950  1.00  0.00     0.124 S 
ATOM     91  O   UNL A   1      43.521  23.265  35.462  1.00  0.00    -0.237 OA
ATOM     92  O   UNL A   1      45.928  22.697  35.386  1.00  0.00    -0.237 OA
ATOM     93  O   UNL A   1      44.975  23.772  37.388  1.00  0.00    -0.744 OA
ENDBRANCH  86  90
ENDBRANCH  60  83
ENDBRANCH  34  35
ENDBRANCH  27  29
ENDBRANCH  26  27
ENDBRANCH  25  26
ENDBRANCH  24  25
ENDBRANCH   1  24
TORSDOF 20
ENDMDL
MODEL 3
REMARK VINA RESULT:     -11.2      1.623      2.131
REMARK SMILES Cc1n[nH]c(C)c1CC(=O)N1CC[C@H](C(=O)OCCOCCOC(=O)c2ccc(-c3c4nc(c(-c5cc(S(=O)(=O)[O-])ccc5F)c5ccc([nH]5)c(-c5cc(S(=O)(=O)[O-])ccc5F)c5nc(c(-c6cc(S(=O)(=O)[O-])ccc6F)c6ccc3[nH]6)C=C5)C=C4)cc2)[C@H]1C
REMARK SMILES IDX 20 1 19 2 18 3 17 4 15 5 16 6 14 7 11 8 12 9 89 10 13 11
REMARK SMILES IDX 90 12 9 13 10 14 8 15 7 16 1 17 2 18 3 19 4 20 5 21 6 23
REMARK SMILES IDX 21 24 22 25 23 26 24 27 25 28 26 29 27 30 88 31 28 32 87 33
REMARK SMILES IDX 29 34 30 35 31 36 81 37 32 38 86 39 80 40 82 41 33 42 85 43
REMARK SMILES IDX 79 44 78 45 34 47 66 48 46 49 65 50 47 51 50 52 64 53 83 54
REMARK SMILES IDX 48 55 49 56 63 58 84 59 51 60 35 61 36 62 44 63 37 64 43 65
REMARK SMILES IDX 45 66 42 67 38 68 39 69 40 70 41 71 67 72 68 73 76 74 69 75
REMARK SMILES IDX 75 76 77 77 74 78 70 79 71 80 72 81 73 82 52 83 53 84 61 85
REMARK SMILES IDX 54 86 60 87 62 88 59 89 55 90 56 91 57 92 58 93
REMARK H PARENT 4 22 82 46 50 57
REMARK Flexibility Score: inf
ROOT
ATOM      1  O   UNL A   1      35.610  18.334  24.636  1.00  0.00    -0.374 OA
ENDROOT
BRANCH   1   2
ATOM      2  C   UNL A   1      34.187  18.295  24.742  1.00  0.00     0.202 C 
BRANCH   2   3
ATOM      3  C   UNL A   1      33.395  19.288  23.886  1.00  0.00     0.261 C 
BRANCH   3   4
ATOM      4  O   UNL A   1      32.285  19.885  24.592  1.00  0.00    -0.463 OA
BRANCH   4   5
ATOM      5  C   UNL A   1      32.164  21.221  24.422  1.00  0.00     0.311 C 
ATOM      6  O   UNL A   1      32.271  21.797  23.342  1.00  0.00    -0.252 OA
BRANCH   5   7
ATOM      7  C   UNL A   1      31.908  22.014  25.687  1.00  0.00     0.123 C 
ATOM      8  N   UNL A   1      32.676  24.276  25.971  1.00  0.00    -0.339 N 
ATOM      9  C   UNL A   1      33.777  23.406  26.338  1.00  0.00     0.121 C 
ATOM     10  C   UNL A   1      31.465  23.495  25.663  1.00  0.00     0.096 C 
ATOM     11  C   UNL A   1      33.174  22.032  26.554  1.00  0.00     0.039 C 
ATOM     12  C   UNL A   1      30.413  23.664  26.762  1.00  0.00     0.032 C 
BRANCH   8  13
ATOM     13  C   UNL A   1      32.944  25.621  25.779  1.00  0.00     0.227 C 
ATOM     14  O   UNL A   1      34.086  25.958  25.428  1.00  0.00    -0.275 OA
BRANCH  13  15
ATOM     15  C   UNL A   1      31.994  26.727  26.240  1.00  0.00     0.139 C 
BRANCH  15  16
ATOM     16  C   UNL A   1      31.417  27.688  25.262  1.00  0.00     0.005 A 
ATOM     17  C   UNL A   1      32.163  29.968  26.273  1.00  0.00     0.069 C 
ATOM     18  C   UNL A   1      31.523  29.102  25.264  1.00  0.00     0.063 A 
ATOM     19  N   UNL A   1      30.878  29.655  24.234  1.00  0.00    -0.181 NA
ATOM     20  N   UNL A   1      30.253  28.631  23.649  1.00  0.00    -0.282 N 
ATOM     21  C   UNL A   1      30.470  27.438  24.278  1.00  0.00     0.036 A 
ATOM     22  H   UNL A   1      29.693  28.726  22.845  1.00  0.00     0.190 HD
ATOM     23  C   UNL A   1      29.713  26.218  23.901  1.00  0.00     0.066 C 
ENDBRANCH  15  16
ENDBRANCH  13  15
ENDBRANCH   8  13
ENDBRANCH   5   7
ENDBRANCH   4   5
ENDBRANCH   3   4
ENDBRANCH   2   3
ENDBRANCH   1   2
BRANCH   1  24
ATOM     24  C   UNL A   1      36.241  19.567  24.971  1.00  0.00     0.202 C 
BRANCH  24  25
ATOM     25  C   UNL A   1      37.774  19.612  24.984  1.00  0.00     0.261 C 
BRANCH  25  26
ATOM     26  O   UNL A   1      38.285  20.820  25.568  1.00  0.00    -0.460 OA
BRANCH  26  27
ATOM     27  C   UNL A   1      39.511  20.702  26.133  1.00  0.00     0.338 C 
ATOM     28  O   UNL A   1      40.266  19.740  26.065  1.00  0.00    -0.246 OA
BRANCH  27  29
ATOM     29  C   UNL A   1      39.912  22.002  26.699  1.00  0.00     0.060 A 
ATOM     30  C   UNL A   1      39.211  23.145  26.300  1.00  0.00     0.016 A 
ATOM     31  C   UNL A   1      40.981  22.106  27.586  1.00  0.00     0.016 A 
ATOM     32  C   UNL A   1      39.609  24.400  26.760  1.00  0.00     0.010 A 
ATOM     33  C   UNL A   1      41.351  23.359  28.083  1.00  0.00     0.010 A 
ATOM     34  C   UNL A   1      40.700  24.521  27.632  1.00  0.00    -0.014 A 
BRANCH  34  35
ATOM     35  C   UNL A   1      41.280  25.861  27.913  1.00  0.00     0.031 A 
ATOM     36  C   UNL A   1      42.669  26.164  27.409  1.00  0.00     0.074 A 
ATOM     37  C   UNL A   1      40.573  26.805  28.563  1.00  0.00     0.049 A 
ATOM     38  N   UNL A   1      43.396  27.241  27.565  1.00  0.00    -0.248 NA
ATOM     39  C   UNL A   1      43.335  25.099  26.642  1.00  0.00     0.031 C 
ATOM     40  C   UNL A   1      39.216  26.636  29.082  1.00  0.00     0.029 A 
ATOM     41  N   UNL A   1      40.899  28.097  28.895  1.00  0.00    -0.354 N 
ATOM     42  C   UNL A   1      44.602  26.979  26.920  1.00  0.00     0.074 A 
ATOM     43  C   UNL A   1      44.533  25.619  26.434  1.00  0.00     0.031 C 
ATOM     44  C   UNL A   1      38.825  27.783  29.664  1.00  0.00     0.029 A 
ATOM     45  C   UNL A   1      39.914  28.754  29.596  1.00  0.00     0.049 A 
ATOM     46  H   UNL A   1      41.758  28.513  28.656  1.00  0.00     0.167 HD
ATOM     47  C   UNL A   1      45.659  27.805  26.723  1.00  0.00     0.034 A 
ATOM     48  C   UNL A   1      39.903  29.990  30.139  1.00  0.00     0.034 A 
ATOM     49  C   UNL A   1      45.711  29.162  27.207  1.00  0.00     0.049 A 
ATOM     50  C   UNL A   1      41.115  30.875  29.958  1.00  0.00     0.074 A 
ATOM     51  C   UNL A   1      46.726  30.091  27.064  1.00  0.00     0.029 A 
ATOM     52  N   UNL A   1      44.700  29.787  27.925  1.00  0.00    -0.354 N 
ATOM     53  N   UNL A   1      42.245  30.615  29.340  1.00  0.00    -0.248 NA
ATOM     54  C   UNL A   1      41.047  32.223  30.538  1.00  0.00     0.031 C 
ATOM     55  C   UNL A   1      46.356  31.252  27.750  1.00  0.00     0.029 A 
ATOM     56  C   UNL A   1      45.077  31.079  28.251  1.00  0.00     0.049 A 
ATOM     57  H   UNL A   1      43.840  29.371  28.169  1.00  0.00     0.167 HD
ATOM     58  C   UNL A   1      43.005  31.779  29.430  1.00  0.00     0.074 A 
ATOM     59  C   UNL A   1      42.198  32.746  30.143  1.00  0.00     0.031 C 
ATOM     60  C   UNL A   1      44.257  32.029  28.965  1.00  0.00     0.034 A 
BRANCH  47  61
ATOM     61  C   UNL A   1      46.847  27.246  25.977  1.00  0.00     0.023 A 
ATOM     62  C   UNL A   1      47.892  26.583  26.646  1.00  0.00     0.031 A 
ATOM     63  C   UNL A   1      46.954  27.403  24.585  1.00  0.00     0.131 A 
ATOM     64  C   UNL A   1      49.030  26.173  25.936  1.00  0.00     0.055 A 
ATOM     65  C   UNL A   1      48.052  26.916  23.871  1.00  0.00     0.041 A 
ATOM     66  F   UNL A   1      46.000  28.047  23.893  1.00  0.00    -0.206 F 
ATOM     67  C   UNL A   1      49.105  26.309  24.549  1.00  0.00     0.022 A 
BRANCH  64  68
ATOM     68  S   UNL A   1      50.470  25.585  26.871  1.00  0.00     0.124 S 
ATOM     69  O   UNL A   1      51.395  25.237  25.795  1.00  0.00    -0.237 OA
ATOM     70  O   UNL A   1      50.827  26.751  27.669  1.00  0.00    -0.237 OA
ATOM     71  O   UNL A   1      49.946  24.448  27.626  1.00  0.00    -0.744 OA
ENDBRANCH  64  68
ENDBRANCH  47  61
BRANCH  48  72
ATOM     72  C   UNL A   1      38.731  30.461  30.937  1.00  0.00     0.023 A 
ATOM     73  C   UNL A   1      37.624  31.072  30.326  1.00  0.00     0.031 A 
ATOM     74  C   UNL A   1      38.735  30.367  32.341  1.00  0.00     0.131 A 
ATOM     75  C   UNL A   1      36.599  31.617  31.115  1.00  0.00     0.055 A 
ATOM     76  C   UNL A   1      37.684  30.856  33.119  1.00  0.00     0.041 A 
ATOM     77  F   UNL A   1      39.769  29.796  32.981  1.00  0.00    -0.206 F 
ATOM     78  C   UNL A   1      36.614  31.500  32.507  1.00  0.00     0.022 A 
BRANCH  75  79
ATOM     79  S   UNL A   1      35.294  32.583  30.304  1.00  0.00     0.124 S 
ATOM     80  O   UNL A   1      34.946  31.724  29.178  1.00  0.00    -0.237 OA
ATOM     81  O   UNL A   1      34.297  32.693  31.363  1.00  0.00    -0.237 OA
ATOM     82  O   UNL A   1      35.966  33.832  29.951  1.00  0.00    -0.744 OA
ENDBRANCH  75  79
ENDBRANCH  48  72
BRANCH  60  83
ATOM     83  C   UNL A   1      44.802  33.422  29.171  1.00  0.00     0.023 A 
ATOM     84  C   UNL A   1      44.467  34.484  28.314  1.00  0.00     0.031 A 
ATOM     85  C   UNL A   1      45.673  33.686  30.244  1.00  0.00     0.131 A 
ATOM     86  C   UNL A   1      45.044  35.748  28.508  1.00  0.00     0.055 A 
ATOM     87  C   UNL A   1      46.194  34.961  30.471  1.00  0.00     0.041 A 
ATOM     88  F   UNL A   1      46.027  32.710  31.093  1.00  0.00    -0.206 F 
ATOM     89  C   UNL A   1      45.892  35.997  29.592  1.00  0.00     0.022 A 
BRANCH  86  90
ATOM     90  S   UNL A   1      44.748  37.041  27.273  1.00  0.00     0.124 S 
ATOM     91  O   UNL A   1      44.448  38.199  28.111  1.00  0.00    -0.237 OA
ATOM     92  O   UNL A   1      46.017  37.086  26.555  1.00  0.00    -0.237 OA
ATOM     93  O   UNL A   1      43.618  36.526  26.500  1.00  0.00    -0.744 OA
ENDBRANCH  86  90
ENDBRANCH  60  83
ENDBRANCH  34  35
ENDBRANCH  27  29
ENDBRANCH  26  27
ENDBRANCH  25  26
ENDBRANCH  24  25
ENDBRANCH   1  24
TORSDOF 20
ENDMDL
