MODEL 1
REMARK VINA RESULT:     -12.8      0.000      0.000
REMARK SMILES O=C(OCCOCCOC(=O)c1ccc(-c2c3nc(c(-c4cc(S(=O)(=O)[O-])ccc4F)c4ccc([nH]4)c(-c4cc(S(=O)(=O)[O-])ccc4F)c4nc(c(-c5cc(S(=O)(=O)[O-])ccc5F)c5ccc2[nH]5)C=C4)C=C3)cc1)C1=Cc2cc(Cl)c(Cl)c(Cl)c2O[C@@H]1C(F)(F)F
REMARK SMILES IDX 7 1 6 2 5 3 4 4 3 5 2 6 1 7 75 8 76 9 87 10 77 11 86 12
REMARK SMILES IDX 78 13 85 14 79 15 83 16 80 17 81 18 84 19 82 20 88 21 89 22
REMARK SMILES IDX 90 23 91 24 8 25 9 26 10 27 11 28 12 29 13 30 74 31 14 32
REMARK SMILES IDX 73 33 15 34 16 35 17 36 67 37 18 38 72 39 66 40 68 41 19 42
REMARK SMILES IDX 71 43 65 44 64 45 20 47 52 48 32 49 51 50 33 51 36 52 50 53
REMARK SMILES IDX 69 54 34 55 35 56 49 58 70 59 37 60 21 61 22 62 30 63 23 64
REMARK SMILES IDX 29 65 31 66 28 67 24 68 25 69 26 70 27 71 53 72 54 73 62 74
REMARK SMILES IDX 55 75 61 76 63 77 60 78 56 79 57 80 58 81 59 82 38 83 39 84
REMARK SMILES IDX 47 85 40 86 46 87 48 88 45 89 41 90 42 91 43 92 44 93
REMARK H PARENT 68 46 36 57
REMARK Flexibility Score: inf
ROOT
ATOM      1  C   UNL A   1      35.639  20.704  25.377  1.00  0.00     0.202 C 
ENDROOT
BRANCH   1   2
ATOM      2  O   UNL A   1      35.340  21.676  26.389  1.00  0.00    -0.374 OA
BRANCH   2   3
ATOM      3  C   UNL A   1      34.051  22.033  27.262  1.00  0.00     0.202 C 
BRANCH   3   4
ATOM      4  C   UNL A   1      31.948  22.267  26.765  1.00  0.00     0.261 C 
BRANCH   4   5
ATOM      5  O   UNL A   1      31.359  23.095  25.612  1.00  0.00    -0.460 OA
BRANCH   5   6
ATOM      6  C   UNL A   1      31.240  24.389  25.915  1.00  0.00     0.338 C 
ATOM      7  O   UNL A   1      30.648  24.913  26.824  1.00  0.00    -0.246 OA
BRANCH   6   8
ATOM      8  C   UNL A   1      31.691  24.883  24.631  1.00  0.00     0.087 C 
ATOM      9  C   UNL A   1      30.589  25.497  23.857  1.00  0.00     0.027 C 
ATOM     10  C   UNL A   1      33.225  25.842  25.315  1.00  0.00     0.316 C 
ATOM     11  C   UNL A   1      30.407  27.283  23.621  1.00  0.00     0.020 A 
ATOM     12  O   UNL A   1      33.006  27.755  25.146  1.00  0.00    -0.474 OA
ATOM     13  C   UNL A   1      29.278  27.748  23.008  1.00  0.00     0.034 A 
ATOM     14  C   UNL A   1      31.498  28.420  24.346  1.00  0.00     0.148 A 
ATOM     15  C   UNL A   1      29.064  29.132  23.112  1.00  0.00     0.062 A 
ATOM     16  C   UNL A   1      31.098  29.713  24.577  1.00  0.00     0.103 A 
ATOM     17  Cl  UNL A   1      27.655  29.691  22.240  1.00  0.00    -0.083 Cl
ATOM     18  C   UNL A   1      29.874  30.055  23.916  1.00  0.00     0.082 A 
ATOM     19  Cl  UNL A   1      31.778  30.634  25.851  1.00  0.00    -0.079 Cl
ATOM     20  Cl  UNL A   1      29.199  31.645  24.148  1.00  0.00    -0.081 Cl
BRANCH  10  21
ATOM     21  C   UNL A   1      34.329  24.831  24.761  1.00  0.00     0.430 C 
ATOM     22  F   UNL A   1      33.904  23.594  24.454  1.00  0.00    -0.167 F 
ATOM     23  F   UNL A   1      34.771  25.342  23.570  1.00  0.00    -0.167 F 
ATOM     24  F   UNL A   1      35.447  24.738  25.517  1.00  0.00    -0.167 F 
ENDBRANCH  10  21
ENDBRANCH   6   8
ENDBRANCH   5   6
ENDBRANCH   4   5
ENDBRANCH   3   4
ENDBRANCH   2   3
ENDBRANCH   1   2
BRANCH   1  25
ATOM     25  C   UNL A   1      37.089  20.443  25.000  1.00  0.00     0.261 C 
BRANCH  25  26
ATOM     26  O   UNL A   1      37.921  21.557  25.238  1.00  0.00    -0.460 OA
BRANCH  26  27
ATOM     27  C   UNL A   1      39.071  21.232  25.865  1.00  0.00     0.338 C 
ATOM     28  O   UNL A   1      39.636  20.153  25.869  1.00  0.00    -0.246 OA
BRANCH  27  29
ATOM     29  C   UNL A   1      39.569  22.433  26.546  1.00  0.00     0.060 A 
ATOM     30  C   UNL A   1      38.946  23.644  26.242  1.00  0.00     0.016 A 
ATOM     31  C   UNL A   1      40.611  22.365  27.487  1.00  0.00     0.016 A 
ATOM     32  C   UNL A   1      39.367  24.799  26.884  1.00  0.00     0.010 A 
ATOM     33  C   UNL A   1      41.019  23.518  28.143  1.00  0.00     0.010 A 
ATOM     34  C   UNL A   1      40.414  24.738  27.818  1.00  0.00    -0.014 A 
BRANCH  34  35
ATOM     35  C   UNL A   1      41.057  26.002  28.206  1.00  0.00     0.031 A 
ATOM     36  C   UNL A   1      42.454  26.212  27.713  1.00  0.00     0.074 A 
ATOM     37  C   UNL A   1      40.391  26.948  28.886  1.00  0.00     0.049 A 
ATOM     38  N   UNL A   1      43.209  27.272  27.794  1.00  0.00    -0.248 NA
ATOM     39  C   UNL A   1      43.086  25.066  27.035  1.00  0.00     0.031 C 
ATOM     40  C   UNL A   1      39.029  26.818  29.390  1.00  0.00     0.029 A 
ATOM     41  N   UNL A   1      40.762  28.216  29.241  1.00  0.00    -0.354 N 
ATOM     42  C   UNL A   1      44.397  26.923  27.166  1.00  0.00     0.074 A 
ATOM     43  C   UNL A   1      44.285  25.542  26.760  1.00  0.00     0.031 C 
ATOM     44  C   UNL A   1      38.648  27.988  29.931  1.00  0.00     0.029 A 
ATOM     45  C   UNL A   1      39.768  28.923  29.877  1.00  0.00     0.049 A 
ATOM     46  H   UNL A   1      41.656  28.587  29.059  1.00  0.00     0.167 HD
ATOM     47  C   UNL A   1      45.479  27.701  26.943  1.00  0.00     0.034 A 
ATOM     48  C   UNL A   1      39.782  30.178  30.365  1.00  0.00     0.034 A 
ATOM     49  C   UNL A   1      45.576  29.058  27.409  1.00  0.00     0.049 A 
ATOM     50  C   UNL A   1      41.048  30.987  30.198  1.00  0.00     0.074 A 
ATOM     51  C   UNL A   1      46.627  29.942  27.270  1.00  0.00     0.029 A 
ATOM     52  N   UNL A   1      44.589  29.718  28.132  1.00  0.00    -0.354 N 
ATOM     53  N   UNL A   1      42.169  30.660  29.590  1.00  0.00    -0.248 NA
ATOM     54  C   UNL A   1      41.049  32.334  30.776  1.00  0.00     0.031 C 
ATOM     55  C   UNL A   1      46.319  31.097  27.995  1.00  0.00     0.029 A 
ATOM     56  C   UNL A   1      45.025  30.985  28.483  1.00  0.00     0.049 A 
ATOM     57  H   UNL A   1      43.708  29.340  28.363  1.00  0.00     0.167 HD
ATOM     58  C   UNL A   1      42.987  31.785  29.669  1.00  0.00     0.074 A 
ATOM     59  C   UNL A   1      42.224  32.795  30.376  1.00  0.00     0.031 C 
ATOM     60  C   UNL A   1      44.245  31.975  29.191  1.00  0.00     0.034 A 
BRANCH  47  61
ATOM     61  C   UNL A   1      46.651  27.053  26.252  1.00  0.00     0.023 A 
ATOM     62  C   UNL A   1      47.667  26.395  26.969  1.00  0.00     0.031 A 
ATOM     63  C   UNL A   1      46.796  27.170  24.860  1.00  0.00     0.131 A 
ATOM     64  C   UNL A   1      48.821  25.958  26.301  1.00  0.00     0.055 A 
ATOM     65  C   UNL A   1      47.901  26.645  24.189  1.00  0.00     0.041 A 
ATOM     66  F   UNL A   1      45.881  27.827  24.130  1.00  0.00    -0.206 F 
ATOM     67  C   UNL A   1      48.930  26.051  24.912  1.00  0.00     0.022 A 
BRANCH  64  68
ATOM     68  S   UNL A   1      50.252  25.443  27.290  1.00  0.00     0.124 S 
ATOM     69  O   UNL A   1      49.775  24.188  27.867  1.00  0.00    -0.237 OA
ATOM     70  O   UNL A   1      51.304  25.325  26.287  1.00  0.00    -0.237 OA
ATOM     71  O   UNL A   1      50.419  26.535  28.246  1.00  0.00    -0.744 OA
ENDBRANCH  64  68
ENDBRANCH  47  61
BRANCH  48  72
ATOM     72  C   UNL A   1      38.599  30.743  31.078  1.00  0.00     0.023 A 
ATOM     73  C   UNL A   1      37.636  31.510  30.400  1.00  0.00     0.031 A 
ATOM     74  C   UNL A   1      38.455  30.595  32.469  1.00  0.00     0.131 A 
ATOM     75  C   UNL A   1      36.615  32.151  31.121  1.00  0.00     0.055 A 
ATOM     76  C   UNL A   1      37.399  31.177  33.172  1.00  0.00     0.041 A 
ATOM     77  F   UNL A   1      39.349  29.882  33.173  1.00  0.00    -0.206 F 
ATOM     78  C   UNL A   1      36.480  31.975  32.499  1.00  0.00     0.022 A 
BRANCH  75  79
ATOM     79  S   UNL A   1      35.534  33.320  30.249  1.00  0.00     0.124 S 
ATOM     80  O   UNL A   1      34.450  32.448  29.810  1.00  0.00    -0.237 OA
ATOM     81  O   UNL A   1      35.206  34.274  31.302  1.00  0.00    -0.237 OA
ATOM     82  O   UNL A   1      36.388  33.840  29.182  1.00  0.00    -0.744 OA
ENDBRANCH  75  79
ENDBRANCH  48  72
BRANCH  60  83
ATOM     83  C   UNL A   1      44.840  33.355  29.346  1.00  0.00     0.023 A 
ATOM     84  C   UNL A   1      44.655  34.366  28.389  1.00  0.00     0.031 A 
ATOM     85  C   UNL A   1      45.626  33.652  30.476  1.00  0.00     0.131 A 
ATOM     86  C   UNL A   1      45.316  35.594  28.536  1.00  0.00     0.055 A 
ATOM     87  C   UNL A   1      46.205  34.906  30.662  1.00  0.00     0.041 A 
ATOM     88  F   UNL A   1      45.845  32.724  31.422  1.00  0.00    -0.206 F 
ATOM     89  C   UNL A   1      46.068  35.879  29.678  1.00  0.00     0.022 A 
BRANCH  86  90
ATOM     90  S   UNL A   1      45.303  36.757  27.146  1.00  0.00     0.124 S 
ATOM     91  O   UNL A   1      46.049  36.021  26.129  1.00  0.00    -0.237 OA
ATOM     92  O   UNL A   1      43.877  36.926  26.893  1.00  0.00    -0.237 OA
ATOM     93  O   UNL A   1      45.983  37.937  27.680  1.00  0.00    -0.744 OA
ENDBRANCH  86  90
ENDBRANCH  60  83
ENDBRANCH  34  35
ENDBRANCH  27  29
ENDBRANCH  26  27
ENDBRANCH  25  26
ENDBRANCH   1  25
TORSDOF 18
ENDMDL
MODEL 2
REMARK VINA RESULT:     -12.8      1.527      1.851
REMARK SMILES O=C(OCCOCCOC(=O)c1ccc(-c2c3nc(c(-c4cc(S(=O)(=O)[O-])ccc4F)c4ccc([nH]4)c(-c4cc(S(=O)(=O)[O-])ccc4F)c4nc(c(-c5cc(S(=O)(=O)[O-])ccc5F)c5ccc2[nH]5)C=C4)C=C3)cc1)C1=Cc2cc(Cl)c(Cl)c(Cl)c2O[C@@H]1C(F)(F)F
REMARK SMILES IDX 7 1 6 2 5 3 4 4 3 5 2 6 1 7 75 8 76 9 87 10 77 11 86 12
REMARK SMILES IDX 78 13 85 14 79 15 83 16 80 17 81 18 84 19 82 20 88 21 89 22
REMARK SMILES IDX 90 23 91 24 8 25 9 26 10 27 11 28 12 29 13 30 74 31 14 32
REMARK SMILES IDX 73 33 15 34 16 35 17 36 67 37 18 38 72 39 66 40 68 41 19 42
REMARK SMILES IDX 71 43 65 44 64 45 20 47 52 48 32 49 51 50 33 51 36 52 50 53
REMARK SMILES IDX 69 54 34 55 35 56 49 58 70 59 37 60 21 61 22 62 30 63 23 64
REMARK SMILES IDX 29 65 31 66 28 67 24 68 25 69 26 70 27 71 53 72 54 73 62 74
REMARK SMILES IDX 55 75 61 76 63 77 60 78 56 79 57 80 58 81 59 82 38 83 39 84
REMARK SMILES IDX 47 85 40 86 46 87 48 88 45 89 41 90 42 91 43 92 44 93
REMARK H PARENT 68 46 36 57
REMARK Flexibility Score: inf
ROOT
ATOM      1  C   UNL A   1      36.238  20.814  24.929  1.00  0.00     0.202 C 
ENDROOT
BRANCH   1   2
ATOM      2  O   UNL A   1      35.444  21.330  26.007  1.00  0.00    -0.374 OA
BRANCH   2   3
ATOM      3  C   UNL A   1      33.953  21.088  26.523  1.00  0.00     0.202 C 
BRANCH   3   4
ATOM      4  C   UNL A   1      32.259  22.417  26.821  1.00  0.00     0.261 C 
BRANCH   4   5
ATOM      5  O   UNL A   1      31.469  23.163  25.734  1.00  0.00    -0.460 OA
BRANCH   5   6
ATOM      6  C   UNL A   1      31.301  24.457  26.014  1.00  0.00     0.338 C 
ATOM      7  O   UNL A   1      30.669  24.974  26.899  1.00  0.00    -0.246 OA
BRANCH   6   8
ATOM      8  C   UNL A   1      31.771  24.947  24.736  1.00  0.00     0.087 C 
ATOM      9  C   UNL A   1      30.674  25.533  23.933  1.00  0.00     0.027 C 
ATOM     10  C   UNL A   1      33.272  25.940  25.443  1.00  0.00     0.316 C 
ATOM     11  C   UNL A   1      30.465  27.313  23.674  1.00  0.00     0.020 A 
ATOM     12  O   UNL A   1      33.022  27.847  25.250  1.00  0.00    -0.474 OA
ATOM     13  C   UNL A   1      29.342  27.751  23.033  1.00  0.00     0.034 A 
ATOM     14  C   UNL A   1      31.519  28.477  24.412  1.00  0.00     0.148 A 
ATOM     15  C   UNL A   1      29.100  29.132  23.118  1.00  0.00     0.062 A 
ATOM     16  C   UNL A   1      31.091  29.764  24.621  1.00  0.00     0.103 A 
ATOM     17  Cl  UNL A   1      27.700  29.657  22.211  1.00  0.00    -0.083 Cl
ATOM     18  C   UNL A   1      29.876  30.077  23.930  1.00  0.00     0.082 A 
ATOM     19  Cl  UNL A   1      31.727  30.709  25.900  1.00  0.00    -0.079 Cl
ATOM     20  Cl  UNL A   1      29.167  31.656  24.132  1.00  0.00    -0.081 Cl
BRANCH  10  21
ATOM     21  C   UNL A   1      34.405  24.944  24.923  1.00  0.00     0.430 C 
ATOM     22  F   UNL A   1      33.992  23.736  24.505  1.00  0.00    -0.167 F 
ATOM     23  F   UNL A   1      34.954  25.518  23.806  1.00  0.00    -0.167 F 
ATOM     24  F   UNL A   1      35.454  24.786  25.763  1.00  0.00    -0.167 F 
ENDBRANCH  10  21
ENDBRANCH   6   8
ENDBRANCH   5   6
ENDBRANCH   4   5
ENDBRANCH   3   4
ENDBRANCH   2   3
ENDBRANCH   1   2
BRANCH   1  25
ATOM     25  C   UNL A   1      37.746  21.008  24.954  1.00  0.00     0.261 C 
BRANCH  25  26
ATOM     26  O   UNL A   1      38.149  22.011  25.861  1.00  0.00    -0.460 OA
BRANCH  26  27
ATOM     27  C   UNL A   1      39.439  21.891  26.240  1.00  0.00     0.338 C 
ATOM     28  O   UNL A   1      40.186  20.950  26.046  1.00  0.00    -0.246 OA
BRANCH  27  29
ATOM     29  C   UNL A   1      39.823  23.130  26.928  1.00  0.00     0.060 A 
ATOM     30  C   UNL A   1      39.011  24.248  26.732  1.00  0.00     0.016 A 
ATOM     31  C   UNL A   1      40.946  23.183  27.772  1.00  0.00     0.016 A 
ATOM     32  C   UNL A   1      39.323  25.430  27.386  1.00  0.00     0.010 A 
ATOM     33  C   UNL A   1      41.246  24.362  28.441  1.00  0.00     0.010 A 
ATOM     34  C   UNL A   1      40.448  25.491  28.223  1.00  0.00    -0.014 A 
BRANCH  34  35
ATOM     35  C   UNL A   1      40.941  26.822  28.609  1.00  0.00     0.031 A 
ATOM     36  C   UNL A   1      42.355  27.139  28.236  1.00  0.00     0.074 A 
ATOM     37  C   UNL A   1      40.135  27.729  29.182  1.00  0.00     0.049 A 
ATOM     38  N   UNL A   1      43.004  28.264  28.336  1.00  0.00    -0.248 NA
ATOM     39  C   UNL A   1      43.144  26.029  27.671  1.00  0.00     0.031 C 
ATOM     40  C   UNL A   1      38.747  27.496  29.565  1.00  0.00     0.029 A 
ATOM     41  N   UNL A   1      40.359  29.038  29.510  1.00  0.00    -0.354 N 
ATOM     42  C   UNL A   1      44.272  28.000  27.836  1.00  0.00     0.074 A 
ATOM     43  C   UNL A   1      44.318  26.600  27.485  1.00  0.00     0.031 C 
ATOM     44  C   UNL A   1      38.217  28.647  30.015  1.00  0.00     0.029 A 
ATOM     45  C   UNL A   1      39.253  29.676  30.019  1.00  0.00     0.049 A 
ATOM     46  H   UNL A   1      41.231  29.481  29.393  1.00  0.00     0.167 HD
ATOM     47  C   UNL A   1      45.300  28.863  27.676  1.00  0.00     0.034 A 
ATOM     48  C   UNL A   1      39.112  30.945  30.448  1.00  0.00     0.034 A 
ATOM     49  C   UNL A   1      45.235  30.240  28.086  1.00  0.00     0.049 A 
ATOM     50  C   UNL A   1      40.314  31.857  30.361  1.00  0.00     0.074 A 
ATOM     51  C   UNL A   1      46.214  31.209  28.003  1.00  0.00     0.029 A 
ATOM     52  N   UNL A   1      44.130  30.836  28.686  1.00  0.00    -0.354 N 
ATOM     53  N   UNL A   1      41.511  31.610  29.873  1.00  0.00    -0.248 NA
ATOM     54  C   UNL A   1      40.144  33.220  30.873  1.00  0.00     0.031 C 
ATOM     55  C   UNL A   1      45.741  32.358  28.643  1.00  0.00     0.029 A 
ATOM     56  C   UNL A   1      44.420  32.149  29.015  1.00  0.00     0.049 A 
ATOM     57  H   UNL A   1      43.268  30.389  28.852  1.00  0.00     0.167 HD
ATOM     58  C   UNL A   1      42.218  32.807  29.973  1.00  0.00     0.074 A 
ATOM     59  C   UNL A   1      41.308  33.770  30.561  1.00  0.00     0.031 C 
ATOM     60  C   UNL A   1      43.495  33.091  29.603  1.00  0.00     0.034 A 
BRANCH  47  61
ATOM     61  C   UNL A   1      46.583  28.298  27.125  1.00  0.00     0.023 A 
ATOM     62  C   UNL A   1      46.871  28.309  25.748  1.00  0.00     0.031 A 
ATOM     63  C   UNL A   1      47.494  27.661  27.985  1.00  0.00     0.131 A 
ATOM     64  C   UNL A   1      47.994  27.621  25.266  1.00  0.00     0.055 A 
ATOM     65  C   UNL A   1      48.661  27.064  27.507  1.00  0.00     0.041 A 
ATOM     66  F   UNL A   1      47.249  27.580  29.302  1.00  0.00    -0.206 F 
ATOM     67  C   UNL A   1      48.907  27.025  26.138  1.00  0.00     0.022 A 
BRANCH  64  68
ATOM     68  S   UNL A   1      48.143  27.352  23.478  1.00  0.00     0.124 S 
ATOM     69  O   UNL A   1      46.986  28.087  22.971  1.00  0.00    -0.237 OA
ATOM     70  O   UNL A   1      49.448  27.929  23.178  1.00  0.00    -0.237 OA
ATOM     71  O   UNL A   1      48.056  25.899  23.341  1.00  0.00    -0.744 OA
ENDBRANCH  64  68
ENDBRANCH  47  61
BRANCH  48  72
ATOM     72  C   UNL A   1      37.822  31.428  31.025  1.00  0.00     0.023 A 
ATOM     73  C   UNL A   1      36.835  32.011  30.213  1.00  0.00     0.031 A 
ATOM     74  C   UNL A   1      37.592  31.389  32.411  1.00  0.00     0.131 A 
ATOM     75  C   UNL A   1      35.696  32.588  30.800  1.00  0.00     0.055 A 
ATOM     76  C   UNL A   1      36.427  31.903  32.983  1.00  0.00     0.041 A 
ATOM     77  F   UNL A   1      38.503  30.853  33.238  1.00  0.00    -0.206 F 
ATOM     78  C   UNL A   1      35.478  32.523  32.177  1.00  0.00     0.022 A 
BRANCH  75  79
ATOM     79  S   UNL A   1      34.561  33.538  29.749  1.00  0.00     0.124 S 
ATOM     80  O   UNL A   1      33.684  34.150  30.740  1.00  0.00    -0.237 OA
ATOM     81  O   UNL A   1      35.473  34.440  29.054  1.00  0.00    -0.237 OA
ATOM     82  O   UNL A   1      33.939  32.516  28.910  1.00  0.00    -0.744 OA
ENDBRANCH  75  79
ENDBRANCH  48  72
BRANCH  60  83
ATOM     83  C   UNL A   1      43.951  34.524  29.748  1.00  0.00     0.023 A 
ATOM     84  C   UNL A   1      43.708  35.494  28.763  1.00  0.00     0.031 A 
ATOM     85  C   UNL A   1      44.663  34.915  30.898  1.00  0.00     0.131 A 
ATOM     86  C   UNL A   1      44.245  36.782  28.905  1.00  0.00     0.055 A 
ATOM     87  C   UNL A   1      45.114  36.222  31.077  1.00  0.00     0.041 A 
ATOM     88  F   UNL A   1      44.932  34.031  31.872  1.00  0.00    -0.206 F 
ATOM     89  C   UNL A   1      44.924  37.159  30.067  1.00  0.00     0.022 A 
BRANCH  86  90
ATOM     90  S   UNL A   1      44.175  37.912  27.489  1.00  0.00     0.124 S 
ATOM     91  O   UNL A   1      43.926  39.195  28.139  1.00  0.00    -0.237 OA
ATOM     92  O   UNL A   1      45.496  37.745  26.892  1.00  0.00    -0.237 OA
ATOM     93  O   UNL A   1      43.064  37.394  26.692  1.00  0.00    -0.744 OA
ENDBRANCH  86  90
ENDBRANCH  60  83
ENDBRANCH  34  35
ENDBRANCH  27  29
ENDBRANCH  26  27
ENDBRANCH  25  26
ENDBRANCH   1  25
TORSDOF 18
ENDMDL
MODEL 3
REMARK VINA RESULT:     -12.4      4.769      9.940
REMARK SMILES O=C(OCCOCCOC(=O)c1ccc(-c2c3nc(c(-c4cc(S(=O)(=O)[O-])ccc4F)c4ccc([nH]4)c(-c4cc(S(=O)(=O)[O-])ccc4F)c4nc(c(-c5cc(S(=O)(=O)[O-])ccc5F)c5ccc2[nH]5)C=C4)C=C3)cc1)C1=Cc2cc(Cl)c(Cl)c(Cl)c2O[C@@H]1C(F)(F)F
REMARK SMILES IDX 7 1 6 2 5 3 4 4 3 5 2 6 1 7 75 8 76 9 87 10 77 11 86 12
REMARK SMILES IDX 78 13 85 14 79 15 83 16 80 17 81 18 84 19 82 20 88 21 89 22
REMARK SMILES IDX 90 23 91 24 8 25 9 26 10 27 11 28 12 29 13 30 74 31 14 32
REMARK SMILES IDX 73 33 15 34 16 35 17 36 67 37 18 38 72 39 66 40 68 41 19 42
REMARK SMILES IDX 71 43 65 44 64 45 20 47 52 48 32 49 51 50 33 51 36 52 50 53
REMARK SMILES IDX 69 54 34 55 35 56 49 58 70 59 37 60 21 61 22 62 30 63 23 64
REMARK SMILES IDX 29 65 31 66 28 67 24 68 25 69 26 70 27 71 53 72 54 73 62 74
REMARK SMILES IDX 55 75 61 76 63 77 60 78 56 79 57 80 58 81 59 82 38 83 39 84
REMARK SMILES IDX 47 85 40 86 46 87 48 88 45 89 41 90 42 91 43 92 44 93
REMARK H PARENT 68 46 36 57
REMARK Flexibility Score: inf
ROOT
ATOM      1  C   UNL A   1      31.735  29.756  25.285  1.00  0.00     0.202 C 
ENDROOT
BRANCH   1   2
ATOM      2  O   UNL A   1      32.856  29.490  24.429  1.00  0.00    -0.374 OA
BRANCH   2   3
ATOM      3  C   UNL A   1      33.121  28.519  23.190  1.00  0.00     0.202 C 
BRANCH   3   4
ATOM      4  C   UNL A   1      31.838  27.172  22.066  1.00  0.00     0.261 C 
BRANCH   4   5
ATOM      5  O   UNL A   1      31.553  25.695  22.379  1.00  0.00    -0.460 OA
BRANCH   5   6
ATOM      6  C   UNL A   1      32.650  25.023  22.736  1.00  0.00     0.338 C 
ATOM      7  O   UNL A   1      33.658  24.812  22.112  1.00  0.00    -0.246 OA
BRANCH   6   8
ATOM      8  C   UNL A   1      32.051  24.361  23.876  1.00  0.00     0.087 C 
ATOM      9  C   UNL A   1      31.683  22.960  23.571  1.00  0.00     0.027 C 
ATOM     10  C   UNL A   1      33.408  24.892  25.149  1.00  0.00     0.316 C 
ATOM     11  C   UNL A   1      32.601  21.527  24.189  1.00  0.00     0.020 A 
ATOM     12  O   UNL A   1      34.452  23.381  25.752  1.00  0.00    -0.474 OA
ATOM     13  C   UNL A   1      32.256  20.287  23.733  1.00  0.00     0.034 A 
ATOM     14  C   UNL A   1      34.034  21.701  25.150  1.00  0.00     0.148 A 
ATOM     15  C   UNL A   1      33.176  19.264  24.019  1.00  0.00     0.062 A 
ATOM     16  C   UNL A   1      34.965  20.693  25.194  1.00  0.00     0.103 A 
ATOM     17  Cl  UNL A   1      32.652  17.681  23.491  1.00  0.00    -0.083 Cl
ATOM     18  C   UNL A   1      34.492  19.460  24.639  1.00  0.00     0.082 A 
ATOM     19  Cl  UNL A   1      36.618  21.029  25.491  1.00  0.00    -0.079 Cl
ATOM     20  Cl  UNL A   1      35.569  18.091  24.570  1.00  0.00    -0.081 Cl
BRANCH  10  21
ATOM     21  C   UNL A   1      32.515  25.963  25.925  1.00  0.00     0.430 C 
ATOM     22  F   UNL A   1      31.490  26.494  25.238  1.00  0.00    -0.167 F 
ATOM     23  F   UNL A   1      31.918  25.301  26.965  1.00  0.00    -0.167 F 
ATOM     24  F   UNL A   1      33.210  26.958  26.521  1.00  0.00    -0.167 F 
ENDBRANCH  10  21
ENDBRANCH   6   8
ENDBRANCH   5   6
ENDBRANCH   4   5
ENDBRANCH   3   4
ENDBRANCH   2   3
ENDBRANCH   1   2
BRANCH   1  25
ATOM     25  C   UNL A   1      31.827  30.878  26.307  1.00  0.00     0.261 C 
BRANCH  25  26
ATOM     26  O   UNL A   1      32.823  30.645  27.280  1.00  0.00    -0.460 OA
BRANCH  26  27
ATOM     27  C   UNL A   1      33.513  31.759  27.604  1.00  0.00     0.338 C 
ATOM     28  O   UNL A   1      33.110  32.908  27.610  1.00  0.00    -0.246 OA
BRANCH  27  29
ATOM     29  C   UNL A   1      34.871  31.352  27.986  1.00  0.00     0.060 A 
ATOM     30  C   UNL A   1      35.096  29.990  28.192  1.00  0.00     0.016 A 
ATOM     31  C   UNL A   1      35.910  32.290  28.113  1.00  0.00     0.016 A 
ATOM     32  C   UNL A   1      36.370  29.560  28.527  1.00  0.00     0.010 A 
ATOM     33  C   UNL A   1      37.190  31.856  28.430  1.00  0.00     0.010 A 
ATOM     34  C   UNL A   1      37.410  30.493  28.664  1.00  0.00    -0.014 A 
BRANCH  34  35
ATOM     35  C   UNL A   1      38.635  30.057  29.351  1.00  0.00     0.031 A 
ATOM     36  C   UNL A   1      38.839  30.579  30.738  1.00  0.00     0.074 A 
ATOM     37  C   UNL A   1      39.471  29.167  28.794  1.00  0.00     0.049 A 
ATOM     38  N   UNL A   1      39.751  30.265  31.613  1.00  0.00    -0.248 NA
ATOM     39  C   UNL A   1      37.878  31.598  31.198  1.00  0.00     0.031 C 
ATOM     40  C   UNL A   1      39.332  28.608  27.454  1.00  0.00     0.029 A 
ATOM     41  N   UNL A   1      40.584  28.554  29.301  1.00  0.00    -0.354 N 
ATOM     42  C   UNL A   1      39.467  31.038  32.731  1.00  0.00     0.074 A 
ATOM     43  C   UNL A   1      38.335  31.873  32.405  1.00  0.00     0.031 C 
ATOM     44  C   UNL A   1      40.285  27.678  27.265  1.00  0.00     0.029 A 
ATOM     45  C   UNL A   1      41.143  27.633  28.445  1.00  0.00     0.049 A 
ATOM     46  H   UNL A   1      40.950  28.753  30.193  1.00  0.00     0.167 HD
ATOM     47  C   UNL A   1      40.096  31.035  33.927  1.00  0.00     0.034 A 
ATOM     48  C   UNL A   1      42.233  26.859  28.608  1.00  0.00     0.034 A 
ATOM     49  C   UNL A   1      41.254  30.227  34.199  1.00  0.00     0.049 A 
ATOM     50  C   UNL A   1      42.983  26.959  29.917  1.00  0.00     0.074 A 
ATOM     51  C   UNL A   1      41.998  30.153  35.359  1.00  0.00     0.029 A 
ATOM     52  N   UNL A   1      41.855  29.372  33.281  1.00  0.00    -0.354 N 
ATOM     53  N   UNL A   1      42.703  27.681  30.981  1.00  0.00    -0.248 NA
ATOM     54  C   UNL A   1      44.188  26.136  30.050  1.00  0.00     0.031 C 
ATOM     55  C   UNL A   1      43.104  29.334  35.112  1.00  0.00     0.029 A 
ATOM     56  C   UNL A   1      42.985  28.798  33.838  1.00  0.00     0.049 A 
ATOM     57  H   UNL A   1      41.525  29.200  32.368  1.00  0.00     0.167 HD
ATOM     58  C   UNL A   1      43.672  27.356  31.927  1.00  0.00     0.074 A 
ATOM     59  C   UNL A   1      44.534  26.369  31.306  1.00  0.00     0.031 C 
ATOM     60  C   UNL A   1      43.830  27.816  33.196  1.00  0.00     0.034 A 
BRANCH  47  61
ATOM     61  C   UNL A   1      39.587  32.001  34.965  1.00  0.00     0.023 A 
ATOM     62  C   UNL A   1      40.095  33.308  35.079  1.00  0.00     0.031 A 
ATOM     63  C   UNL A   1      38.638  31.577  35.911  1.00  0.00     0.131 A 
ATOM     64  C   UNL A   1      39.716  34.111  36.165  1.00  0.00     0.055 A 
ATOM     65  C   UNL A   1      38.192  32.417  36.931  1.00  0.00     0.041 A 
ATOM     66  F   UNL A   1      38.152  30.327  35.879  1.00  0.00    -0.206 F 
ATOM     67  C   UNL A   1      38.744  33.686  37.073  1.00  0.00     0.022 A 
BRANCH  64  68
ATOM     68  S   UNL A   1      40.645  35.637  36.480  1.00  0.00     0.124 S 
ATOM     69  O   UNL A   1      41.709  35.158  37.360  1.00  0.00    -0.237 OA
ATOM     70  O   UNL A   1      41.057  36.040  35.141  1.00  0.00    -0.237 OA
ATOM     71  O   UNL A   1      39.663  36.510  37.121  1.00  0.00    -0.744 OA
ENDBRANCH  64  68
ENDBRANCH  47  61
BRANCH  48  72
ATOM     72  C   UNL A   1      42.708  25.954  27.519  1.00  0.00     0.023 A 
ATOM     73  C   UNL A   1      42.182  24.661  27.365  1.00  0.00     0.031 A 
ATOM     74  C   UNL A   1      43.757  26.340  26.666  1.00  0.00     0.131 A 
ATOM     75  C   UNL A   1      42.749  23.780  26.428  1.00  0.00     0.055 A 
ATOM     76  C   UNL A   1      44.271  25.485  25.689  1.00  0.00     0.041 A 
ATOM     77  F   UNL A   1      44.306  27.561  26.772  1.00  0.00    -0.206 F 
ATOM     78  C   UNL A   1      43.777  24.190  25.578  1.00  0.00     0.022 A 
BRANCH  75  79
ATOM     79  S   UNL A   1      42.205  22.049  26.419  1.00  0.00     0.124 S 
ATOM     80  O   UNL A   1      40.779  22.189  26.147  1.00  0.00    -0.237 OA
ATOM     81  O   UNL A   1      43.012  21.481  25.344  1.00  0.00    -0.237 OA
ATOM     82  O   UNL A   1      42.541  21.580  27.762  1.00  0.00    -0.744 OA
ENDBRANCH  75  79
ENDBRANCH  48  72
BRANCH  60  83
ATOM     83  C   UNL A   1      44.930  27.192  34.023  1.00  0.00     0.023 A 
ATOM     84  C   UNL A   1      46.228  27.725  34.074  1.00  0.00     0.031 A 
ATOM     85  C   UNL A   1      44.667  26.024  34.764  1.00  0.00     0.131 A 
ATOM     86  C   UNL A   1      47.234  27.045  34.776  1.00  0.00     0.055 A 
ATOM     87  C   UNL A   1      45.648  25.404  35.536  1.00  0.00     0.041 A 
ATOM     88  F   UNL A   1      43.447  25.464  34.751  1.00  0.00    -0.206 F 
ATOM     89  C   UNL A   1      46.947  25.903  35.528  1.00  0.00     0.022 A 
BRANCH  86  90
ATOM     90  S   UNL A   1      48.952  27.586  34.572  1.00  0.00     0.124 S 
ATOM     91  O   UNL A   1      48.973  28.824  35.346  1.00  0.00    -0.237 OA
ATOM     92  O   UNL A   1      49.701  26.469  35.135  1.00  0.00    -0.237 OA
ATOM     93  O   UNL A   1      49.088  27.758  33.126  1.00  0.00    -0.744 OA
ENDBRANCH  86  90
ENDBRANCH  60  83
ENDBRANCH  34  35
ENDBRANCH  27  29
ENDBRANCH  26  27
ENDBRANCH  25  26
ENDBRANCH   1  25
TORSDOF 18
ENDMDL
