MODEL 1
REMARK VINA RESULT:     -11.3      0.000      0.000
REMARK SMILES Nc1ccc(-c2cc3ccccc3s2)c(C(=O)OCCOCCOC(=O)c2ccc(-c3c4nc(c(-c5cc(S(=O)(=O)[O-])ccc5F)c5ccc([nH]5)c(-c5cc(S(=O)(=O)[O-])ccc5F)c5nc(c(-c6cc(S(=O)(=O)[O-])ccc6F)c6ccc3[nH]6)C=C5)C=C4)cc2)n1
REMARK SMILES IDX 22 1 21 2 20 3 19 4 18 5 16 6 17 7 15 8 2 9 3 10 90 11 4 12
REMARK SMILES IDX 5 13 1 14 6 17 7 18 14 19 8 20 13 21 9 22 12 23 10 24 11 25
REMARK SMILES IDX 23 26 24 27 25 28 26 29 27 30 28 31 89 32 29 33 88 34 30 35
REMARK SMILES IDX 31 36 32 37 82 38 33 39 87 40 81 41 83 42 34 43 86 44 80 45
REMARK SMILES IDX 79 46 35 48 67 49 47 50 66 51 48 52 51 53 65 54 84 55 49 56
REMARK SMILES IDX 50 57 64 59 85 60 52 61 36 62 37 63 45 64 38 65 44 66 46 67
REMARK SMILES IDX 43 68 39 69 40 70 41 71 42 72 68 73 69 74 77 75 70 76 76 77
REMARK SMILES IDX 78 78 75 79 71 80 72 81 73 82 74 83 53 84 54 85 62 86 55 87
REMARK SMILES IDX 61 88 63 89 60 90 56 91 57 92 58 93 59 94
REMARK H PARENT 1 15 1 16 83 47 51 58
REMARK Flexibility Score: inf
ROOT
ATOM      1  C   UNL A   1      37.359  19.906  24.716  1.00  0.00     0.202 C 
ENDROOT
BRANCH   1   2
ATOM      2  O   UNL A   1      37.200  21.276  25.085  1.00  0.00    -0.374 OA
BRANCH   2   3
ATOM      3  C   UNL A   1      37.032  22.226  24.030  1.00  0.00     0.202 C 
BRANCH   3   4
ATOM      4  C   UNL A   1      36.461  23.583  24.449  1.00  0.00     0.261 C 
BRANCH   4   5
ATOM      5  O   UNL A   1      35.134  23.408  24.969  1.00  0.00    -0.458 OA
BRANCH   5   6
ATOM      6  C   UNL A   1      34.123  23.899  24.214  1.00  0.00     0.357 C 
ATOM      7  O   UNL A   1      34.191  24.223  23.037  1.00  0.00    -0.244 OA
BRANCH   6   8
ATOM      8  C   UNL A   1      32.851  23.858  24.995  1.00  0.00     0.159 A 
ATOM      9  C   UNL A   1      31.331  25.188  26.142  1.00  0.00     0.124 A 
ATOM     10  C   UNL A   1      30.554  24.084  26.444  1.00  0.00     0.047 A 
ATOM     11  N   UNL A   1      32.459  25.095  25.432  1.00  0.00    -0.224 NA
ATOM     12  C   UNL A   1      30.960  22.826  25.994  1.00  0.00     0.016 A 
ATOM     13  C   UNL A   1      32.129  22.684  25.233  1.00  0.00     0.025 A 
BRANCH   9  14
ATOM     14  N   UNL A   1      30.933  26.458  26.504  1.00  0.00    -0.384 N 
ATOM     15  H   UNL A   1      30.210  26.907  26.010  1.00  0.00     0.158 HD
ATOM     16  H   UNL A   1      31.373  26.914  27.257  1.00  0.00     0.158 HD
ENDBRANCH   9  14
BRANCH  13  17
ATOM     17  C   UNL A   1      32.536  21.355  24.755  1.00  0.00     0.038 A 
ATOM     18  C   UNL A   1      32.152  20.681  23.614  1.00  0.00     0.029 A 
ATOM     19  S   UNL A   1      33.604  20.402  25.697  1.00  0.00    -0.135 S 
ATOM     20  C   UNL A   1      32.723  19.370  23.507  1.00  0.00    -0.007 A 
ATOM     21  C   UNL A   1      33.573  19.098  24.579  1.00  0.00     0.035 A 
ATOM     22  C   UNL A   1      32.554  18.377  22.514  1.00  0.00     0.009 A 
ATOM     23  C   UNL A   1      34.281  17.884  24.671  1.00  0.00     0.019 A 
ATOM     24  C   UNL A   1      33.258  17.175  22.597  1.00  0.00     0.001 A 
ATOM     25  C   UNL A   1      34.117  16.935  23.660  1.00  0.00     0.001 A 
ENDBRANCH  13  17
ENDBRANCH   6   8
ENDBRANCH   5   6
ENDBRANCH   4   5
ENDBRANCH   3   4
ENDBRANCH   2   3
ENDBRANCH   1   2
BRANCH   1  26
ATOM     26  C   UNL A   1      38.634  19.201  25.200  1.00  0.00     0.261 C 
BRANCH  26  27
ATOM     27  O   UNL A   1      39.114  19.695  26.463  1.00  0.00    -0.460 OA
BRANCH  27  28
ATOM     28  C   UNL A   1      40.438  19.990  26.481  1.00  0.00     0.338 C 
ATOM     29  O   UNL A   1      41.349  19.293  26.053  1.00  0.00    -0.246 OA
BRANCH  28  30
ATOM     30  C   UNL A   1      40.660  21.367  26.955  1.00  0.00     0.060 A 
ATOM     31  C   UNL A   1      40.055  22.406  26.236  1.00  0.00     0.016 A 
ATOM     32  C   UNL A   1      41.522  21.652  28.016  1.00  0.00     0.016 A 
ATOM     33  C   UNL A   1      40.346  23.733  26.542  1.00  0.00     0.010 A 
ATOM     34  C   UNL A   1      41.816  22.988  28.319  1.00  0.00     0.010 A 
ATOM     35  C   UNL A   1      41.256  24.036  27.563  1.00  0.00    -0.014 A 
BRANCH  35  36
ATOM     36  C   UNL A   1      41.721  25.434  27.753  1.00  0.00     0.031 A 
ATOM     37  C   UNL A   1      43.106  25.817  27.307  1.00  0.00     0.074 A 
ATOM     38  C   UNL A   1      40.914  26.366  28.292  1.00  0.00     0.049 A 
ATOM     39  N   UNL A   1      43.734  26.958  27.435  1.00  0.00    -0.248 NA
ATOM     40  C   UNL A   1      43.881  24.774  26.619  1.00  0.00     0.031 C 
ATOM     41  C   UNL A   1      39.523  26.150  28.683  1.00  0.00     0.029 A 
ATOM     42  N   UNL A   1      41.157  27.676  28.623  1.00  0.00    -0.354 N 
ATOM     43  C   UNL A   1      44.971  26.779  26.825  1.00  0.00     0.074 A 
ATOM     44  C   UNL A   1      45.023  25.401  26.384  1.00  0.00     0.031 C 
ATOM     45  C   UNL A   1      39.050  27.274  29.247  1.00  0.00     0.029 A 
ATOM     46  C   UNL A   1      40.114  28.273  29.291  1.00  0.00     0.049 A 
ATOM     47  H   UNL A   1      41.995  28.142  28.403  1.00  0.00     0.167 HD
ATOM     48  C   UNL A   1      45.960  27.687  26.630  1.00  0.00     0.034 A 
ATOM     49  C   UNL A   1      40.037  29.470  29.905  1.00  0.00     0.034 A 
ATOM     50  C   UNL A   1      45.901  29.054  27.091  1.00  0.00     0.049 A 
ATOM     51  C   UNL A   1      41.208  30.415  29.822  1.00  0.00     0.074 A 
ATOM     52  C   UNL A   1      46.832  30.064  26.919  1.00  0.00     0.029 A 
ATOM     53  N   UNL A   1      44.861  29.601  27.832  1.00  0.00    -0.354 N 
ATOM     54  N   UNL A   1      42.366  30.243  29.228  1.00  0.00    -0.248 NA
ATOM     55  C   UNL A   1      41.051  31.723  30.469  1.00  0.00     0.031 C 
ATOM     56  C   UNL A   1      46.393  31.193  27.621  1.00  0.00     0.029 A 
ATOM     57  C   UNL A   1      45.149  30.917  28.163  1.00  0.00     0.049 A 
ATOM     58  H   UNL A   1      44.038  29.123  28.086  1.00  0.00     0.167 HD
ATOM     59  C   UNL A   1      43.054  31.443  29.384  1.00  0.00     0.074 A 
ATOM     60  C   UNL A   1      42.185  32.324  30.137  1.00  0.00     0.031 C 
ATOM     61  C   UNL A   1      44.284  31.790  28.926  1.00  0.00     0.034 A 
BRANCH  48  62
ATOM     62  C   UNL A   1      47.207  27.209  25.926  1.00  0.00     0.023 A 
ATOM     63  C   UNL A   1      48.215  26.501  26.605  1.00  0.00     0.031 A 
ATOM     64  C   UNL A   1      47.405  27.491  24.563  1.00  0.00     0.131 A 
ATOM     65  C   UNL A   1      49.405  26.167  25.940  1.00  0.00     0.055 A 
ATOM     66  C   UNL A   1      48.558  27.086  23.886  1.00  0.00     0.041 A 
ATOM     67  F   UNL A   1      46.488  28.181  23.867  1.00  0.00    -0.206 F 
ATOM     68  C   UNL A   1      49.573  26.433  24.579  1.00  0.00     0.022 A 
BRANCH  65  69
ATOM     69  S   UNL A   1      50.789  25.512  26.914  1.00  0.00     0.124 S 
ATOM     70  O   UNL A   1      50.149  24.412  27.633  1.00  0.00    -0.237 OA
ATOM     71  O   UNL A   1      51.747  25.131  25.883  1.00  0.00    -0.237 OA
ATOM     72  O   UNL A   1      51.186  26.644  27.748  1.00  0.00    -0.744 OA
ENDBRANCH  65  69
ENDBRANCH  48  62
BRANCH  49  73
ATOM     73  C   UNL A   1      38.825  29.828  30.693  1.00  0.00     0.023 A 
ATOM     74  C   UNL A   1      37.816  30.639  30.155  1.00  0.00     0.031 A 
ATOM     75  C   UNL A   1      38.686  29.393  32.025  1.00  0.00     0.131 A 
ATOM     76  C   UNL A   1      36.731  31.026  30.957  1.00  0.00     0.055 A 
ATOM     77  C   UNL A   1      37.584  29.746  32.804  1.00  0.00     0.041 A 
ATOM     78  F   UNL A   1      39.620  28.607  32.583  1.00  0.00    -0.206 F 
ATOM     79  C   UNL A   1      36.604  30.578  32.273  1.00  0.00     0.022 A 
BRANCH  76  80
ATOM     80  S   UNL A   1      35.516  32.184  30.269  1.00  0.00     0.124 S 
ATOM     81  O   UNL A   1      34.548  32.278  31.356  1.00  0.00    -0.237 OA
ATOM     82  O   UNL A   1      36.331  33.370  30.032  1.00  0.00    -0.237 OA
ATOM     83  O   UNL A   1      35.043  31.505  29.065  1.00  0.00    -0.744 OA
ENDBRANCH  76  80
ENDBRANCH  49  73
BRANCH  61  84
ATOM     84  C   UNL A   1      44.734  33.210  29.173  1.00  0.00     0.023 A 
ATOM     85  C   UNL A   1      45.449  33.575  30.327  1.00  0.00     0.031 A 
ATOM     86  C   UNL A   1      44.419  34.219  28.244  1.00  0.00     0.131 A 
ATOM     87  C   UNL A   1      45.776  34.921  30.549  1.00  0.00     0.055 A 
ATOM     88  C   UNL A   1      44.802  35.547  28.442  1.00  0.00     0.041 A 
ATOM     89  F   UNL A   1      43.733  33.930  27.128  1.00  0.00    -0.206 F 
ATOM     90  C   UNL A   1      45.472  35.906  29.606  1.00  0.00     0.022 A 
BRANCH  87  91
ATOM     91  S   UNL A   1      46.520  35.386  32.138  1.00  0.00     0.124 S 
ATOM     92  O   UNL A   1      47.925  35.057  31.922  1.00  0.00    -0.237 OA
ATOM     93  O   UNL A   1      46.205  36.808  32.226  1.00  0.00    -0.237 OA
ATOM     94  O   UNL A   1      45.826  34.537  33.104  1.00  0.00    -0.744 OA
ENDBRANCH  87  91
ENDBRANCH  61  84
ENDBRANCH  35  36
ENDBRANCH  28  30
ENDBRANCH  27  28
ENDBRANCH  26  27
ENDBRANCH   1  26
TORSDOF 19
ENDMDL
MODEL 2
REMARK VINA RESULT:     -11.3      5.073     10.221
REMARK SMILES Nc1ccc(-c2cc3ccccc3s2)c(C(=O)OCCOCCOC(=O)c2ccc(-c3c4nc(c(-c5cc(S(=O)(=O)[O-])ccc5F)c5ccc([nH]5)c(-c5cc(S(=O)(=O)[O-])ccc5F)c5nc(c(-c6cc(S(=O)(=O)[O-])ccc6F)c6ccc3[nH]6)C=C5)C=C4)cc2)n1
REMARK SMILES IDX 22 1 21 2 20 3 19 4 18 5 16 6 17 7 15 8 2 9 3 10 90 11 4 12
REMARK SMILES IDX 5 13 1 14 6 17 7 18 14 19 8 20 13 21 9 22 12 23 10 24 11 25
REMARK SMILES IDX 23 26 24 27 25 28 26 29 27 30 28 31 89 32 29 33 88 34 30 35
REMARK SMILES IDX 31 36 32 37 82 38 33 39 87 40 81 41 83 42 34 43 86 44 80 45
REMARK SMILES IDX 79 46 35 48 67 49 47 50 66 51 48 52 51 53 65 54 84 55 49 56
REMARK SMILES IDX 50 57 64 59 85 60 52 61 36 62 37 63 45 64 38 65 44 66 46 67
REMARK SMILES IDX 43 68 39 69 40 70 41 71 42 72 68 73 69 74 77 75 70 76 76 77
REMARK SMILES IDX 78 78 75 79 71 80 72 81 73 82 74 83 53 84 54 85 62 86 55 87
REMARK SMILES IDX 61 88 63 89 60 90 56 91 57 92 58 93 59 94
REMARK H PARENT 1 15 1 16 83 47 51 58
REMARK Flexibility Score: inf
ROOT
ATOM      1  C   UNL A   1      31.717  31.088  26.189  1.00  0.00     0.202 C 
ENDROOT
BRANCH   1   2
ATOM      2  O   UNL A   1      32.416  30.024  26.835  1.00  0.00    -0.374 OA
BRANCH   2   3
ATOM      3  C   UNL A   1      33.297  29.234  26.032  1.00  0.00     0.202 C 
BRANCH   3   4
ATOM      4  C   UNL A   1      33.088  29.342  24.520  1.00  0.00     0.261 C 
BRANCH   4   5
ATOM      5  O   UNL A   1      33.926  28.390  23.848  1.00  0.00    -0.458 OA
BRANCH   5   6
ATOM      6  C   UNL A   1      33.355  27.698  22.833  1.00  0.00     0.357 C 
ATOM      7  O   UNL A   1      33.814  27.551  21.709  1.00  0.00    -0.244 OA
BRANCH   6   8
ATOM      8  C   UNL A   1      32.127  27.007  23.328  1.00  0.00     0.159 A 
ATOM      9  C   UNL A   1      29.816  27.193  23.463  1.00  0.00     0.124 A 
ATOM     10  C   UNL A   1      29.730  25.977  24.116  1.00  0.00     0.047 A 
ATOM     11  N   UNL A   1      30.982  27.713  23.069  1.00  0.00    -0.224 NA
ATOM     12  C   UNL A   1      30.901  25.263  24.375  1.00  0.00     0.016 A 
ATOM     13  C   UNL A   1      32.146  25.762  23.966  1.00  0.00     0.025 A 
BRANCH   9  14
ATOM     14  N   UNL A   1      28.681  27.900  23.123  1.00  0.00    -0.384 N 
ATOM     15  H   UNL A   1      28.758  28.738  22.611  1.00  0.00     0.158 HD
ATOM     16  H   UNL A   1      27.796  27.565  23.390  1.00  0.00     0.158 HD
ENDBRANCH   9  14
BRANCH  13  17
ATOM     17  C   UNL A   1      33.369  24.993  24.235  1.00  0.00     0.038 A 
ATOM     18  C   UNL A   1      34.230  25.068  25.310  1.00  0.00     0.029 A 
ATOM     19  S   UNL A   1      33.919  23.841  23.092  1.00  0.00    -0.135 S 
ATOM     20  C   UNL A   1      35.357  24.187  25.202  1.00  0.00    -0.007 A 
ATOM     21  C   UNL A   1      35.295  23.426  24.034  1.00  0.00     0.035 A 
ATOM     22  C   UNL A   1      36.455  23.996  26.071  1.00  0.00     0.009 A 
ATOM     23  C   UNL A   1      36.273  22.461  23.730  1.00  0.00     0.019 A 
ATOM     24  C   UNL A   1      37.425  23.036  25.777  1.00  0.00     0.001 A 
ATOM     25  C   UNL A   1      37.329  22.272  24.622  1.00  0.00     0.001 A 
ENDBRANCH  13  17
ENDBRANCH   6   8
ENDBRANCH   5   6
ENDBRANCH   4   5
ENDBRANCH   3   4
ENDBRANCH   2   3
ENDBRANCH   1   2
BRANCH   1  26
ATOM     26  C   UNL A   1      31.638  32.423  26.942  1.00  0.00     0.261 C 
BRANCH  26  27
ATOM     27  O   UNL A   1      32.827  33.223  26.813  1.00  0.00    -0.460 OA
BRANCH  27  28
ATOM     28  C   UNL A   1      33.345  33.649  27.991  1.00  0.00     0.338 C 
ATOM     29  O   UNL A   1      32.834  34.444  28.770  1.00  0.00    -0.246 OA
BRANCH  28  30
ATOM     30  C   UNL A   1      34.574  32.907  28.321  1.00  0.00     0.060 A 
ATOM     31  C   UNL A   1      34.434  31.581  28.751  1.00  0.00     0.016 A 
ATOM     32  C   UNL A   1      35.830  33.517  28.312  1.00  0.00     0.016 A 
ATOM     33  C   UNL A   1      35.541  30.875  29.219  1.00  0.00     0.010 A 
ATOM     34  C   UNL A   1      36.939  32.807  28.788  1.00  0.00     0.010 A 
ATOM     35  C   UNL A   1      36.796  31.492  29.274  1.00  0.00    -0.014 A 
BRANCH  35  36
ATOM     36  C   UNL A   1      37.927  30.815  29.960  1.00  0.00     0.031 A 
ATOM     37  C   UNL A   1      38.254  31.184  31.381  1.00  0.00     0.074 A 
ATOM     38  C   UNL A   1      38.643  29.861  29.338  1.00  0.00     0.049 A 
ATOM     39  N   UNL A   1      39.233  30.767  32.144  1.00  0.00    -0.248 NA
ATOM     40  C   UNL A   1      37.351  32.146  32.030  1.00  0.00     0.031 C 
ATOM     41  C   UNL A   1      38.376  29.347  27.997  1.00  0.00     0.029 A 
ATOM     42  N   UNL A   1      39.756  29.170  29.747  1.00  0.00    -0.354 N 
ATOM     43  C   UNL A   1      39.053  31.399  33.370  1.00  0.00     0.074 A 
ATOM     44  C   UNL A   1      37.907  32.273  33.224  1.00  0.00     0.031 C 
ATOM     45  C   UNL A   1      39.329  28.458  27.674  1.00  0.00     0.029 A 
ATOM     46  C   UNL A   1      40.293  28.368  28.767  1.00  0.00     0.049 A 
ATOM     47  H   UNL A   1      40.133  29.241  30.653  1.00  0.00     0.167 HD
ATOM     48  C   UNL A   1      39.763  31.245  34.515  1.00  0.00     0.034 A 
ATOM     49  C   UNL A   1      41.447  27.674  28.737  1.00  0.00     0.034 A 
ATOM     50  C   UNL A   1      40.914  30.382  34.640  1.00  0.00     0.049 A 
ATOM     51  C   UNL A   1      42.317  27.641  29.966  1.00  0.00     0.074 A 
ATOM     52  C   UNL A   1      41.685  30.129  35.762  1.00  0.00     0.029 A 
ATOM     53  N   UNL A   1      41.474  29.645  33.604  1.00  0.00    -0.354 N 
ATOM     54  N   UNL A   1      42.129  28.227  31.126  1.00  0.00    -0.248 NA
ATOM     55  C   UNL A   1      43.539  26.830  29.892  1.00  0.00     0.031 C 
ATOM     56  C   UNL A   1      42.753  29.305  35.386  1.00  0.00     0.029 A 
ATOM     57  C   UNL A   1      42.604  28.976  34.049  1.00  0.00     0.049 A 
ATOM     58  H   UNL A   1      41.119  29.605  32.687  1.00  0.00     0.167 HD
ATOM     59  C   UNL A   1      43.182  27.812  31.935  1.00  0.00     0.074 A 
ATOM     60  C   UNL A   1      44.006  26.935  31.128  1.00  0.00     0.031 C 
ATOM     61  C   UNL A   1      43.431  28.112  33.236  1.00  0.00     0.034 A 
BRANCH  48  62
ATOM     62  C   UNL A   1      39.335  32.067  35.708  1.00  0.00     0.023 A 
ATOM     63  C   UNL A   1      38.611  31.503  36.773  1.00  0.00     0.031 A 
ATOM     64  C   UNL A   1      39.627  33.441  35.765  1.00  0.00     0.131 A 
ATOM     65  C   UNL A   1      38.141  32.321  37.811  1.00  0.00     0.055 A 
ATOM     66  C   UNL A   1      39.224  34.236  36.840  1.00  0.00     0.041 A 
ATOM     67  F   UNL A   1      40.296  34.040  34.767  1.00  0.00    -0.206 F 
ATOM     68  C   UNL A   1      38.462  33.680  37.864  1.00  0.00     0.022 A 
BRANCH  65  69
ATOM     69  S   UNL A   1      36.978  31.617  39.013  1.00  0.00     0.124 S 
ATOM     70  O   UNL A   1      36.803  30.262  38.496  1.00  0.00    -0.237 OA
ATOM     71  O   UNL A   1      37.713  31.734  40.267  1.00  0.00    -0.237 OA
ATOM     72  O   UNL A   1      35.802  32.477  38.897  1.00  0.00    -0.744 OA
ENDBRANCH  65  69
ENDBRANCH  48  62
BRANCH  49  73
ATOM     73  C   UNL A   1      41.874  26.991  27.483  1.00  0.00     0.023 A 
ATOM     74  C   UNL A   1      41.822  25.596  27.358  1.00  0.00     0.031 A 
ATOM     75  C   UNL A   1      42.388  27.735  26.405  1.00  0.00     0.131 A 
ATOM     76  C   UNL A   1      42.314  24.982  26.195  1.00  0.00     0.055 A 
ATOM     77  C   UNL A   1      42.836  27.123  25.234  1.00  0.00     0.041 A 
ATOM     78  F   UNL A   1      42.450  29.075  26.473  1.00  0.00    -0.206 F 
ATOM     79  C   UNL A   1      42.812  25.737  25.130  1.00  0.00     0.022 A 
BRANCH  76  80
ATOM     80  S   UNL A   1      42.355  23.170  26.123  1.00  0.00     0.124 S 
ATOM     81  O   UNL A   1      42.906  22.939  24.792  1.00  0.00    -0.237 OA
ATOM     82  O   UNL A   1      43.228  22.844  27.245  1.00  0.00    -0.237 OA
ATOM     83  O   UNL A   1      40.954  22.792  26.295  1.00  0.00    -0.744 OA
ENDBRANCH  76  80
ENDBRANCH  49  73
BRANCH  61  84
ATOM     84  C   UNL A   1      44.613  27.431  33.884  1.00  0.00     0.023 A 
ATOM     85  C   UNL A   1      44.485  26.213  34.574  1.00  0.00     0.031 A 
ATOM     86  C   UNL A   1      45.886  28.027  33.828  1.00  0.00     0.131 A 
ATOM     87  C   UNL A   1      45.596  25.660  35.228  1.00  0.00     0.055 A 
ATOM     88  C   UNL A   1      47.002  27.439  34.427  1.00  0.00     0.041 A 
ATOM     89  F   UNL A   1      46.067  29.192  33.188  1.00  0.00    -0.206 F 
ATOM     90  C   UNL A   1      46.857  26.256  35.144  1.00  0.00     0.022 A 
BRANCH  87  91
ATOM     91  S   UNL A   1      45.353  24.196  36.273  1.00  0.00     0.124 S 
ATOM     92  O   UNL A   1      44.042  24.456  36.857  1.00  0.00    -0.237 OA
ATOM     93  O   UNL A   1      45.416  23.107  35.304  1.00  0.00    -0.237 OA
ATOM     94  O   UNL A   1      46.473  24.255  37.211  1.00  0.00    -0.744 OA
ENDBRANCH  87  91
ENDBRANCH  61  84
ENDBRANCH  35  36
ENDBRANCH  28  30
ENDBRANCH  27  28
ENDBRANCH  26  27
ENDBRANCH   1  26
TORSDOF 19
ENDMDL
MODEL 3
REMARK VINA RESULT:     -11.3      5.108     10.691
REMARK SMILES Nc1ccc(-c2cc3ccccc3s2)c(C(=O)OCCOCCOC(=O)c2ccc(-c3c4nc(c(-c5cc(S(=O)(=O)[O-])ccc5F)c5ccc([nH]5)c(-c5cc(S(=O)(=O)[O-])ccc5F)c5nc(c(-c6cc(S(=O)(=O)[O-])ccc6F)c6ccc3[nH]6)C=C5)C=C4)cc2)n1
REMARK SMILES IDX 22 1 21 2 20 3 19 4 18 5 16 6 17 7 15 8 2 9 3 10 90 11 4 12
REMARK SMILES IDX 5 13 1 14 6 17 7 18 14 19 8 20 13 21 9 22 12 23 10 24 11 25
REMARK SMILES IDX 23 26 24 27 25 28 26 29 27 30 28 31 89 32 29 33 88 34 30 35
REMARK SMILES IDX 31 36 32 37 82 38 33 39 87 40 81 41 83 42 34 43 86 44 80 45
REMARK SMILES IDX 79 46 35 48 67 49 47 50 66 51 48 52 51 53 65 54 84 55 49 56
REMARK SMILES IDX 50 57 64 59 85 60 52 61 36 62 37 63 45 64 38 65 44 66 46 67
REMARK SMILES IDX 43 68 39 69 40 70 41 71 42 72 68 73 69 74 77 75 70 76 76 77
REMARK SMILES IDX 78 78 75 79 71 80 72 81 73 82 74 83 53 84 54 85 62 86 55 87
REMARK SMILES IDX 61 88 63 89 60 90 56 91 57 92 58 93 59 94
REMARK H PARENT 1 15 1 16 83 47 51 58
REMARK Flexibility Score: inf
ROOT
ATOM      1  C   UNL A   1      31.460  31.712  26.412  1.00  0.00     0.202 C 
ENDROOT
BRANCH   1   2
ATOM      2  O   UNL A   1      32.500  30.771  26.680  1.00  0.00    -0.374 OA
BRANCH   2   3
ATOM      3  C   UNL A   1      32.448  29.518  25.992  1.00  0.00     0.202 C 
BRANCH   3   4
ATOM      4  C   UNL A   1      31.993  28.323  26.832  1.00  0.00     0.261 C 
BRANCH   4   5
ATOM      5  O   UNL A   1      32.749  27.159  26.464  1.00  0.00    -0.458 OA
BRANCH   5   6
ATOM      6  C   UNL A   1      32.038  26.030  26.230  1.00  0.00     0.357 C 
ATOM      7  O   UNL A   1      31.036  25.669  26.830  1.00  0.00    -0.244 OA
BRANCH   6   8
ATOM      8  C   UNL A   1      32.579  25.342  25.020  1.00  0.00     0.159 A 
ATOM      9  C   UNL A   1      34.031  23.667  24.328  1.00  0.00     0.124 A 
ATOM     10  C   UNL A   1      33.722  23.912  23.002  1.00  0.00     0.047 A 
ATOM     11  N   UNL A   1      33.480  24.358  25.329  1.00  0.00    -0.224 NA
ATOM     12  C   UNL A   1      32.802  24.916  22.695  1.00  0.00     0.016 A 
ATOM     13  C   UNL A   1      32.187  25.655  23.715  1.00  0.00     0.025 A 
BRANCH   9  14
ATOM     14  N   UNL A   1      34.879  22.639  24.683  1.00  0.00    -0.384 N 
ATOM     15  H   UNL A   1      35.705  22.833  25.182  1.00  0.00     0.158 HD
ATOM     16  H   UNL A   1      34.658  21.712  24.438  1.00  0.00     0.158 HD
ENDBRANCH   9  14
BRANCH  13  17
ATOM     17  C   UNL A   1      31.211  26.700  23.376  1.00  0.00     0.038 A 
ATOM     18  C   UNL A   1      31.411  27.914  22.751  1.00  0.00     0.029 A 
ATOM     19  S   UNL A   1      29.566  26.504  23.815  1.00  0.00    -0.135 S 
ATOM     20  C   UNL A   1      30.217  28.701  22.636  1.00  0.00    -0.007 A 
ATOM     21  C   UNL A   1      29.113  28.026  23.157  1.00  0.00     0.035 A 
ATOM     22  C   UNL A   1      30.021  29.991  22.091  1.00  0.00     0.009 A 
ATOM     23  C   UNL A   1      27.822  28.584  23.119  1.00  0.00     0.019 A 
ATOM     24  C   UNL A   1      28.741  30.546  22.045  1.00  0.00     0.001 A 
ATOM     25  C   UNL A   1      27.653  29.846  22.548  1.00  0.00     0.001 A 
ENDBRANCH  13  17
ENDBRANCH   6   8
ENDBRANCH   5   6
ENDBRANCH   4   5
ENDBRANCH   3   4
ENDBRANCH   2   3
ENDBRANCH   1   2
BRANCH   1  26
ATOM     26  C   UNL A   1      31.778  33.190  26.674  1.00  0.00     0.261 C 
BRANCH  26  27
ATOM     27  O   UNL A   1      32.254  33.444  28.007  1.00  0.00    -0.460 OA
BRANCH  27  28
ATOM     28  C   UNL A   1      33.381  34.197  28.065  1.00  0.00     0.338 C 
ATOM     29  O   UNL A   1      33.453  35.414  27.965  1.00  0.00    -0.246 OA
BRANCH  28  30
ATOM     30  C   UNL A   1      34.545  33.368  28.427  1.00  0.00     0.060 A 
ATOM     31  C   UNL A   1      34.296  32.148  29.069  1.00  0.00     0.016 A 
ATOM     32  C   UNL A   1      35.855  33.813  28.239  1.00  0.00     0.016 A 
ATOM     33  C   UNL A   1      35.354  31.391  29.569  1.00  0.00     0.010 A 
ATOM     34  C   UNL A   1      36.915  33.052  28.747  1.00  0.00     0.010 A 
ATOM     35  C   UNL A   1      36.669  31.853  29.444  1.00  0.00    -0.014 A 
BRANCH  35  36
ATOM     36  C   UNL A   1      37.773  31.154  30.153  1.00  0.00     0.031 A 
ATOM     37  C   UNL A   1      38.105  31.545  31.567  1.00  0.00     0.074 A 
ATOM     38  C   UNL A   1      38.459  30.162  29.557  1.00  0.00     0.049 A 
ATOM     39  N   UNL A   1      39.063  31.112  32.346  1.00  0.00    -0.248 NA
ATOM     40  C   UNL A   1      37.231  32.551  32.187  1.00  0.00     0.031 C 
ATOM     41  C   UNL A   1      38.182  29.626  28.227  1.00  0.00     0.029 A 
ATOM     42  N   UNL A   1      39.546  29.442  29.989  1.00  0.00    -0.354 N 
ATOM     43  C   UNL A   1      38.898  31.778  33.555  1.00  0.00     0.074 A 
ATOM     44  C   UNL A   1      37.784  32.687  33.382  1.00  0.00     0.031 C 
ATOM     45  C   UNL A   1      39.107  28.697  27.930  1.00  0.00     0.029 A 
ATOM     46  C   UNL A   1      40.060  28.600  29.032  1.00  0.00     0.049 A 
ATOM     47  H   UNL A   1      39.920  29.522  30.896  1.00  0.00     0.167 HD
ATOM     48  C   UNL A   1      39.597  31.627  34.709  1.00  0.00     0.034 A 
ATOM     49  C   UNL A   1      41.190  27.867  29.025  1.00  0.00     0.034 A 
ATOM     50  C   UNL A   1      40.716  30.728  34.861  1.00  0.00     0.049 A 
ATOM     51  C   UNL A   1      42.052  27.833  30.261  1.00  0.00     0.074 A 
ATOM     52  C   UNL A   1      41.472  30.475  35.993  1.00  0.00     0.029 A 
ATOM     53  N   UNL A   1      41.256  29.949  33.846  1.00  0.00    -0.354 N 
ATOM     54  N   UNL A   1      41.877  28.451  31.405  1.00  0.00    -0.248 NA
ATOM     55  C   UNL A   1      43.245  26.979  30.213  1.00  0.00     0.031 C 
ATOM     56  C   UNL A   1      42.513  29.607  35.643  1.00  0.00     0.029 A 
ATOM     57  C   UNL A   1      42.361  29.252  34.313  1.00  0.00     0.049 A 
ATOM     58  H   UNL A   1      40.906  29.899  32.927  1.00  0.00     0.167 HD
ATOM     59  C   UNL A   1      42.911  28.020  32.231  1.00  0.00     0.074 A 
ATOM     60  C   UNL A   1      43.708  27.097  31.449  1.00  0.00     0.031 C 
ATOM     61  C   UNL A   1      43.162  28.341  33.526  1.00  0.00     0.034 A 
BRANCH  48  62
ATOM     62  C   UNL A   1      39.190  32.490  35.879  1.00  0.00     0.023 A 
ATOM     63  C   UNL A   1      39.621  33.823  36.001  1.00  0.00     0.031 A 
ATOM     64  C   UNL A   1      38.384  31.963  36.903  1.00  0.00     0.131 A 
ATOM     65  C   UNL A   1      39.309  34.558  37.155  1.00  0.00     0.055 A 
ATOM     66  C   UNL A   1      38.010  32.725  38.012  1.00  0.00     0.041 A 
ATOM     67  F   UNL A   1      37.959  30.691  36.853  1.00  0.00    -0.206 F 
ATOM     68  C   UNL A   1      38.486  34.026  38.151  1.00  0.00     0.022 A 
BRANCH  65  69
ATOM     69  S   UNL A   1      40.114  36.164  37.406  1.00  0.00     0.124 S 
ATOM     70  O   UNL A   1      40.026  36.750  36.070  1.00  0.00    -0.237 OA
ATOM     71  O   UNL A   1      39.278  36.778  38.430  1.00  0.00    -0.237 OA
ATOM     72  O   UNL A   1      41.465  35.807  37.833  1.00  0.00    -0.744 OA
ENDBRANCH  65  69
ENDBRANCH  48  62
BRANCH  49  73
ATOM     73  C   UNL A   1      41.601  27.141  27.791  1.00  0.00     0.023 A 
ATOM     74  C   UNL A   1      41.491  25.746  27.693  1.00  0.00     0.031 A 
ATOM     75  C   UNL A   1      42.157  27.840  26.703  1.00  0.00     0.131 A 
ATOM     76  C   UNL A   1      41.968  25.089  26.548  1.00  0.00     0.055 A 
ATOM     77  C   UNL A   1      42.591  27.185  25.550  1.00  0.00     0.041 A 
ATOM     78  F   UNL A   1      42.275  29.177  26.744  1.00  0.00    -0.206 F 
ATOM     79  C   UNL A   1      42.509  25.799  25.474  1.00  0.00     0.022 A 
BRANCH  76  80
ATOM     80  S   UNL A   1      41.933  23.276  26.513  1.00  0.00     0.124 S 
ATOM     81  O   UNL A   1      40.500  23.007  26.493  1.00  0.00    -0.237 OA
ATOM     82  O   UNL A   1      42.658  22.985  25.281  1.00  0.00    -0.237 OA
ATOM     83  O   UNL A   1      42.624  22.898  27.744  1.00  0.00    -0.744 OA
ENDBRANCH  76  80
ENDBRANCH  49  73
BRANCH  61  84
ATOM     84  C   UNL A   1      44.316  27.636  34.198  1.00  0.00     0.023 A 
ATOM     85  C   UNL A   1      44.135  26.466  34.955  1.00  0.00     0.031 A 
ATOM     86  C   UNL A   1      45.617  28.160  34.094  1.00  0.00     0.131 A 
ATOM     87  C   UNL A   1      45.226  25.891  35.625  1.00  0.00     0.055 A 
ATOM     88  C   UNL A   1      46.710  27.549  34.713  1.00  0.00     0.041 A 
ATOM     89  F   UNL A   1      45.850  29.279  33.389  1.00  0.00    -0.206 F 
ATOM     90  C   UNL A   1      46.514  26.415  35.495  1.00  0.00     0.022 A 
BRANCH  87  91
ATOM     91  S   UNL A   1      44.922  24.501  36.752  1.00  0.00     0.124 S 
ATOM     92  O   UNL A   1      46.033  24.624  37.689  1.00  0.00    -0.237 OA
ATOM     93  O   UNL A   1      43.600  24.815  37.285  1.00  0.00    -0.237 OA
ATOM     94  O   UNL A   1      44.975  23.332  35.877  1.00  0.00    -0.744 OA
ENDBRANCH  87  91
ENDBRANCH  61  84
ENDBRANCH  35  36
ENDBRANCH  28  30
ENDBRANCH  27  28
ENDBRANCH  26  27
ENDBRANCH   1  26
TORSDOF 19
ENDMDL
