MODEL 1
REMARK VINA RESULT:     -11.9      0.000      0.000
REMARK SMILES Cc1cc(Cl)cc2c1O[C@H](C(F)(F)F)C(C(=O)OCCOCCOC(=O)c1ccc(-c3c4nc(c(-c5cc(S(=O)(=O)[O-])ccc5F)c5ccc([nH]5)c(-c5cc(S(=O)(=O)[O-])ccc5F)c5nc(c(-c6cc(S(=O)(=O)[O-])ccc6F)c6ccc3[nH]6)C=C5)C=C4)cc1)=C2
REMARK SMILES IDX 22 1 21 2 20 3 19 4 18 5 16 6 17 7 15 8 1 9 2 10 3 11 8 12
REMARK SMILES IDX 4 13 7 14 9 15 5 16 6 17 90 18 10 19 11 20 12 21 13 22 14 23
REMARK SMILES IDX 23 24 24 25 25 26 26 27 27 28 28 29 89 30 29 31 88 32 30 33
REMARK SMILES IDX 31 34 32 35 82 36 33 37 87 38 81 39 83 40 34 41 86 42 80 43
REMARK SMILES IDX 79 44 35 46 67 47 47 48 66 49 48 50 51 51 65 52 84 53 49 54
REMARK SMILES IDX 50 55 64 57 85 58 52 59 36 60 37 61 45 62 38 63 44 64 46 65
REMARK SMILES IDX 43 66 39 67 40 68 41 69 42 70 68 71 69 72 77 73 70 74 76 75
REMARK SMILES IDX 78 76 75 77 71 78 72 79 73 80 74 81 53 82 54 83 62 84 55 85
REMARK SMILES IDX 61 86 63 87 60 88 56 89 57 90 58 91 59 92
REMARK H PARENT 83 45 51 56
REMARK Flexibility Score: inf
ROOT
ATOM      1  C   UNL A   1      31.483  29.008  25.388  1.00  0.00     0.202 C 
ENDROOT
BRANCH   1   2
ATOM      2  O   UNL A   1      31.538  28.747  23.985  1.00  0.00    -0.374 OA
BRANCH   2   3
ATOM      3  C   UNL A   1      30.684  27.724  23.471  1.00  0.00     0.202 C 
BRANCH   3   4
ATOM      4  C   UNL A   1      31.078  27.138  22.112  1.00  0.00     0.261 C 
BRANCH   4   5
ATOM      5  O   UNL A   1      31.415  25.745  22.225  1.00  0.00    -0.460 OA
BRANCH   5   6
ATOM      6  C   UNL A   1      32.636  25.413  21.753  1.00  0.00     0.338 C 
ATOM      7  O   UNL A   1      33.249  25.961  20.848  1.00  0.00    -0.246 OA
BRANCH   6   8
ATOM      8  C   UNL A   1      33.220  24.342  22.583  1.00  0.00     0.087 C 
ATOM      9  C   UNL A   1      35.558  21.559  26.196  1.00  0.00     0.048 C 
ATOM     10  C   UNL A   1      34.499  21.312  25.159  1.00  0.00    -0.007 A 
ATOM     11  C   UNL A   1      33.865  20.061  25.100  1.00  0.00     0.027 A 
ATOM     12  C   UNL A   1      34.138  22.306  24.236  1.00  0.00     0.131 A 
ATOM     13  C   UNL A   1      32.880  19.815  24.145  1.00  0.00     0.042 A 
ATOM     14  C   UNL A   1      33.123  22.064  23.303  1.00  0.00     0.019 A 
ATOM     15  O   UNL A   1      34.826  23.488  24.290  1.00  0.00    -0.475 OA
ATOM     16  Cl  UNL A   1      32.106  18.280  24.086  1.00  0.00    -0.084 Cl
ATOM     17  C   UNL A   1      32.505  20.811  23.248  1.00  0.00     0.032 A 
ATOM     18  C   UNL A   1      32.671  23.130  22.431  1.00  0.00     0.027 C 
ATOM     19  C   UNL A   1      34.339  24.638  23.542  1.00  0.00     0.316 C 
BRANCH  19  20
ATOM     20  C   UNL A   1      33.978  25.744  24.546  1.00  0.00     0.430 C 
ATOM     21  F   UNL A   1      32.697  25.623  24.968  1.00  0.00    -0.167 F 
ATOM     22  F   UNL A   1      34.761  25.701  25.648  1.00  0.00    -0.167 F 
ATOM     23  F   UNL A   1      34.111  26.976  24.002  1.00  0.00    -0.167 F 
ENDBRANCH  19  20
ENDBRANCH   6   8
ENDBRANCH   5   6
ENDBRANCH   4   5
ENDBRANCH   3   4
ENDBRANCH   2   3
ENDBRANCH   1   2
BRANCH   1  24
ATOM     24  C   UNL A   1      31.741  30.449  25.845  1.00  0.00     0.261 C 
BRANCH  24  25
ATOM     25  O   UNL A   1      32.406  30.512  27.119  1.00  0.00    -0.460 OA
BRANCH  25  26
ATOM     26  C   UNL A   1      33.123  31.644  27.321  1.00  0.00     0.338 C 
ATOM     27  O   UNL A   1      32.703  32.794  27.288  1.00  0.00    -0.246 OA
BRANCH  26  28
ATOM     28  C   UNL A   1      34.486  31.312  27.774  1.00  0.00     0.060 A 
ATOM     29  C   UNL A   1      34.762  29.970  28.067  1.00  0.00     0.016 A 
ATOM     30  C   UNL A   1      35.449  32.300  27.990  1.00  0.00     0.016 A 
ATOM     31  C   UNL A   1      35.988  29.616  28.627  1.00  0.00     0.010 A 
ATOM     32  C   UNL A   1      36.672  31.945  28.566  1.00  0.00     0.010 A 
ATOM     33  C   UNL A   1      36.933  30.608  28.919  1.00  0.00    -0.014 A 
BRANCH  33  34
ATOM     34  C   UNL A   1      38.124  30.272  29.732  1.00  0.00     0.031 A 
ATOM     35  C   UNL A   1      39.148  29.327  29.164  1.00  0.00     0.074 A 
ATOM     36  C   UNL A   1      38.310  30.826  30.943  1.00  0.00     0.049 A 
ATOM     37  N   UNL A   1      40.214  28.822  29.726  1.00  0.00    -0.248 NA
ATOM     38  C   UNL A   1      38.941  28.899  27.770  1.00  0.00     0.031 C 
ATOM     39  C   UNL A   1      37.431  31.816  31.562  1.00  0.00     0.029 A 
ATOM     40  N   UNL A   1      39.305  30.632  31.868  1.00  0.00    -0.354 N 
ATOM     41  C   UNL A   1      40.807  28.018  28.760  1.00  0.00     0.074 A 
ATOM     42  C   UNL A   1      39.967  28.081  27.583  1.00  0.00     0.031 C 
ATOM     43  C   UNL A   1      37.923  32.141  32.770  1.00  0.00     0.029 A 
ATOM     44  C   UNL A   1      39.127  31.351  33.026  1.00  0.00     0.049 A 
ATOM     45  H   UNL A   1      40.073  30.035  31.717  1.00  0.00     0.167 HD
ATOM     46  C   UNL A   1      41.950  27.296  28.847  1.00  0.00     0.034 A 
ATOM     47  C   UNL A   1      39.837  31.349  34.172  1.00  0.00     0.034 A 
ATOM     48  C   UNL A   1      42.770  27.229  30.031  1.00  0.00     0.049 A 
ATOM     49  C   UNL A   1      41.044  30.453  34.285  1.00  0.00     0.074 A 
ATOM     50  C   UNL A   1      43.931  26.502  30.235  1.00  0.00     0.029 A 
ATOM     51  N   UNL A   1      42.518  27.914  31.211  1.00  0.00    -0.354 N 
ATOM     52  N   UNL A   1      41.556  29.640  33.390  1.00  0.00    -0.248 NA
ATOM     53  C   UNL A   1      41.767  30.473  35.564  1.00  0.00     0.031 C 
ATOM     54  C   UNL A   1      44.347  26.704  31.555  1.00  0.00     0.029 A 
ATOM     55  C   UNL A   1      43.487  27.612  32.154  1.00  0.00     0.049 A 
ATOM     56  H   UNL A   1      41.760  28.526  31.357  1.00  0.00     0.167 HD
ATOM     57  C   UNL A   1      42.675  29.071  33.991  1.00  0.00     0.074 A 
ATOM     58  C   UNL A   1      42.766  29.636  35.322  1.00  0.00     0.031 C 
ATOM     59  C   UNL A   1      43.554  28.170  33.483  1.00  0.00     0.034 A 
BRANCH  46  60
ATOM     60  C   UNL A   1      42.352  26.484  27.644  1.00  0.00     0.023 A 
ATOM     61  C   UNL A   1      41.980  25.137  27.505  1.00  0.00     0.031 A 
ATOM     62  C   UNL A   1      43.114  27.071  26.618  1.00  0.00     0.131 A 
ATOM     63  C   UNL A   1      42.402  24.408  26.382  1.00  0.00     0.055 A 
ATOM     64  C   UNL A   1      43.480  26.358  25.475  1.00  0.00     0.041 A 
ATOM     65  F   UNL A   1      43.516  28.348  26.711  1.00  0.00    -0.206 F 
ATOM     66  C   UNL A   1      43.129  25.016  25.355  1.00  0.00     0.022 A 
BRANCH  63  67
ATOM     67  S   UNL A   1      42.057  22.629  26.316  1.00  0.00     0.124 S 
ATOM     68  O   UNL A   1      42.834  22.221  25.148  1.00  0.00    -0.237 OA
ATOM     69  O   UNL A   1      42.550  22.161  27.607  1.00  0.00    -0.237 OA
ATOM     70  O   UNL A   1      40.606  22.568  26.145  1.00  0.00    -0.744 OA
ENDBRANCH  63  67
ENDBRANCH  46  60
BRANCH  47  71
ATOM     71  C   UNL A   1      39.406  32.195  35.318  1.00  0.00     0.023 A 
ATOM     72  C   UNL A   1      39.859  33.515  35.453  1.00  0.00     0.031 A 
ATOM     73  C   UNL A   1      38.539  31.686  36.302  1.00  0.00     0.131 A 
ATOM     74  C   UNL A   1      39.459  34.279  36.561  1.00  0.00     0.055 A 
ATOM     75  C   UNL A   1      38.114  32.462  37.381  1.00  0.00     0.041 A 
ATOM     76  F   UNL A   1      38.077  30.428  36.213  1.00  0.00    -0.206 F 
ATOM     77  C   UNL A   1      38.580  33.765  37.518  1.00  0.00     0.022 A 
BRANCH  74  78
ATOM     78  S   UNL A   1      40.127  35.954  36.749  1.00  0.00     0.124 S 
ATOM     79  O   UNL A   1      41.548  35.688  36.938  1.00  0.00    -0.237 OA
ATOM     80  O   UNL A   1      39.752  36.576  35.485  1.00  0.00    -0.237 OA
ATOM     81  O   UNL A   1      39.426  36.469  37.925  1.00  0.00    -0.744 OA
ENDBRANCH  74  78
ENDBRANCH  47  71
BRANCH  59  82
ATOM     82  C   UNL A   1      44.715  27.769  34.357  1.00  0.00     0.023 A 
ATOM     83  C   UNL A   1      44.648  26.652  35.207  1.00  0.00     0.031 A 
ATOM     84  C   UNL A   1      45.911  28.509  34.323  1.00  0.00     0.131 A 
ATOM     85  C   UNL A   1      45.745  26.330  36.019  1.00  0.00     0.055 A 
ATOM     86  C   UNL A   1      47.016  28.153  35.096  1.00  0.00     0.041 A 
ATOM     87  F   UNL A   1      46.026  29.583  33.527  1.00  0.00    -0.206 F 
ATOM     88  C   UNL A   1      46.933  27.063  35.958  1.00  0.00     0.022 A 
BRANCH  85  89
ATOM     89  S   UNL A   1      45.579  24.970  37.208  1.00  0.00     0.124 S 
ATOM     90  O   UNL A   1      44.615  25.514  38.159  1.00  0.00    -0.237 OA
ATOM     91  O   UNL A   1      45.098  23.877  36.369  1.00  0.00    -0.237 OA
ATOM     92  O   UNL A   1      46.934  24.800  37.728  1.00  0.00    -0.744 OA
ENDBRANCH  85  89
ENDBRANCH  59  82
ENDBRANCH  33  34
ENDBRANCH  26  28
ENDBRANCH  25  26
ENDBRANCH  24  25
ENDBRANCH   1  24
TORSDOF 18
ENDMDL
MODEL 2
REMARK VINA RESULT:     -11.6      2.760      8.595
REMARK SMILES Cc1cc(Cl)cc2c1O[C@H](C(F)(F)F)C(C(=O)OCCOCCOC(=O)c1ccc(-c3c4nc(c(-c5cc(S(=O)(=O)[O-])ccc5F)c5ccc([nH]5)c(-c5cc(S(=O)(=O)[O-])ccc5F)c5nc(c(-c6cc(S(=O)(=O)[O-])ccc6F)c6ccc3[nH]6)C=C5)C=C4)cc1)=C2
REMARK SMILES IDX 22 1 21 2 20 3 19 4 18 5 16 6 17 7 15 8 1 9 2 10 3 11 8 12
REMARK SMILES IDX 4 13 7 14 9 15 5 16 6 17 90 18 10 19 11 20 12 21 13 22 14 23
REMARK SMILES IDX 23 24 24 25 25 26 26 27 27 28 28 29 89 30 29 31 88 32 30 33
REMARK SMILES IDX 31 34 32 35 82 36 33 37 87 38 81 39 83 40 34 41 86 42 80 43
REMARK SMILES IDX 79 44 35 46 67 47 47 48 66 49 48 50 51 51 65 52 84 53 49 54
REMARK SMILES IDX 50 55 64 57 85 58 52 59 36 60 37 61 45 62 38 63 44 64 46 65
REMARK SMILES IDX 43 66 39 67 40 68 41 69 42 70 68 71 69 72 77 73 70 74 76 75
REMARK SMILES IDX 78 76 75 77 71 78 72 79 73 80 74 81 53 82 54 83 62 84 55 85
REMARK SMILES IDX 61 86 63 87 60 88 56 89 57 90 58 91 59 92
REMARK H PARENT 83 45 51 56
REMARK Flexibility Score: inf
ROOT
ATOM      1  C   UNL A   1      31.784  31.543  26.857  1.00  0.00     0.202 C 
ENDROOT
BRANCH   1   2
ATOM      2  O   UNL A   1      32.458  30.565  26.065  1.00  0.00    -0.374 OA
BRANCH   2   3
ATOM      3  C   UNL A   1      33.627  29.960  26.620  1.00  0.00     0.202 C 
BRANCH   3   4
ATOM      4  C   UNL A   1      34.092  28.661  25.955  1.00  0.00     0.261 C 
BRANCH   4   5
ATOM      5  O   UNL A   1      33.826  28.677  24.542  1.00  0.00    -0.460 OA
BRANCH   5   6
ATOM      6  C   UNL A   1      33.324  27.526  24.042  1.00  0.00     0.338 C 
ATOM      7  O   UNL A   1      33.901  26.451  23.950  1.00  0.00    -0.246 OA
BRANCH   6   8
ATOM      8  C   UNL A   1      31.894  27.699  23.727  1.00  0.00     0.087 C 
ATOM      9  C   UNL A   1      26.768  27.690  23.686  1.00  0.00     0.048 C 
ATOM     10  C   UNL A   1      27.852  28.543  23.088  1.00  0.00    -0.007 A 
ATOM     11  C   UNL A   1      27.507  29.694  22.362  1.00  0.00     0.027 A 
ATOM     12  C   UNL A   1      29.207  28.203  23.229  1.00  0.00     0.131 A 
ATOM     13  C   UNL A   1      28.500  30.496  21.801  1.00  0.00     0.042 A 
ATOM     14  C   UNL A   1      30.199  29.032  22.693  1.00  0.00     0.019 A 
ATOM     15  O   UNL A   1      29.493  27.039  23.889  1.00  0.00    -0.475 OA
ATOM     16  Cl  UNL A   1      28.066  31.908  20.920  1.00  0.00    -0.084 Cl
ATOM     17  C   UNL A   1      29.843  30.172  21.966  1.00  0.00     0.032 A 
ATOM     18  C   UNL A   1      31.598  28.743  22.942  1.00  0.00     0.027 C 
ATOM     19  C   UNL A   1      30.864  26.758  24.290  1.00  0.00     0.316 C 
BRANCH  19  20
ATOM     20  C   UNL A   1      30.909  26.684  25.823  1.00  0.00     0.430 C 
ATOM     21  F   UNL A   1      31.011  27.918  26.371  1.00  0.00    -0.167 F 
ATOM     22  F   UNL A   1      29.793  26.117  26.335  1.00  0.00    -0.167 F 
ATOM     23  F   UNL A   1      31.967  25.960  26.258  1.00  0.00    -0.167 F 
ENDBRANCH  19  20
ENDBRANCH   6   8
ENDBRANCH   5   6
ENDBRANCH   4   5
ENDBRANCH   3   4
ENDBRANCH   2   3
ENDBRANCH   1   2
BRANCH   1  24
ATOM     24  C   UNL A   1      32.294  32.987  26.775  1.00  0.00     0.261 C 
BRANCH  24  25
ATOM     25  O   UNL A   1      32.288  33.648  28.052  1.00  0.00    -0.460 OA
BRANCH  25  26
ATOM     26  C   UNL A   1      33.397  34.383  28.308  1.00  0.00     0.338 C 
ATOM     27  O   UNL A   1      33.462  35.601  28.413  1.00  0.00    -0.246 OA
BRANCH  26  28
ATOM     28  C   UNL A   1      34.533  33.499  28.630  1.00  0.00     0.060 A 
ATOM     29  C   UNL A   1      34.268  32.359  29.400  1.00  0.00     0.016 A 
ATOM     30  C   UNL A   1      35.841  33.821  28.261  1.00  0.00     0.016 A 
ATOM     31  C   UNL A   1      35.319  31.561  29.849  1.00  0.00     0.010 A 
ATOM     32  C   UNL A   1      36.894  33.027  28.725  1.00  0.00     0.010 A 
ATOM     33  C   UNL A   1      36.640  31.915  29.550  1.00  0.00    -0.014 A 
BRANCH  33  34
ATOM     34  C   UNL A   1      37.759  31.218  30.224  1.00  0.00     0.031 A 
ATOM     35  C   UNL A   1      38.104  31.596  31.638  1.00  0.00     0.074 A 
ATOM     36  C   UNL A   1      38.437  30.238  29.599  1.00  0.00     0.049 A 
ATOM     37  N   UNL A   1      39.094  31.189  32.389  1.00  0.00    -0.248 NA
ATOM     38  C   UNL A   1      37.207  32.562  32.295  1.00  0.00     0.031 C 
ATOM     39  C   UNL A   1      38.140  29.728  28.261  1.00  0.00     0.029 A 
ATOM     40  N   UNL A   1      39.514  29.496  30.012  1.00  0.00    -0.354 N 
ATOM     41  C   UNL A   1      38.941  31.845  33.605  1.00  0.00     0.074 A 
ATOM     42  C   UNL A   1      37.779  32.698  33.482  1.00  0.00     0.031 C 
ATOM     43  C   UNL A   1      39.020  28.758  27.960  1.00  0.00     0.029 A 
ATOM     44  C   UNL A   1      39.966  28.608  29.065  1.00  0.00     0.049 A 
ATOM     45  H   UNL A   1      39.924  29.591  30.902  1.00  0.00     0.167 HD
ATOM     46  C   UNL A   1      39.701  31.741  34.722  1.00  0.00     0.034 A 
ATOM     47  C   UNL A   1      41.037  27.790  29.078  1.00  0.00     0.034 A 
ATOM     48  C   UNL A   1      40.866  30.899  34.825  1.00  0.00     0.049 A 
ATOM     49  C   UNL A   1      41.933  27.773  30.291  1.00  0.00     0.074 A 
ATOM     50  C   UNL A   1      41.725  30.744  35.901  1.00  0.00     0.029 A 
ATOM     51  N   UNL A   1      41.337  30.067  33.819  1.00  0.00    -0.354 N 
ATOM     52  N   UNL A   1      41.822  28.452  31.409  1.00  0.00    -0.248 NA
ATOM     53  C   UNL A   1      43.099  26.881  30.241  1.00  0.00     0.031 C 
ATOM     54  C   UNL A   1      42.744  29.864  35.524  1.00  0.00     0.029 A 
ATOM     55  C   UNL A   1      42.484  29.414  34.239  1.00  0.00     0.049 A 
ATOM     56  H   UNL A   1      40.917  29.958  32.935  1.00  0.00     0.167 HD
ATOM     57  C   UNL A   1      42.891  28.050  32.205  1.00  0.00     0.074 A 
ATOM     58  C   UNL A   1      43.632  27.067  31.441  1.00  0.00     0.031 C 
ATOM     59  C   UNL A   1      43.222  28.450  33.459  1.00  0.00     0.034 A 
BRANCH  46  60
ATOM     60  C   UNL A   1      39.322  32.596  35.902  1.00  0.00     0.023 A 
ATOM     61  C   UNL A   1      39.820  33.900  36.059  1.00  0.00     0.031 A 
ATOM     62  C   UNL A   1      38.442  32.099  36.881  1.00  0.00     0.131 A 
ATOM     63  C   UNL A   1      39.464  34.651  37.191  1.00  0.00     0.055 A 
ATOM     64  C   UNL A   1      38.044  32.873  37.972  1.00  0.00     0.041 A 
ATOM     65  F   UNL A   1      37.955  30.852  36.791  1.00  0.00    -0.206 F 
ATOM     66  C   UNL A   1      38.562  34.156  38.135  1.00  0.00     0.022 A 
BRANCH  63  67
ATOM     67  S   UNL A   1      40.259  36.259  37.455  1.00  0.00     0.124 S 
ATOM     68  O   UNL A   1      39.327  36.901  38.378  1.00  0.00    -0.237 OA
ATOM     69  O   UNL A   1      41.555  35.886  38.012  1.00  0.00    -0.237 OA
ATOM     70  O   UNL A   1      40.304  36.844  36.116  1.00  0.00    -0.744 OA
ENDBRANCH  63  67
ENDBRANCH  46  60
BRANCH  47  71
ATOM     71  C   UNL A   1      41.346  26.947  27.891  1.00  0.00     0.023 A 
ATOM     72  C   UNL A   1      41.013  25.585  27.865  1.00  0.00     0.031 A 
ATOM     73  C   UNL A   1      41.990  27.496  26.767  1.00  0.00     0.131 A 
ATOM     74  C   UNL A   1      41.344  24.808  26.744  1.00  0.00     0.055 A 
ATOM     75  C   UNL A   1      42.283  26.727  25.640  1.00  0.00     0.041 A 
ATOM     76  F   UNL A   1      42.326  28.795  26.745  1.00  0.00    -0.206 F 
ATOM     77  C   UNL A   1      41.965  25.373  25.627  1.00  0.00     0.022 A 
BRANCH  74  78
ATOM     78  S   UNL A   1      40.973  23.033  26.774  1.00  0.00     0.124 S 
ATOM     79  O   UNL A   1      39.551  23.022  26.453  1.00  0.00    -0.237 OA
ATOM     80  O   UNL A   1      41.869  22.516  25.746  1.00  0.00    -0.237 OA
ATOM     81  O   UNL A   1      41.308  22.641  28.142  1.00  0.00    -0.744 OA
ENDBRANCH  74  78
ENDBRANCH  47  71
BRANCH  59  82
ATOM     82  C   UNL A   1      44.419  27.795  34.099  1.00  0.00     0.023 A 
ATOM     83  C   UNL A   1      44.302  26.613  34.850  1.00  0.00     0.031 A 
ATOM     84  C   UNL A   1      45.699  28.356  33.937  1.00  0.00     0.131 A 
ATOM     85  C   UNL A   1      45.441  26.052  35.446  1.00  0.00     0.055 A 
ATOM     86  C   UNL A   1      46.835  27.765  34.491  1.00  0.00     0.041 A 
ATOM     87  F   UNL A   1      45.865  29.484  33.228  1.00  0.00    -0.206 F 
ATOM     88  C   UNL A   1      46.708  26.611  35.259  1.00  0.00     0.022 A 
BRANCH  85  89
ATOM     89  S   UNL A   1      45.238  24.609  36.525  1.00  0.00     0.124 S 
ATOM     90  O   UNL A   1      46.559  24.497  37.135  1.00  0.00    -0.237 OA
ATOM     91  O   UNL A   1      44.160  25.030  37.414  1.00  0.00    -0.237 OA
ATOM     92  O   UNL A   1      44.890  23.533  35.599  1.00  0.00    -0.744 OA
ENDBRANCH  85  89
ENDBRANCH  59  82
ENDBRANCH  33  34
ENDBRANCH  26  28
ENDBRANCH  25  26
ENDBRANCH  24  25
ENDBRANCH   1  24
TORSDOF 18
ENDMDL
MODEL 3
REMARK VINA RESULT:     -11.5      4.843     10.018
REMARK SMILES Cc1cc(Cl)cc2c1O[C@H](C(F)(F)F)C(C(=O)OCCOCCOC(=O)c1ccc(-c3c4nc(c(-c5cc(S(=O)(=O)[O-])ccc5F)c5ccc([nH]5)c(-c5cc(S(=O)(=O)[O-])ccc5F)c5nc(c(-c6cc(S(=O)(=O)[O-])ccc6F)c6ccc3[nH]6)C=C5)C=C4)cc1)=C2
REMARK SMILES IDX 22 1 21 2 20 3 19 4 18 5 16 6 17 7 15 8 1 9 2 10 3 11 8 12
REMARK SMILES IDX 4 13 7 14 9 15 5 16 6 17 90 18 10 19 11 20 12 21 13 22 14 23
REMARK SMILES IDX 23 24 24 25 25 26 26 27 27 28 28 29 89 30 29 31 88 32 30 33
REMARK SMILES IDX 31 34 32 35 82 36 33 37 87 38 81 39 83 40 34 41 86 42 80 43
REMARK SMILES IDX 79 44 35 46 67 47 47 48 66 49 48 50 51 51 65 52 84 53 49 54
REMARK SMILES IDX 50 55 64 57 85 58 52 59 36 60 37 61 45 62 38 63 44 64 46 65
REMARK SMILES IDX 43 66 39 67 40 68 41 69 42 70 68 71 69 72 77 73 70 74 76 75
REMARK SMILES IDX 78 76 75 77 71 78 72 79 73 80 74 81 53 82 54 83 62 84 55 85
REMARK SMILES IDX 61 86 63 87 60 88 56 89 57 90 58 91 59 92
REMARK H PARENT 83 45 51 56
REMARK Flexibility Score: inf
ROOT
ATOM      1  C   UNL A   1      35.513  20.651  25.021  1.00  0.00     0.202 C 
ENDROOT
BRANCH   1   2
ATOM      2  O   UNL A   1      35.127  21.894  25.607  1.00  0.00    -0.374 OA
BRANCH   2   3
ATOM      3  C   UNL A   1      34.638  21.866  26.949  1.00  0.00     0.202 C 
BRANCH   3   4
ATOM      4  C   UNL A   1      33.117  21.769  27.109  1.00  0.00     0.261 C 
BRANCH   4   5
ATOM      5  O   UNL A   1      32.562  23.016  27.558  1.00  0.00    -0.460 OA
BRANCH   5   6
ATOM      6  C   UNL A   1      31.626  23.551  26.744  1.00  0.00     0.338 C 
ATOM      7  O   UNL A   1      30.464  23.190  26.624  1.00  0.00    -0.246 OA
BRANCH   6   8
ATOM      8  C   UNL A   1      32.165  24.755  26.085  1.00  0.00     0.087 C 
ATOM      9  C   UNL A   1      34.039  28.215  22.801  1.00  0.00     0.048 C 
ATOM     10  C   UNL A   1      33.280  28.257  24.098  1.00  0.00    -0.007 A 
ATOM     11  C   UNL A   1      32.866  29.493  24.620  1.00  0.00     0.027 A 
ATOM     12  C   UNL A   1      32.987  27.081  24.808  1.00  0.00     0.131 A 
ATOM     13  C   UNL A   1      32.161  29.549  25.821  1.00  0.00     0.042 A 
ATOM     14  C   UNL A   1      32.249  27.143  25.995  1.00  0.00     0.019 A 
ATOM     15  O   UNL A   1      33.465  25.906  24.294  1.00  0.00    -0.475 OA
ATOM     16  Cl  UNL A   1      31.654  31.068  26.447  1.00  0.00    -0.084 Cl
ATOM     17  C   UNL A   1      31.849  28.380  26.509  1.00  0.00     0.032 A 
ATOM     18  C   UNL A   1      31.847  25.921  26.663  1.00  0.00     0.027 C 
ATOM     19  C   UNL A   1      32.990  24.640  24.833  1.00  0.00     0.316 C 
BRANCH  19  20
ATOM     20  C   UNL A   1      32.259  23.887  23.712  1.00  0.00     0.430 C 
ATOM     21  F   UNL A   1      30.939  24.186  23.699  1.00  0.00    -0.167 F 
ATOM     22  F   UNL A   1      32.746  24.204  22.490  1.00  0.00    -0.167 F 
ATOM     23  F   UNL A   1      32.369  22.545  23.856  1.00  0.00    -0.167 F 
ENDBRANCH  19  20
ENDBRANCH   6   8
ENDBRANCH   5   6
ENDBRANCH   4   5
ENDBRANCH   3   4
ENDBRANCH   2   3
ENDBRANCH   1   2
BRANCH   1  24
ATOM     24  C   UNL A   1      37.013  20.337  24.963  1.00  0.00     0.261 C 
BRANCH  24  25
ATOM     25  O   UNL A   1      37.828  21.475  25.291  1.00  0.00    -0.460 OA
BRANCH  25  26
ATOM     26  C   UNL A   1      38.960  21.177  25.973  1.00  0.00     0.338 C 
ATOM     27  O   UNL A   1      39.560  20.110  25.966  1.00  0.00    -0.246 OA
BRANCH  26  28
ATOM     28  C   UNL A   1      39.504  22.387  26.615  1.00  0.00     0.060 A 
ATOM     29  C   UNL A   1      39.028  23.627  26.168  1.00  0.00     0.016 A 
ATOM     30  C   UNL A   1      40.519  22.318  27.572  1.00  0.00     0.016 A 
ATOM     31  C   UNL A   1      39.602  24.806  26.640  1.00  0.00     0.010 A 
ATOM     32  C   UNL A   1      41.103  23.502  28.033  1.00  0.00     0.010 A 
ATOM     33  C   UNL A   1      40.671  24.748  27.543  1.00  0.00    -0.014 A 
BRANCH  33  34
ATOM     34  C   UNL A   1      41.438  25.976  27.855  1.00  0.00     0.031 A 
ATOM     35  C   UNL A   1      40.769  27.070  28.642  1.00  0.00     0.074 A 
ATOM     36  C   UNL A   1      42.722  26.102  27.474  1.00  0.00     0.049 A 
ATOM     37  N   UNL A   1      41.211  28.261  28.950  1.00  0.00    -0.248 NA
ATOM     38  C   UNL A   1      39.419  26.776  29.154  1.00  0.00     0.031 C 
ATOM     39  C   UNL A   1      43.500  25.077  26.780  1.00  0.00     0.029 A 
ATOM     40  N   UNL A   1      43.596  27.149  27.620  1.00  0.00    -0.354 N 
ATOM     41  C   UNL A   1      40.199  28.860  29.691  1.00  0.00     0.074 A 
ATOM     42  C   UNL A   1      39.109  27.911  29.763  1.00  0.00     0.031 C 
ATOM     43  C   UNL A   1      44.739  25.549  26.557  1.00  0.00     0.029 A 
ATOM     44  C   UNL A   1      44.827  26.922  27.051  1.00  0.00     0.049 A 
ATOM     45  H   UNL A   1      43.364  27.984  28.088  1.00  0.00     0.167 HD
ATOM     46  C   UNL A   1      40.183  30.089  30.260  1.00  0.00     0.034 A 
ATOM     47  C   UNL A   1      45.890  27.739  26.920  1.00  0.00     0.034 A 
ATOM     48  C   UNL A   1      41.271  31.031  30.167  1.00  0.00     0.049 A 
ATOM     49  C   UNL A   1      45.810  29.142  27.466  1.00  0.00     0.074 A 
ATOM     50  C   UNL A   1      41.344  32.315  30.681  1.00  0.00     0.029 A 
ATOM     51  N   UNL A   1      42.474  30.793  29.519  1.00  0.00    -0.354 N 
ATOM     52  N   UNL A   1      44.820  29.726  28.101  1.00  0.00    -0.248 NA
ATOM     53  C   UNL A   1      46.989  29.997  27.274  1.00  0.00     0.031 C 
ATOM     54  C   UNL A   1      42.568  32.871  30.295  1.00  0.00     0.029 A 
ATOM     55  C   UNL A   1      43.289  31.911  29.601  1.00  0.00     0.049 A 
ATOM     56  H   UNL A   1      42.714  29.952  29.067  1.00  0.00     0.167 HD
ATOM     57  C   UNL A   1      45.268  31.008  28.406  1.00  0.00     0.074 A 
ATOM     58  C   UNL A   1      46.617  31.112  27.888  1.00  0.00     0.031 C 
ATOM     59  C   UNL A   1      44.625  32.005  29.065  1.00  0.00     0.034 A 
BRANCH  46  60
ATOM     60  C   UNL A   1      38.933  30.500  30.992  1.00  0.00     0.023 A 
ATOM     61  C   UNL A   1      37.848  31.092  30.325  1.00  0.00     0.031 A 
ATOM     62  C   UNL A   1      38.824  30.289  32.379  1.00  0.00     0.131 A 
ATOM     63  C   UNL A   1      36.714  31.488  31.051  1.00  0.00     0.055 A 
ATOM     64  C   UNL A   1      37.670  30.629  33.085  1.00  0.00     0.041 A 
ATOM     65  F   UNL A   1      39.840  29.747  33.068  1.00  0.00    -0.206 F 
ATOM     66  C   UNL A   1      36.608  31.239  32.422  1.00  0.00     0.022 A 
BRANCH  63  67
ATOM     67  S   UNL A   1      35.406  32.407  30.195  1.00  0.00     0.124 S 
ATOM     68  O   UNL A   1      34.382  32.497  31.231  1.00  0.00    -0.237 OA
ATOM     69  O   UNL A   1      36.073  33.656  29.844  1.00  0.00    -0.237 OA
ATOM     70  O   UNL A   1      35.067  31.545  29.063  1.00  0.00    -0.744 OA
ENDBRANCH  63  67
ENDBRANCH  46  60
BRANCH  47  71
ATOM     71  C   UNL A   1      47.110  27.267  26.210  1.00  0.00     0.023 A 
ATOM     72  C   UNL A   1      48.126  26.585  26.895  1.00  0.00     0.031 A 
ATOM     73  C   UNL A   1      47.277  27.502  24.833  1.00  0.00     0.131 A 
ATOM     74  C   UNL A   1      49.279  26.179  26.204  1.00  0.00     0.055 A 
ATOM     75  C   UNL A   1      48.408  27.062  24.144  1.00  0.00     0.041 A 
ATOM     76  F   UNL A   1      46.330  28.148  24.136  1.00  0.00    -0.206 F 
ATOM     77  C   UNL A   1      49.420  26.401  24.832  1.00  0.00     0.022 A 
BRANCH  74  78
ATOM     78  S   UNL A   1      50.611  25.372  27.134  1.00  0.00     0.124 S 
ATOM     79  O   UNL A   1      51.529  24.989  26.067  1.00  0.00    -0.237 OA
ATOM     80  O   UNL A   1      51.061  26.444  28.015  1.00  0.00    -0.237 OA
ATOM     81  O   UNL A   1      49.934  24.263  27.804  1.00  0.00    -0.744 OA
ENDBRANCH  74  78
ENDBRANCH  47  71
BRANCH  59  82
ATOM     82  C   UNL A   1      45.388  33.284  29.296  1.00  0.00     0.023 A 
ATOM     83  C   UNL A   1      45.380  34.330  28.359  1.00  0.00     0.031 A 
ATOM     84  C   UNL A   1      46.120  33.461  30.485  1.00  0.00     0.131 A 
ATOM     85  C   UNL A   1      46.123  35.493  28.607  1.00  0.00     0.055 A 
ATOM     86  C   UNL A   1      46.816  34.641  30.748  1.00  0.00     0.041 A 
ATOM     87  F   UNL A   1      46.159  32.493  31.413  1.00  0.00    -0.206 F 
ATOM     88  C   UNL A   1      46.829  35.662  29.801  1.00  0.00     0.022 A 
BRANCH  85  89
ATOM     89  S   UNL A   1      46.207  36.766  27.317  1.00  0.00     0.124 S 
ATOM     90  O   UNL A   1      44.806  36.897  26.930  1.00  0.00    -0.237 OA
ATOM     91  O   UNL A   1      46.780  37.901  28.033  1.00  0.00    -0.237 OA
ATOM     92  O   UNL A   1      47.077  36.172  26.304  1.00  0.00    -0.744 OA
ENDBRANCH  85  89
ENDBRANCH  59  82
ENDBRANCH  33  34
ENDBRANCH  26  28
ENDBRANCH  25  26
ENDBRANCH  24  25
ENDBRANCH   1  24
TORSDOF 18
ENDMDL
