MODEL 1
REMARK VINA RESULT:     -10.1      0.000      0.000
REMARK SMILES CC(C)CCOc1ccccc1-c1cc(C(=O)OCCOCCOC(=O)c2ccc(-c3c4nc(c(-c5cc(S(=O)(=O)[O-])ccc5F)c5ccc([nH]5)c(-c5cc(S(=O)(=O)[O-])ccc5F)c5nc(c(-c6cc(S(=O)(=O)[O-])ccc6F)c6ccc3[nH]6)C=C5)C=C4)cc2)no1
REMARK SMILES IDX 20 1 19 2 18 3 16 4 17 5 15 6 13 7 14 8 91 9 90 10 12 11
REMARK SMILES IDX 7 12 8 13 9 14 11 15 10 16 6 17 5 18 4 19 2 20 1 21 3 22
REMARK SMILES IDX 21 23 22 24 23 25 24 26 25 27 26 28 27 29 28 30 89 31 29 32
REMARK SMILES IDX 88 33 30 34 31 35 32 36 82 37 33 38 87 39 81 40 83 41 34 42
REMARK SMILES IDX 86 43 80 44 79 45 35 47 67 48 47 49 66 50 48 51 51 52 65 53
REMARK SMILES IDX 84 54 49 55 50 56 64 58 85 59 52 60 36 61 37 62 45 63 38 64
REMARK SMILES IDX 44 65 46 66 43 67 39 68 40 69 41 70 42 71 68 72 69 73 77 74
REMARK SMILES IDX 70 75 76 76 78 77 75 78 71 79 72 80 73 81 74 82 53 83 54 84
REMARK SMILES IDX 62 85 55 86 61 87 63 88 60 89 56 90 57 91 58 92 59 93
REMARK H PARENT 83 46 51 57
REMARK Flexibility Score: inf
ROOT
ATOM      1  C   UNL A   1      33.414  34.892  28.686  1.00  0.00     0.202 C 
ENDROOT
BRANCH   1   2
ATOM      2  C   UNL A   1      33.146  33.555  27.979  1.00  0.00     0.261 C 
BRANCH   2   3
ATOM      3  O   UNL A   1      34.362  32.883  27.625  1.00  0.00    -0.458 OA
BRANCH   3   4
ATOM      4  C   UNL A   1      34.636  31.741  28.323  1.00  0.00     0.360 C 
ATOM      5  O   UNL A   1      35.066  31.698  29.468  1.00  0.00    -0.244 OA
BRANCH   4   6
ATOM      6  C   UNL A   1      34.244  30.566  27.550  1.00  0.00     0.192 A 
ATOM      7  C   UNL A   1      32.427  28.715  26.230  1.00  0.00     0.171 A 
ATOM      8  C   UNL A   1      32.481  30.089  27.154  1.00  0.00     0.090 A 
ATOM      9  O   UNL A   1      34.204  28.102  26.045  1.00  0.00    -0.355 OA
ATOM     10  N   UNL A   1      35.352  29.442  26.983  1.00  0.00    -0.072 NA
BRANCH   7  11
ATOM     11  C   UNL A   1      31.515  28.278  25.185  1.00  0.00     0.062 A 
ATOM     12  C   UNL A   1      30.958  26.989  25.305  1.00  0.00     0.130 A 
ATOM     13  C   UNL A   1      29.923  26.591  24.467  1.00  0.00     0.047 A 
ATOM     14  C   UNL A   1      29.431  27.487  23.515  1.00  0.00     0.004 A 
ATOM     15  C   UNL A   1      31.032  29.163  24.223  1.00  0.00     0.016 A 
ATOM     16  C   UNL A   1      29.992  28.762  23.385  1.00  0.00     0.001 A 
BRANCH  12  17
ATOM     17  O   UNL A   1      31.439  26.085  26.225  1.00  0.00    -0.493 OA
BRANCH  17  18
ATOM     18  C   UNL A   1      32.087  24.942  25.635  1.00  0.00     0.230 C 
BRANCH  18  19
ATOM     19  C   UNL A   1      33.568  24.803  26.071  1.00  0.00     0.044 C 
BRANCH  19  20
ATOM     20  C   UNL A   1      34.427  23.725  25.047  1.00  0.00    -0.014 C 
ATOM     21  C   UNL A   1      34.988  22.584  26.250  1.00  0.00     0.007 C 
ATOM     22  C   UNL A   1      34.159  23.163  22.869  1.00  0.00     0.007 C 
ENDBRANCH  19  20
ENDBRANCH  18  19
ENDBRANCH  17  18
ENDBRANCH  12  17
ENDBRANCH   7  11
ENDBRANCH   4   6
ENDBRANCH   3   4
ENDBRANCH   2   3
ENDBRANCH   1   2
BRANCH   1  23
ATOM     23  O   UNL A   1      32.607  35.228  29.813  1.00  0.00    -0.374 OA
BRANCH  23  24
ATOM     24  C   UNL A   1      32.914  36.421  30.530  1.00  0.00     0.202 C 
BRANCH  24  25
ATOM     25  C   UNL A   1      33.330  36.326  32.004  1.00  0.00     0.261 C 
BRANCH  25  26
ATOM     26  O   UNL A   1      34.545  35.585  32.210  1.00  0.00    -0.460 OA
BRANCH  26  27
ATOM     27  C   UNL A   1      34.338  34.293  32.568  1.00  0.00     0.338 C 
ATOM     28  O   UNL A   1      33.282  33.793  32.920  1.00  0.00    -0.246 OA
BRANCH  27  29
ATOM     29  C   UNL A   1      35.535  33.477  32.295  1.00  0.00     0.060 A 
ATOM     30  C   UNL A   1      35.579  32.208  32.884  1.00  0.00     0.016 A 
ATOM     31  C   UNL A   1      36.631  33.973  31.588  1.00  0.00     0.016 A 
ATOM     32  C   UNL A   1      36.744  31.453  32.822  1.00  0.00     0.010 A 
ATOM     33  C   UNL A   1      37.804  33.209  31.528  1.00  0.00     0.010 A 
ATOM     34  C   UNL A   1      37.880  31.963  32.176  1.00  0.00    -0.014 A 
BRANCH  34  35
ATOM     35  C   UNL A   1      39.160  31.217  32.284  1.00  0.00     0.031 A 
ATOM     36  C   UNL A   1      40.080  31.482  33.447  1.00  0.00     0.074 A 
ATOM     37  C   UNL A   1      39.461  30.264  31.382  1.00  0.00     0.049 A 
ATOM     38  N   UNL A   1      41.232  30.931  33.732  1.00  0.00    -0.248 NA
ATOM     39  C   UNL A   1      39.646  32.501  34.415  1.00  0.00     0.031 C 
ATOM     40  C   UNL A   1      38.625  29.898  30.238  1.00  0.00     0.029 A 
ATOM     41  N   UNL A   1      40.545  29.429  31.285  1.00  0.00    -0.354 N 
ATOM     42  C   UNL A   1      41.669  31.544  34.902  1.00  0.00     0.074 A 
ATOM     43  C   UNL A   1      40.669  32.528  35.258  1.00  0.00     0.031 C 
ATOM     44  C   UNL A   1      39.227  28.910  29.555  1.00  0.00     0.029 A 
ATOM     45  C   UNL A   1      40.513  28.611  30.180  1.00  0.00     0.049 A 
ATOM     46  H   UNL A   1      41.277  29.417  31.943  1.00  0.00     0.167 HD
ATOM     47  C   UNL A   1      42.800  31.304  35.611  1.00  0.00     0.034 A 
ATOM     48  C   UNL A   1      41.429  27.742  29.705  1.00  0.00     0.034 A 
ATOM     49  C   UNL A   1      43.783  30.313  35.240  1.00  0.00     0.049 A 
ATOM     50  C   UNL A   1      42.710  27.541  30.481  1.00  0.00     0.074 A 
ATOM     51  C   UNL A   1      44.938  29.956  35.914  1.00  0.00     0.029 A 
ATOM     52  N   UNL A   1      43.742  29.535  34.089  1.00  0.00    -0.354 N 
ATOM     53  N   UNL A   1      43.092  28.103  31.606  1.00  0.00    -0.248 NA
ATOM     54  C   UNL A   1      43.675  26.582  29.930  1.00  0.00     0.031 C 
ATOM     55  C   UNL A   1      45.643  29.043  35.124  1.00  0.00     0.029 A 
ATOM     56  C   UNL A   1      44.878  28.744  34.009  1.00  0.00     0.049 A 
ATOM     57  H   UNL A   1      43.013  29.545  33.428  1.00  0.00     0.167 HD
ATOM     58  C   UNL A   1      44.330  27.542  31.908  1.00  0.00     0.074 A 
ATOM     59  C   UNL A   1      44.613  26.580  30.864  1.00  0.00     0.031 C 
ATOM     60  C   UNL A   1      45.160  27.799  32.953  1.00  0.00     0.034 A 
BRANCH  47  61
ATOM     61  C   UNL A   1      43.075  32.162  36.823  1.00  0.00     0.023 A 
ATOM     62  C   UNL A   1      42.582  31.844  38.101  1.00  0.00     0.031 A 
ATOM     63  C   UNL A   1      43.871  33.317  36.695  1.00  0.00     0.131 A 
ATOM     64  C   UNL A   1      42.853  32.693  39.187  1.00  0.00     0.055 A 
ATOM     65  C   UNL A   1      44.199  34.114  37.793  1.00  0.00     0.041 A 
ATOM     66  F   UNL A   1      44.346  33.688  35.496  1.00  0.00    -0.206 F 
ATOM     67  C   UNL A   1      43.681  33.808  39.046  1.00  0.00     0.022 A 
BRANCH  64  68
ATOM     68  S   UNL A   1      42.010  32.387  40.763  1.00  0.00     0.124 S 
ATOM     69  O   UNL A   1      42.279  33.627  41.487  1.00  0.00    -0.237 OA
ATOM     70  O   UNL A   1      40.629  32.177  40.347  1.00  0.00    -0.237 OA
ATOM     71  O   UNL A   1      42.690  31.207  41.293  1.00  0.00    -0.744 OA
ENDBRANCH  64  68
ENDBRANCH  47  61
BRANCH  48  72
ATOM     72  C   UNL A   1      41.208  27.040  28.405  1.00  0.00     0.023 A 
ATOM     73  C   UNL A   1      40.929  25.666  28.351  1.00  0.00     0.031 A 
ATOM     74  C   UNL A   1      41.351  27.729  27.186  1.00  0.00     0.131 A 
ATOM     75  C   UNL A   1      40.863  25.015  27.109  1.00  0.00     0.055 A 
ATOM     76  C   UNL A   1      41.214  27.090  25.954  1.00  0.00     0.041 A 
ATOM     77  F   UNL A   1      41.626  29.044  27.176  1.00  0.00    -0.206 F 
ATOM     78  C   UNL A   1      40.986  25.720  25.911  1.00  0.00     0.022 A 
BRANCH  75  79
ATOM     79  S   UNL A   1      40.743  23.204  27.084  1.00  0.00     0.124 S 
ATOM     80  O   UNL A   1      41.606  22.866  25.959  1.00  0.00    -0.237 OA
ATOM     81  O   UNL A   1      41.245  22.851  28.408  1.00  0.00    -0.237 OA
ATOM     82  O   UNL A   1      39.317  22.962  26.875  1.00  0.00    -0.744 OA
ENDBRANCH  75  79
ENDBRANCH  48  72
BRANCH  60  83
ATOM     83  C   UNL A   1      46.436  26.991  33.031  1.00  0.00     0.023 A 
ATOM     84  C   UNL A   1      46.471  25.719  33.627  1.00  0.00     0.031 A 
ATOM     85  C   UNL A   1      47.641  27.515  32.527  1.00  0.00     0.131 A 
ATOM     86  C   UNL A   1      47.695  25.049  33.776  1.00  0.00     0.055 A 
ATOM     87  C   UNL A   1      48.841  26.807  32.603  1.00  0.00     0.041 A 
ATOM     88  F   UNL A   1      47.672  28.727  31.951  1.00  0.00    -0.206 F 
ATOM     89  C   UNL A   1      48.877  25.574  33.248  1.00  0.00     0.022 A 
BRANCH  86  90
ATOM     90  S   UNL A   1      47.744  23.544  34.788  1.00  0.00     0.124 S 
ATOM     91  O   UNL A   1      48.983  22.918  34.336  1.00  0.00    -0.237 OA
ATOM     92  O   UNL A   1      47.759  24.080  36.145  1.00  0.00    -0.237 OA
ATOM     93  O   UNL A   1      46.520  22.838  34.413  1.00  0.00    -0.744 OA
ENDBRANCH  86  90
ENDBRANCH  60  83
ENDBRANCH  34  35
ENDBRANCH  27  29
ENDBRANCH  26  27
ENDBRANCH  25  26
ENDBRANCH  24  25
ENDBRANCH  23  24
ENDBRANCH   1  23
TORSDOF 22
ENDMDL
MODEL 2
REMARK VINA RESULT:      -9.9      5.280      9.660
REMARK SMILES CC(C)CCOc1ccccc1-c1cc(C(=O)OCCOCCOC(=O)c2ccc(-c3c4nc(c(-c5cc(S(=O)(=O)[O-])ccc5F)c5ccc([nH]5)c(-c5cc(S(=O)(=O)[O-])ccc5F)c5nc(c(-c6cc(S(=O)(=O)[O-])ccc6F)c6ccc3[nH]6)C=C5)C=C4)cc2)no1
REMARK SMILES IDX 20 1 19 2 18 3 16 4 17 5 15 6 13 7 14 8 91 9 90 10 12 11
REMARK SMILES IDX 7 12 8 13 9 14 11 15 10 16 6 17 5 18 4 19 2 20 1 21 3 22
REMARK SMILES IDX 21 23 22 24 23 25 24 26 25 27 26 28 27 29 28 30 89 31 29 32
REMARK SMILES IDX 88 33 30 34 31 35 32 36 82 37 33 38 87 39 81 40 83 41 34 42
REMARK SMILES IDX 86 43 80 44 79 45 35 47 67 48 47 49 66 50 48 51 51 52 65 53
REMARK SMILES IDX 84 54 49 55 50 56 64 58 85 59 52 60 36 61 37 62 45 63 38 64
REMARK SMILES IDX 44 65 46 66 43 67 39 68 40 69 41 70 42 71 68 72 69 73 77 74
REMARK SMILES IDX 70 75 76 76 78 77 75 78 71 79 72 80 73 81 74 82 53 83 54 84
REMARK SMILES IDX 62 85 55 86 61 87 63 88 60 89 56 90 57 91 58 92 59 93
REMARK H PARENT 83 46 51 57
REMARK Flexibility Score: inf
ROOT
ATOM      1  C   UNL A   1      35.052  20.277  24.653  1.00  0.00     0.202 C 
ENDROOT
BRANCH   1   2
ATOM      2  C   UNL A   1      34.417  21.588  25.143  1.00  0.00     0.261 C 
BRANCH   2   3
ATOM      3  O   UNL A   1      34.199  22.511  24.068  1.00  0.00    -0.458 OA
BRANCH   3   4
ATOM      4  C   UNL A   1      32.905  22.905  23.875  1.00  0.00     0.360 C 
ATOM      5  O   UNL A   1      32.113  22.377  23.107  1.00  0.00    -0.244 OA
BRANCH   4   6
ATOM      6  C   UNL A   1      32.560  23.984  24.796  1.00  0.00     0.192 A 
ATOM      7  C   UNL A   1      32.777  26.597  26.059  1.00  0.00     0.171 A 
ATOM      8  C   UNL A   1      33.477  25.607  24.931  1.00  0.00     0.090 A 
ATOM      9  O   UNL A   1      31.373  25.619  26.860  1.00  0.00    -0.355 OA
ATOM     10  N   UNL A   1      31.320  23.857  25.918  1.00  0.00    -0.072 NA
BRANCH   7  11
ATOM     11  C   UNL A   1      32.640  28.043  26.137  1.00  0.00     0.062 A 
ATOM     12  C   UNL A   1      31.792  28.667  25.200  1.00  0.00     0.130 A 
ATOM     13  C   UNL A   1      31.449  30.006  25.349  1.00  0.00     0.047 A 
ATOM     14  C   UNL A   1      31.941  30.721  26.442  1.00  0.00     0.004 A 
ATOM     15  C   UNL A   1      33.143  28.764  27.218  1.00  0.00     0.016 A 
ATOM     16  C   UNL A   1      32.795  30.107  27.365  1.00  0.00     0.001 A 
BRANCH  12  17
ATOM     17  O   UNL A   1      31.309  27.985  24.106  1.00  0.00    -0.493 OA
BRANCH  17  18
ATOM     18  C   UNL A   1      29.934  27.578  24.234  1.00  0.00     0.230 C 
BRANCH  18  19
ATOM     19  C   UNL A   1      29.046  28.098  23.075  1.00  0.00     0.044 C 
BRANCH  19  20
ATOM     20  C   UNL A   1      29.010  29.815  23.030  1.00  0.00    -0.014 C 
ATOM     21  C   UNL A   1      30.009  30.078  21.617  1.00  0.00     0.007 C 
ATOM     22  C   UNL A   1      27.466  31.318  23.726  1.00  0.00     0.007 C 
ENDBRANCH  19  20
ENDBRANCH  18  19
ENDBRANCH  17  18
ENDBRANCH  12  17
ENDBRANCH   7  11
ENDBRANCH   4   6
ENDBRANCH   3   4
ENDBRANCH   2   3
ENDBRANCH   1   2
BRANCH   1  23
ATOM     23  O   UNL A   1      36.220  19.808  25.323  1.00  0.00    -0.374 OA
BRANCH  23  24
ATOM     24  C   UNL A   1      37.471  20.407  24.995  1.00  0.00     0.202 C 
BRANCH  24  25
ATOM     25  C   UNL A   1      38.772  19.677  25.358  1.00  0.00     0.261 C 
BRANCH  25  26
ATOM     26  O   UNL A   1      39.337  20.103  26.609  1.00  0.00    -0.460 OA
BRANCH  26  27
ATOM     27  C   UNL A   1      40.656  20.410  26.532  1.00  0.00     0.338 C 
ATOM     28  O   UNL A   1      41.533  19.739  26.013  1.00  0.00    -0.246 OA
BRANCH  27  29
ATOM     29  C   UNL A   1      40.901  21.787  26.996  1.00  0.00     0.060 A 
ATOM     30  C   UNL A   1      40.570  22.819  26.111  1.00  0.00     0.016 A 
ATOM     31  C   UNL A   1      41.541  22.064  28.205  1.00  0.00     0.016 A 
ATOM     32  C   UNL A   1      40.934  24.129  26.401  1.00  0.00     0.010 A 
ATOM     33  C   UNL A   1      41.907  23.386  28.495  1.00  0.00     0.010 A 
ATOM     34  C   UNL A   1      41.640  24.418  27.578  1.00  0.00    -0.014 A 
BRANCH  34  35
ATOM     35  C   UNL A   1      42.175  25.791  27.772  1.00  0.00     0.031 A 
ATOM     36  C   UNL A   1      41.352  26.812  28.514  1.00  0.00     0.074 A 
ATOM     37  C   UNL A   1      43.414  26.098  27.344  1.00  0.00     0.049 A 
ATOM     38  N   UNL A   1      41.639  28.055  28.801  1.00  0.00    -0.248 NA
ATOM     39  C   UNL A   1      40.032  26.374  28.996  1.00  0.00     0.031 C 
ATOM     40  C   UNL A   1      44.312  25.175  26.648  1.00  0.00     0.029 A 
ATOM     41  N   UNL A   1      44.132  27.263  27.431  1.00  0.00    -0.354 N 
ATOM     42  C   UNL A   1      40.535  28.555  29.483  1.00  0.00     0.074 A 
ATOM     43  C   UNL A   1      39.561  27.486  29.542  1.00  0.00     0.031 C 
ATOM     44  C   UNL A   1      45.463  25.811  26.373  1.00  0.00     0.029 A 
ATOM     45  C   UNL A   1      45.365  27.197  26.824  1.00  0.00     0.049 A 
ATOM     46  H   UNL A   1      43.798  28.069  27.885  1.00  0.00     0.167 HD
ATOM     47  C   UNL A   1      40.355  29.791  30.011  1.00  0.00     0.034 A 
ATOM     48  C   UNL A   1      46.296  28.152  26.625  1.00  0.00     0.034 A 
ATOM     49  C   UNL A   1      41.344  30.843  29.944  1.00  0.00     0.049 A 
ATOM     50  C   UNL A   1      46.041  29.539  27.167  1.00  0.00     0.074 A 
ATOM     51  C   UNL A   1      41.281  32.114  30.487  1.00  0.00     0.029 A 
ATOM     52  N   UNL A   1      42.561  30.756  29.281  1.00  0.00    -0.354 N 
ATOM     53  N   UNL A   1      45.006  29.985  27.841  1.00  0.00    -0.248 NA
ATOM     54  C   UNL A   1      47.084  30.544  26.932  1.00  0.00     0.031 C 
ATOM     55  C   UNL A   1      42.409  32.826  30.068  1.00  0.00     0.029 A 
ATOM     56  C   UNL A   1      43.231  31.969  29.355  1.00  0.00     0.049 A 
ATOM     57  H   UNL A   1      42.899  29.952  28.825  1.00  0.00     0.167 HD
ATOM     58  C   UNL A   1      45.289  31.318  28.133  1.00  0.00     0.074 A 
ATOM     59  C   UNL A   1      46.603  31.589  27.587  1.00  0.00     0.031 C 
ATOM     60  C   UNL A   1      44.533  32.235  28.790  1.00  0.00     0.034 A 
BRANCH  47  61
ATOM     61  C   UNL A   1      39.023  30.105  30.650  1.00  0.00     0.023 A 
ATOM     62  C   UNL A   1      38.038  30.874  30.005  1.00  0.00     0.031 A 
ATOM     63  C   UNL A   1      38.727  29.601  31.931  1.00  0.00     0.131 A 
ATOM     64  C   UNL A   1      36.827  31.151  30.659  1.00  0.00     0.055 A 
ATOM     65  C   UNL A   1      37.491  29.816  32.543  1.00  0.00     0.041 A 
ATOM     66  F   UNL A   1      39.637  28.884  32.609  1.00  0.00    -0.206 F 
ATOM     67  C   UNL A   1      36.536  30.604  31.910  1.00  0.00     0.022 A 
BRANCH  64  68
ATOM     68  S   UNL A   1      35.681  32.338  29.904  1.00  0.00     0.124 S 
ATOM     69  O   UNL A   1      35.623  31.856  28.526  1.00  0.00    -0.237 OA
ATOM     70  O   UNL A   1      34.471  32.156  30.696  1.00  0.00    -0.237 OA
ATOM     71  O   UNL A   1      36.354  33.623  30.078  1.00  0.00    -0.744 OA
ENDBRANCH  64  68
ENDBRANCH  47  61
BRANCH  48  72
ATOM     72  C   UNL A   1      47.525  27.859  25.829  1.00  0.00     0.023 A 
ATOM     73  C   UNL A   1      47.556  28.029  24.436  1.00  0.00     0.031 A 
ATOM     74  C   UNL A   1      48.672  27.327  26.451  1.00  0.00     0.131 A 
ATOM     75  C   UNL A   1      48.682  27.614  23.707  1.00  0.00     0.055 A 
ATOM     76  C   UNL A   1      49.814  26.984  25.728  1.00  0.00     0.041 A 
ATOM     77  F   UNL A   1      48.698  27.136  27.780  1.00  0.00    -0.206 F 
ATOM     78  C   UNL A   1      49.816  27.110  24.344  1.00  0.00     0.022 A 
BRANCH  75  79
ATOM     79  S   UNL A   1      48.591  27.623  21.894  1.00  0.00     0.124 S 
ATOM     80  O   UNL A   1      48.733  26.205  21.584  1.00  0.00    -0.237 OA
ATOM     81  O   UNL A   1      47.272  28.202  21.661  1.00  0.00    -0.237 OA
ATOM     82  O   UNL A   1      49.719  28.466  21.503  1.00  0.00    -0.744 OA
ENDBRANCH  75  79
ENDBRANCH  48  72
BRANCH  60  83
ATOM     83  C   UNL A   1      45.136  33.608  28.987  1.00  0.00     0.023 A 
ATOM     84  C   UNL A   1      45.854  33.943  30.147  1.00  0.00     0.031 A 
ATOM     85  C   UNL A   1      44.965  34.605  28.009  1.00  0.00     0.131 A 
ATOM     86  C   UNL A   1      46.304  35.258  30.338  1.00  0.00     0.055 A 
ATOM     87  C   UNL A   1      45.488  35.890  28.167  1.00  0.00     0.041 A 
ATOM     88  F   UNL A   1      44.284  34.349  26.881  1.00  0.00    -0.206 F 
ATOM     89  C   UNL A   1      46.146  36.228  29.346  1.00  0.00     0.022 A 
BRANCH  86  90
ATOM     90  S   UNL A   1      46.981  35.719  31.957  1.00  0.00     0.124 S 
ATOM     91  O   UNL A   1      46.207  34.872  32.859  1.00  0.00    -0.237 OA
ATOM     92  O   UNL A   1      48.392  35.375  31.814  1.00  0.00    -0.237 OA
ATOM     93  O   UNL A   1      46.698  37.149  32.053  1.00  0.00    -0.744 OA
ENDBRANCH  86  90
ENDBRANCH  60  83
ENDBRANCH  34  35
ENDBRANCH  27  29
ENDBRANCH  26  27
ENDBRANCH  25  26
ENDBRANCH  24  25
ENDBRANCH  23  24
ENDBRANCH   1  23
TORSDOF 22
ENDMDL
MODEL 3
REMARK VINA RESULT:      -9.8      5.313     10.434
REMARK SMILES CC(C)CCOc1ccccc1-c1cc(C(=O)OCCOCCOC(=O)c2ccc(-c3c4nc(c(-c5cc(S(=O)(=O)[O-])ccc5F)c5ccc([nH]5)c(-c5cc(S(=O)(=O)[O-])ccc5F)c5nc(c(-c6cc(S(=O)(=O)[O-])ccc6F)c6ccc3[nH]6)C=C5)C=C4)cc2)no1
REMARK SMILES IDX 20 1 19 2 18 3 16 4 17 5 15 6 13 7 14 8 91 9 90 10 12 11
REMARK SMILES IDX 7 12 8 13 9 14 11 15 10 16 6 17 5 18 4 19 2 20 1 21 3 22
REMARK SMILES IDX 21 23 22 24 23 25 24 26 25 27 26 28 27 29 28 30 89 31 29 32
REMARK SMILES IDX 88 33 30 34 31 35 32 36 82 37 33 38 87 39 81 40 83 41 34 42
REMARK SMILES IDX 86 43 80 44 79 45 35 47 67 48 47 49 66 50 48 51 51 52 65 53
REMARK SMILES IDX 84 54 49 55 50 56 64 58 85 59 52 60 36 61 37 62 45 63 38 64
REMARK SMILES IDX 44 65 46 66 43 67 39 68 40 69 41 70 42 71 68 72 69 73 77 74
REMARK SMILES IDX 70 75 76 76 78 77 75 78 71 79 72 80 73 81 74 82 53 83 54 84
REMARK SMILES IDX 62 85 55 86 61 87 63 88 60 89 56 90 57 91 58 92 59 93
REMARK H PARENT 83 46 51 57
REMARK Flexibility Score: inf
ROOT
ATOM      1  C   UNL A   1      36.337  20.832  25.247  1.00  0.00     0.202 C 
ENDROOT
BRANCH   1   2
ATOM      2  C   UNL A   1      35.484  22.109  25.181  1.00  0.00     0.261 C 
BRANCH   2   3
ATOM      3  O   UNL A   1      34.187  21.917  25.761  1.00  0.00    -0.458 OA
BRANCH   3   4
ATOM      4  C   UNL A   1      33.947  22.597  26.920  1.00  0.00     0.360 C 
ATOM      5  O   UNL A   1      34.479  22.368  27.997  1.00  0.00    -0.244 OA
BRANCH   4   6
ATOM      6  C   UNL A   1      33.039  23.714  26.675  1.00  0.00     0.192 A 
ATOM      7  C   UNL A   1      32.199  26.307  25.654  1.00  0.00     0.171 A 
ATOM      8  C   UNL A   1      33.496  25.283  25.768  1.00  0.00     0.090 A 
ATOM      9  O   UNL A   1      30.779  25.512  26.613  1.00  0.00    -0.355 OA
ATOM     10  N   UNL A   1      31.468  23.751  27.261  1.00  0.00    -0.072 NA
BRANCH   7  11
ATOM     11  C   UNL A   1      31.793  27.255  24.628  1.00  0.00     0.062 A 
ATOM     12  C   UNL A   1      31.607  26.760  23.322  1.00  0.00     0.130 A 
ATOM     13  C   UNL A   1      31.017  27.557  22.348  1.00  0.00     0.047 A 
ATOM     14  C   UNL A   1      30.597  28.846  22.680  1.00  0.00     0.004 A 
ATOM     15  C   UNL A   1      31.388  28.548  24.952  1.00  0.00     0.016 A 
ATOM     16  C   UNL A   1      30.794  29.344  23.973  1.00  0.00     0.001 A 
BRANCH  12  17
ATOM     17  O   UNL A   1      32.028  25.498  22.968  1.00  0.00    -0.493 OA
BRANCH  17  18
ATOM     18  C   UNL A   1      30.967  24.526  22.904  1.00  0.00     0.230 C 
BRANCH  18  19
ATOM     19  C   UNL A   1      31.283  23.242  23.713  1.00  0.00     0.044 C 
BRANCH  19  20
ATOM     20  C   UNL A   1      32.132  22.092  22.763  1.00  0.00    -0.014 C 
ATOM     21  C   UNL A   1      33.551  23.041  22.377  1.00  0.00     0.007 C 
ATOM     22  C   UNL A   1      32.151  19.827  22.782  1.00  0.00     0.007 C 
ENDBRANCH  19  20
ENDBRANCH  18  19
ENDBRANCH  17  18
ENDBRANCH  12  17
ENDBRANCH   7  11
ENDBRANCH   4   6
ENDBRANCH   3   4
ENDBRANCH   2   3
ENDBRANCH   1   2
BRANCH   1  23
ATOM     23  O   UNL A   1      37.686  20.904  24.788  1.00  0.00    -0.374 OA
BRANCH  23  24
ATOM     24  C   UNL A   1      38.723  21.007  25.760  1.00  0.00     0.202 C 
BRANCH  24  25
ATOM     25  C   UNL A   1      39.805  19.920  25.824  1.00  0.00     0.261 C 
BRANCH  25  26
ATOM     26  O   UNL A   1      40.755  20.120  26.885  1.00  0.00    -0.460 OA
BRANCH  26  27
ATOM     27  C   UNL A   1      41.857  20.811  26.501  1.00  0.00     0.338 C 
ATOM     28  O   UNL A   1      42.712  20.442  25.712  1.00  0.00    -0.246 OA
BRANCH  27  29
ATOM     29  C   UNL A   1      41.816  22.191  27.017  1.00  0.00     0.060 A 
ATOM     30  C   UNL A   1      41.669  23.213  26.073  1.00  0.00     0.016 A 
ATOM     31  C   UNL A   1      42.032  22.491  28.363  1.00  0.00     0.016 A 
ATOM     32  C   UNL A   1      41.800  24.542  26.459  1.00  0.00     0.010 A 
ATOM     33  C   UNL A   1      42.163  23.831  28.750  1.00  0.00     0.010 A 
ATOM     34  C   UNL A   1      42.087  24.861  27.795  1.00  0.00    -0.014 A 
BRANCH  34  35
ATOM     35  C   UNL A   1      42.402  26.271  28.141  1.00  0.00     0.031 A 
ATOM     36  C   UNL A   1      43.815  26.774  28.001  1.00  0.00     0.074 A 
ATOM     37  C   UNL A   1      41.417  27.109  28.514  1.00  0.00     0.049 A 
ATOM     38  N   UNL A   1      44.296  27.967  28.238  1.00  0.00    -0.248 NA
ATOM     39  C   UNL A   1      44.819  25.804  27.535  1.00  0.00     0.031 C 
ATOM     40  C   UNL A   1      40.007  26.739  28.645  1.00  0.00     0.029 A 
ATOM     41  N   UNL A   1      41.445  28.439  28.847  1.00  0.00    -0.354 N 
ATOM     42  C   UNL A   1      45.658  27.892  27.964  1.00  0.00     0.074 A 
ATOM     43  C   UNL A   1      45.930  26.526  27.569  1.00  0.00     0.031 C 
ATOM     44  C   UNL A   1      39.306  27.818  29.029  1.00  0.00     0.029 A 
ATOM     45  C   UNL A   1      40.221  28.940  29.223  1.00  0.00     0.049 A 
ATOM     46  H   UNL A   1      42.265  28.984  28.819  1.00  0.00     0.167 HD
ATOM     47  C   UNL A   1      46.590  28.874  28.035  1.00  0.00     0.034 A 
ATOM     48  C   UNL A   1      39.879  30.154  29.700  1.00  0.00     0.034 A 
ATOM     49  C   UNL A   1      46.295  30.233  28.428  1.00  0.00     0.049 A 
ATOM     50  C   UNL A   1      40.951  31.211  29.831  1.00  0.00     0.074 A 
ATOM     51  C   UNL A   1      47.156  31.315  28.486  1.00  0.00     0.029 A 
ATOM     52  N   UNL A   1      45.053  30.693  28.847  1.00  0.00    -0.354 N 
ATOM     53  N   UNL A   1      42.229  31.134  29.533  1.00  0.00    -0.248 NA
ATOM     54  C   UNL A   1      40.533  32.519  30.349  1.00  0.00     0.031 C 
ATOM     55  C   UNL A   1      46.462  32.398  29.035  1.00  0.00     0.029 A 
ATOM     56  C   UNL A   1      45.141  32.027  29.218  1.00  0.00     0.049 A 
ATOM     57  H   UNL A   1      44.231  30.152  28.877  1.00  0.00     0.167 HD
ATOM     58  C   UNL A   1      42.757  32.393  29.804  1.00  0.00     0.074 A 
ATOM     59  C   UNL A   1      41.655  33.215  30.259  1.00  0.00     0.031 C 
ATOM     60  C   UNL A   1      44.038  32.833  29.689  1.00  0.00     0.034 A 
BRANCH  47  61
ATOM     61  C   UNL A   1      48.028  28.512  27.746  1.00  0.00     0.023 A 
ATOM     62  C   UNL A   1      48.554  28.495  26.443  1.00  0.00     0.031 A 
ATOM     63  C   UNL A   1      48.896  28.198  28.809  1.00  0.00     0.131 A 
ATOM     64  C   UNL A   1      49.894  28.128  26.234  1.00  0.00     0.055 A 
ATOM     65  C   UNL A   1      50.246  27.909  28.601  1.00  0.00     0.041 A 
ATOM     66  F   UNL A   1      48.445  28.169  30.073  1.00  0.00    -0.206 F 
ATOM     67  C   UNL A   1      50.749  27.864  27.305  1.00  0.00     0.022 A 
BRANCH  64  68
ATOM     68  S   UNL A   1      50.476  27.884  24.533  1.00  0.00     0.124 S 
ATOM     69  O   UNL A   1      51.272  29.090  24.317  1.00  0.00    -0.237 OA
ATOM     70  O   UNL A   1      51.220  26.635  24.630  1.00  0.00    -0.237 OA
ATOM     71  O   UNL A   1      49.240  27.817  23.754  1.00  0.00    -0.744 OA
ENDBRANCH  64  68
ENDBRANCH  47  61
BRANCH  48  72
ATOM     72  C   UNL A   1      38.482  30.427  30.150  1.00  0.00     0.023 A 
ATOM     73  C   UNL A   1      37.584  31.158  29.355  1.00  0.00     0.031 A 
ATOM     74  C   UNL A   1      38.047  30.022  31.426  1.00  0.00     0.131 A 
ATOM     75  C   UNL A   1      36.326  31.513  29.868  1.00  0.00     0.055 A 
ATOM     76  C   UNL A   1      36.769  30.315  31.901  1.00  0.00     0.041 A 
ATOM     77  F   UNL A   1      38.865  29.326  32.233  1.00  0.00    -0.206 F 
ATOM     78  C   UNL A   1      35.906  31.082  31.127  1.00  0.00     0.022 A 
BRANCH  75  79
ATOM     79  S   UNL A   1      35.292  32.658  28.913  1.00  0.00     0.124 S 
ATOM     80  O   UNL A   1      34.019  31.949  28.879  1.00  0.00    -0.237 OA
ATOM     81  O   UNL A   1      35.335  33.862  29.736  1.00  0.00    -0.237 OA
ATOM     82  O   UNL A   1      35.989  32.755  27.632  1.00  0.00    -0.744 OA
ENDBRANCH  75  79
ENDBRANCH  48  72
BRANCH  60  83
ATOM     83  C   UNL A   1      44.299  34.284  30.026  1.00  0.00     0.023 A 
ATOM     84  C   UNL A   1      44.142  35.305  29.073  1.00  0.00     0.031 A 
ATOM     85  C   UNL A   1      44.739  34.646  31.313  1.00  0.00     0.131 A 
ATOM     86  C   UNL A   1      44.499  36.624  29.395  1.00  0.00     0.055 A 
ATOM     87  C   UNL A   1      45.011  35.972  31.652  1.00  0.00     0.041 A 
ATOM     88  F   UNL A   1      44.912  33.716  32.264  1.00  0.00    -0.206 F 
ATOM     89  C   UNL A   1      44.910  36.968  30.684  1.00  0.00     0.022 A 
BRANCH  86  90
ATOM     90  S   UNL A   1      44.544  37.860  28.068  1.00  0.00     0.124 S 
ATOM     91  O   UNL A   1      45.874  37.648  27.505  1.00  0.00    -0.237 OA
ATOM     92  O   UNL A   1      43.424  37.454  27.225  1.00  0.00    -0.237 OA
ATOM     93  O   UNL A   1      44.364  39.127  28.773  1.00  0.00    -0.744 OA
ENDBRANCH  86  90
ENDBRANCH  60  83
ENDBRANCH  34  35
ENDBRANCH  27  29
ENDBRANCH  26  27
ENDBRANCH  25  26
ENDBRANCH  24  25
ENDBRANCH  23  24
ENDBRANCH   1  23
TORSDOF 22
ENDMDL
