MODEL 1
REMARK VINA RESULT:     -11.1      0.000      0.000
REMARK SMILES COc1ccc([C@H]2C[NH2+]C[C@@H]2C(=O)OCCOCCOC(=O)c2ccc(-c3c4nc(c(-c5cc(S(=O)(=O)[O-])ccc5F)c5ccc([nH]5)c(-c5cc(S(=O)(=O)[O-])ccc5F)c5nc(c(-c6cc(S(=O)(=O)[O-])ccc6F)c6ccc3[nH]6)C=C5)C=C4)cc2)cc1OC
REMARK SMILES IDX 18 1 17 2 16 3 15 4 14 5 12 6 13 7 11 8 7 9 8 10 9 11 10 12
REMARK SMILES IDX 6 15 3 16 4 17 87 18 5 19 86 20 2 21 1 22 88 23 89 24 19 25
REMARK SMILES IDX 20 26 21 27 22 28 23 29 24 30 85 31 25 32 84 33 26 34 27 35
REMARK SMILES IDX 28 36 78 37 29 38 83 39 77 40 79 41 30 42 82 43 76 44 75 45
REMARK SMILES IDX 31 47 63 48 43 49 62 50 44 51 47 52 61 53 80 54 45 55 46 56
REMARK SMILES IDX 60 58 81 59 48 60 32 61 33 62 41 63 34 64 40 65 42 66 39 67
REMARK SMILES IDX 35 68 36 69 37 70 38 71 64 72 65 73 73 74 66 75 72 76 74 77
REMARK SMILES IDX 71 78 67 79 68 80 69 81 70 82 49 83 50 84 58 85 51 86 57 87
REMARK SMILES IDX 59 88 56 89 52 90 53 91 54 92 55 93
REMARK H PARENT 9 13 9 14 79 46 47 57
REMARK Flexibility Score: inf
ROOT
ATOM      1  C   UNL A   1      36.035  21.324  25.222  1.00  0.00     0.202 C 
ENDROOT
BRANCH   1   2
ATOM      2  O   UNL A   1      34.960  20.574  24.658  1.00  0.00    -0.374 OA
BRANCH   2   3
ATOM      3  C   UNL A   1      33.895  20.177  25.525  1.00  0.00     0.202 C 
BRANCH   3   4
ATOM      4  C   UNL A   1      32.516  20.045  24.874  1.00  0.00     0.261 C 
BRANCH   4   5
ATOM      5  O   UNL A   1      31.741  21.229  25.123  1.00  0.00    -0.463 OA
BRANCH   5   6
ATOM      6  C   UNL A   1      31.887  22.233  24.230  1.00  0.00     0.315 C 
ATOM      7  O   UNL A   1      32.389  22.116  23.118  1.00  0.00    -0.252 OA
BRANCH   6   8
ATOM      8  C   UNL A   1      31.299  23.547  24.704  1.00  0.00     0.167 C 
ATOM      9  C   UNL A   1      32.395  24.621  24.717  1.00  0.00     0.094 C 
ATOM     10  C   UNL A   1      32.709  24.719  26.215  1.00  0.00     0.269 C 
ATOM     11  N   UNL A   1      31.401  24.616  26.872  1.00  0.00    -0.345 N 
ATOM     12  C   UNL A   1      30.686  23.583  26.109  1.00  0.00     0.276 C 
ATOM     13  H   UNL A   1      30.904  25.506  26.829  1.00  0.00     0.346 HD
ATOM     14  H   UNL A   1      31.482  24.382  27.862  1.00  0.00     0.346 HD
BRANCH   9  15
ATOM     15  C   UNL A   1      32.030  25.972  24.104  1.00  0.00    -0.034 A 
ATOM     16  C   UNL A   1      31.176  28.438  23.013  1.00  0.00     0.160 A 
ATOM     17  C   UNL A   1      30.636  27.231  22.554  1.00  0.00     0.051 A 
ATOM     18  C   UNL A   1      32.145  28.428  24.018  1.00  0.00     0.161 A 
ATOM     19  C   UNL A   1      31.061  26.012  23.092  1.00  0.00     0.008 A 
ATOM     20  C   UNL A   1      32.570  27.195  24.534  1.00  0.00     0.054 A 
BRANCH  16  21
ATOM     21  O   UNL A   1      30.659  29.610  22.532  1.00  0.00    -0.493 OA
ATOM     22  C   UNL A   1      29.398  29.909  23.129  1.00  0.00     0.278 C 
ENDBRANCH  16  21
BRANCH  18  23
ATOM     23  O   UNL A   1      32.758  29.487  24.631  1.00  0.00    -0.493 OA
ATOM     24  C   UNL A   1      32.164  30.031  25.797  1.00  0.00     0.278 C 
ENDBRANCH  18  23
ENDBRANCH   9  15
ENDBRANCH   6   8
ENDBRANCH   5   6
ENDBRANCH   4   5
ENDBRANCH   3   4
ENDBRANCH   2   3
ENDBRANCH   1   2
BRANCH   1  25
ATOM     25  C   UNL A   1      37.437  20.704  25.156  1.00  0.00     0.261 C 
BRANCH  25  26
ATOM     26  O   UNL A   1      38.483  21.690  25.205  1.00  0.00    -0.460 OA
BRANCH  26  27
ATOM     27  C   UNL A   1      39.449  21.434  26.121  1.00  0.00     0.338 C 
ATOM     28  O   UNL A   1      40.093  20.397  26.229  1.00  0.00    -0.246 OA
BRANCH  27  29
ATOM     29  C   UNL A   1      39.789  22.652  26.881  1.00  0.00     0.060 A 
ATOM     30  C   UNL A   1      39.018  23.794  26.631  1.00  0.00     0.016 A 
ATOM     31  C   UNL A   1      40.889  22.713  27.740  1.00  0.00     0.016 A 
ATOM     32  C   UNL A   1      39.384  25.019  27.180  1.00  0.00     0.010 A 
ATOM     33  C   UNL A   1      41.260  23.949  28.286  1.00  0.00     0.010 A 
ATOM     34  C   UNL A   1      40.538  25.115  27.968  1.00  0.00    -0.014 A 
BRANCH  34  35
ATOM     35  C   UNL A   1      41.079  26.463  28.279  1.00  0.00     0.031 A 
ATOM     36  C   UNL A   1      42.494  26.782  27.872  1.00  0.00     0.074 A 
ATOM     37  C   UNL A   1      40.307  27.409  28.842  1.00  0.00     0.049 A 
ATOM     38  N   UNL A   1      43.174  27.891  28.017  1.00  0.00    -0.248 NA
ATOM     39  C   UNL A   1      43.242  25.700  27.212  1.00  0.00     0.031 C 
ATOM     40  C   UNL A   1      38.908  27.234  29.232  1.00  0.00     0.029 A 
ATOM     41  N   UNL A   1      40.589  28.710  29.175  1.00  0.00    -0.354 N 
ATOM     42  C   UNL A   1      44.427  27.642  27.466  1.00  0.00     0.074 A 
ATOM     43  C   UNL A   1      44.426  26.264  27.026  1.00  0.00     0.031 C 
ATOM     44  C   UNL A   1      38.455  28.387  29.753  1.00  0.00     0.029 A 
ATOM     45  C   UNL A   1      39.537  29.370  29.764  1.00  0.00     0.049 A 
ATOM     46  H   UNL A   1      41.463  29.131  29.008  1.00  0.00     0.167 HD
ATOM     47  C   UNL A   1      45.477  28.489  27.326  1.00  0.00     0.034 A 
ATOM     48  C   UNL A   1      39.462  30.620  30.267  1.00  0.00     0.034 A 
ATOM     49  C   UNL A   1      45.469  29.859  27.781  1.00  0.00     0.049 A 
ATOM     50  C   UNL A   1      40.670  31.521  30.174  1.00  0.00     0.074 A 
ATOM     51  C   UNL A   1      46.476  30.804  27.693  1.00  0.00     0.029 A 
ATOM     52  N   UNL A   1      44.401  30.478  28.417  1.00  0.00    -0.354 N 
ATOM     53  N   UNL A   1      41.850  31.274  29.650  1.00  0.00    -0.248 NA
ATOM     54  C   UNL A   1      40.532  32.873  30.729  1.00  0.00     0.031 C 
ATOM     55  C   UNL A   1      46.043  31.970  28.336  1.00  0.00     0.029 A 
ATOM     56  C   UNL A   1      44.735  31.781  28.752  1.00  0.00     0.049 A 
ATOM     57  H   UNL A   1      43.532  30.055  28.602  1.00  0.00     0.167 HD
ATOM     58  C   UNL A   1      42.578  32.455  29.780  1.00  0.00     0.074 A 
ATOM     59  C   UNL A   1      41.700  33.414  30.420  1.00  0.00     0.031 C 
ATOM     60  C   UNL A   1      43.852  32.726  29.398  1.00  0.00     0.034 A 
BRANCH  47  61
ATOM     61  C   UNL A   1      46.736  27.932  26.705  1.00  0.00     0.023 A 
ATOM     62  C   UNL A   1      47.021  28.090  25.337  1.00  0.00     0.031 A 
ATOM     63  C   UNL A   1      47.646  27.197  27.485  1.00  0.00     0.131 A 
ATOM     64  C   UNL A   1      48.144  27.460  24.778  1.00  0.00     0.055 A 
ATOM     65  C   UNL A   1      48.805  26.641  26.939  1.00  0.00     0.041 A 
ATOM     66  F   UNL A   1      47.416  26.992  28.791  1.00  0.00    -0.206 F 
ATOM     67  C   UNL A   1      49.052  26.759  25.574  1.00  0.00     0.022 A 
BRANCH  64  68
ATOM     68  S   UNL A   1      48.325  27.448  22.973  1.00  0.00     0.124 S 
ATOM     69  O   UNL A   1      47.149  28.205  22.554  1.00  0.00    -0.237 OA
ATOM     70  O   UNL A   1      49.612  28.108  22.780  1.00  0.00    -0.237 OA
ATOM     71  O   UNL A   1      48.296  26.027  22.635  1.00  0.00    -0.744 OA
ENDBRANCH  64  68
ENDBRANCH  47  61
BRANCH  48  72
ATOM     72  C   UNL A   1      38.215  31.092  30.936  1.00  0.00     0.023 A 
ATOM     73  C   UNL A   1      37.200  31.741  30.215  1.00  0.00     0.031 A 
ATOM     74  C   UNL A   1      38.050  30.953  32.326  1.00  0.00     0.131 A 
ATOM     75  C   UNL A   1      36.089  32.269  30.892  1.00  0.00     0.055 A 
ATOM     76  C   UNL A   1      36.918  31.433  32.988  1.00  0.00     0.041 A 
ATOM     77  F   UNL A   1      38.990  30.342  33.065  1.00  0.00    -0.206 F 
ATOM     78  C   UNL A   1      35.935  32.108  32.271  1.00  0.00     0.022 A 
BRANCH  75  79
ATOM     79  S   UNL A   1      34.884  33.250  29.955  1.00  0.00     0.124 S 
ATOM     80  O   UNL A   1      35.748  34.207  29.271  1.00  0.00    -0.237 OA
ATOM     81  O   UNL A   1      34.258  32.235  29.115  1.00  0.00    -0.237 OA
ATOM     82  O   UNL A   1      34.025  33.815  30.992  1.00  0.00    -0.744 OA
ENDBRANCH  75  79
ENDBRANCH  48  72
BRANCH  60  83
ATOM     83  C   UNL A   1      44.351  34.136  29.614  1.00  0.00     0.023 A 
ATOM     84  C   UNL A   1      44.250  35.122  28.617  1.00  0.00     0.031 A 
ATOM     85  C   UNL A   1      44.953  34.491  30.835  1.00  0.00     0.131 A 
ATOM     86  C   UNL A   1      44.800  36.395  28.835  1.00  0.00     0.055 A 
ATOM     87  C   UNL A   1      45.442  35.777  31.070  1.00  0.00     0.041 A 
ATOM     88  F   UNL A   1      45.078  33.590  31.823  1.00  0.00    -0.206 F 
ATOM     89  C   UNL A   1      45.381  36.733  30.062  1.00  0.00     0.022 A 
BRANCH  86  90
ATOM     90  S   UNL A   1      44.840  37.576  27.459  1.00  0.00     0.124 S 
ATOM     91  O   UNL A   1      45.278  38.801  28.120  1.00  0.00    -0.237 OA
ATOM     92  O   UNL A   1      45.805  36.963  26.551  1.00  0.00    -0.237 OA
ATOM     93  O   UNL A   1      43.460  37.590  26.977  1.00  0.00    -0.744 OA
ENDBRANCH  86  90
ENDBRANCH  60  83
ENDBRANCH  34  35
ENDBRANCH  27  29
ENDBRANCH  26  27
ENDBRANCH  25  26
ENDBRANCH   1  25
TORSDOF 20
ENDMDL
MODEL 2
REMARK VINA RESULT:     -11.0      2.487      8.521
REMARK SMILES COc1ccc([C@H]2C[NH2+]C[C@@H]2C(=O)OCCOCCOC(=O)c2ccc(-c3c4nc(c(-c5cc(S(=O)(=O)[O-])ccc5F)c5ccc([nH]5)c(-c5cc(S(=O)(=O)[O-])ccc5F)c5nc(c(-c6cc(S(=O)(=O)[O-])ccc6F)c6ccc3[nH]6)C=C5)C=C4)cc2)cc1OC
REMARK SMILES IDX 18 1 17 2 16 3 15 4 14 5 12 6 13 7 11 8 7 9 8 10 9 11 10 12
REMARK SMILES IDX 6 15 3 16 4 17 87 18 5 19 86 20 2 21 1 22 88 23 89 24 19 25
REMARK SMILES IDX 20 26 21 27 22 28 23 29 24 30 85 31 25 32 84 33 26 34 27 35
REMARK SMILES IDX 28 36 78 37 29 38 83 39 77 40 79 41 30 42 82 43 76 44 75 45
REMARK SMILES IDX 31 47 63 48 43 49 62 50 44 51 47 52 61 53 80 54 45 55 46 56
REMARK SMILES IDX 60 58 81 59 48 60 32 61 33 62 41 63 34 64 40 65 42 66 39 67
REMARK SMILES IDX 35 68 36 69 37 70 38 71 64 72 65 73 73 74 66 75 72 76 74 77
REMARK SMILES IDX 71 78 67 79 68 80 69 81 70 82 49 83 50 84 58 85 51 86 57 87
REMARK SMILES IDX 59 88 56 89 52 90 53 91 54 92 55 93
REMARK H PARENT 9 13 9 14 79 46 47 57
REMARK Flexibility Score: inf
ROOT
ATOM      1  C   UNL A   1      36.568  20.052  24.957  1.00  0.00     0.202 C 
ENDROOT
BRANCH   1   2
ATOM      2  O   UNL A   1      36.116  21.249  25.587  1.00  0.00    -0.374 OA
BRANCH   2   3
ATOM      3  C   UNL A   1      36.034  22.433  24.791  1.00  0.00     0.202 C 
BRANCH   3   4
ATOM      4  C   UNL A   1      35.884  23.749  25.561  1.00  0.00     0.261 C 
BRANCH   4   5
ATOM      5  O   UNL A   1      34.920  23.593  26.614  1.00  0.00    -0.463 OA
BRANCH   5   6
ATOM      6  C   UNL A   1      33.663  24.006  26.334  1.00  0.00     0.315 C 
ATOM      7  O   UNL A   1      33.336  25.170  26.132  1.00  0.00    -0.252 OA
BRANCH   6   8
ATOM      8  C   UNL A   1      32.669  22.868  26.222  1.00  0.00     0.167 C 
ATOM      9  C   UNL A   1      32.375  22.592  24.742  1.00  0.00     0.094 C 
ATOM     10  C   UNL A   1      30.994  23.240  24.578  1.00  0.00     0.269 C 
ATOM     11  N   UNL A   1      30.283  22.908  25.818  1.00  0.00    -0.345 N 
ATOM     12  C   UNL A   1      31.294  23.062  26.874  1.00  0.00     0.276 C 
ATOM     13  H   UNL A   1      29.934  21.950  25.788  1.00  0.00     0.346 HD
ATOM     14  H   UNL A   1      29.469  23.504  25.969  1.00  0.00     0.346 HD
BRANCH   9  15
ATOM     15  C   UNL A   1      32.392  21.128  24.306  1.00  0.00    -0.034 A 
ATOM     16  C   UNL A   1      32.560  18.461  23.379  1.00  0.00     0.160 A 
ATOM     17  C   UNL A   1      32.307  19.510  22.488  1.00  0.00     0.051 A 
ATOM     18  C   UNL A   1      32.731  18.730  24.738  1.00  0.00     0.161 A 
ATOM     19  C   UNL A   1      32.222  20.828  22.948  1.00  0.00     0.008 A 
ATOM     20  C   UNL A   1      32.626  20.056  25.183  1.00  0.00     0.054 A 
BRANCH  16  21
ATOM     21  O   UNL A   1      32.737  17.203  22.872  1.00  0.00    -0.493 OA
ATOM     22  C   UNL A   1      34.120  16.866  22.778  1.00  0.00     0.278 C 
ENDBRANCH  16  21
BRANCH  18  23
ATOM     23  O   UNL A   1      33.028  17.862  25.754  1.00  0.00    -0.493 OA
ATOM     24  C   UNL A   1      32.374  16.605  25.784  1.00  0.00     0.278 C 
ENDBRANCH  18  23
ENDBRANCH   9  15
ENDBRANCH   6   8
ENDBRANCH   5   6
ENDBRANCH   4   5
ENDBRANCH   3   4
ENDBRANCH   2   3
ENDBRANCH   1   2
BRANCH   1  25
ATOM     25  C   UNL A   1      38.082  19.799  24.927  1.00  0.00     0.261 C 
BRANCH  25  26
ATOM     26  O   UNL A   1      38.671  19.812  26.239  1.00  0.00    -0.460 OA
BRANCH  26  27
ATOM     27  C   UNL A   1      40.008  20.036  26.247  1.00  0.00     0.338 C 
ATOM     28  O   UNL A   1      40.867  19.333  25.726  1.00  0.00    -0.246 OA
BRANCH  27  29
ATOM     29  C   UNL A   1      40.315  21.367  26.805  1.00  0.00     0.060 A 
ATOM     30  C   UNL A   1      39.762  22.474  26.150  1.00  0.00     0.016 A 
ATOM     31  C   UNL A   1      41.195  21.542  27.876  1.00  0.00     0.016 A 
ATOM     32  C   UNL A   1      40.142  23.763  26.513  1.00  0.00     0.010 A 
ATOM     33  C   UNL A   1      41.581  22.841  28.235  1.00  0.00     0.010 A 
ATOM     34  C   UNL A   1      41.095  23.953  27.523  1.00  0.00    -0.014 A 
BRANCH  34  35
ATOM     35  C   UNL A   1      41.712  25.295  27.678  1.00  0.00     0.031 A 
ATOM     36  C   UNL A   1      40.930  26.369  28.389  1.00  0.00     0.074 A 
ATOM     37  C   UNL A   1      42.970  25.533  27.266  1.00  0.00     0.049 A 
ATOM     38  N   UNL A   1      41.267  27.604  28.661  1.00  0.00    -0.248 NA
ATOM     39  C   UNL A   1      39.585  25.996  28.854  1.00  0.00     0.031 C 
ATOM     40  C   UNL A   1      43.842  24.558  26.613  1.00  0.00     0.029 A 
ATOM     41  N   UNL A   1      43.735  26.670  27.343  1.00  0.00    -0.354 N 
ATOM     42  C   UNL A   1      40.179  28.156  29.329  1.00  0.00     0.074 A 
ATOM     43  C   UNL A   1      39.156  27.133  29.380  1.00  0.00     0.031 C 
ATOM     44  C   UNL A   1      45.024  25.141  26.349  1.00  0.00     0.029 A 
ATOM     45  C   UNL A   1      44.983  26.536  26.782  1.00  0.00     0.049 A 
ATOM     46  H   UNL A   1      43.419  27.504  27.762  1.00  0.00     0.167 HD
ATOM     47  C   UNL A   1      40.049  29.395  29.864  1.00  0.00     0.034 A 
ATOM     48  C   UNL A   1      45.971  27.441  26.625  1.00  0.00     0.034 A 
ATOM     49  C   UNL A   1      41.074  30.409  29.797  1.00  0.00     0.049 A 
ATOM     50  C   UNL A   1      45.774  28.841  27.157  1.00  0.00     0.074 A 
ATOM     51  C   UNL A   1      41.049  31.697  30.301  1.00  0.00     0.029 A 
ATOM     52  N   UNL A   1      42.307  30.252  29.177  1.00  0.00    -0.354 N 
ATOM     53  N   UNL A   1      44.740  29.350  27.788  1.00  0.00    -0.248 NA
ATOM     54  C   UNL A   1      46.884  29.783  26.967  1.00  0.00     0.031 C 
ATOM     55  C   UNL A   1      42.235  32.340  29.928  1.00  0.00     0.029 A 
ATOM     56  C   UNL A   1      43.038  31.428  29.262  1.00  0.00     0.049 A 
ATOM     57  H   UNL A   1      42.619  29.426  28.742  1.00  0.00     0.167 HD
ATOM     58  C   UNL A   1      45.094  30.661  28.102  1.00  0.00     0.074 A 
ATOM     59  C   UNL A   1      46.439  30.857  27.601  1.00  0.00     0.031 C 
ATOM     60  C   UNL A   1      44.377  31.613  28.752  1.00  0.00     0.034 A 
BRANCH  47  61
ATOM     61  C   UNL A   1      38.730  29.731  30.518  1.00  0.00     0.023 A 
ATOM     62  C   UNL A   1      37.734  30.463  29.847  1.00  0.00     0.031 A 
ATOM     63  C   UNL A   1      38.480  29.347  31.848  1.00  0.00     0.131 A 
ATOM     64  C   UNL A   1      36.570  30.850  30.529  1.00  0.00     0.055 A 
ATOM     65  C   UNL A   1      37.284  29.666  32.495  1.00  0.00     0.041 A 
ATOM     66  F   UNL A   1      39.402  28.667  32.547  1.00  0.00    -0.206 F 
ATOM     67  C   UNL A   1      36.327  30.435  31.840  1.00  0.00     0.022 A 
BRANCH  64  68
ATOM     68  S   UNL A   1      35.444  32.027  29.728  1.00  0.00     0.124 S 
ATOM     69  O   UNL A   1      36.361  33.097  29.345  1.00  0.00    -0.237 OA
ATOM     70  O   UNL A   1      34.889  31.237  28.635  1.00  0.00    -0.237 OA
ATOM     71  O   UNL A   1      34.500  32.374  30.789  1.00  0.00    -0.744 OA
ENDBRANCH  64  68
ENDBRANCH  47  61
BRANCH  48  72
ATOM     72  C   UNL A   1      47.225  27.074  25.905  1.00  0.00     0.023 A 
ATOM     73  C   UNL A   1      48.277  26.415  26.561  1.00  0.00     0.031 A 
ATOM     74  C   UNL A   1      47.411  27.435  24.559  1.00  0.00     0.131 A 
ATOM     75  C   UNL A   1      49.485  26.181  25.885  1.00  0.00     0.055 A 
ATOM     76  C   UNL A   1      48.594  27.152  23.874  1.00  0.00     0.041 A 
ATOM     77  F   UNL A   1      46.438  28.068  23.884  1.00  0.00    -0.206 F 
ATOM     78  C   UNL A   1      49.646  26.533  24.543  1.00  0.00     0.022 A 
BRANCH  75  79
ATOM     79  S   UNL A   1      50.881  25.484  26.812  1.00  0.00     0.124 S 
ATOM     80  O   UNL A   1      50.237  24.404  27.550  1.00  0.00    -0.237 OA
ATOM     81  O   UNL A   1      51.784  25.081  25.740  1.00  0.00    -0.237 OA
ATOM     82  O   UNL A   1      51.342  26.608  27.624  1.00  0.00    -0.744 OA
ENDBRANCH  75  79
ENDBRANCH  48  72
BRANCH  60  83
ATOM     83  C   UNL A   1      45.061  32.936  29.006  1.00  0.00     0.023 A 
ATOM     84  C   UNL A   1      44.997  33.997  28.087  1.00  0.00     0.031 A 
ATOM     85  C   UNL A   1      45.806  33.128  30.185  1.00  0.00     0.131 A 
ATOM     86  C   UNL A   1      45.715  35.178  28.330  1.00  0.00     0.055 A 
ATOM     87  C   UNL A   1      46.467  34.328  30.451  1.00  0.00     0.041 A 
ATOM     88  F   UNL A   1      45.904  32.149  31.098  1.00  0.00    -0.206 F 
ATOM     89  C   UNL A   1      46.436  35.356  29.515  1.00  0.00     0.022 A 
BRANCH  86  90
ATOM     90  S   UNL A   1      45.780  36.443  27.032  1.00  0.00     0.124 S 
ATOM     91  O   UNL A   1      46.838  37.323  27.517  1.00  0.00    -0.237 OA
ATOM     92  O   UNL A   1      46.101  35.655  25.846  1.00  0.00    -0.237 OA
ATOM     93  O   UNL A   1      44.438  37.021  27.046  1.00  0.00    -0.744 OA
ENDBRANCH  86  90
ENDBRANCH  60  83
ENDBRANCH  34  35
ENDBRANCH  27  29
ENDBRANCH  26  27
ENDBRANCH  25  26
ENDBRANCH   1  25
TORSDOF 20
ENDMDL
MODEL 3
REMARK VINA RESULT:     -10.9      1.320      7.654
REMARK SMILES COc1ccc([C@H]2C[NH2+]C[C@@H]2C(=O)OCCOCCOC(=O)c2ccc(-c3c4nc(c(-c5cc(S(=O)(=O)[O-])ccc5F)c5ccc([nH]5)c(-c5cc(S(=O)(=O)[O-])ccc5F)c5nc(c(-c6cc(S(=O)(=O)[O-])ccc6F)c6ccc3[nH]6)C=C5)C=C4)cc2)cc1OC
REMARK SMILES IDX 18 1 17 2 16 3 15 4 14 5 12 6 13 7 11 8 7 9 8 10 9 11 10 12
REMARK SMILES IDX 6 15 3 16 4 17 87 18 5 19 86 20 2 21 1 22 88 23 89 24 19 25
REMARK SMILES IDX 20 26 21 27 22 28 23 29 24 30 85 31 25 32 84 33 26 34 27 35
REMARK SMILES IDX 28 36 78 37 29 38 83 39 77 40 79 41 30 42 82 43 76 44 75 45
REMARK SMILES IDX 31 47 63 48 43 49 62 50 44 51 47 52 61 53 80 54 45 55 46 56
REMARK SMILES IDX 60 58 81 59 48 60 32 61 33 62 41 63 34 64 40 65 42 66 39 67
REMARK SMILES IDX 35 68 36 69 37 70 38 71 64 72 65 73 73 74 66 75 72 76 74 77
REMARK SMILES IDX 71 78 67 79 68 80 69 81 70 82 49 83 50 84 58 85 51 86 57 87
REMARK SMILES IDX 59 88 56 89 52 90 53 91 54 92 55 93
REMARK H PARENT 9 13 9 14 79 46 47 57
REMARK Flexibility Score: inf
ROOT
ATOM      1  C   UNL A   1      35.778  20.667  25.317  1.00  0.00     0.202 C 
ENDROOT
BRANCH   1   2
ATOM      2  O   UNL A   1      35.696  21.832  26.136  1.00  0.00    -0.374 OA
BRANCH   2   3
ATOM      3  C   UNL A   1      34.592  21.940  27.037  1.00  0.00     0.202 C 
BRANCH   3   4
ATOM      4  C   UNL A   1      33.310  21.219  26.614  1.00  0.00     0.261 C 
BRANCH   4   5
ATOM      5  O   UNL A   1      32.376  22.162  26.064  1.00  0.00    -0.463 OA
BRANCH   5   6
ATOM      6  C   UNL A   1      32.479  22.396  24.737  1.00  0.00     0.315 C 
ATOM      7  O   UNL A   1      32.238  21.575  23.859  1.00  0.00    -0.252 OA
BRANCH   6   8
ATOM      8  C   UNL A   1      32.867  23.824  24.408  1.00  0.00     0.167 C 
ATOM      9  C   UNL A   1      31.598  24.669  24.235  1.00  0.00     0.094 C 
ATOM     10  C   UNL A   1      31.521  24.796  22.708  1.00  0.00     0.269 C 
ATOM     11  N   UNL A   1      32.913  24.983  22.284  1.00  0.00    -0.345 N 
ATOM     12  C   UNL A   1      33.683  24.060  23.131  1.00  0.00     0.276 C 
ATOM     13  H   UNL A   1      33.211  25.947  22.437  1.00  0.00     0.346 HD
ATOM     14  H   UNL A   1      33.044  24.798  21.290  1.00  0.00     0.346 HD
BRANCH   9  15
ATOM     15  C   UNL A   1      31.583  26.025  24.938  1.00  0.00    -0.034 A 
ATOM     16  C   UNL A   1      31.742  28.522  26.258  1.00  0.00     0.160 A 
ATOM     17  C   UNL A   1      32.240  27.363  26.864  1.00  0.00     0.051 A 
ATOM     18  C   UNL A   1      31.161  28.448  24.990  1.00  0.00     0.161 A 
ATOM     19  C   UNL A   1      32.159  26.129  26.212  1.00  0.00     0.008 A 
ATOM     20  C   UNL A   1      31.074  27.199  24.359  1.00  0.00     0.054 A 
BRANCH  16  21
ATOM     21  O   UNL A   1      31.934  29.722  26.886  1.00  0.00    -0.493 OA
ATOM     22  C   UNL A   1      33.185  30.307  26.526  1.00  0.00     0.278 C 
ENDBRANCH  16  21
BRANCH  18  23
ATOM     23  O   UNL A   1      30.661  29.459  24.215  1.00  0.00    -0.493 OA
ATOM     24  C   UNL A   1      30.134  29.136  22.939  1.00  0.00     0.278 C 
ENDBRANCH  18  23
ENDBRANCH   9  15
ENDBRANCH   6   8
ENDBRANCH   5   6
ENDBRANCH   4   5
ENDBRANCH   3   4
ENDBRANCH   2   3
ENDBRANCH   1   2
BRANCH   1  25
ATOM     25  C   UNL A   1      37.180  20.140  24.979  1.00  0.00     0.261 C 
BRANCH  25  26
ATOM     26  O   UNL A   1      38.190  21.160  25.060  1.00  0.00    -0.460 OA
BRANCH  26  27
ATOM     27  C   UNL A   1      39.175  20.901  25.954  1.00  0.00     0.338 C 
ATOM     28  O   UNL A   1      39.740  19.826  26.123  1.00  0.00    -0.246 OA
BRANCH  27  29
ATOM     29  C   UNL A   1      39.644  22.144  26.595  1.00  0.00     0.060 A 
ATOM     30  C   UNL A   1      39.040  23.339  26.183  1.00  0.00     0.016 A 
ATOM     31  C   UNL A   1      40.709  22.162  27.499  1.00  0.00     0.016 A 
ATOM     32  C   UNL A   1      39.545  24.562  26.614  1.00  0.00     0.010 A 
ATOM     33  C   UNL A   1      41.219  23.395  27.926  1.00  0.00     0.010 A 
ATOM     34  C   UNL A   1      40.671  24.600  27.447  1.00  0.00    -0.014 A 
BRANCH  34  35
ATOM     35  C   UNL A   1      41.373  25.894  27.639  1.00  0.00     0.031 A 
ATOM     36  C   UNL A   1      40.696  26.968  28.450  1.00  0.00     0.074 A 
ATOM     37  C   UNL A   1      42.619  26.085  27.168  1.00  0.00     0.049 A 
ATOM     38  N   UNL A   1      41.120  28.164  28.768  1.00  0.00    -0.248 NA
ATOM     39  C   UNL A   1      39.359  26.645  28.971  1.00  0.00     0.031 C 
ATOM     40  C   UNL A   1      43.395  25.101  26.414  1.00  0.00     0.029 A 
ATOM     41  N   UNL A   1      43.452  27.171  27.262  1.00  0.00    -0.354 N 
ATOM     42  C   UNL A   1      40.104  28.737  29.527  1.00  0.00     0.074 A 
ATOM     43  C   UNL A   1      39.027  27.772  29.582  1.00  0.00     0.031 C 
ATOM     44  C   UNL A   1      44.593  25.632  26.114  1.00  0.00     0.029 A 
ATOM     45  C   UNL A   1      44.658  27.000  26.624  1.00  0.00     0.049 A 
ATOM     46  H   UNL A   1      43.210  27.996  27.743  1.00  0.00     0.167 HD
ATOM     47  C   UNL A   1      40.077  29.949  30.135  1.00  0.00     0.034 A 
ATOM     48  C   UNL A   1      45.687  27.856  26.458  1.00  0.00     0.034 A 
ATOM     49  C   UNL A   1      41.154  30.907  30.063  1.00  0.00     0.049 A 
ATOM     50  C   UNL A   1      45.603  29.232  27.076  1.00  0.00     0.074 A 
ATOM     51  C   UNL A   1      41.232  32.164  30.636  1.00  0.00     0.029 A 
ATOM     52  N   UNL A   1      42.340  30.717  29.366  1.00  0.00    -0.354 N 
ATOM     53  N   UNL A   1      44.637  29.761  27.792  1.00  0.00    -0.248 NA
ATOM     54  C   UNL A   1      46.754  30.120  26.873  1.00  0.00     0.031 C 
ATOM     55  C   UNL A   1      42.432  32.759  30.231  1.00  0.00     0.029 A 
ATOM     56  C   UNL A   1      43.142  31.843  29.471  1.00  0.00     0.049 A 
ATOM     57  H   UNL A   1      42.579  29.901  28.869  1.00  0.00     0.167 HD
ATOM     58  C   UNL A   1      45.084  31.030  28.155  1.00  0.00     0.074 A 
ATOM     59  C   UNL A   1      46.409  31.179  27.589  1.00  0.00     0.031 C 
ATOM     60  C   UNL A   1      44.461  31.982  28.895  1.00  0.00     0.034 A 
BRANCH  47  61
ATOM     61  C   UNL A   1      38.817  30.320  30.881  1.00  0.00     0.023 A 
ATOM     62  C   UNL A   1      37.758  31.003  30.256  1.00  0.00     0.031 A 
ATOM     63  C   UNL A   1      38.690  30.021  32.249  1.00  0.00     0.131 A 
ATOM     64  C   UNL A   1      36.655  31.429  31.013  1.00  0.00     0.055 A 
ATOM     65  C   UNL A   1      37.553  30.376  32.978  1.00  0.00     0.041 A 
ATOM     66  F   UNL A   1      39.677  29.392  32.905  1.00  0.00    -0.206 F 
ATOM     67  C   UNL A   1      36.533  31.097  32.364  1.00  0.00     0.022 A 
BRANCH  64  68
ATOM     68  S   UNL A   1      35.451  32.546  30.242  1.00  0.00     0.124 S 
ATOM     69  O   UNL A   1      34.425  32.632  31.278  1.00  0.00    -0.237 OA
ATOM     70  O   UNL A   1      36.238  33.753  30.020  1.00  0.00    -0.237 OA
ATOM     71  O   UNL A   1      35.047  31.833  29.032  1.00  0.00    -0.744 OA
ENDBRANCH  64  68
ENDBRANCH  47  61
BRANCH  48  72
ATOM     72  C   UNL A   1      46.876  27.461  25.649  1.00  0.00     0.023 A 
ATOM     73  C   UNL A   1      47.031  27.890  24.321  1.00  0.00     0.031 A 
ATOM     74  C   UNL A   1      47.848  26.592  26.178  1.00  0.00     0.131 A 
ATOM     75  C   UNL A   1      48.105  27.412  23.553  1.00  0.00     0.055 A 
ATOM     76  C   UNL A   1      48.943  26.162  25.427  1.00  0.00     0.041 A 
ATOM     77  F   UNL A   1      47.748  26.150  27.442  1.00  0.00    -0.206 F 
ATOM     78  C   UNL A   1      49.069  26.562  24.100  1.00  0.00     0.022 A 
BRANCH  75  79
ATOM     79  S   UNL A   1      48.178  27.850  21.793  1.00  0.00     0.124 S 
ATOM     80  O   UNL A   1      49.246  28.843  21.778  1.00  0.00    -0.237 OA
ATOM     81  O   UNL A   1      48.487  26.564  21.175  1.00  0.00    -0.237 OA
ATOM     82  O   UNL A   1      46.840  28.367  21.516  1.00  0.00    -0.744 OA
ENDBRANCH  75  79
ENDBRANCH  48  72
BRANCH  60  83
ATOM     83  C   UNL A   1      45.234  33.248  29.181  1.00  0.00     0.023 A 
ATOM     84  C   UNL A   1      45.375  34.267  28.223  1.00  0.00     0.031 A 
ATOM     85  C   UNL A   1      45.856  33.427  30.430  1.00  0.00     0.131 A 
ATOM     86  C   UNL A   1      46.171  35.389  28.506  1.00  0.00     0.055 A 
ATOM     87  C   UNL A   1      46.594  34.572  30.729  1.00  0.00     0.041 A 
ATOM     88  F   UNL A   1      45.757  32.486  31.383  1.00  0.00    -0.206 F 
ATOM     89  C   UNL A   1      46.767  35.555  29.760  1.00  0.00     0.022 A 
BRANCH  86  90
ATOM     90  S   UNL A   1      46.502  36.581  27.180  1.00  0.00     0.124 S 
ATOM     91  O   UNL A   1      47.929  36.835  27.348  1.00  0.00    -0.237 OA
ATOM     92  O   UNL A   1      46.125  35.832  25.986  1.00  0.00    -0.237 OA
ATOM     93  O   UNL A   1      45.630  37.708  27.504  1.00  0.00    -0.744 OA
ENDBRANCH  86  90
ENDBRANCH  60  83
ENDBRANCH  34  35
ENDBRANCH  27  29
ENDBRANCH  26  27
ENDBRANCH  25  26
ENDBRANCH   1  25
TORSDOF 20
ENDMDL
