MODEL 1
REMARK VINA RESULT:     -12.0      0.000      0.000
REMARK SMILES O=C(OCCOCCOC(=O)[C@H]1[C@H]2C[C@@H]3[C@@H](OC(=O)[C@@H]31)[C@@H]2Sc1ccccc1)c1ccc(-c2c3nc(c(-c4cc(S(=O)(=O)[O-])ccc4F)c4ccc([nH]4)c(-c4cc(S(=O)(=O)[O-])ccc4F)c4nc(c(-c5cc(S(=O)(=O)[O-])ccc5F)c5ccc2[nH]5)C=C4)C=C3)cc1
REMARK SMILES IDX 5 1 4 2 3 3 2 4 1 5 29 6 30 7 91 8 31 9 90 10 32 11 33 12
REMARK SMILES IDX 34 13 84 14 35 15 89 16 83 17 85 18 36 19 88 20 82 21 81 22
REMARK SMILES IDX 37 24 69 25 49 26 68 27 50 28 53 29 67 30 86 31 51 32 52 33
REMARK SMILES IDX 66 35 87 36 54 37 38 38 39 39 47 40 40 41 46 42 48 43 45 44
REMARK SMILES IDX 41 45 42 46 43 47 44 48 70 49 71 50 79 51 72 52 78 53 80 54
REMARK SMILES IDX 77 55 73 56 74 57 75 58 76 59 55 60 56 61 64 62 57 63 63 64
REMARK SMILES IDX 65 65 62 66 58 67 59 68 60 69 61 70 6 71 7 72 8 73 9 74
REMARK SMILES IDX 10 75 11 76 12 77 13 78 20 79 14 80 21 81 15 82 18 83 16 84
REMARK SMILES IDX 17 85 19 86 22 87 23 88 24 89 28 90 25 91 27 92 26 93
REMARK H PARENT 85 23 53 34
REMARK Flexibility Score: inf
ROOT
ATOM      1  C   UNL A   1      34.928  20.169  24.956  1.00  0.00     0.202 C 
ENDROOT
BRANCH   1   2
ATOM      2  C   UNL A   1      35.972  21.292  24.808  1.00  0.00     0.261 C 
BRANCH   2   3
ATOM      3  O   UNL A   1      36.885  21.319  25.921  1.00  0.00    -0.460 OA
BRANCH   3   4
ATOM      4  C   UNL A   1      38.236  21.448  25.867  1.00  0.00     0.338 C 
ATOM      5  O   UNL A   1      38.903  20.528  25.397  1.00  0.00    -0.246 OA
BRANCH   4   6
ATOM      6  C   UNL A   1      38.949  22.658  26.375  1.00  0.00     0.060 A 
ATOM      7  C   UNL A   1      38.524  23.958  26.130  1.00  0.00     0.016 A 
ATOM      8  C   UNL A   1      40.083  22.494  27.185  1.00  0.00     0.016 A 
ATOM      9  C   UNL A   1      39.174  25.061  26.598  1.00  0.00     0.010 A 
ATOM     10  C   UNL A   1      40.762  23.614  27.688  1.00  0.00     0.010 A 
ATOM     11  C   UNL A   1      40.302  24.897  27.375  1.00  0.00    -0.014 A 
BRANCH  11  12
ATOM     12  C   UNL A   1      41.035  26.147  27.582  1.00  0.00     0.031 A 
ATOM     13  C   UNL A   1      40.420  27.136  28.520  1.00  0.00     0.074 A 
ATOM     14  C   UNL A   1      42.332  26.193  27.223  1.00  0.00     0.049 A 
ATOM     15  N   UNL A   1      40.869  28.290  28.914  1.00  0.00    -0.248 NA
ATOM     16  C   UNL A   1      39.128  26.751  29.120  1.00  0.00     0.031 C 
ATOM     17  C   UNL A   1      43.059  25.109  26.546  1.00  0.00     0.029 A 
ATOM     18  N   UNL A   1      43.288  27.137  27.452  1.00  0.00    -0.354 N 
ATOM     19  C   UNL A   1      39.890  28.800  29.758  1.00  0.00     0.074 A 
ATOM     20  C   UNL A   1      38.831  27.822  29.834  1.00  0.00     0.031 C 
ATOM     21  C   UNL A   1      44.354  25.442  26.448  1.00  0.00     0.029 A 
ATOM     22  C   UNL A   1      44.524  26.797  26.952  1.00  0.00     0.049 A 
ATOM     23  H   UNL A   1      43.113  27.980  27.930  1.00  0.00     0.167 HD
ATOM     24  C   UNL A   1      39.888  30.000  30.381  1.00  0.00     0.034 A 
ATOM     25  C   UNL A   1      45.642  27.539  26.871  1.00  0.00     0.034 A 
ATOM     26  C   UNL A   1      40.989  30.920  30.256  1.00  0.00     0.049 A 
ATOM     27  C   UNL A   1      45.562  28.933  27.436  1.00  0.00     0.074 A 
ATOM     28  C   UNL A   1      41.100  32.215  30.722  1.00  0.00     0.029 A 
ATOM     29  N   UNL A   1      42.185  30.625  29.602  1.00  0.00    -0.354 N 
ATOM     30  N   UNL A   1      44.571  29.499  28.093  1.00  0.00    -0.248 NA
ATOM     31  C   UNL A   1      46.729  29.792  27.241  1.00  0.00     0.031 C 
ATOM     32  C   UNL A   1      42.326  32.726  30.281  1.00  0.00     0.029 A 
ATOM     33  C   UNL A   1      43.026  31.721  29.625  1.00  0.00     0.049 A 
ATOM     34  H   UNL A   1      42.399  29.760  29.183  1.00  0.00     0.167 HD
ATOM     35  C   UNL A   1      45.010  30.775  28.420  1.00  0.00     0.074 A 
ATOM     36  C   UNL A   1      46.363  30.881  27.899  1.00  0.00     0.031 C 
ATOM     37  C   UNL A   1      44.369  31.770  29.088  1.00  0.00     0.034 A 
BRANCH  24  38
ATOM     38  C   UNL A   1      38.612  30.401  31.077  1.00  0.00     0.023 A 
ATOM     39  C   UNL A   1      37.528  30.987  30.397  1.00  0.00     0.031 A 
ATOM     40  C   UNL A   1      38.540  30.323  32.480  1.00  0.00     0.131 A 
ATOM     41  C   UNL A   1      36.472  31.557  31.127  1.00  0.00     0.055 A 
ATOM     42  C   UNL A   1      37.442  30.807  33.193  1.00  0.00     0.041 A 
ATOM     43  F   UNL A   1      39.562  29.818  33.188  1.00  0.00    -0.206 F 
ATOM     44  C   UNL A   1      36.408  31.447  32.517  1.00  0.00     0.022 A 
BRANCH  41  45
ATOM     45  S   UNL A   1      35.283  32.617  30.253  1.00  0.00     0.124 S 
ATOM     46  O   UNL A   1      34.284  32.858  31.292  1.00  0.00    -0.237 OA
ATOM     47  O   UNL A   1      36.100  33.765  29.875  1.00  0.00    -0.237 OA
ATOM     48  O   UNL A   1      34.829  31.782  29.143  1.00  0.00    -0.744 OA
ENDBRANCH  41  45
ENDBRANCH  24  38
BRANCH  25  49
ATOM     49  C   UNL A   1      46.855  27.036  26.162  1.00  0.00     0.023 A 
ATOM     50  C   UNL A   1      47.879  26.365  26.847  1.00  0.00     0.031 A 
ATOM     51  C   UNL A   1      47.042  27.276  24.786  1.00  0.00     0.131 A 
ATOM     52  C   UNL A   1      49.057  26.002  26.171  1.00  0.00     0.055 A 
ATOM     53  C   UNL A   1      48.186  26.857  24.104  1.00  0.00     0.041 A 
ATOM     54  F   UNL A   1      46.107  27.926  24.073  1.00  0.00    -0.206 F 
ATOM     55  C   UNL A   1      49.211  26.230  24.802  1.00  0.00     0.022 A 
BRANCH  52  56
ATOM     56  S   UNL A   1      50.438  25.325  27.133  1.00  0.00     0.124 S 
ATOM     57  O   UNL A   1      50.811  26.466  27.960  1.00  0.00    -0.237 OA
ATOM     58  O   UNL A   1      49.804  24.208  27.825  1.00  0.00    -0.237 OA
ATOM     59  O   UNL A   1      51.412  24.949  26.110  1.00  0.00    -0.744 OA
ENDBRANCH  52  56
ENDBRANCH  25  49
BRANCH  37  60
ATOM     60  C   UNL A   1      45.166  33.021  29.346  1.00  0.00     0.023 A 
ATOM     61  C   UNL A   1      45.218  34.070  28.417  1.00  0.00     0.031 A 
ATOM     62  C   UNL A   1      45.896  33.147  30.541  1.00  0.00     0.131 A 
ATOM     63  C   UNL A   1      46.046  35.172  28.664  1.00  0.00     0.055 A 
ATOM     64  C   UNL A   1      46.653  34.282  30.817  1.00  0.00     0.041 A 
ATOM     65  F   UNL A   1      45.880  32.167  31.460  1.00  0.00    -0.206 F 
ATOM     66  C   UNL A   1      46.745  35.295  29.868  1.00  0.00     0.022 A 
BRANCH  63  67
ATOM     67  S   UNL A   1      46.298  36.378  27.336  1.00  0.00     0.124 S 
ATOM     68  O   UNL A   1      45.811  35.649  26.169  1.00  0.00    -0.237 OA
ATOM     69  O   UNL A   1      45.475  37.501  27.774  1.00  0.00    -0.237 OA
ATOM     70  O   UNL A   1      47.740  36.618  27.360  1.00  0.00    -0.744 OA
ENDBRANCH  63  67
ENDBRANCH  37  60
ENDBRANCH  11  12
ENDBRANCH   4   6
ENDBRANCH   3   4
ENDBRANCH   2   3
ENDBRANCH   1   2
BRANCH   1  71
ATOM     71  O   UNL A   1      33.724  20.447  25.672  1.00  0.00    -0.374 OA
BRANCH  71  72
ATOM     72  C   UNL A   1      32.525  20.518  24.900  1.00  0.00     0.202 C 
BRANCH  72  73
ATOM     73  C   UNL A   1      31.657  21.679  25.374  1.00  0.00     0.261 C 
BRANCH  73  74
ATOM     74  O   UNL A   1      32.514  22.701  25.913  1.00  0.00    -0.463 OA
BRANCH  74  75
ATOM     75  C   UNL A   1      31.934  23.880  26.255  1.00  0.00     0.310 C 
ATOM     76  O   UNL A   1      31.384  24.117  27.320  1.00  0.00    -0.252 OA
BRANCH  75  77
ATOM     77  C   UNL A   1      32.081  24.914  25.144  1.00  0.00     0.118 C 
ATOM     78  C   UNL A   1      32.171  26.440  25.523  1.00  0.00     0.022 C 
ATOM     79  C   UNL A   1      33.422  24.691  24.429  1.00  0.00     0.120 C 
ATOM     80  C   UNL A   1      33.627  26.553  25.958  1.00  0.00     0.014 C 
ATOM     81  C   UNL A   1      32.145  27.261  24.205  1.00  0.00     0.097 C 
ATOM     82  C   UNL A   1      34.159  26.014  24.641  1.00  0.00     0.047 C 
ATOM     83  C   UNL A   1      33.192  24.672  22.956  1.00  0.00     0.310 C 
ATOM     84  C   UNL A   1      33.483  26.853  23.555  1.00  0.00     0.194 C 
ATOM     85  O   UNL A   1      33.271  25.942  22.468  1.00  0.00    -0.461 OA
ATOM     86  O   UNL A   1      32.901  23.688  22.290  1.00  0.00    -0.252 OA
BRANCH  81  87
ATOM     87  S   UNL A   1      31.798  29.082  24.355  1.00  0.00    -0.119 SA
BRANCH  87  88
ATOM     88  C   UNL A   1      30.122  29.362  23.809  1.00  0.00     0.008 A 
ATOM     89  C   UNL A   1      29.373  28.285  23.314  1.00  0.00     0.015 A 
ATOM     90  C   UNL A   1      29.553  30.640  23.762  1.00  0.00     0.015 A 
ATOM     91  C   UNL A   1      28.067  28.475  22.845  1.00  0.00     0.001 A 
ATOM     92  C   UNL A   1      28.235  30.826  23.332  1.00  0.00     0.001 A 
ATOM     93  C   UNL A   1      27.492  29.743  22.875  1.00  0.00     0.000 A 
ENDBRANCH  87  88
ENDBRANCH  81  87
ENDBRANCH  75  77
ENDBRANCH  74  75
ENDBRANCH  73  74
ENDBRANCH  72  73
ENDBRANCH  71  72
ENDBRANCH   1  71
TORSDOF 19
ENDMDL
MODEL 2
REMARK VINA RESULT:     -11.7      1.640      2.266
REMARK SMILES O=C(OCCOCCOC(=O)[C@H]1[C@H]2C[C@@H]3[C@@H](OC(=O)[C@@H]31)[C@@H]2Sc1ccccc1)c1ccc(-c2c3nc(c(-c4cc(S(=O)(=O)[O-])ccc4F)c4ccc([nH]4)c(-c4cc(S(=O)(=O)[O-])ccc4F)c4nc(c(-c5cc(S(=O)(=O)[O-])ccc5F)c5ccc2[nH]5)C=C4)C=C3)cc1
REMARK SMILES IDX 5 1 4 2 3 3 2 4 1 5 29 6 30 7 91 8 31 9 90 10 32 11 33 12
REMARK SMILES IDX 34 13 84 14 35 15 89 16 83 17 85 18 36 19 88 20 82 21 81 22
REMARK SMILES IDX 37 24 69 25 49 26 68 27 50 28 53 29 67 30 86 31 51 32 52 33
REMARK SMILES IDX 66 35 87 36 54 37 38 38 39 39 47 40 40 41 46 42 48 43 45 44
REMARK SMILES IDX 41 45 42 46 43 47 44 48 70 49 71 50 79 51 72 52 78 53 80 54
REMARK SMILES IDX 77 55 73 56 74 57 75 58 76 59 55 60 56 61 64 62 57 63 63 64
REMARK SMILES IDX 65 65 62 66 58 67 59 68 60 69 61 70 6 71 7 72 8 73 9 74
REMARK SMILES IDX 10 75 11 76 12 77 13 78 20 79 14 80 21 81 15 82 18 83 16 84
REMARK SMILES IDX 17 85 19 86 22 87 23 88 24 89 28 90 25 91 27 92 26 93
REMARK H PARENT 85 23 53 34
REMARK Flexibility Score: inf
ROOT
ATOM      1  C   UNL A   1      35.534  20.147  25.131  1.00  0.00     0.202 C 
ENDROOT
BRANCH   1   2
ATOM      2  C   UNL A   1      37.043  20.132  24.826  1.00  0.00     0.261 C 
BRANCH   2   3
ATOM      3  O   UNL A   1      37.702  21.303  25.342  1.00  0.00    -0.460 OA
BRANCH   3   4
ATOM      4  C   UNL A   1      38.904  21.353  25.972  1.00  0.00     0.338 C 
ATOM      5  O   UNL A   1      39.515  20.305  26.172  1.00  0.00    -0.246 OA
BRANCH   4   6
ATOM      6  C   UNL A   1      39.508  22.632  26.453  1.00  0.00     0.060 A 
ATOM      7  C   UNL A   1      39.062  23.886  26.056  1.00  0.00     0.016 A 
ATOM      8  C   UNL A   1      40.549  22.587  27.392  1.00  0.00     0.016 A 
ATOM      9  C   UNL A   1      39.612  25.053  26.498  1.00  0.00     0.010 A 
ATOM     10  C   UNL A   1      41.122  23.774  27.871  1.00  0.00     0.010 A 
ATOM     11  C   UNL A   1      40.651  25.006  27.404  1.00  0.00    -0.014 A 
BRANCH  11  12
ATOM     12  C   UNL A   1      41.305  26.302  27.585  1.00  0.00     0.031 A 
ATOM     13  C   UNL A   1      40.649  27.257  28.530  1.00  0.00     0.074 A 
ATOM     14  C   UNL A   1      42.588  26.429  27.195  1.00  0.00     0.049 A 
ATOM     15  N   UNL A   1      41.032  28.441  28.906  1.00  0.00    -0.248 NA
ATOM     16  C   UNL A   1      39.399  26.795  29.163  1.00  0.00     0.031 C 
ATOM     17  C   UNL A   1      43.367  25.388  26.508  1.00  0.00     0.029 A 
ATOM     18  N   UNL A   1      43.486  27.434  27.395  1.00  0.00    -0.354 N 
ATOM     19  C   UNL A   1      40.042  28.894  29.768  1.00  0.00     0.074 A 
ATOM     20  C   UNL A   1      39.050  27.851  29.876  1.00  0.00     0.031 C 
ATOM     21  C   UNL A   1      44.636  25.803  26.378  1.00  0.00     0.029 A 
ATOM     22  C   UNL A   1      44.729  27.171  26.868  1.00  0.00     0.049 A 
ATOM     23  H   UNL A   1      43.268  28.268  27.871  1.00  0.00     0.167 HD
ATOM     24  C   UNL A   1      39.977  30.097  30.383  1.00  0.00     0.034 A 
ATOM     25  C   UNL A   1      45.795  27.982  26.755  1.00  0.00     0.034 A 
ATOM     26  C   UNL A   1      41.012  31.085  30.225  1.00  0.00     0.049 A 
ATOM     27  C   UNL A   1      45.637  29.373  27.312  1.00  0.00     0.074 A 
ATOM     28  C   UNL A   1      41.050  32.388  30.679  1.00  0.00     0.029 A 
ATOM     29  N   UNL A   1      42.209  30.862  29.545  1.00  0.00    -0.354 N 
ATOM     30  N   UNL A   1      44.627  29.880  27.988  1.00  0.00    -0.248 NA
ATOM     31  C   UNL A   1      46.742  30.304  27.084  1.00  0.00     0.031 C 
ATOM     32  C   UNL A   1      42.230  32.973  30.205  1.00  0.00     0.029 A 
ATOM     33  C   UNL A   1      42.978  32.010  29.541  1.00  0.00     0.049 A 
ATOM     34  H   UNL A   1      42.469  30.009  29.127  1.00  0.00     0.167 HD
ATOM     35  C   UNL A   1      44.991  31.184  28.296  1.00  0.00     0.074 A 
ATOM     36  C   UNL A   1      46.321  31.373  27.742  1.00  0.00     0.031 C 
ATOM     37  C   UNL A   1      44.302  32.141  28.972  1.00  0.00     0.034 A 
BRANCH  24  38
ATOM     38  C   UNL A   1      38.693  30.421  31.106  1.00  0.00     0.023 A 
ATOM     39  C   UNL A   1      37.583  30.996  30.461  1.00  0.00     0.031 A 
ATOM     40  C   UNL A   1      38.637  30.278  32.504  1.00  0.00     0.131 A 
ATOM     41  C   UNL A   1      36.514  31.495  31.224  1.00  0.00     0.055 A 
ATOM     42  C   UNL A   1      37.530  30.691  33.247  1.00  0.00     0.041 A 
ATOM     43  F   UNL A   1      39.683  29.780  33.182  1.00  0.00    -0.206 F 
ATOM     44  C   UNL A   1      36.467  31.322  32.608  1.00  0.00     0.022 A 
BRANCH  41  45
ATOM     45  S   UNL A   1      35.280  32.549  30.407  1.00  0.00     0.124 S 
ATOM     46  O   UNL A   1      36.061  33.752  30.124  1.00  0.00    -0.237 OA
ATOM     47  O   UNL A   1      34.897  31.750  29.249  1.00  0.00    -0.237 OA
ATOM     48  O   UNL A   1      34.242  32.714  31.423  1.00  0.00    -0.744 OA
ENDBRANCH  41  45
ENDBRANCH  24  38
BRANCH  25  49
ATOM     49  C   UNL A   1      47.022  27.553  26.021  1.00  0.00     0.023 A 
ATOM     50  C   UNL A   1      47.209  27.860  24.665  1.00  0.00     0.031 A 
ATOM     51  C   UNL A   1      48.006  26.767  26.654  1.00  0.00     0.131 A 
ATOM     52  C   UNL A   1      48.322  27.347  23.976  1.00  0.00     0.055 A 
ATOM     53  C   UNL A   1      49.142  26.313  25.981  1.00  0.00     0.041 A 
ATOM     54  F   UNL A   1      47.881  26.426  27.947  1.00  0.00    -0.206 F 
ATOM     55  C   UNL A   1      49.297  26.589  24.628  1.00  0.00     0.022 A 
BRANCH  52  56
ATOM     56  S   UNL A   1      48.422  27.592  22.182  1.00  0.00     0.124 S 
ATOM     57  O   UNL A   1      47.116  28.170  21.889  1.00  0.00    -0.237 OA
ATOM     58  O   UNL A   1      49.565  28.492  22.063  1.00  0.00    -0.237 OA
ATOM     59  O   UNL A   1      48.638  26.242  21.666  1.00  0.00    -0.744 OA
ENDBRANCH  52  56
ENDBRANCH  25  49
BRANCH  37  60
ATOM     60  C   UNL A   1      45.022  33.443  29.202  1.00  0.00     0.023 A 
ATOM     61  C   UNL A   1      45.025  34.467  28.243  1.00  0.00     0.031 A 
ATOM     62  C   UNL A   1      45.728  33.646  30.401  1.00  0.00     0.131 A 
ATOM     63  C   UNL A   1      45.785  35.621  28.468  1.00  0.00     0.055 A 
ATOM     64  C   UNL A   1      46.415  34.831  30.652  1.00  0.00     0.041 A 
ATOM     65  F   UNL A   1      45.758  32.693  31.347  1.00  0.00    -0.206 F 
ATOM     66  C   UNL A   1      46.460  35.820  29.675  1.00  0.00     0.022 A 
BRANCH  63  67
ATOM     67  S   UNL A   1      45.983  36.802  27.107  1.00  0.00     0.124 S 
ATOM     68  O   UNL A   1      44.687  37.472  27.096  1.00  0.00    -0.237 OA
ATOM     69  O   UNL A   1      47.113  37.609  27.557  1.00  0.00    -0.237 OA
ATOM     70  O   UNL A   1      46.251  35.949  25.950  1.00  0.00    -0.744 OA
ENDBRANCH  63  67
ENDBRANCH  37  60
ENDBRANCH  11  12
ENDBRANCH   4   6
ENDBRANCH   3   4
ENDBRANCH   2   3
ENDBRANCH   1   2
BRANCH   1  71
ATOM     71  O   UNL A   1      34.727  19.078  24.636  1.00  0.00    -0.374 OA
BRANCH  71  72
ATOM     72  C   UNL A   1      33.331  19.343  24.496  1.00  0.00     0.202 C 
BRANCH  72  73
ATOM     73  C   UNL A   1      32.936  20.558  25.330  1.00  0.00     0.261 C 
BRANCH  73  74
ATOM     74  O   UNL A   1      32.163  21.448  24.505  1.00  0.00    -0.463 OA
BRANCH  74  75
ATOM     75  C   UNL A   1      32.820  22.489  23.931  1.00  0.00     0.310 C 
ATOM     76  O   UNL A   1      33.537  22.416  22.945  1.00  0.00    -0.252 OA
BRANCH  75  77
ATOM     77  C   UNL A   1      32.525  23.798  24.654  1.00  0.00     0.118 C 
ATOM     78  C   UNL A   1      32.716  25.159  23.885  1.00  0.00     0.022 C 
ATOM     79  C   UNL A   1      31.031  23.847  25.009  1.00  0.00     0.120 C 
ATOM     80  C   UNL A   1      31.438  25.213  23.056  1.00  0.00     0.014 C 
ATOM     81  C   UNL A   1      32.510  26.315  24.901  1.00  0.00     0.097 C 
ATOM     82  C   UNL A   1      30.534  25.090  24.271  1.00  0.00     0.047 C 
ATOM     83  C   UNL A   1      30.884  24.231  26.442  1.00  0.00     0.310 C 
ATOM     84  C   UNL A   1      31.014  26.167  25.245  1.00  0.00     0.194 C 
ATOM     85  O   UNL A   1      30.838  25.590  26.546  1.00  0.00    -0.461 OA
ATOM     86  O   UNL A   1      30.880  23.461  27.393  1.00  0.00    -0.252 OA
BRANCH  81  87
ATOM     87  S   UNL A   1      33.099  28.002  24.388  1.00  0.00    -0.119 SA
BRANCH  87  88
ATOM     88  C   UNL A   1      31.688  28.906  23.773  1.00  0.00     0.008 A 
ATOM     89  C   UNL A   1      31.024  29.801  24.623  1.00  0.00     0.015 A 
ATOM     90  C   UNL A   1      31.153  28.683  22.499  1.00  0.00     0.015 A 
ATOM     91  C   UNL A   1      29.893  30.501  24.184  1.00  0.00     0.001 A 
ATOM     92  C   UNL A   1      30.048  29.409  22.045  1.00  0.00     0.001 A 
ATOM     93  C   UNL A   1      29.418  30.320  22.887  1.00  0.00     0.000 A 
ENDBRANCH  87  88
ENDBRANCH  81  87
ENDBRANCH  75  77
ENDBRANCH  74  75
ENDBRANCH  73  74
ENDBRANCH  72  73
ENDBRANCH  71  72
ENDBRANCH   1  71
TORSDOF 19
ENDMDL
MODEL 3
REMARK VINA RESULT:     -11.7      1.396      8.022
REMARK SMILES O=C(OCCOCCOC(=O)[C@H]1[C@H]2C[C@@H]3[C@@H](OC(=O)[C@@H]31)[C@@H]2Sc1ccccc1)c1ccc(-c2c3nc(c(-c4cc(S(=O)(=O)[O-])ccc4F)c4ccc([nH]4)c(-c4cc(S(=O)(=O)[O-])ccc4F)c4nc(c(-c5cc(S(=O)(=O)[O-])ccc5F)c5ccc2[nH]5)C=C4)C=C3)cc1
REMARK SMILES IDX 5 1 4 2 3 3 2 4 1 5 29 6 30 7 91 8 31 9 90 10 32 11 33 12
REMARK SMILES IDX 34 13 84 14 35 15 89 16 83 17 85 18 36 19 88 20 82 21 81 22
REMARK SMILES IDX 37 24 69 25 49 26 68 27 50 28 53 29 67 30 86 31 51 32 52 33
REMARK SMILES IDX 66 35 87 36 54 37 38 38 39 39 47 40 40 41 46 42 48 43 45 44
REMARK SMILES IDX 41 45 42 46 43 47 44 48 70 49 71 50 79 51 72 52 78 53 80 54
REMARK SMILES IDX 77 55 73 56 74 57 75 58 76 59 55 60 56 61 64 62 57 63 63 64
REMARK SMILES IDX 65 65 62 66 58 67 59 68 60 69 61 70 6 71 7 72 8 73 9 74
REMARK SMILES IDX 10 75 11 76 12 77 13 78 20 79 14 80 21 81 15 82 18 83 16 84
REMARK SMILES IDX 17 85 19 86 22 87 23 88 24 89 28 90 25 91 27 92 26 93
REMARK H PARENT 85 23 53 34
REMARK Flexibility Score: inf
ROOT
ATOM      1  C   UNL A   1      35.647  20.158  25.002  1.00  0.00     0.202 C 
ENDROOT
BRANCH   1   2
ATOM      2  C   UNL A   1      37.165  20.128  24.745  1.00  0.00     0.261 C 
BRANCH   2   3
ATOM      3  O   UNL A   1      37.831  21.243  25.366  1.00  0.00    -0.460 OA
BRANCH   3   4
ATOM      4  C   UNL A   1      39.051  21.238  25.962  1.00  0.00     0.338 C 
ATOM      5  O   UNL A   1      39.695  20.190  25.988  1.00  0.00    -0.246 OA
BRANCH   4   6
ATOM      6  C   UNL A   1      39.637  22.450  26.607  1.00  0.00     0.060 A 
ATOM      7  C   UNL A   1      39.170  23.739  26.383  1.00  0.00     0.016 A 
ATOM      8  C   UNL A   1      40.683  22.297  27.529  1.00  0.00     0.016 A 
ATOM      9  C   UNL A   1      39.703  24.845  26.975  1.00  0.00     0.010 A 
ATOM     10  C   UNL A   1      41.240  23.419  28.161  1.00  0.00     0.010 A 
ATOM     11  C   UNL A   1      40.747  24.694  27.864  1.00  0.00    -0.014 A 
BRANCH  11  12
ATOM     12  C   UNL A   1      41.383  25.964  28.215  1.00  0.00     0.031 A 
ATOM     13  C   UNL A   1      42.699  26.256  27.570  1.00  0.00     0.074 A 
ATOM     14  C   UNL A   1      40.625  26.920  28.787  1.00  0.00     0.049 A 
ATOM     15  N   UNL A   1      43.451  27.312  27.667  1.00  0.00    -0.248 NA
ATOM     16  C   UNL A   1      43.226  25.218  26.662  1.00  0.00     0.031 C 
ATOM     17  C   UNL A   1      39.217  26.757  29.179  1.00  0.00     0.029 A 
ATOM     18  N   UNL A   1      40.891  28.229  29.054  1.00  0.00    -0.354 N 
ATOM     19  C   UNL A   1      44.569  27.044  26.886  1.00  0.00     0.074 A 
ATOM     20  C   UNL A   1      44.389  25.734  26.307  1.00  0.00     0.031 C 
ATOM     21  C   UNL A   1      38.740  27.937  29.604  1.00  0.00     0.029 A 
ATOM     22  C   UNL A   1      39.831  28.900  29.618  1.00  0.00     0.049 A 
ATOM     23  H   UNL A   1      41.758  28.655  28.863  1.00  0.00     0.167 HD
ATOM     24  C   UNL A   1      45.653  27.831  26.709  1.00  0.00     0.034 A 
ATOM     25  C   UNL A   1      39.786  30.140  30.134  1.00  0.00     0.034 A 
ATOM     26  C   UNL A   1      45.754  29.131  27.321  1.00  0.00     0.049 A 
ATOM     27  C   UNL A   1      41.061  30.941  30.061  1.00  0.00     0.074 A 
ATOM     28  C   UNL A   1      46.822  30.005  27.340  1.00  0.00     0.029 A 
ATOM     29  N   UNL A   1      44.723  29.741  28.036  1.00  0.00    -0.354 N 
ATOM     30  N   UNL A   1      42.196  30.630  29.470  1.00  0.00    -0.248 NA
ATOM     31  C   UNL A   1      41.062  32.241  30.730  1.00  0.00     0.031 C 
ATOM     32  C   UNL A   1      46.464  31.103  28.132  1.00  0.00     0.029 A 
ATOM     33  C   UNL A   1      45.139  30.965  28.525  1.00  0.00     0.049 A 
ATOM     34  H   UNL A   1      43.827  29.355  28.172  1.00  0.00     0.167 HD
ATOM     35  C   UNL A   1      43.039  31.715  29.668  1.00  0.00     0.074 A 
ATOM     36  C   UNL A   1      42.268  32.691  30.420  1.00  0.00     0.031 C 
ATOM     37  C   UNL A   1      44.325  31.900  29.271  1.00  0.00     0.034 A 
BRANCH  24  38
ATOM     38  C   UNL A   1      46.822  27.222  25.977  1.00  0.00     0.023 A 
ATOM     39  C   UNL A   1      47.840  26.506  26.635  1.00  0.00     0.031 A 
ATOM     40  C   UNL A   1      46.990  27.488  24.606  1.00  0.00     0.131 A 
ATOM     41  C   UNL A   1      49.018  26.173  25.944  1.00  0.00     0.055 A 
ATOM     42  C   UNL A   1      48.122  27.070  23.904  1.00  0.00     0.041 A 
ATOM     43  F   UNL A   1      46.077  28.206  23.933  1.00  0.00    -0.206 F 
ATOM     44  C   UNL A   1      49.154  26.425  24.578  1.00  0.00     0.022 A 
BRANCH  41  45
ATOM     45  S   UNL A   1      50.448  25.585  26.897  1.00  0.00     0.124 S 
ATOM     46  O   UNL A   1      50.776  26.765  27.694  1.00  0.00    -0.237 OA
ATOM     47  O   UNL A   1      49.896  24.452  27.632  1.00  0.00    -0.237 OA
ATOM     48  O   UNL A   1      51.430  25.243  25.869  1.00  0.00    -0.744 OA
ENDBRANCH  41  45
ENDBRANCH  24  38
BRANCH  25  49
ATOM     49  C   UNL A   1      38.568  30.646  30.832  1.00  0.00     0.023 A 
ATOM     50  C   UNL A   1      37.652  31.491  30.189  1.00  0.00     0.031 A 
ATOM     51  C   UNL A   1      38.331  30.339  32.187  1.00  0.00     0.131 A 
ATOM     52  C   UNL A   1      36.574  32.037  30.908  1.00  0.00     0.055 A 
ATOM     53  C   UNL A   1      37.224  30.832  32.881  1.00  0.00     0.041 A 
ATOM     54  F   UNL A   1      39.176  29.546  32.866  1.00  0.00    -0.206 F 
ATOM     55  C   UNL A   1      36.346  31.701  32.245  1.00  0.00     0.022 A 
BRANCH  52  56
ATOM     56  S   UNL A   1      35.534  33.285  30.102  1.00  0.00     0.124 S 
ATOM     57  O   UNL A   1      35.503  34.340  31.107  1.00  0.00    -0.237 OA
ATOM     58  O   UNL A   1      36.293  33.573  28.889  1.00  0.00    -0.237 OA
ATOM     59  O   UNL A   1      34.268  32.586  29.891  1.00  0.00    -0.744 OA
ENDBRANCH  52  56
ENDBRANCH  25  49
BRANCH  37  60
ATOM     60  C   UNL A   1      44.934  33.240  29.587  1.00  0.00     0.023 A 
ATOM     61  C   UNL A   1      44.800  34.336  28.722  1.00  0.00     0.031 A 
ATOM     62  C   UNL A   1      45.673  33.407  30.771  1.00  0.00     0.131 A 
ATOM     63  C   UNL A   1      45.461  35.534  29.018  1.00  0.00     0.055 A 
ATOM     64  C   UNL A   1      46.260  34.626  31.099  1.00  0.00     0.041 A 
ATOM     65  F   UNL A   1      45.832  32.385  31.629  1.00  0.00    -0.206 F 
ATOM     66  C   UNL A   1      46.171  35.693  30.212  1.00  0.00     0.022 A 
BRANCH  63  67
ATOM     67  S   UNL A   1      45.489  36.838  27.760  1.00  0.00     0.124 S 
ATOM     68  O   UNL A   1      44.961  37.981  28.497  1.00  0.00    -0.237 OA
ATOM     69  O   UNL A   1      46.905  36.904  27.411  1.00  0.00    -0.237 OA
ATOM     70  O   UNL A   1      44.615  36.319  26.710  1.00  0.00    -0.744 OA
ENDBRANCH  63  67
ENDBRANCH  37  60
ENDBRANCH  11  12
ENDBRANCH   4   6
ENDBRANCH   3   4
ENDBRANCH   2   3
ENDBRANCH   1   2
BRANCH   1  71
ATOM     71  O   UNL A   1      34.891  18.970  24.762  1.00  0.00    -0.374 OA
BRANCH  71  72
ATOM     72  C   UNL A   1      33.504  19.143  24.472  1.00  0.00     0.202 C 
BRANCH  72  73
ATOM     73  C   UNL A   1      32.919  20.261  25.328  1.00  0.00     0.261 C 
BRANCH  73  74
ATOM     74  O   UNL A   1      31.881  20.918  24.579  1.00  0.00    -0.463 OA
BRANCH  74  75
ATOM     75  C   UNL A   1      32.256  21.931  23.756  1.00  0.00     0.310 C 
ATOM     76  O   UNL A   1      32.483  21.825  22.560  1.00  0.00    -0.252 OA
BRANCH  75  77
ATOM     77  C   UNL A   1      32.327  23.256  24.505  1.00  0.00     0.118 C 
ATOM     78  C   UNL A   1      32.413  24.597  23.684  1.00  0.00     0.022 C 
ATOM     79  C   UNL A   1      31.023  23.456  25.292  1.00  0.00     0.120 C 
ATOM     80  C   UNL A   1      30.957  24.792  23.278  1.00  0.00     0.014 C 
ATOM     81  C   UNL A   1      32.643  25.759  24.689  1.00  0.00     0.097 C 
ATOM     82  C   UNL A   1      30.455  24.751  24.710  1.00  0.00     0.047 C 
ATOM     83  C   UNL A   1      31.355  23.840  26.694  1.00  0.00     0.310 C 
ATOM     84  C   UNL A   1      31.313  25.764  25.471  1.00  0.00     0.194 C 
ATOM     85  O   UNL A   1      31.480  25.195  26.777  1.00  0.00    -0.461 OA
ATOM     86  O   UNL A   1      31.560  23.065  27.619  1.00  0.00    -0.252 OA
BRANCH  81  87
ATOM     87  S   UNL A   1      33.217  27.381  23.985  1.00  0.00    -0.119 SA
BRANCH  87  88
ATOM     88  C   UNL A   1      33.085  28.609  25.274  1.00  0.00     0.008 A 
ATOM     89  C   UNL A   1      32.020  29.520  25.247  1.00  0.00     0.015 A 
ATOM     90  C   UNL A   1      34.063  28.766  26.262  1.00  0.00     0.015 A 
ATOM     91  C   UNL A   1      31.904  30.518  26.223  1.00  0.00     0.001 A 
ATOM     92  C   UNL A   1      33.930  29.736  27.260  1.00  0.00     0.001 A 
ATOM     93  C   UNL A   1      32.850  30.611  27.242  1.00  0.00     0.000 A 
ENDBRANCH  87  88
ENDBRANCH  81  87
ENDBRANCH  75  77
ENDBRANCH  74  75
ENDBRANCH  73  74
ENDBRANCH  72  73
ENDBRANCH  71  72
ENDBRANCH   1  71
TORSDOF 19
ENDMDL
