MODEL 1
REMARK VINA RESULT:      -9.7      0.000      0.000
REMARK SMILES CCCC[NH2+][C@H]1CS(=O)(=O)C[C@@H]1[NH2+]CC(=O)OCCOCCOC(=O)c1ccc(-c2c3nc(c(-c4cc(S(=O)(=O)[O-])ccc4F)c4ccc([nH]4)c(-c4cc(S(=O)(=O)[O-])ccc4F)c4nc(c(-c5cc(S(=O)(=O)[O-])ccc5F)c5ccc2[nH]5)C=C4)C=C3)cc1
REMARK SMILES IDX 18 1 17 2 15 3 16 4 14 5 13 6 12 9 6 10 7 11 8 12 11 13 9 14
REMARK SMILES IDX 10 15 5 16 4 19 3 20 2 21 1 22 19 23 20 24 21 25 22 26 23 27
REMARK SMILES IDX 24 28 25 29 26 30 27 31 88 32 28 33 87 34 29 35 30 36 31 37
REMARK SMILES IDX 81 38 32 39 86 40 80 41 82 42 33 43 85 44 79 45 78 46 34 48
REMARK SMILES IDX 66 49 46 50 65 51 47 52 50 53 64 54 83 55 48 56 49 57 63 59
REMARK SMILES IDX 84 60 51 61 35 62 36 63 44 64 37 65 43 66 45 67 42 68 38 69
REMARK SMILES IDX 39 70 40 71 41 72 67 73 68 74 76 75 69 76 75 77 77 78 74 79
REMARK SMILES IDX 70 80 71 81 72 82 73 83 52 84 53 85 61 86 54 87 60 88 62 89
REMARK SMILES IDX 59 90 55 91 56 92 57 93 58 94
REMARK H PARENT 13 7 13 8 5 17 5 18 82 47 50 58
REMARK Flexibility Score: inf
ROOT
ATOM      1  C   UNL A   1      31.937  28.070  23.263  1.00  0.00     0.261 C 
ENDROOT
BRANCH   1   2
ATOM      2  O   UNL A   1      31.605  26.825  22.624  1.00  0.00    -0.459 OA
BRANCH   2   3
ATOM      3  C   UNL A   1      32.645  26.167  22.045  1.00  0.00     0.361 C 
ATOM      4  O   UNL A   1      33.479  26.683  21.307  1.00  0.00    -0.245 OA
BRANCH   3   5
ATOM      5  C   UNL A   1      32.718  24.683  22.401  1.00  0.00     0.385 C 
BRANCH   5   6
ATOM      6  N   UNL A   1      32.045  24.293  23.663  1.00  0.00    -0.329 N 
ATOM      7  H   UNL A   1      31.338  24.992  23.892  1.00  0.00     0.347 HD
ATOM      8  H   UNL A   1      31.619  23.376  23.530  1.00  0.00     0.347 HD
BRANCH   6   9
ATOM      9  C   UNL A   1      33.008  24.200  24.784  1.00  0.00     0.258 C 
ATOM     10  C   UNL A   1      33.662  22.784  24.869  1.00  0.00     0.257 C 
ATOM     11  C   UNL A   1      32.622  21.863  25.516  1.00  0.00     0.208 C 
ATOM     12  S   UNL A   1      31.766  22.870  26.707  1.00  0.00     0.162 S 
ATOM     13  C   UNL A   1      32.385  24.448  26.165  1.00  0.00     0.208 C 
ATOM     14  O   UNL A   1      30.349  22.815  26.414  1.00  0.00    -0.228 OA
ATOM     15  O   UNL A   1      32.285  22.588  28.033  1.00  0.00    -0.228 OA
BRANCH  10  16
ATOM     16  N   UNL A   1      34.893  22.827  25.686  1.00  0.00    -0.338 N 
ATOM     17  H   UNL A   1      34.672  23.223  26.599  1.00  0.00     0.346 HD
ATOM     18  H   UNL A   1      35.249  21.875  25.778  1.00  0.00     0.346 HD
BRANCH  16  19
ATOM     19  C   UNL A   1      35.934  23.645  25.051  1.00  0.00     0.260 C 
BRANCH  19  20
ATOM     20  C   UNL A   1      36.642  22.890  23.918  1.00  0.00     0.061 C 
BRANCH  20  21
ATOM     21  C   UNL A   1      37.300  21.559  24.309  1.00  0.00     0.002 C 
ATOM     22  C   UNL A   1      38.267  21.667  25.478  1.00  0.00     0.004 C 
ENDBRANCH  20  21
ENDBRANCH  19  20
ENDBRANCH  16  19
ENDBRANCH  10  16
ENDBRANCH   6   9
ENDBRANCH   5   6
ENDBRANCH   3   5
ENDBRANCH   2   3
ENDBRANCH   1   2
BRANCH   1  23
ATOM     23  C   UNL A   1      30.786  29.076  23.182  1.00  0.00     0.202 C 
BRANCH  23  24
ATOM     24  O   UNL A   1      30.613  29.930  24.312  1.00  0.00    -0.374 OA
BRANCH  24  25
ATOM     25  C   UNL A   1      31.665  29.968  25.278  1.00  0.00     0.202 C 
BRANCH  25  26
ATOM     26  C   UNL A   1      31.681  31.161  26.245  1.00  0.00     0.261 C 
BRANCH  26  27
ATOM     27  O   UNL A   1      32.606  30.985  27.336  1.00  0.00    -0.460 OA
BRANCH  27  28
ATOM     28  C   UNL A   1      33.396  32.061  27.582  1.00  0.00     0.338 C 
ATOM     29  O   UNL A   1      33.044  33.232  27.629  1.00  0.00    -0.246 OA
BRANCH  28  30
ATOM     30  C   UNL A   1      34.750  31.632  27.984  1.00  0.00     0.060 A 
ATOM     31  C   UNL A   1      34.928  30.284  28.328  1.00  0.00     0.016 A 
ATOM     32  C   UNL A   1      35.802  32.540  28.115  1.00  0.00     0.016 A 
ATOM     33  C   UNL A   1      36.143  29.849  28.854  1.00  0.00     0.010 A 
ATOM     34  C   UNL A   1      37.019  32.102  28.653  1.00  0.00     0.010 A 
ATOM     35  C   UNL A   1      37.183  30.763  29.058  1.00  0.00    -0.014 A 
BRANCH  35  36
ATOM     36  C   UNL A   1      38.374  30.365  29.852  1.00  0.00     0.031 A 
ATOM     37  C   UNL A   1      39.325  29.354  29.268  1.00  0.00     0.074 A 
ATOM     38  C   UNL A   1      38.617  30.905  31.060  1.00  0.00     0.049 A 
ATOM     39  N   UNL A   1      40.372  28.787  29.808  1.00  0.00    -0.248 NA
ATOM     40  C   UNL A   1      39.050  28.922  27.889  1.00  0.00     0.031 C 
ATOM     41  C   UNL A   1      37.804  31.937  31.702  1.00  0.00     0.029 A 
ATOM     42  N   UNL A   1      39.615  30.649  31.968  1.00  0.00    -0.354 N 
ATOM     43  C   UNL A   1      40.875  27.923  28.842  1.00  0.00     0.074 A 
ATOM     44  C   UNL A   1      39.997  28.019  27.695  1.00  0.00     0.031 C 
ATOM     45  C   UNL A   1      38.327  32.214  32.910  1.00  0.00     0.029 A 
ATOM     46  C   UNL A   1      39.483  31.350  33.144  1.00  0.00     0.049 A 
ATOM     47  H   UNL A   1      40.356  30.025  31.793  1.00  0.00     0.167 HD
ATOM     48  C   UNL A   1      41.971  27.126  28.904  1.00  0.00     0.034 A 
ATOM     49  C   UNL A   1      40.191  31.274  34.291  1.00  0.00     0.034 A 
ATOM     50  C   UNL A   1      42.834  27.039  30.057  1.00  0.00     0.049 A 
ATOM     51  C   UNL A   1      41.355  30.313  34.372  1.00  0.00     0.074 A 
ATOM     52  C   UNL A   1      43.973  26.272  30.226  1.00  0.00     0.029 A 
ATOM     53  N   UNL A   1      42.646  27.736  31.244  1.00  0.00    -0.354 N 
ATOM     54  N   UNL A   1      41.815  29.492  33.455  1.00  0.00    -0.248 NA
ATOM     55  C   UNL A   1      42.096  30.270  35.640  1.00  0.00     0.031 C 
ATOM     56  C   UNL A   1      44.433  26.451  31.535  1.00  0.00     0.029 A 
ATOM     57  C   UNL A   1      43.630  27.392  32.158  1.00  0.00     0.049 A 
ATOM     58  H   UNL A   1      41.921  28.380  31.411  1.00  0.00     0.167 HD
ATOM     59  C   UNL A   1      42.923  28.869  34.025  1.00  0.00     0.074 A 
ATOM     60  C   UNL A   1      43.062  29.407  35.361  1.00  0.00     0.031 C 
ATOM     61  C   UNL A   1      43.756  27.941  33.488  1.00  0.00     0.034 A 
BRANCH  48  62
ATOM     62  C   UNL A   1      42.260  26.247  27.711  1.00  0.00     0.023 A 
ATOM     63  C   UNL A   1      41.941  24.880  27.701  1.00  0.00     0.031 A 
ATOM     64  C   UNL A   1      42.891  26.785  26.575  1.00  0.00     0.131 A 
ATOM     65  C   UNL A   1      42.313  24.082  26.608  1.00  0.00     0.055 A 
ATOM     66  C   UNL A   1      43.188  26.002  25.457  1.00  0.00     0.041 A 
ATOM     67  F   UNL A   1      43.242  28.080  26.536  1.00  0.00    -0.206 F 
ATOM     68  C   UNL A   1      42.912  24.639  25.475  1.00  0.00     0.022 A 
BRANCH  65  69
ATOM     69  S   UNL A   1      42.129  22.282  26.743  1.00  0.00     0.124 S 
ATOM     70  O   UNL A   1      41.015  22.171  27.683  1.00  0.00    -0.237 OA
ATOM     71  O   UNL A   1      41.847  21.890  25.368  1.00  0.00    -0.237 OA
ATOM     72  O   UNL A   1      43.421  21.844  27.267  1.00  0.00    -0.744 OA
ENDBRANCH  65  69
ENDBRANCH  48  62
BRANCH  49  73
ATOM     73  C   UNL A   1      39.800  32.089  35.478  1.00  0.00     0.023 A 
ATOM     74  C   UNL A   1      38.943  31.575  36.464  1.00  0.00     0.031 A 
ATOM     75  C   UNL A   1      40.231  33.422  35.609  1.00  0.00     0.131 A 
ATOM     76  C   UNL A   1      38.505  32.403  37.509  1.00  0.00     0.055 A 
ATOM     77  C   UNL A   1      39.837  34.223  36.682  1.00  0.00     0.041 A 
ATOM     78  F   UNL A   1      41.048  33.965  34.694  1.00  0.00    -0.206 F 
ATOM     79  C   UNL A   1      38.957  33.719  37.633  1.00  0.00     0.022 A 
BRANCH  76  80
ATOM     80  S   UNL A   1      37.257  31.762  38.661  1.00  0.00     0.124 S 
ATOM     81  O   UNL A   1      36.169  32.716  38.476  1.00  0.00    -0.237 OA
ATOM     82  O   UNL A   1      37.028  30.419  38.139  1.00  0.00    -0.237 OA
ATOM     83  O   UNL A   1      37.928  31.822  39.957  1.00  0.00    -0.744 OA
ENDBRANCH  76  80
ENDBRANCH  49  73
BRANCH  61  84
ATOM     84  C   UNL A   1      44.935  27.500  34.322  1.00  0.00     0.023 A 
ATOM     85  C   UNL A   1      44.875  26.375  35.163  1.00  0.00     0.031 A 
ATOM     86  C   UNL A   1      46.144  28.216  34.260  1.00  0.00     0.131 A 
ATOM     87  C   UNL A   1      45.991  26.023  35.937  1.00  0.00     0.055 A 
ATOM     88  C   UNL A   1      47.267  27.830  34.991  1.00  0.00     0.041 A 
ATOM     89  F   UNL A   1      46.255  29.299  33.474  1.00  0.00    -0.206 F 
ATOM     90  C   UNL A   1      47.192  26.733  35.844  1.00  0.00     0.022 A 
BRANCH  87  91
ATOM     91  S   UNL A   1      45.836  24.662  37.126  1.00  0.00     0.124 S 
ATOM     92  O   UNL A   1      44.769  23.860  36.533  1.00  0.00    -0.237 OA
ATOM     93  O   UNL A   1      47.168  24.068  37.099  1.00  0.00    -0.237 OA
ATOM     94  O   UNL A   1      45.484  25.334  38.376  1.00  0.00    -0.744 OA
ENDBRANCH  87  91
ENDBRANCH  61  84
ENDBRANCH  35  36
ENDBRANCH  28  30
ENDBRANCH  27  28
ENDBRANCH  26  27
ENDBRANCH  25  26
ENDBRANCH  24  25
ENDBRANCH  23  24
ENDBRANCH   1  23
TORSDOF 23
ENDMDL
MODEL 2
REMARK VINA RESULT:      -9.7      5.013     10.332
REMARK SMILES CCCC[NH2+][C@H]1CS(=O)(=O)C[C@@H]1[NH2+]CC(=O)OCCOCCOC(=O)c1ccc(-c2c3nc(c(-c4cc(S(=O)(=O)[O-])ccc4F)c4ccc([nH]4)c(-c4cc(S(=O)(=O)[O-])ccc4F)c4nc(c(-c5cc(S(=O)(=O)[O-])ccc5F)c5ccc2[nH]5)C=C4)C=C3)cc1
REMARK SMILES IDX 18 1 17 2 15 3 16 4 14 5 13 6 12 9 6 10 7 11 8 12 11 13 9 14
REMARK SMILES IDX 10 15 5 16 4 19 3 20 2 21 1 22 19 23 20 24 21 25 22 26 23 27
REMARK SMILES IDX 24 28 25 29 26 30 27 31 88 32 28 33 87 34 29 35 30 36 31 37
REMARK SMILES IDX 81 38 32 39 86 40 80 41 82 42 33 43 85 44 79 45 78 46 34 48
REMARK SMILES IDX 66 49 46 50 65 51 47 52 50 53 64 54 83 55 48 56 49 57 63 59
REMARK SMILES IDX 84 60 51 61 35 62 36 63 44 64 37 65 43 66 45 67 42 68 38 69
REMARK SMILES IDX 39 70 40 71 41 72 67 73 68 74 76 75 69 76 75 77 77 78 74 79
REMARK SMILES IDX 70 80 71 81 72 82 73 83 52 84 53 85 61 86 54 87 60 88 62 89
REMARK SMILES IDX 59 90 55 91 56 92 57 93 58 94
REMARK H PARENT 13 7 13 8 5 17 5 18 82 47 50 58
REMARK Flexibility Score: inf
ROOT
ATOM      1  C   UNL A   1      33.799  23.318  25.641  1.00  0.00     0.261 C 
ENDROOT
BRANCH   1   2
ATOM      2  O   UNL A   1      32.806  22.929  26.607  1.00  0.00    -0.459 OA
BRANCH   2   3
ATOM      3  C   UNL A   1      31.521  23.223  26.276  1.00  0.00     0.361 C 
ATOM      4  O   UNL A   1      30.645  22.392  26.053  1.00  0.00    -0.245 OA
BRANCH   3   5
ATOM      5  C   UNL A   1      31.221  24.720  26.212  1.00  0.00     0.385 C 
BRANCH   5   6
ATOM      6  N   UNL A   1      30.608  25.196  24.949  1.00  0.00    -0.329 N 
ATOM      7  H   UNL A   1      31.144  24.832  24.162  1.00  0.00     0.347 HD
ATOM      8  H   UNL A   1      29.643  24.866  24.915  1.00  0.00     0.347 HD
BRANCH   6   9
ATOM      9  C   UNL A   1      30.595  26.675  24.878  1.00  0.00     0.258 C 
ATOM     10  C   UNL A   1      30.252  27.183  23.442  1.00  0.00     0.257 C 
ATOM     11  C   UNL A   1      31.528  27.026  22.608  1.00  0.00     0.208 C 
ATOM     12  S   UNL A   1      32.872  27.372  23.721  1.00  0.00     0.162 S 
ATOM     13  C   UNL A   1      31.938  27.329  25.235  1.00  0.00     0.208 C 
ATOM     14  O   UNL A   1      33.773  26.238  23.713  1.00  0.00    -0.228 OA
ATOM     15  O   UNL A   1      33.344  28.725  23.494  1.00  0.00    -0.228 OA
BRANCH  10  16
ATOM     16  N   UNL A   1      29.829  28.600  23.477  1.00  0.00    -0.338 N 
ATOM     17  H   UNL A   1      28.837  28.645  23.707  1.00  0.00     0.346 HD
ATOM     18  H   UNL A   1      30.389  29.083  24.180  1.00  0.00     0.346 HD
BRANCH  16  19
ATOM     19  C   UNL A   1      30.049  29.261  22.184  1.00  0.00     0.260 C 
BRANCH  19  20
ATOM     20  C   UNL A   1      28.822  30.068  21.739  1.00  0.00     0.061 C 
BRANCH  20  21
ATOM     21  C   UNL A   1      27.674  30.156  22.755  1.00  0.00     0.002 C 
ATOM     22  C   UNL A   1      27.632  31.465  23.528  1.00  0.00     0.004 C 
ENDBRANCH  20  21
ENDBRANCH  19  20
ENDBRANCH  16  19
ENDBRANCH  10  16
ENDBRANCH   6   9
ENDBRANCH   5   6
ENDBRANCH   3   5
ENDBRANCH   2   3
ENDBRANCH   1   2
BRANCH   1  23
ATOM     23  C   UNL A   1      33.720  22.469  24.370  1.00  0.00     0.202 C 
BRANCH  23  24
ATOM     24  O   UNL A   1      34.403  21.217  24.403  1.00  0.00    -0.374 OA
BRANCH  24  25
ATOM     25  C   UNL A   1      35.362  21.015  25.442  1.00  0.00     0.202 C 
BRANCH  25  26
ATOM     26  C   UNL A   1      36.794  20.667  25.012  1.00  0.00     0.261 C 
BRANCH  26  27
ATOM     27  O   UNL A   1      37.713  21.764  25.181  1.00  0.00    -0.460 OA
BRANCH  27  28
ATOM     28  C   UNL A   1      38.848  21.448  25.853  1.00  0.00     0.338 C 
ATOM     29  O   UNL A   1      39.435  20.375  25.834  1.00  0.00    -0.246 OA
BRANCH  28  30
ATOM     30  C   UNL A   1      39.424  22.647  26.495  1.00  0.00     0.060 A 
ATOM     31  C   UNL A   1      38.943  23.897  26.082  1.00  0.00     0.016 A 
ATOM     32  C   UNL A   1      40.475  22.560  27.410  1.00  0.00     0.016 A 
ATOM     33  C   UNL A   1      39.547  25.067  26.542  1.00  0.00     0.010 A 
ATOM     34  C   UNL A   1      41.085  23.736  27.863  1.00  0.00     0.010 A 
ATOM     35  C   UNL A   1      40.648  24.993  27.403  1.00  0.00    -0.014 A 
BRANCH  35  36
ATOM     36  C   UNL A   1      41.450  26.211  27.685  1.00  0.00     0.031 A 
ATOM     37  C   UNL A   1      40.809  27.335  28.456  1.00  0.00     0.074 A 
ATOM     38  C   UNL A   1      42.729  26.310  27.282  1.00  0.00     0.049 A 
ATOM     39  N   UNL A   1      41.276  28.523  28.738  1.00  0.00    -0.248 NA
ATOM     40  C   UNL A   1      39.455  27.081  28.971  1.00  0.00     0.031 C 
ATOM     41  C   UNL A   1      43.477  25.265  26.584  1.00  0.00     0.029 A 
ATOM     42  N   UNL A   1      43.623  27.347  27.392  1.00  0.00    -0.354 N 
ATOM     43  C   UNL A   1      40.270  29.165  29.453  1.00  0.00     0.074 A 
ATOM     44  C   UNL A   1      39.157  28.242  29.532  1.00  0.00     0.031 C 
ATOM     45  C   UNL A   1      44.713  25.722  26.312  1.00  0.00     0.029 A 
ATOM     46  C   UNL A   1      44.829  27.103  26.776  1.00  0.00     0.049 A 
ATOM     47  H   UNL A   1      43.420  28.184  27.868  1.00  0.00     0.167 HD
ATOM     48  C   UNL A   1      40.277  30.407  29.998  1.00  0.00     0.034 A 
ATOM     49  C   UNL A   1      45.889  27.915  26.579  1.00  0.00     0.034 A 
ATOM     50  C   UNL A   1      41.394  31.315  29.907  1.00  0.00     0.049 A 
ATOM     51  C   UNL A   1      45.841  29.327  27.115  1.00  0.00     0.074 A 
ATOM     52  C   UNL A   1      41.512  32.593  30.427  1.00  0.00     0.029 A 
ATOM     53  N   UNL A   1      42.584  31.047  29.242  1.00  0.00    -0.354 N 
ATOM     54  N   UNL A   1      44.880  29.927  27.780  1.00  0.00    -0.248 NA
ATOM     55  C   UNL A   1      47.020  30.171  26.876  1.00  0.00     0.031 C 
ATOM     56  C   UNL A   1      42.741  33.121  30.019  1.00  0.00     0.029 A 
ATOM     57  C   UNL A   1      43.427  32.145  29.314  1.00  0.00     0.049 A 
ATOM     58  H   UNL A   1      42.798  30.200  28.789  1.00  0.00     0.167 HD
ATOM     59  C   UNL A   1      45.359  31.202  28.074  1.00  0.00     0.074 A 
ATOM     60  C   UNL A   1      46.692  31.285  27.515  1.00  0.00     0.031 C 
ATOM     61  C   UNL A   1      44.755  32.211  28.753  1.00  0.00     0.034 A 
BRANCH  48  62
ATOM     62  C   UNL A   1      39.018  30.870  30.689  1.00  0.00     0.023 A 
ATOM     63  C   UNL A   1      37.980  31.509  29.991  1.00  0.00     0.031 A 
ATOM     64  C   UNL A   1      38.866  30.689  32.076  1.00  0.00     0.131 A 
ATOM     65  C   UNL A   1      36.868  32.006  30.690  1.00  0.00     0.055 A 
ATOM     66  C   UNL A   1      37.722  31.116  32.753  1.00  0.00     0.041 A 
ATOM     67  F   UNL A   1      39.835  30.107  32.799  1.00  0.00    -0.206 F 
ATOM     68  C   UNL A   1      36.722  31.791  32.063  1.00  0.00     0.022 A 
BRANCH  65  69
ATOM     69  S   UNL A   1      35.684  33.057  29.805  1.00  0.00     0.124 S 
ATOM     70  O   UNL A   1      34.666  32.085  29.411  1.00  0.00    -0.237 OA
ATOM     71  O   UNL A   1      35.289  34.018  30.827  1.00  0.00    -0.237 OA
ATOM     72  O   UNL A   1      36.471  33.606  28.702  1.00  0.00    -0.744 OA
ENDBRANCH  65  69
ENDBRANCH  48  62
BRANCH  49  73
ATOM     73  C   UNL A   1      47.069  27.443  25.798  1.00  0.00     0.023 A 
ATOM     74  C   UNL A   1      47.260  27.828  24.461  1.00  0.00     0.031 A 
ATOM     75  C   UNL A   1      47.993  26.545  26.363  1.00  0.00     0.131 A 
ATOM     76  C   UNL A   1      48.318  27.279  23.720  1.00  0.00     0.055 A 
ATOM     77  C   UNL A   1      49.077  26.046  25.638  1.00  0.00     0.041 A 
ATOM     78  F   UNL A   1      47.857  26.141  27.635  1.00  0.00    -0.206 F 
ATOM     79  C   UNL A   1      49.236  26.402  24.303  1.00  0.00     0.022 A 
BRANCH  76  80
ATOM     80  S   UNL A   1      48.426  27.657  21.948  1.00  0.00     0.124 S 
ATOM     81  O   UNL A   1      49.600  28.522  21.902  1.00  0.00    -0.237 OA
ATOM     82  O   UNL A   1      48.585  26.328  21.367  1.00  0.00    -0.237 OA
ATOM     83  O   UNL A   1      47.153  28.314  21.663  1.00  0.00    -0.744 OA
ENDBRANCH  76  80
ENDBRANCH  49  73
BRANCH  61  84
ATOM     84  C   UNL A   1      45.559  33.467  28.989  1.00  0.00     0.023 A 
ATOM     85  C   UNL A   1      46.380  33.627  30.118  1.00  0.00     0.031 A 
ATOM     86  C   UNL A   1      45.509  34.516  28.053  1.00  0.00     0.131 A 
ATOM     87  C   UNL A   1      47.087  34.825  30.303  1.00  0.00     0.055 A 
ATOM     88  C   UNL A   1      46.256  35.683  28.214  1.00  0.00     0.041 A 
ATOM     89  F   UNL A   1      44.741  34.416  26.957  1.00  0.00    -0.206 F 
ATOM     90  C   UNL A   1      47.043  35.847  29.350  1.00  0.00     0.022 A 
BRANCH  87  91
ATOM     91  S   UNL A   1      48.015  35.064  31.843  1.00  0.00     0.124 S 
ATOM     92  O   UNL A   1      48.034  33.714  32.399  1.00  0.00    -0.237 OA
ATOM     93  O   UNL A   1      49.296  35.572  31.362  1.00  0.00    -0.237 OA
ATOM     94  O   UNL A   1      47.206  36.029  32.586  1.00  0.00    -0.744 OA
ENDBRANCH  87  91
ENDBRANCH  61  84
ENDBRANCH  35  36
ENDBRANCH  28  30
ENDBRANCH  27  28
ENDBRANCH  26  27
ENDBRANCH  25  26
ENDBRANCH  24  25
ENDBRANCH  23  24
ENDBRANCH   1  23
TORSDOF 23
ENDMDL
MODEL 3
REMARK VINA RESULT:      -9.4      4.997      8.020
REMARK SMILES CCCC[NH2+][C@H]1CS(=O)(=O)C[C@@H]1[NH2+]CC(=O)OCCOCCOC(=O)c1ccc(-c2c3nc(c(-c4cc(S(=O)(=O)[O-])ccc4F)c4ccc([nH]4)c(-c4cc(S(=O)(=O)[O-])ccc4F)c4nc(c(-c5cc(S(=O)(=O)[O-])ccc5F)c5ccc2[nH]5)C=C4)C=C3)cc1
REMARK SMILES IDX 18 1 17 2 15 3 16 4 14 5 13 6 12 9 6 10 7 11 8 12 11 13 9 14
REMARK SMILES IDX 10 15 5 16 4 19 3 20 2 21 1 22 19 23 20 24 21 25 22 26 23 27
REMARK SMILES IDX 24 28 25 29 26 30 27 31 88 32 28 33 87 34 29 35 30 36 31 37
REMARK SMILES IDX 81 38 32 39 86 40 80 41 82 42 33 43 85 44 79 45 78 46 34 48
REMARK SMILES IDX 66 49 46 50 65 51 47 52 50 53 64 54 83 55 48 56 49 57 63 59
REMARK SMILES IDX 84 60 51 61 35 62 36 63 44 64 37 65 43 66 45 67 42 68 38 69
REMARK SMILES IDX 39 70 40 71 41 72 67 73 68 74 76 75 69 76 75 77 77 78 74 79
REMARK SMILES IDX 70 80 71 81 72 82 73 83 52 84 53 85 61 86 54 87 60 88 62 89
REMARK SMILES IDX 59 90 55 91 56 92 57 93 58 94
REMARK H PARENT 13 7 13 8 5 17 5 18 82 47 50 58
REMARK Flexibility Score: inf
ROOT
ATOM      1  C   UNL A   1      34.577  23.724  25.828  1.00  0.00     0.261 C 
ENDROOT
BRANCH   1   2
ATOM      2  O   UNL A   1      33.447  22.981  26.320  1.00  0.00    -0.459 OA
BRANCH   2   3
ATOM      3  C   UNL A   1      32.273  23.203  25.674  1.00  0.00     0.361 C 
ATOM      4  O   UNL A   1      31.686  22.379  24.979  1.00  0.00    -0.245 OA
BRANCH   3   5
ATOM      5  C   UNL A   1      31.699  24.603  25.889  1.00  0.00     0.385 C 
BRANCH   5   6
ATOM      6  N   UNL A   1      31.331  25.341  24.657  1.00  0.00    -0.329 N 
ATOM      7  H   UNL A   1      31.565  24.769  23.845  1.00  0.00     0.347 HD
ATOM      8  H   UNL A   1      30.330  25.537  24.686  1.00  0.00     0.347 HD
BRANCH   6   9
ATOM      9  C   UNL A   1      32.054  26.629  24.561  1.00  0.00     0.258 C 
ATOM     10  C   UNL A   1      31.271  27.670  23.699  1.00  0.00     0.257 C 
ATOM     11  C   UNL A   1      31.503  27.285  22.235  1.00  0.00     0.208 C 
ATOM     12  S   UNL A   1      33.169  26.666  22.160  1.00  0.00     0.162 S 
ATOM     13  C   UNL A   1      33.442  26.520  23.913  1.00  0.00     0.208 C 
ATOM     14  O   UNL A   1      33.136  25.334  21.595  1.00  0.00    -0.228 OA
ATOM     15  O   UNL A   1      34.039  27.700  21.630  1.00  0.00    -0.228 OA
BRANCH  10  16
ATOM     16  N   UNL A   1      31.767  29.039  23.957  1.00  0.00    -0.338 N 
ATOM     17  H   UNL A   1      32.623  29.188  23.423  1.00  0.00     0.346 HD
ATOM     18  H   UNL A   1      31.043  29.700  23.676  1.00  0.00     0.346 HD
BRANCH  16  19
ATOM     19  C   UNL A   1      32.052  29.250  25.382  1.00  0.00     0.260 C 
BRANCH  19  20
ATOM     20  C   UNL A   1      33.473  29.783  25.608  1.00  0.00     0.061 C 
BRANCH  20  21
ATOM     21  C   UNL A   1      34.390  28.901  26.467  1.00  0.00     0.002 C 
ATOM     22  C   UNL A   1      34.490  29.342  27.919  1.00  0.00     0.004 C 
ENDBRANCH  20  21
ENDBRANCH  19  20
ENDBRANCH  16  19
ENDBRANCH  10  16
ENDBRANCH   6   9
ENDBRANCH   5   6
ENDBRANCH   3   5
ENDBRANCH   2   3
ENDBRANCH   1   2
BRANCH   1  23
ATOM     23  C   UNL A   1      35.013  23.246  24.442  1.00  0.00     0.202 C 
BRANCH  23  24
ATOM     24  O   UNL A   1      35.690  21.992  24.390  1.00  0.00    -0.374 OA
BRANCH  24  25
ATOM     25  C   UNL A   1      36.270  21.504  25.601  1.00  0.00     0.202 C 
BRANCH  25  26
ATOM     26  C   UNL A   1      37.607  20.757  25.484  1.00  0.00     0.261 C 
BRANCH  26  27
ATOM     27  O   UNL A   1      38.735  21.645  25.364  1.00  0.00    -0.460 OA
BRANCH  27  28
ATOM     28  C   UNL A   1      39.623  21.566  26.387  1.00  0.00     0.338 C 
ATOM     29  O   UNL A   1      40.294  20.591  26.701  1.00  0.00    -0.246 OA
BRANCH  28  30
ATOM     30  C   UNL A   1      39.837  22.894  26.995  1.00  0.00     0.060 A 
ATOM     31  C   UNL A   1      39.076  23.963  26.502  1.00  0.00     0.016 A 
ATOM     32  C   UNL A   1      40.824  23.114  27.958  1.00  0.00     0.016 A 
ATOM     33  C   UNL A   1      39.334  25.265  26.931  1.00  0.00     0.010 A 
ATOM     34  C   UNL A   1      41.087  24.423  28.380  1.00  0.00     0.010 A 
ATOM     35  C   UNL A   1      40.368  25.508  27.841  1.00  0.00    -0.014 A 
BRANCH  35  36
ATOM     36  C   UNL A   1      40.815  26.901  28.100  1.00  0.00     0.031 A 
ATOM     37  C   UNL A   1      42.248  27.263  27.812  1.00  0.00     0.074 A 
ATOM     38  C   UNL A   1      39.961  27.831  28.562  1.00  0.00     0.049 A 
ATOM     39  N   UNL A   1      42.887  28.381  28.045  1.00  0.00    -0.248 NA
ATOM     40  C   UNL A   1      43.070  26.218  27.183  1.00  0.00     0.031 C 
ATOM     41  C   UNL A   1      38.537  27.616  28.818  1.00  0.00     0.029 A 
ATOM     42  N   UNL A   1      40.171  29.143  28.910  1.00  0.00    -0.354 N 
ATOM     43  C   UNL A   1      44.188  28.171  27.602  1.00  0.00     0.074 A 
ATOM     44  C   UNL A   1      44.253  26.809  27.117  1.00  0.00     0.031 C 
ATOM     45  C   UNL A   1      38.005  28.754  29.300  1.00  0.00     0.029 A 
ATOM     46  C   UNL A   1      39.057  29.761  29.428  1.00  0.00     0.049 A 
ATOM     47  H   UNL A   1      41.037  29.598  28.797  1.00  0.00     0.167 HD
ATOM     48  C   UNL A   1      45.232  29.038  27.596  1.00  0.00     0.034 A 
ATOM     49  C   UNL A   1      38.913  30.987  29.976  1.00  0.00     0.034 A 
ATOM     50  C   UNL A   1      45.151  30.392  28.087  1.00  0.00     0.049 A 
ATOM     51  C   UNL A   1      40.111  31.905  30.043  1.00  0.00     0.074 A 
ATOM     52  C   UNL A   1      46.143  31.357  28.122  1.00  0.00     0.029 A 
ATOM     53  N   UNL A   1      44.016  30.970  28.639  1.00  0.00    -0.354 N 
ATOM     54  N   UNL A   1      41.340  31.693  29.631  1.00  0.00    -0.248 NA
ATOM     55  C   UNL A   1      39.902  33.229  30.646  1.00  0.00     0.031 C 
ATOM     56  C   UNL A   1      45.628  32.492  28.757  1.00  0.00     0.029 A 
ATOM     57  C   UNL A   1      44.292  32.267  29.045  1.00  0.00     0.049 A 
ATOM     58  H   UNL A   1      43.142  30.525  28.728  1.00  0.00     0.167 HD
ATOM     59  C   UNL A   1      42.036  32.872  29.888  1.00  0.00     0.074 A 
ATOM     60  C   UNL A   1      41.092  33.790  30.489  1.00  0.00     0.031 C 
ATOM     61  C   UNL A   1      43.337  33.172  29.641  1.00  0.00     0.034 A 
BRANCH  48  62
ATOM     62  C   UNL A   1      46.559  28.524  27.094  1.00  0.00     0.023 A 
ATOM     63  C   UNL A   1      46.841  28.410  25.722  1.00  0.00     0.031 A 
ATOM     64  C   UNL A   1      47.549  28.116  28.006  1.00  0.00     0.131 A 
ATOM     65  C   UNL A   1      48.052  27.839  25.302  1.00  0.00     0.055 A 
ATOM     66  C   UNL A   1      48.784  27.622  27.581  1.00  0.00     0.041 A 
ATOM     67  F   UNL A   1      47.328  28.179  29.328  1.00  0.00    -0.206 F 
ATOM     68  C   UNL A   1      49.036  27.468  26.222  1.00  0.00     0.022 A 
BRANCH  65  69
ATOM     69  S   UNL A   1      48.269  27.461  23.541  1.00  0.00     0.124 S 
ATOM     70  O   UNL A   1      47.104  28.119  22.954  1.00  0.00    -0.237 OA
ATOM     71  O   UNL A   1      49.562  28.065  23.245  1.00  0.00    -0.237 OA
ATOM     72  O   UNL A   1      48.237  26.000  23.498  1.00  0.00    -0.744 OA
ENDBRANCH  65  69
ENDBRANCH  48  62
BRANCH  49  73
ATOM     73  C   UNL A   1      37.603  31.408  30.553  1.00  0.00     0.023 A 
ATOM     74  C   UNL A   1      36.678  32.146  29.798  1.00  0.00     0.031 A 
ATOM     75  C   UNL A   1      37.285  31.130  31.896  1.00  0.00     0.131 A 
ATOM     76  C   UNL A   1      35.504  32.622  30.403  1.00  0.00     0.055 A 
ATOM     77  C   UNL A   1      36.091  31.557  32.476  1.00  0.00     0.041 A 
ATOM     78  F   UNL A   1      38.136  30.431  32.664  1.00  0.00    -0.206 F 
ATOM     79  C   UNL A   1      35.197  32.321  31.733  1.00  0.00     0.022 A 
BRANCH  76  80
ATOM     80  S   UNL A   1      34.421  33.724  29.451  1.00  0.00     0.124 S 
ATOM     81  O   UNL A   1      35.392  34.538  28.727  1.00  0.00    -0.237 OA
ATOM     82  O   UNL A   1      33.655  32.775  28.651  1.00  0.00    -0.237 OA
ATOM     83  O   UNL A   1      33.661  34.427  30.482  1.00  0.00    -0.744 OA
ENDBRANCH  76  80
ENDBRANCH  49  73
BRANCH  61  84
ATOM     84  C   UNL A   1      43.798  34.574  29.957  1.00  0.00     0.023 A 
ATOM     85  C   UNL A   1      43.722  35.615  29.015  1.00  0.00     0.031 A 
ATOM     86  C   UNL A   1      44.309  34.873  31.233  1.00  0.00     0.131 A 
ATOM     87  C   UNL A   1      44.188  36.895  29.352  1.00  0.00     0.055 A 
ATOM     88  C   UNL A   1      44.720  36.160  31.580  1.00  0.00     0.041 A 
ATOM     89  F   UNL A   1      44.404  33.916  32.170  1.00  0.00    -0.206 F 
ATOM     90  C   UNL A   1      44.671  37.179  30.633  1.00  0.00     0.022 A 
BRANCH  87  91
ATOM     91  S   UNL A   1      44.221  38.179  28.069  1.00  0.00     0.124 S 
ATOM     92  O   UNL A   1      43.979  39.391  28.846  1.00  0.00    -0.237 OA
ATOM     93  O   UNL A   1      45.563  38.035  27.516  1.00  0.00    -0.237 OA
ATOM     94  O   UNL A   1      43.136  37.793  27.169  1.00  0.00    -0.744 OA
ENDBRANCH  87  91
ENDBRANCH  61  84
ENDBRANCH  35  36
ENDBRANCH  28  30
ENDBRANCH  27  28
ENDBRANCH  26  27
ENDBRANCH  25  26
ENDBRANCH  24  25
ENDBRANCH  23  24
ENDBRANCH   1  23
TORSDOF 23
ENDMDL
