MODEL 1
REMARK VINA RESULT:     -12.8      0.000      0.000
REMARK SMILES O=C(OCCOCCOC(=O)[C@@H]1CC2(CC[NH2+]CC2)C[N@@H+]1Cc1cccc2nonc12)c1ccc(-c2c3nc(c(-c4cc(S(=O)(=O)[O-])ccc4F)c4ccc([nH]4)c(-c4cc(S(=O)(=O)[O-])ccc4F)c4nc(c(-c5cc(S(=O)(=O)[O-])ccc5F)c5ccc2[nH]5)C=C4)C=C3)cc1
REMARK SMILES IDX 5 1 4 2 3 3 2 4 1 5 32 6 33 7 94 8 34 9 93 10 35 11 36 12
REMARK SMILES IDX 37 13 87 14 38 15 92 16 86 17 88 18 39 19 91 20 85 21 84 22
REMARK SMILES IDX 40 24 72 25 52 26 71 27 53 28 56 29 70 30 89 31 54 32 55 33
REMARK SMILES IDX 69 35 90 36 57 37 41 38 42 39 50 40 43 41 49 42 51 43 48 44
REMARK SMILES IDX 44 45 45 46 46 47 47 48 73 49 74 50 82 51 75 52 81 53 83 54
REMARK SMILES IDX 80 55 76 56 77 57 78 58 79 59 58 60 59 61 67 62 60 63 66 64
REMARK SMILES IDX 68 65 65 66 61 67 62 68 63 69 64 70 6 71 7 72 8 73 9 74
REMARK SMILES IDX 10 75 11 76 12 77 13 78 21 79 14 80 20 81 15 83 19 84 16 85
REMARK SMILES IDX 18 86 17 87 22 90 23 91 24 92 31 93 25 94 27 95 30 96 26 97
REMARK SMILES IDX 28 98 29 99
REMARK H PARENT 88 23 56 34 21 82 17 88 17 89
REMARK Flexibility Score: inf
ROOT
ATOM      1  C   UNL A   1      34.343  31.125  27.673  1.00  0.00     0.202 C 
ENDROOT
BRANCH   1   2
ATOM      2  C   UNL A   1      33.811  32.523  27.981  1.00  0.00     0.261 C 
BRANCH   2   3
ATOM      3  O   UNL A   1      34.752  33.311  28.725  1.00  0.00    -0.460 OA
BRANCH   3   4
ATOM      4  C   UNL A   1      34.871  33.022  30.050  1.00  0.00     0.338 C 
ATOM      5  O   UNL A   1      34.237  33.608  30.914  1.00  0.00    -0.246 OA
BRANCH   4   6
ATOM      6  C   UNL A   1      36.073  32.205  30.361  1.00  0.00     0.060 A 
ATOM      7  C   UNL A   1      37.168  32.239  29.491  1.00  0.00     0.016 A 
ATOM      8  C   UNL A   1      36.109  31.350  31.458  1.00  0.00     0.016 A 
ATOM      9  C   UNL A   1      38.255  31.373  29.695  1.00  0.00     0.010 A 
ATOM     10  C   UNL A   1      37.150  30.437  31.606  1.00  0.00     0.010 A 
ATOM     11  C   UNL A   1      38.251  30.431  30.742  1.00  0.00    -0.014 A 
BRANCH  11  12
ATOM     12  C   UNL A   1      39.439  29.588  31.066  1.00  0.00     0.031 A 
ATOM     13  C   UNL A   1      39.553  28.245  30.380  1.00  0.00     0.074 A 
ATOM     14  C   UNL A   1      40.574  30.091  31.595  1.00  0.00     0.049 A 
ATOM     15  N   UNL A   1      40.155  28.016  29.242  1.00  0.00    -0.248 NA
ATOM     16  C   UNL A   1      38.727  27.127  30.848  1.00  0.00     0.031 C 
ATOM     17  C   UNL A   1      41.309  31.211  31.001  1.00  0.00     0.029 A 
ATOM     18  N   UNL A   1      41.453  29.539  32.501  1.00  0.00    -0.354 N 
ATOM     19  C   UNL A   1      39.762  26.747  28.821  1.00  0.00     0.074 A 
ATOM     20  C   UNL A   1      38.855  26.255  29.839  1.00  0.00     0.031 C 
ATOM     21  C   UNL A   1      42.581  31.172  31.448  1.00  0.00     0.029 A 
ATOM     22  C   UNL A   1      42.721  30.117  32.451  1.00  0.00     0.049 A 
ATOM     23  H   UNL A   1      41.212  28.813  33.119  1.00  0.00     0.167 HD
ATOM     24  C   UNL A   1      40.180  26.117  27.685  1.00  0.00     0.034 A 
ATOM     25  C   UNL A   1      43.877  29.462  32.755  1.00  0.00     0.034 A 
ATOM     26  C   UNL A   1      41.230  26.741  26.931  1.00  0.00     0.049 A 
ATOM     27  C   UNL A   1      44.083  28.653  31.497  1.00  0.00     0.074 A 
ATOM     28  C   UNL A   1      41.449  27.309  25.696  1.00  0.00     0.029 A 
ATOM     29  N   UNL A   1      42.508  26.656  27.431  1.00  0.00    -0.354 N 
ATOM     30  N   UNL A   1      44.590  29.063  30.364  1.00  0.00    -0.248 NA
ATOM     31  C   UNL A   1      43.341  27.396  31.420  1.00  0.00     0.031 C 
ATOM     32  C   UNL A   1      42.693  28.032  25.819  1.00  0.00     0.029 A 
ATOM     33  C   UNL A   1      43.160  27.820  27.112  1.00  0.00     0.049 A 
ATOM     34  H   UNL A   1      42.887  25.896  27.928  1.00  0.00     0.167 HD
ATOM     35  C   UNL A   1      44.019  28.245  29.382  1.00  0.00     0.074 A 
ATOM     36  C   UNL A   1      43.252  27.255  30.110  1.00  0.00     0.031 C 
ATOM     37  C   UNL A   1      44.060  28.484  28.035  1.00  0.00     0.034 A 
BRANCH  24  38
ATOM     38  C   UNL A   1      39.769  24.731  27.340  1.00  0.00     0.023 A 
ATOM     39  C   UNL A   1      38.652  24.430  26.547  1.00  0.00     0.031 A 
ATOM     40  C   UNL A   1      40.620  23.682  27.734  1.00  0.00     0.131 A 
ATOM     41  C   UNL A   1      38.434  23.098  26.153  1.00  0.00     0.055 A 
ATOM     42  C   UNL A   1      40.407  22.368  27.329  1.00  0.00     0.041 A 
ATOM     43  F   UNL A   1      41.691  23.934  28.507  1.00  0.00    -0.206 F 
ATOM     44  C   UNL A   1      39.312  22.072  26.528  1.00  0.00     0.022 A 
BRANCH  41  45
ATOM     45  S   UNL A   1      37.017  22.627  25.119  1.00  0.00     0.124 S 
ATOM     46  O   UNL A   1      37.348  21.253  24.752  1.00  0.00    -0.237 OA
ATOM     47  O   UNL A   1      35.901  22.774  26.052  1.00  0.00    -0.237 OA
ATOM     48  O   UNL A   1      37.047  23.595  24.028  1.00  0.00    -0.744 OA
ENDBRANCH  41  45
ENDBRANCH  24  38
BRANCH  25  49
ATOM     49  C   UNL A   1      43.946  28.870  34.136  1.00  0.00     0.023 A 
ATOM     50  C   UNL A   1      43.291  27.704  34.562  1.00  0.00     0.031 A 
ATOM     51  C   UNL A   1      44.698  29.561  35.111  1.00  0.00     0.131 A 
ATOM     52  C   UNL A   1      43.255  27.363  35.925  1.00  0.00     0.055 A 
ATOM     53  C   UNL A   1      44.721  29.179  36.456  1.00  0.00     0.041 A 
ATOM     54  F   UNL A   1      45.426  30.638  34.768  1.00  0.00    -0.206 F 
ATOM     55  C   UNL A   1      43.970  28.091  36.877  1.00  0.00     0.022 A 
BRANCH  52  56
ATOM     56  S   UNL A   1      42.203  26.000  36.506  1.00  0.00     0.124 S 
ATOM     57  O   UNL A   1      41.097  26.028  35.553  1.00  0.00    -0.237 OA
ATOM     58  O   UNL A   1      43.114  24.866  36.384  1.00  0.00    -0.237 OA
ATOM     59  O   UNL A   1      41.866  26.391  37.870  1.00  0.00    -0.744 OA
ENDBRANCH  52  56
ENDBRANCH  25  49
BRANCH  37  60
ATOM     60  C   UNL A   1      44.967  29.590  27.568  1.00  0.00     0.023 A 
ATOM     61  C   UNL A   1      44.487  30.855  27.167  1.00  0.00     0.031 A 
ATOM     62  C   UNL A   1      46.347  29.350  27.448  1.00  0.00     0.131 A 
ATOM     63  C   UNL A   1      45.374  31.819  26.657  1.00  0.00     0.055 A 
ATOM     64  C   UNL A   1      47.230  30.324  26.979  1.00  0.00     0.041 A 
ATOM     65  F   UNL A   1      46.858  28.142  27.740  1.00  0.00    -0.206 F 
ATOM     66  C   UNL A   1      46.745  31.562  26.577  1.00  0.00     0.022 A 
BRANCH  63  67
ATOM     67  S   UNL A   1      44.805  33.406  25.981  1.00  0.00     0.124 S 
ATOM     68  O   UNL A   1      46.034  34.195  25.953  1.00  0.00    -0.237 OA
ATOM     69  O   UNL A   1      44.289  33.016  24.669  1.00  0.00    -0.237 OA
ATOM     70  O   UNL A   1      43.788  33.851  26.922  1.00  0.00    -0.744 OA
ENDBRANCH  63  67
ENDBRANCH  37  60
ENDBRANCH  11  12
ENDBRANCH   4   6
ENDBRANCH   3   4
ENDBRANCH   2   3
ENDBRANCH   1   2
BRANCH   1  71
ATOM     71  O   UNL A   1      33.571  30.404  26.738  1.00  0.00    -0.374 OA
BRANCH  71  72
ATOM     72  C   UNL A   1      34.015  29.125  26.282  1.00  0.00     0.202 C 
BRANCH  72  73
ATOM     73  C   UNL A   1      33.479  28.553  24.964  1.00  0.00     0.261 C 
BRANCH  73  74
ATOM     74  O   UNL A   1      32.108  28.121  24.855  1.00  0.00    -0.459 OA
BRANCH  74  75
ATOM     75  C   UNL A   1      31.167  28.974  24.382  1.00  0.00     0.365 C 
ATOM     76  O   UNL A   1      30.875  30.046  24.882  1.00  0.00    -0.245 OA
BRANCH  75  77
ATOM     77  C   UNL A   1      30.567  28.451  23.092  1.00  0.00     0.296 C 
ATOM     78  C   UNL A   1      30.167  29.643  22.219  1.00  0.00     0.091 C 
ATOM     79  N   UNL A   1      29.333  27.676  23.245  1.00  0.00    -0.319 N 
ATOM     80  C   UNL A   1      28.652  29.854  22.443  1.00  0.00     0.036 C 
ATOM     81  C   UNL A   1      28.164  28.444  22.841  1.00  0.00     0.270 C 
ATOM     82  H   UNL A   1      29.417  26.928  22.558  1.00  0.00     0.349 HD
ATOM     83  C   UNL A   1      27.965  30.347  21.151  1.00  0.00     0.074 C 
ATOM     84  C   UNL A   1      28.307  30.900  23.536  1.00  0.00     0.074 C 
ATOM     85  C   UNL A   1      28.355  31.786  20.806  1.00  0.00     0.261 C 
ATOM     86  C   UNL A   1      28.691  32.329  23.142  1.00  0.00     0.261 C 
ATOM     87  N   UNL A   1      28.060  32.726  21.880  1.00  0.00    -0.346 N 
ATOM     88  H   UNL A   1      27.050  32.766  22.014  1.00  0.00     0.346 HD
ATOM     89  H   UNL A   1      28.433  33.638  21.614  1.00  0.00     0.346 HD
BRANCH  79  90
ATOM     90  C   UNL A   1      29.214  26.655  24.296  1.00  0.00     0.302 C 
BRANCH  90  91
ATOM     91  C   UNL A   1      30.226  25.541  24.283  1.00  0.00     0.038 A 
ATOM     92  C   UNL A   1      30.803  25.067  23.083  1.00  0.00     0.012 A 
ATOM     93  C   UNL A   1      30.614  24.769  25.412  1.00  0.00     0.144 A 
ATOM     94  C   UNL A   1      31.523  23.853  22.984  1.00  0.00     0.003 A 
ATOM     95  C   UNL A   1      31.415  23.544  25.302  1.00  0.00     0.135 A 
ATOM     96  N   UNL A   1      30.279  24.921  26.704  1.00  0.00    -0.049 NA
ATOM     97  C   UNL A   1      31.858  23.039  24.073  1.00  0.00     0.034 A 
ATOM     98  N   UNL A   1      31.538  23.007  26.524  1.00  0.00    -0.050 NA
ATOM     99  O   UNL A   1      30.941  23.910  27.384  1.00  0.00    -0.243 OA
ENDBRANCH  90  91
ENDBRANCH  79  90
ENDBRANCH  75  77
ENDBRANCH  74  75
ENDBRANCH  73  74
ENDBRANCH  72  73
ENDBRANCH  71  72
ENDBRANCH   1  71
TORSDOF 19
ENDMDL
MODEL 2
REMARK VINA RESULT:     -12.3      2.962      8.577
REMARK SMILES O=C(OCCOCCOC(=O)[C@@H]1CC2(CC[NH2+]CC2)C[N@@H+]1Cc1cccc2nonc12)c1ccc(-c2c3nc(c(-c4cc(S(=O)(=O)[O-])ccc4F)c4ccc([nH]4)c(-c4cc(S(=O)(=O)[O-])ccc4F)c4nc(c(-c5cc(S(=O)(=O)[O-])ccc5F)c5ccc2[nH]5)C=C4)C=C3)cc1
REMARK SMILES IDX 5 1 4 2 3 3 2 4 1 5 32 6 33 7 94 8 34 9 93 10 35 11 36 12
REMARK SMILES IDX 37 13 87 14 38 15 92 16 86 17 88 18 39 19 91 20 85 21 84 22
REMARK SMILES IDX 40 24 72 25 52 26 71 27 53 28 56 29 70 30 89 31 54 32 55 33
REMARK SMILES IDX 69 35 90 36 57 37 41 38 42 39 50 40 43 41 49 42 51 43 48 44
REMARK SMILES IDX 44 45 45 46 46 47 47 48 73 49 74 50 82 51 75 52 81 53 83 54
REMARK SMILES IDX 80 55 76 56 77 57 78 58 79 59 58 60 59 61 67 62 60 63 66 64
REMARK SMILES IDX 68 65 65 66 61 67 62 68 63 69 64 70 6 71 7 72 8 73 9 74
REMARK SMILES IDX 10 75 11 76 12 77 13 78 21 79 14 80 20 81 15 83 19 84 16 85
REMARK SMILES IDX 18 86 17 87 22 90 23 91 24 92 31 93 25 94 27 95 30 96 26 97
REMARK SMILES IDX 28 98 29 99
REMARK H PARENT 88 23 56 34 21 82 17 88 17 89
REMARK Flexibility Score: inf
ROOT
ATOM      1  C   UNL A   1      39.071  21.867  26.077  1.00  0.00     0.202 C 
ENDROOT
BRANCH   1   2
ATOM      2  C   UNL A   1      40.235  20.982  26.516  1.00  0.00     0.261 C 
BRANCH   2   3
ATOM      3  O   UNL A   1      41.358  21.750  26.977  1.00  0.00    -0.460 OA
BRANCH   3   4
ATOM      4  C   UNL A   1      41.930  22.589  26.071  1.00  0.00     0.338 C 
ATOM      5  O   UNL A   1      42.583  22.189  25.118  1.00  0.00    -0.246 OA
BRANCH   4   6
ATOM      6  C   UNL A   1      41.989  23.998  26.541  1.00  0.00     0.060 A 
ATOM      7  C   UNL A   1      41.577  24.304  27.842  1.00  0.00     0.016 A 
ATOM      8  C   UNL A   1      42.376  25.033  25.695  1.00  0.00     0.016 A 
ATOM      9  C   UNL A   1      41.498  25.643  28.258  1.00  0.00     0.010 A 
ATOM     10  C   UNL A   1      42.215  26.360  26.085  1.00  0.00     0.010 A 
ATOM     11  C   UNL A   1      41.786  26.701  27.373  1.00  0.00    -0.014 A 
BRANCH  11  12
ATOM     12  C   UNL A   1      41.837  28.125  27.817  1.00  0.00     0.031 A 
ATOM     13  C   UNL A   1      40.527  28.873  27.921  1.00  0.00     0.074 A 
ATOM     14  C   UNL A   1      42.884  28.646  28.489  1.00  0.00     0.049 A 
ATOM     15  N   UNL A   1      39.773  28.948  28.985  1.00  0.00    -0.248 NA
ATOM     16  C   UNL A   1      39.877  29.356  26.699  1.00  0.00     0.031 C 
ATOM     17  C   UNL A   1      43.420  28.059  29.721  1.00  0.00     0.029 A 
ATOM     18  N   UNL A   1      43.434  29.909  28.438  1.00  0.00    -0.354 N 
ATOM     19  C   UNL A   1      38.538  29.447  28.576  1.00  0.00     0.074 A 
ATOM     20  C   UNL A   1      38.649  29.655  27.145  1.00  0.00     0.031 C 
ATOM     21  C   UNL A   1      44.102  29.013  30.388  1.00  0.00     0.029 A 
ATOM     22  C   UNL A   1      44.166  30.231  29.580  1.00  0.00     0.049 A 
ATOM     23  H   UNL A   1      43.322  30.519  27.675  1.00  0.00     0.167 HD
ATOM     24  C   UNL A   1      37.469  29.698  29.386  1.00  0.00     0.034 A 
ATOM     25  C   UNL A   1      44.314  31.495  30.066  1.00  0.00     0.034 A 
ATOM     26  C   UNL A   1      37.671  29.586  30.802  1.00  0.00     0.049 A 
ATOM     27  C   UNL A   1      42.978  31.699  30.739  1.00  0.00     0.074 A 
ATOM     28  C   UNL A   1      37.243  28.832  31.873  1.00  0.00     0.029 A 
ATOM     29  N   UNL A   1      38.362  30.595  31.428  1.00  0.00    -0.354 N 
ATOM     30  N   UNL A   1      42.609  31.270  31.917  1.00  0.00    -0.248 NA
ATOM     31  C   UNL A   1      41.883  32.119  29.866  1.00  0.00     0.031 C 
ATOM     32  C   UNL A   1      38.181  29.106  32.936  1.00  0.00     0.029 A 
ATOM     33  C   UNL A   1      39.092  30.035  32.444  1.00  0.00     0.049 A 
ATOM     34  H   UNL A   1      38.336  31.550  31.189  1.00  0.00     0.167 HD
ATOM     35  C   UNL A   1      41.218  31.127  31.843  1.00  0.00     0.074 A 
ATOM     36  C   UNL A   1      40.850  31.655  30.546  1.00  0.00     0.031 C 
ATOM     37  C   UNL A   1      40.445  30.458  32.754  1.00  0.00     0.034 A 
BRANCH  24  38
ATOM     38  C   UNL A   1      36.206  30.300  28.882  1.00  0.00     0.023 A 
ATOM     39  C   UNL A   1      35.789  31.601  29.199  1.00  0.00     0.031 A 
ATOM     40  C   UNL A   1      35.461  29.562  27.945  1.00  0.00     0.131 A 
ATOM     41  C   UNL A   1      34.658  32.131  28.554  1.00  0.00     0.055 A 
ATOM     42  C   UNL A   1      34.351  30.096  27.299  1.00  0.00     0.041 A 
ATOM     43  F   UNL A   1      35.825  28.306  27.630  1.00  0.00    -0.206 F 
ATOM     44  C   UNL A   1      33.948  31.391  27.598  1.00  0.00     0.022 A 
BRANCH  41  45
ATOM     45  S   UNL A   1      34.058  33.810  28.902  1.00  0.00     0.124 S 
ATOM     46  O   UNL A   1      33.966  33.808  30.359  1.00  0.00    -0.237 OA
ATOM     47  O   UNL A   1      35.128  34.634  28.344  1.00  0.00    -0.237 OA
ATOM     48  O   UNL A   1      32.786  33.878  28.191  1.00  0.00    -0.744 OA
ENDBRANCH  41  45
ENDBRANCH  24  38
BRANCH  25  49
ATOM     49  C   UNL A   1      44.918  32.492  29.115  1.00  0.00     0.023 A 
ATOM     50  C   UNL A   1      44.352  32.914  27.902  1.00  0.00     0.031 A 
ATOM     51  C   UNL A   1      46.185  33.026  29.438  1.00  0.00     0.131 A 
ATOM     52  C   UNL A   1      45.101  33.683  26.994  1.00  0.00     0.055 A 
ATOM     53  C   UNL A   1      46.900  33.851  28.565  1.00  0.00     0.041 A 
ATOM     54  F   UNL A   1      46.759  32.742  30.619  1.00  0.00    -0.206 F 
ATOM     55  C   UNL A   1      46.371  34.160  27.319  1.00  0.00     0.022 A 
BRANCH  52  56
ATOM     56  S   UNL A   1      44.465  34.018  25.326  1.00  0.00     0.124 S 
ATOM     57  O   UNL A   1      45.649  34.514  24.631  1.00  0.00    -0.237 OA
ATOM     58  O   UNL A   1      44.007  32.690  24.924  1.00  0.00    -0.237 OA
ATOM     59  O   UNL A   1      43.413  35.002  25.556  1.00  0.00    -0.744 OA
ENDBRANCH  52  56
ENDBRANCH  25  49
BRANCH  37  60
ATOM     60  C   UNL A   1      41.114  30.031  34.032  1.00  0.00     0.023 A 
ATOM     61  C   UNL A   1      41.449  28.690  34.310  1.00  0.00     0.031 A 
ATOM     62  C   UNL A   1      41.356  30.984  35.037  1.00  0.00     0.131 A 
ATOM     63  C   UNL A   1      41.993  28.340  35.557  1.00  0.00     0.055 A 
ATOM     64  C   UNL A   1      41.934  30.639  36.260  1.00  0.00     0.041 A 
ATOM     65  F   UNL A   1      40.991  32.266  34.867  1.00  0.00    -0.206 F 
ATOM     66  C   UNL A   1      42.250  29.313  36.527  1.00  0.00     0.022 A 
BRANCH  63  67
ATOM     67  S   UNL A   1      42.303  26.615  36.036  1.00  0.00     0.124 S 
ATOM     68  O   UNL A   1      43.556  26.317  35.347  1.00  0.00    -0.237 OA
ATOM     69  O   UNL A   1      42.403  26.712  37.492  1.00  0.00    -0.237 OA
ATOM     70  O   UNL A   1      41.132  25.896  35.558  1.00  0.00    -0.744 OA
ENDBRANCH  63  67
ENDBRANCH  37  60
ENDBRANCH  11  12
ENDBRANCH   4   6
ENDBRANCH   3   4
ENDBRANCH   2   3
ENDBRANCH   1   2
BRANCH   1  71
ATOM     71  O   UNL A   1      38.039  21.177  25.406  1.00  0.00    -0.374 OA
BRANCH  71  72
ATOM     72  C   UNL A   1      36.908  21.895  24.909  1.00  0.00     0.202 C 
BRANCH  72  73
ATOM     73  C   UNL A   1      35.533  21.702  25.559  1.00  0.00     0.261 C 
BRANCH  73  74
ATOM     74  O   UNL A   1      35.066  22.615  26.572  1.00  0.00    -0.459 OA
BRANCH  74  75
ATOM     75  C   UNL A   1      33.828  23.158  26.472  1.00  0.00     0.365 C 
ATOM     76  O   UNL A   1      33.147  23.534  27.410  1.00  0.00    -0.245 OA
BRANCH  75  77
ATOM     77  C   UNL A   1      33.421  23.306  25.019  1.00  0.00     0.296 C 
ATOM     78  C   UNL A   1      33.226  24.794  24.714  1.00  0.00     0.091 C 
ATOM     79  N   UNL A   1      32.143  22.687  24.661  1.00  0.00    -0.319 N 
ATOM     80  C   UNL A   1      31.707  25.061  24.816  1.00  0.00     0.036 C 
ATOM     81  C   UNL A   1      31.094  23.681  24.490  1.00  0.00     0.270 C 
ATOM     82  H   UNL A   1      32.303  22.298  23.731  1.00  0.00     0.349 HD
ATOM     83  C   UNL A   1      31.264  26.131  23.796  1.00  0.00     0.074 C 
ATOM     84  C   UNL A   1      31.240  25.573  26.204  1.00  0.00     0.074 C 
ATOM     85  C   UNL A   1      31.774  27.526  24.168  1.00  0.00     0.261 C 
ATOM     86  C   UNL A   1      31.750  26.979  26.528  1.00  0.00     0.261 C 
ATOM     87  N   UNL A   1      31.353  27.945  25.499  1.00  0.00    -0.346 N 
ATOM     88  H   UNL A   1      30.338  28.040  25.509  1.00  0.00     0.346 HD
ATOM     89  H   UNL A   1      31.808  28.835  25.708  1.00  0.00     0.346 HD
BRANCH  79  90
ATOM     90  C   UNL A   1      31.806  21.336  25.133  1.00  0.00     0.302 C 
BRANCH  90  91
ATOM     91  C   UNL A   1      32.226  20.183  24.261  1.00  0.00     0.038 A 
ATOM     92  C   UNL A   1      32.208  20.265  22.851  1.00  0.00     0.012 A 
ATOM     93  C   UNL A   1      32.551  18.878  24.723  1.00  0.00     0.144 A 
ATOM     94  C   UNL A   1      32.309  19.142  21.996  1.00  0.00     0.003 A 
ATOM     95  C   UNL A   1      32.715  17.732  23.821  1.00  0.00     0.135 A 
ATOM     96  N   UNL A   1      32.671  18.425  25.982  1.00  0.00    -0.049 NA
ATOM     97  C   UNL A   1      32.561  17.835  22.433  1.00  0.00     0.034 A 
ATOM     98  N   UNL A   1      32.931  16.636  24.563  1.00  0.00    -0.050 NA
ATOM     99  O   UNL A   1      33.016  17.087  25.867  1.00  0.00    -0.243 OA
ENDBRANCH  90  91
ENDBRANCH  79  90
ENDBRANCH  75  77
ENDBRANCH  74  75
ENDBRANCH  73  74
ENDBRANCH  72  73
ENDBRANCH  71  72
ENDBRANCH   1  71
TORSDOF 19
ENDMDL
MODEL 3
REMARK VINA RESULT:     -12.2      2.987      9.131
REMARK SMILES O=C(OCCOCCOC(=O)[C@@H]1CC2(CC[NH2+]CC2)C[N@@H+]1Cc1cccc2nonc12)c1ccc(-c2c3nc(c(-c4cc(S(=O)(=O)[O-])ccc4F)c4ccc([nH]4)c(-c4cc(S(=O)(=O)[O-])ccc4F)c4nc(c(-c5cc(S(=O)(=O)[O-])ccc5F)c5ccc2[nH]5)C=C4)C=C3)cc1
REMARK SMILES IDX 5 1 4 2 3 3 2 4 1 5 32 6 33 7 94 8 34 9 93 10 35 11 36 12
REMARK SMILES IDX 37 13 87 14 38 15 92 16 86 17 88 18 39 19 91 20 85 21 84 22
REMARK SMILES IDX 40 24 72 25 52 26 71 27 53 28 56 29 70 30 89 31 54 32 55 33
REMARK SMILES IDX 69 35 90 36 57 37 41 38 42 39 50 40 43 41 49 42 51 43 48 44
REMARK SMILES IDX 44 45 45 46 46 47 47 48 73 49 74 50 82 51 75 52 81 53 83 54
REMARK SMILES IDX 80 55 76 56 77 57 78 58 79 59 58 60 59 61 67 62 60 63 66 64
REMARK SMILES IDX 68 65 65 66 61 67 62 68 63 69 64 70 6 71 7 72 8 73 9 74
REMARK SMILES IDX 10 75 11 76 12 77 13 78 21 79 14 80 20 81 15 83 19 84 16 85
REMARK SMILES IDX 18 86 17 87 22 90 23 91 24 92 31 93 25 94 27 95 30 96 26 97
REMARK SMILES IDX 28 98 29 99
REMARK H PARENT 88 23 56 34 21 82 17 88 17 89
REMARK Flexibility Score: inf
ROOT
ATOM      1  C   UNL A   1      38.398  21.468  25.446  1.00  0.00     0.202 C 
ENDROOT
BRANCH   1   2
ATOM      2  C   UNL A   1      39.376  22.135  26.410  1.00  0.00     0.261 C 
BRANCH   2   3
ATOM      3  O   UNL A   1      40.517  21.309  26.685  1.00  0.00    -0.460 OA
BRANCH   3   4
ATOM      4  C   UNL A   1      41.727  21.798  26.297  1.00  0.00     0.338 C 
ATOM      5  O   UNL A   1      42.644  21.079  25.930  1.00  0.00    -0.246 OA
BRANCH   4   6
ATOM      6  C   UNL A   1      41.936  23.214  26.698  1.00  0.00     0.060 A 
ATOM      7  C   UNL A   1      41.626  23.610  28.002  1.00  0.00     0.016 A 
ATOM      8  C   UNL A   1      42.364  24.174  25.785  1.00  0.00     0.016 A 
ATOM      9  C   UNL A   1      41.689  24.967  28.359  1.00  0.00     0.010 A 
ATOM     10  C   UNL A   1      42.342  25.525  26.121  1.00  0.00     0.010 A 
ATOM     11  C   UNL A   1      42.018  25.956  27.412  1.00  0.00    -0.014 A 
BRANCH  11  12
ATOM     12  C   UNL A   1      42.219  27.387  27.786  1.00  0.00     0.031 A 
ATOM     13  C   UNL A   1      41.005  28.289  27.783  1.00  0.00     0.074 A 
ATOM     14  C   UNL A   1      43.289  27.819  28.486  1.00  0.00     0.049 A 
ATOM     15  N   UNL A   1      40.216  28.512  28.800  1.00  0.00    -0.248 NA
ATOM     16  C   UNL A   1      40.475  28.775  26.505  1.00  0.00     0.031 C 
ATOM     17  C   UNL A   1      43.693  27.244  29.772  1.00  0.00     0.029 A 
ATOM     18  N   UNL A   1      43.988  29.004  28.400  1.00  0.00    -0.354 N 
ATOM     19  C   UNL A   1      39.071  29.129  28.302  1.00  0.00     0.074 A 
ATOM     20  C   UNL A   1      39.273  29.241  26.870  1.00  0.00     0.031 C 
ATOM     21  C   UNL A   1      44.452  28.147  30.425  1.00  0.00     0.029 A 
ATOM     22  C   UNL A   1      44.699  29.302  29.562  1.00  0.00     0.049 A 
ATOM     23  H   UNL A   1      43.986  29.579  27.602  1.00  0.00     0.167 HD
ATOM     24  C   UNL A   1      38.003  29.548  29.040  1.00  0.00     0.034 A 
ATOM     25  C   UNL A   1      44.975  30.565  29.991  1.00  0.00     0.034 A 
ATOM     26  C   UNL A   1      38.124  29.493  30.469  1.00  0.00     0.049 A 
ATOM     27  C   UNL A   1      43.644  30.962  30.581  1.00  0.00     0.074 A 
ATOM     28  C   UNL A   1      37.559  28.857  31.552  1.00  0.00     0.029 A 
ATOM     29  N   UNL A   1      38.901  30.448  31.078  1.00  0.00    -0.354 N 
ATOM     30  N   UNL A   1      43.171  30.646  31.758  1.00  0.00    -0.248 NA
ATOM     31  C   UNL A   1      42.649  31.457  29.631  1.00  0.00     0.031 C 
ATOM     32  C   UNL A   1      38.473  29.077  32.648  1.00  0.00     0.029 A 
ATOM     33  C   UNL A   1      39.511  29.864  32.159  1.00  0.00     0.049 A 
ATOM     34  H   UNL A   1      39.001  31.384  30.791  1.00  0.00     0.167 HD
ATOM     35  C   UNL A   1      41.778  30.663  31.617  1.00  0.00     0.074 A 
ATOM     36  C   UNL A   1      41.537  31.157  30.277  1.00  0.00     0.031 C 
ATOM     37  C   UNL A   1      40.889  30.142  32.518  1.00  0.00     0.034 A 
BRANCH  24  38
ATOM     38  C   UNL A   1      36.846  30.265  28.440  1.00  0.00     0.023 A 
ATOM     39  C   UNL A   1      35.713  29.614  27.931  1.00  0.00     0.031 A 
ATOM     40  C   UNL A   1      36.847  31.670  28.503  1.00  0.00     0.131 A 
ATOM     41  C   UNL A   1      34.609  30.384  27.524  1.00  0.00     0.055 A 
ATOM     42  C   UNL A   1      35.747  32.426  28.111  1.00  0.00     0.041 A 
ATOM     43  F   UNL A   1      37.923  32.325  28.971  1.00  0.00    -0.206 F 
ATOM     44  C   UNL A   1      34.617  31.782  27.625  1.00  0.00     0.022 A 
BRANCH  41  45
ATOM     45  S   UNL A   1      33.102  29.618  26.862  1.00  0.00     0.124 S 
ATOM     46  O   UNL A   1      33.426  29.476  25.445  1.00  0.00    -0.237 OA
ATOM     47  O   UNL A   1      33.040  28.369  27.618  1.00  0.00    -0.237 OA
ATOM     48  O   UNL A   1      32.055  30.586  27.173  1.00  0.00    -0.744 OA
ENDBRANCH  41  45
ENDBRANCH  24  38
BRANCH  25  49
ATOM     49  C   UNL A   1      45.738  31.429  29.024  1.00  0.00     0.023 A 
ATOM     50  C   UNL A   1      45.224  32.536  28.332  1.00  0.00     0.031 A 
ATOM     51  C   UNL A   1      47.078  31.080  28.747  1.00  0.00     0.131 A 
ATOM     52  C   UNL A   1      45.962  33.137  27.297  1.00  0.00     0.055 A 
ATOM     53  C   UNL A   1      47.838  31.726  27.766  1.00  0.00     0.041 A 
ATOM     54  F   UNL A   1      47.675  30.088  29.428  1.00  0.00    -0.206 F 
ATOM     55  C   UNL A   1      47.269  32.742  27.012  1.00  0.00     0.022 A 
BRANCH  52  56
ATOM     56  S   UNL A   1      45.202  34.402  26.239  1.00  0.00     0.124 S 
ATOM     57  O   UNL A   1      45.531  33.930  24.897  1.00  0.00    -0.237 OA
ATOM     58  O   UNL A   1      43.797  34.288  26.622  1.00  0.00    -0.237 OA
ATOM     59  O   UNL A   1      45.867  35.633  26.652  1.00  0.00    -0.744 OA
ENDBRANCH  52  56
ENDBRANCH  25  49
BRANCH  37  60
ATOM     60  C   UNL A   1      41.441  29.712  33.850  1.00  0.00     0.023 A 
ATOM     61  C   UNL A   1      41.587  28.359  34.217  1.00  0.00     0.031 A 
ATOM     62  C   UNL A   1      41.762  30.686  34.812  1.00  0.00     0.131 A 
ATOM     63  C   UNL A   1      42.027  28.019  35.508  1.00  0.00     0.055 A 
ATOM     64  C   UNL A   1      42.238  30.345  36.080  1.00  0.00     0.041 A 
ATOM     65  F   UNL A   1      41.574  31.991  34.553  1.00  0.00    -0.206 F 
ATOM     66  C   UNL A   1      42.367  29.008  36.434  1.00  0.00     0.022 A 
BRANCH  63  67
ATOM     67  S   UNL A   1      42.089  26.301  36.096  1.00  0.00     0.124 S 
ATOM     68  O   UNL A   1      40.856  25.737  35.552  1.00  0.00    -0.237 OA
ATOM     69  O   UNL A   1      43.321  25.808  35.482  1.00  0.00    -0.237 OA
ATOM     70  O   UNL A   1      42.143  26.421  37.546  1.00  0.00    -0.744 OA
ENDBRANCH  63  67
ENDBRANCH  37  60
ENDBRANCH  11  12
ENDBRANCH   4   6
ENDBRANCH   3   4
ENDBRANCH   2   3
ENDBRANCH   1   2
BRANCH   1  71
ATOM     71  O   UNL A   1      37.717  22.366  24.597  1.00  0.00    -0.374 OA
BRANCH  71  72
ATOM     72  C   UNL A   1      36.800  23.313  25.150  1.00  0.00     0.202 C 
BRANCH  72  73
ATOM     73  C   UNL A   1      35.650  22.834  26.042  1.00  0.00     0.261 C 
BRANCH  73  74
ATOM     74  O   UNL A   1      34.425  22.343  25.461  1.00  0.00    -0.459 OA
BRANCH  74  75
ATOM     75  C   UNL A   1      34.358  21.068  25.006  1.00  0.00     0.365 C 
ATOM     76  O   UNL A   1      35.315  20.379  24.699  1.00  0.00    -0.245 OA
BRANCH  75  77
ATOM     77  C   UNL A   1      32.924  20.576  24.996  1.00  0.00     0.296 C 
ATOM     78  C   UNL A   1      32.886  19.165  25.589  1.00  0.00     0.091 C 
ATOM     79  N   UNL A   1      32.321  20.432  23.668  1.00  0.00    -0.319 N 
ATOM     80  C   UNL A   1      32.874  18.191  24.389  1.00  0.00     0.036 C 
ATOM     81  C   UNL A   1      32.230  19.036  23.268  1.00  0.00     0.270 C 
ATOM     82  H   UNL A   1      31.358  20.742  23.794  1.00  0.00     0.349 HD
ATOM     83  C   UNL A   1      32.032  16.936  24.705  1.00  0.00     0.074 C 
ATOM     84  C   UNL A   1      34.276  17.672  23.972  1.00  0.00     0.074 C 
ATOM     85  C   UNL A   1      32.713  16.031  25.735  1.00  0.00     0.261 C 
ATOM     86  C   UNL A   1      34.911  16.753  25.018  1.00  0.00     0.261 C 
ATOM     87  N   UNL A   1      34.047  15.610  25.325  1.00  0.00    -0.346 N 
ATOM     88  H   UNL A   1      33.966  15.025  24.494  1.00  0.00     0.346 HD
ATOM     89  H   UNL A   1      34.467  15.094  26.099  1.00  0.00     0.346 HD
BRANCH  79  90
ATOM     90  C   UNL A   1      32.492  21.479  22.649  1.00  0.00     0.302 C 
BRANCH  90  91
ATOM     91  C   UNL A   1      32.095  22.879  23.037  1.00  0.00     0.038 A 
ATOM     92  C   UNL A   1      30.807  23.184  23.529  1.00  0.00     0.012 A 
ATOM     93  C   UNL A   1      32.888  24.043  22.839  1.00  0.00     0.144 A 
ATOM     94  C   UNL A   1      30.295  24.499  23.629  1.00  0.00     0.003 A 
ATOM     95  C   UNL A   1      32.363  25.402  23.007  1.00  0.00     0.135 A 
ATOM     96  N   UNL A   1      34.153  24.147  22.397  1.00  0.00    -0.049 NA
ATOM     97  C   UNL A   1      31.036  25.659  23.373  1.00  0.00     0.034 A 
ATOM     98  N   UNL A   1      33.324  26.273  22.667  1.00  0.00    -0.050 NA
ATOM     99  O   UNL A   1      34.442  25.503  22.407  1.00  0.00    -0.243 OA
ENDBRANCH  90  91
ENDBRANCH  79  90
ENDBRANCH  75  77
ENDBRANCH  74  75
ENDBRANCH  73  74
ENDBRANCH  72  73
ENDBRANCH  71  72
ENDBRANCH   1  71
TORSDOF 19
ENDMDL
