MODEL 1
REMARK VINA RESULT:     -10.9      0.000      0.000
REMARK SMILES COc1ccc(/C(=C/C(=O)OCCOCCOC(=O)c2ccc(-c3c4nc(c(-c5cc(S(=O)(=O)[O-])ccc5F)c5ccc([nH]5)c(-c5cc(S(=O)(=O)[O-])ccc5F)c5nc(c(-c6cc(S(=O)(=O)[O-])ccc6F)c6ccc3[nH]6)C=C5)C=C4)cc2)C(C)C)cc1C
REMARK SMILES IDX 15 1 14 2 13 3 12 4 11 5 9 6 10 7 8 8 7 9 6 10 3 11 4 12
REMARK SMILES IDX 87 13 5 14 86 15 88 16 2 17 1 18 83 19 84 20 85 21 16 22
REMARK SMILES IDX 17 23 18 24 19 25 20 26 21 27 82 28 22 29 81 30 23 31 24 32
REMARK SMILES IDX 25 33 75 34 26 35 80 36 74 37 76 38 27 39 79 40 73 41 72 42
REMARK SMILES IDX 28 44 60 45 40 46 59 47 41 48 44 49 58 50 77 51 42 52 43 53
REMARK SMILES IDX 57 55 78 56 45 57 29 58 30 59 38 60 31 61 37 62 39 63 36 64
REMARK SMILES IDX 32 65 33 66 34 67 35 68 61 69 62 70 70 71 63 72 69 73 71 74
REMARK SMILES IDX 68 75 64 76 65 77 66 78 67 79 46 80 47 81 55 82 48 83 54 84
REMARK SMILES IDX 56 85 53 86 49 87 50 88 51 89 52 90
REMARK H PARENT 76 43 44 54
REMARK Flexibility Score: inf
ROOT
ATOM      1  C   UNL A   1      39.450  21.231  26.161  1.00  0.00     0.202 C 
ENDROOT
BRANCH   1   2
ATOM      2  O   UNL A   1      38.262  21.667  25.536  1.00  0.00    -0.374 OA
BRANCH   2   3
ATOM      3  C   UNL A   1      37.560  20.634  24.865  1.00  0.00     0.202 C 
BRANCH   3   4
ATOM      4  C   UNL A   1      36.136  20.826  25.230  1.00  0.00     0.261 C 
BRANCH   4   5
ATOM      5  O   UNL A   1      35.862  22.086  25.832  1.00  0.00    -0.460 OA
BRANCH   5   6
ATOM      6  C   UNL A   1      34.781  22.266  26.585  1.00  0.00     0.331 C 
ATOM      7  O   UNL A   1      34.306  21.498  27.415  1.00  0.00    -0.247 OA
BRANCH   6   8
ATOM      8  C   UNL A   1      34.296  23.648  26.368  1.00  0.00     0.098 C 
ATOM      9  C   UNL A   1      33.574  24.149  25.331  1.00  0.00    -0.031 C 
BRANCH   9  10
ATOM     10  C   UNL A   1      33.351  25.635  25.265  1.00  0.00    -0.021 A 
ATOM     11  C   UNL A   1      32.989  28.449  25.266  1.00  0.00     0.121 A 
ATOM     12  C   UNL A   1      32.470  27.670  26.290  1.00  0.00     0.047 A 
ATOM     13  C   UNL A   1      33.598  27.829  24.173  1.00  0.00    -0.008 A 
ATOM     14  C   UNL A   1      32.683  26.301  26.298  1.00  0.00     0.012 A 
ATOM     15  C   UNL A   1      33.745  26.427  24.173  1.00  0.00     0.015 A 
ATOM     16  C   UNL A   1      34.154  28.590  23.004  1.00  0.00     0.048 C 
BRANCH  11  17
ATOM     17  O   UNL A   1      32.906  29.816  25.302  1.00  0.00    -0.496 OA
ATOM     18  C   UNL A   1      33.219  30.342  26.594  1.00  0.00     0.278 C 
ENDBRANCH  11  17
ENDBRANCH   9  10
BRANCH   9  19
ATOM     19  C   UNL A   1      32.906  23.302  24.217  1.00  0.00     0.014 C 
ATOM     20  C   UNL A   1      31.429  23.691  24.026  1.00  0.00     0.012 C 
ATOM     21  C   UNL A   1      33.748  23.128  22.946  1.00  0.00     0.012 C 
ENDBRANCH   9  19
ENDBRANCH   6   8
ENDBRANCH   5   6
ENDBRANCH   4   5
ENDBRANCH   3   4
ENDBRANCH   2   3
ENDBRANCH   1   2
BRANCH   1  22
ATOM     22  C   UNL A   1      40.540  22.318  26.197  1.00  0.00     0.261 C 
BRANCH  22  23
ATOM     23  O   UNL A   1      39.947  23.568  26.616  1.00  0.00    -0.460 OA
BRANCH  23  24
ATOM     24  C   UNL A   1      40.584  24.259  27.607  1.00  0.00     0.338 C 
ATOM     25  O   UNL A   1      41.376  23.782  28.399  1.00  0.00    -0.246 OA
BRANCH  24  26
ATOM     26  C   UNL A   1      40.031  25.649  27.689  1.00  0.00     0.060 A 
ATOM     27  C   UNL A   1      40.372  26.621  26.727  1.00  0.00     0.016 A 
ATOM     28  C   UNL A   1      39.435  26.046  28.880  1.00  0.00     0.016 A 
ATOM     29  C   UNL A   1      40.291  27.993  27.038  1.00  0.00     0.010 A 
ATOM     30  C   UNL A   1      39.454  27.385  29.215  1.00  0.00     0.010 A 
ATOM     31  C   UNL A   1      39.939  28.372  28.329  1.00  0.00    -0.014 A 
BRANCH  31  32
ATOM     32  C   UNL A   1      40.210  29.680  28.963  1.00  0.00     0.031 A 
ATOM     33  C   UNL A   1      39.082  30.635  29.042  1.00  0.00     0.074 A 
ATOM     34  C   UNL A   1      41.307  29.897  29.743  1.00  0.00     0.049 A 
ATOM     35  N   UNL A   1      39.189  31.840  29.465  1.00  0.00    -0.248 NA
ATOM     36  C   UNL A   1      37.712  30.311  28.655  1.00  0.00     0.031 C 
ATOM     37  C   UNL A   1      41.486  30.854  30.844  1.00  0.00     0.029 A 
ATOM     38  N   UNL A   1      42.543  29.241  29.742  1.00  0.00    -0.354 N 
ATOM     39  C   UNL A   1      37.930  32.310  29.751  1.00  0.00     0.074 A 
ATOM     40  C   UNL A   1      37.041  31.347  29.158  1.00  0.00     0.031 C 
ATOM     41  C   UNL A   1      42.789  30.934  31.183  1.00  0.00     0.029 A 
ATOM     42  C   UNL A   1      43.530  30.097  30.253  1.00  0.00     0.049 A 
ATOM     43  H   UNL A   1      42.697  28.319  29.431  1.00  0.00     0.167 HD
ATOM     44  C   UNL A   1      37.823  33.399  30.563  1.00  0.00     0.034 A 
ATOM     45  C   UNL A   1      44.627  30.397  29.510  1.00  0.00     0.034 A 
ATOM     46  C   UNL A   1      39.168  33.890  30.933  1.00  0.00     0.049 A 
ATOM     47  C   UNL A   1      44.451  31.869  29.169  1.00  0.00     0.074 A 
ATOM     48  C   UNL A   1      39.913  33.883  32.101  1.00  0.00     0.029 A 
ATOM     49  N   UNL A   1      40.071  34.198  29.912  1.00  0.00    -0.354 N 
ATOM     50  N   UNL A   1      43.283  32.468  29.182  1.00  0.00    -0.248 NA
ATOM     51  C   UNL A   1      45.551  32.811  29.008  1.00  0.00     0.031 C 
ATOM     52  C   UNL A   1      41.280  34.125  31.752  1.00  0.00     0.029 A 
ATOM     53  C   UNL A   1      41.367  34.299  30.377  1.00  0.00     0.049 A 
ATOM     54  H   UNL A   1      39.813  34.328  28.971  1.00  0.00     0.167 HD
ATOM     55  C   UNL A   1      43.457  33.820  29.222  1.00  0.00     0.074 A 
ATOM     56  C   UNL A   1      44.894  33.987  29.037  1.00  0.00     0.031 C 
ATOM     57  C   UNL A   1      42.446  34.709  29.477  1.00  0.00     0.034 A 
BRANCH  44  58
ATOM     58  C   UNL A   1      36.537  33.906  31.194  1.00  0.00     0.023 A 
ATOM     59  C   UNL A   1      35.556  34.486  30.361  1.00  0.00     0.031 A 
ATOM     60  C   UNL A   1      36.193  33.867  32.563  1.00  0.00     0.131 A 
ATOM     61  C   UNL A   1      34.365  35.030  30.884  1.00  0.00     0.055 A 
ATOM     62  C   UNL A   1      35.030  34.446  33.090  1.00  0.00     0.041 A 
ATOM     63  F   UNL A   1      36.917  33.212  33.472  1.00  0.00    -0.206 F 
ATOM     64  C   UNL A   1      34.105  35.034  32.250  1.00  0.00     0.022 A 
BRANCH  61  65
ATOM     65  S   UNL A   1      33.131  35.707  29.744  1.00  0.00     0.124 S 
ATOM     66  O   UNL A   1      32.271  36.471  30.641  1.00  0.00    -0.237 OA
ATOM     67  O   UNL A   1      33.954  36.480  28.820  1.00  0.00    -0.237 OA
ATOM     68  O   UNL A   1      32.513  34.514  29.165  1.00  0.00    -0.744 OA
ENDBRANCH  61  65
ENDBRANCH  44  58
BRANCH  45  69
ATOM     69  C   UNL A   1      45.020  29.207  28.658  1.00  0.00     0.023 A 
ATOM     70  C   UNL A   1      45.607  28.060  29.281  1.00  0.00     0.031 A 
ATOM     71  C   UNL A   1      44.381  28.989  27.427  1.00  0.00     0.131 A 
ATOM     72  C   UNL A   1      45.425  26.763  28.737  1.00  0.00     0.055 A 
ATOM     73  C   UNL A   1      44.167  27.693  26.926  1.00  0.00     0.041 A 
ATOM     74  F   UNL A   1      43.809  30.007  26.770  1.00  0.00    -0.206 F 
ATOM     75  C   UNL A   1      44.636  26.575  27.607  1.00  0.00     0.022 A 
BRANCH  72  76
ATOM     76  S   UNL A   1      46.104  25.269  29.538  1.00  0.00     0.124 S 
ATOM     77  O   UNL A   1      44.932  24.727  30.215  1.00  0.00    -0.237 OA
ATOM     78  O   UNL A   1      46.596  24.488  28.413  1.00  0.00    -0.237 OA
ATOM     79  O   UNL A   1      47.151  25.795  30.413  1.00  0.00    -0.744 OA
ENDBRANCH  72  76
ENDBRANCH  45  69
BRANCH  57  80
ATOM     80  C   UNL A   1      42.424  36.108  28.909  1.00  0.00     0.023 A 
ATOM     81  C   UNL A   1      43.149  37.151  29.490  1.00  0.00     0.031 A 
ATOM     82  C   UNL A   1      41.791  36.419  27.680  1.00  0.00     0.131 A 
ATOM     83  C   UNL A   1      43.148  38.437  28.939  1.00  0.00     0.055 A 
ATOM     84  C   UNL A   1      41.887  37.671  27.069  1.00  0.00     0.041 A 
ATOM     85  F   UNL A   1      41.073  35.521  26.991  1.00  0.00    -0.206 F 
ATOM     86  C   UNL A   1      42.551  38.700  27.712  1.00  0.00     0.022 A 
BRANCH  83  87
ATOM     87  S   UNL A   1      43.872  39.756  29.935  1.00  0.00     0.124 S 
ATOM     88  O   UNL A   1      43.138  40.924  29.455  1.00  0.00    -0.237 OA
ATOM     89  O   UNL A   1      43.559  39.330  31.295  1.00  0.00    -0.237 OA
ATOM     90  O   UNL A   1      45.287  39.717  29.576  1.00  0.00    -0.744 OA
ENDBRANCH  83  87
ENDBRANCH  57  80
ENDBRANCH  31  32
ENDBRANCH  24  26
ENDBRANCH  23  24
ENDBRANCH  22  23
ENDBRANCH   1  22
TORSDOF 20
ENDMDL
MODEL 2
REMARK VINA RESULT:     -10.7      3.995     10.179
REMARK SMILES COc1ccc(/C(=C/C(=O)OCCOCCOC(=O)c2ccc(-c3c4nc(c(-c5cc(S(=O)(=O)[O-])ccc5F)c5ccc([nH]5)c(-c5cc(S(=O)(=O)[O-])ccc5F)c5nc(c(-c6cc(S(=O)(=O)[O-])ccc6F)c6ccc3[nH]6)C=C5)C=C4)cc2)C(C)C)cc1C
REMARK SMILES IDX 15 1 14 2 13 3 12 4 11 5 9 6 10 7 8 8 7 9 6 10 3 11 4 12
REMARK SMILES IDX 87 13 5 14 86 15 88 16 2 17 1 18 83 19 84 20 85 21 16 22
REMARK SMILES IDX 17 23 18 24 19 25 20 26 21 27 82 28 22 29 81 30 23 31 24 32
REMARK SMILES IDX 25 33 75 34 26 35 80 36 74 37 76 38 27 39 79 40 73 41 72 42
REMARK SMILES IDX 28 44 60 45 40 46 59 47 41 48 44 49 58 50 77 51 42 52 43 53
REMARK SMILES IDX 57 55 78 56 45 57 29 58 30 59 38 60 31 61 37 62 39 63 36 64
REMARK SMILES IDX 32 65 33 66 34 67 35 68 61 69 62 70 70 71 63 72 69 73 71 74
REMARK SMILES IDX 68 75 64 76 65 77 66 78 67 79 46 80 47 81 55 82 48 83 54 84
REMARK SMILES IDX 56 85 53 86 49 87 50 88 51 89 52 90
REMARK H PARENT 76 43 44 54
REMARK Flexibility Score: inf
ROOT
ATOM      1  C   UNL A   1      31.951  31.263  26.824  1.00  0.00     0.202 C 
ENDROOT
BRANCH   1   2
ATOM      2  O   UNL A   1      31.915  30.289  25.802  1.00  0.00    -0.374 OA
BRANCH   2   3
ATOM      3  C   UNL A   1      32.835  29.227  25.997  1.00  0.00     0.202 C 
BRANCH   3   4
ATOM      4  C   UNL A   1      33.026  28.624  24.657  1.00  0.00     0.261 C 
BRANCH   4   5
ATOM      5  O   UNL A   1      32.134  27.550  24.378  1.00  0.00    -0.460 OA
BRANCH   5   6
ATOM      6  C   UNL A   1      32.291  26.791  23.298  1.00  0.00     0.331 C 
ATOM      7  O   UNL A   1      31.870  26.998  22.164  1.00  0.00    -0.247 OA
BRANCH   6   8
ATOM      8  C   UNL A   1      33.206  25.681  23.646  1.00  0.00     0.098 C 
ATOM      9  C   UNL A   1      32.922  24.490  24.237  1.00  0.00    -0.031 C 
BRANCH   9  10
ATOM     10  C   UNL A   1      34.065  23.598  24.640  1.00  0.00    -0.021 A 
ATOM     11  C   UNL A   1      36.207  21.850  25.277  1.00  0.00     0.121 A 
ATOM     12  C   UNL A   1      34.958  21.345  24.948  1.00  0.00     0.047 A 
ATOM     13  C   UNL A   1      36.378  23.231  25.401  1.00  0.00    -0.008 A 
ATOM     14  C   UNL A   1      33.928  22.206  24.604  1.00  0.00     0.012 A 
ATOM     15  C   UNL A   1      35.296  24.086  25.109  1.00  0.00     0.015 A 
ATOM     16  C   UNL A   1      37.683  23.863  25.789  1.00  0.00     0.048 C 
BRANCH  11  17
ATOM     17  O   UNL A   1      37.274  21.019  25.492  1.00  0.00    -0.496 OA
ATOM     18  C   UNL A   1      37.139  19.776  24.800  1.00  0.00     0.278 C 
ENDBRANCH  11  17
ENDBRANCH   9  10
BRANCH   9  19
ATOM     19  C   UNL A   1      31.496  23.938  24.494  1.00  0.00     0.014 C 
ATOM     20  C   UNL A   1      30.867  24.567  25.749  1.00  0.00     0.012 C 
ATOM     21  C   UNL A   1      30.607  23.842  23.246  1.00  0.00     0.012 C 
ENDBRANCH   9  19
ENDBRANCH   6   8
ENDBRANCH   5   6
ENDBRANCH   4   5
ENDBRANCH   3   4
ENDBRANCH   2   3
ENDBRANCH   1   2
BRANCH   1  22
ATOM     22  C   UNL A   1      33.374  31.769  27.117  1.00  0.00     0.261 C 
BRANCH  22  23
ATOM     23  O   UNL A   1      33.902  31.060  28.262  1.00  0.00    -0.460 OA
BRANCH  23  24
ATOM     24  C   UNL A   1      35.130  31.442  28.720  1.00  0.00     0.338 C 
ATOM     25  O   UNL A   1      35.492  32.592  28.885  1.00  0.00    -0.246 OA
BRANCH  24  26
ATOM     26  C   UNL A   1      36.026  30.245  28.818  1.00  0.00     0.060 A 
ATOM     27  C   UNL A   1      36.311  29.656  30.066  1.00  0.00     0.016 A 
ATOM     28  C   UNL A   1      36.806  29.920  27.715  1.00  0.00     0.016 A 
ATOM     29  C   UNL A   1      37.485  28.897  30.246  1.00  0.00     0.010 A 
ATOM     30  C   UNL A   1      38.003  29.265  27.921  1.00  0.00     0.010 A 
ATOM     31  C   UNL A   1      38.392  28.798  29.196  1.00  0.00    -0.014 A 
BRANCH  31  32
ATOM     32  C   UNL A   1      39.823  28.441  29.305  1.00  0.00     0.031 A 
ATOM     33  C   UNL A   1      40.202  27.064  28.920  1.00  0.00     0.074 A 
ATOM     34  C   UNL A   1      40.802  29.385  29.411  1.00  0.00     0.049 A 
ATOM     35  N   UNL A   1      41.379  26.577  29.060  1.00  0.00    -0.248 NA
ATOM     36  C   UNL A   1      39.279  26.101  28.326  1.00  0.00     0.031 C 
ATOM     37  C   UNL A   1      42.211  29.308  28.999  1.00  0.00     0.029 A 
ATOM     38  N   UNL A   1      40.726  30.694  29.897  1.00  0.00    -0.354 N 
ATOM     39  C   UNL A   1      41.473  25.447  28.284  1.00  0.00     0.074 A 
ATOM     40  C   UNL A   1      40.118  25.152  27.908  1.00  0.00     0.031 C 
ATOM     41  C   UNL A   1      42.902  30.347  29.510  1.00  0.00     0.029 A 
ATOM     42  C   UNL A   1      41.988  31.100  30.356  1.00  0.00     0.049 A 
ATOM     43  H   UNL A   1      39.911  31.248  29.915  1.00  0.00     0.167 HD
ATOM     44  C   UNL A   1      42.719  24.988  27.972  1.00  0.00     0.034 A 
ATOM     45  C   UNL A   1      42.148  31.518  31.638  1.00  0.00     0.034 A 
ATOM     46  C   UNL A   1      43.747  25.830  28.619  1.00  0.00     0.049 A 
ATOM     47  C   UNL A   1      42.988  30.425  32.282  1.00  0.00     0.074 A 
ATOM     48  C   UNL A   1      44.667  26.759  28.159  1.00  0.00     0.029 A 
ATOM     49  N   UNL A   1      43.688  26.012  30.003  1.00  0.00    -0.354 N 
ATOM     50  N   UNL A   1      43.052  29.203  31.806  1.00  0.00    -0.248 NA
ATOM     51  C   UNL A   1      43.965  30.656  33.339  1.00  0.00     0.031 C 
ATOM     52  C   UNL A   1      45.101  27.539  29.279  1.00  0.00     0.029 A 
ATOM     53  C   UNL A   1      44.465  27.073  30.422  1.00  0.00     0.049 A 
ATOM     54  H   UNL A   1      43.154  25.449  30.609  1.00  0.00     0.167 HD
ATOM     55  C   UNL A   1      44.139  28.562  32.322  1.00  0.00     0.074 A 
ATOM     56  C   UNL A   1      44.637  29.488  33.333  1.00  0.00     0.031 C 
ATOM     57  C   UNL A   1      44.611  27.366  31.849  1.00  0.00     0.034 A 
BRANCH  44  58
ATOM     58  C   UNL A   1      43.031  23.923  26.933  1.00  0.00     0.023 A 
ATOM     59  C   UNL A   1      42.438  22.650  27.068  1.00  0.00     0.031 A 
ATOM     60  C   UNL A   1      43.874  24.060  25.809  1.00  0.00     0.131 A 
ATOM     61  C   UNL A   1      42.728  21.597  26.175  1.00  0.00     0.055 A 
ATOM     62  C   UNL A   1      44.198  23.003  24.946  1.00  0.00     0.041 A 
ATOM     63  F   UNL A   1      44.388  25.231  25.428  1.00  0.00    -0.206 F 
ATOM     64  C   UNL A   1      43.624  21.760  25.125  1.00  0.00     0.022 A 
BRANCH  61  65
ATOM     65  S   UNL A   1      41.884  20.008  26.385  1.00  0.00     0.124 S 
ATOM     66  O   UNL A   1      42.398  19.557  27.674  1.00  0.00    -0.237 OA
ATOM     67  O   UNL A   1      40.479  20.395  26.346  1.00  0.00    -0.237 OA
ATOM     68  O   UNL A   1      42.339  19.229  25.234  1.00  0.00    -0.744 OA
ENDBRANCH  61  65
ENDBRANCH  44  58
BRANCH  45  69
ATOM     69  C   UNL A   1      40.901  32.238  32.111  1.00  0.00     0.023 A 
ATOM     70  C   UNL A   1      40.070  31.626  33.102  1.00  0.00     0.031 A 
ATOM     71  C   UNL A   1      40.819  33.635  32.006  1.00  0.00     0.131 A 
ATOM     72  C   UNL A   1      39.317  32.414  34.009  1.00  0.00     0.055 A 
ATOM     73  C   UNL A   1      40.107  34.405  32.942  1.00  0.00     0.041 A 
ATOM     74  F   UNL A   1      41.558  34.291  31.101  1.00  0.00    -0.206 F 
ATOM     75  C   UNL A   1      39.403  33.803  33.978  1.00  0.00     0.022 A 
BRANCH  72  76
ATOM     76  S   UNL A   1      38.295  31.672  35.327  1.00  0.00     0.124 S 
ATOM     77  O   UNL A   1      38.409  30.247  35.035  1.00  0.00    -0.237 OA
ATOM     78  O   UNL A   1      38.955  32.117  36.545  1.00  0.00    -0.237 OA
ATOM     79  O   UNL A   1      36.973  32.256  35.107  1.00  0.00    -0.744 OA
ENDBRANCH  72  76
ENDBRANCH  45  69
BRANCH  57  80
ATOM     80  C   UNL A   1      45.317  26.360  32.727  1.00  0.00     0.023 A 
ATOM     81  C   UNL A   1      44.616  25.401  33.461  1.00  0.00     0.031 A 
ATOM     82  C   UNL A   1      46.728  26.232  32.750  1.00  0.00     0.131 A 
ATOM     83  C   UNL A   1      45.280  24.453  34.246  1.00  0.00     0.055 A 
ATOM     84  C   UNL A   1      47.388  25.213  33.440  1.00  0.00     0.041 A 
ATOM     85  F   UNL A   1      47.540  27.064  32.083  1.00  0.00    -0.206 F 
ATOM     86  C   UNL A   1      46.663  24.327  34.217  1.00  0.00     0.022 A 
BRANCH  83  87
ATOM     87  S   UNL A   1      44.270  23.467  35.370  1.00  0.00     0.124 S 
ATOM     88  O   UNL A   1      43.156  24.374  35.637  1.00  0.00    -0.237 OA
ATOM     89  O   UNL A   1      43.948  22.297  34.559  1.00  0.00    -0.237 OA
ATOM     90  O   UNL A   1      45.159  23.220  36.501  1.00  0.00    -0.744 OA
ENDBRANCH  83  87
ENDBRANCH  57  80
ENDBRANCH  31  32
ENDBRANCH  24  26
ENDBRANCH  23  24
ENDBRANCH  22  23
ENDBRANCH   1  22
TORSDOF 20
ENDMDL
MODEL 3
REMARK VINA RESULT:     -10.6      2.274      2.891
REMARK SMILES COc1ccc(/C(=C/C(=O)OCCOCCOC(=O)c2ccc(-c3c4nc(c(-c5cc(S(=O)(=O)[O-])ccc5F)c5ccc([nH]5)c(-c5cc(S(=O)(=O)[O-])ccc5F)c5nc(c(-c6cc(S(=O)(=O)[O-])ccc6F)c6ccc3[nH]6)C=C5)C=C4)cc2)C(C)C)cc1C
REMARK SMILES IDX 15 1 14 2 13 3 12 4 11 5 9 6 10 7 8 8 7 9 6 10 3 11 4 12
REMARK SMILES IDX 87 13 5 14 86 15 88 16 2 17 1 18 83 19 84 20 85 21 16 22
REMARK SMILES IDX 17 23 18 24 19 25 20 26 21 27 82 28 22 29 81 30 23 31 24 32
REMARK SMILES IDX 25 33 75 34 26 35 80 36 74 37 76 38 27 39 79 40 73 41 72 42
REMARK SMILES IDX 28 44 60 45 40 46 59 47 41 48 44 49 58 50 77 51 42 52 43 53
REMARK SMILES IDX 57 55 78 56 45 57 29 58 30 59 38 60 31 61 37 62 39 63 36 64
REMARK SMILES IDX 32 65 33 66 34 67 35 68 61 69 62 70 70 71 63 72 69 73 71 74
REMARK SMILES IDX 68 75 64 76 65 77 66 78 67 79 46 80 47 81 55 82 48 83 54 84
REMARK SMILES IDX 56 85 53 86 49 87 50 88 51 89 52 90
REMARK H PARENT 76 43 44 54
REMARK Flexibility Score: inf
ROOT
ATOM      1  C   UNL A   1      37.836  21.144  25.420  1.00  0.00     0.202 C 
ENDROOT
BRANCH   1   2
ATOM      2  O   UNL A   1      36.515  21.463  25.038  1.00  0.00    -0.374 OA
BRANCH   2   3
ATOM      3  C   UNL A   1      36.295  22.853  24.859  1.00  0.00     0.202 C 
BRANCH   3   4
ATOM      4  C   UNL A   1      35.758  22.991  23.485  1.00  0.00     0.261 C 
BRANCH   4   5
ATOM      5  O   UNL A   1      34.338  23.042  23.425  1.00  0.00    -0.460 OA
BRANCH   5   6
ATOM      6  C   UNL A   1      33.714  23.932  22.658  1.00  0.00     0.331 C 
ATOM      7  O   UNL A   1      33.234  23.758  21.543  1.00  0.00    -0.247 OA
BRANCH   6   8
ATOM      8  C   UNL A   1      33.554  25.178  23.440  1.00  0.00     0.098 C 
ATOM      9  C   UNL A   1      32.582  25.513  24.330  1.00  0.00    -0.031 C 
BRANCH   9  10
ATOM     10  C   UNL A   1      32.554  26.918  24.866  1.00  0.00    -0.021 A 
ATOM     11  C   UNL A   1      32.368  29.547  25.917  1.00  0.00     0.121 A 
ATOM     12  C   UNL A   1      31.457  29.099  24.972  1.00  0.00     0.047 A 
ATOM     13  C   UNL A   1      33.449  28.734  26.268  1.00  0.00    -0.008 A 
ATOM     14  C   UNL A   1      31.535  27.802  24.492  1.00  0.00     0.012 A 
ATOM     15  C   UNL A   1      33.543  27.441  25.716  1.00  0.00     0.015 A 
ATOM     16  C   UNL A   1      34.502  29.152  27.252  1.00  0.00     0.048 C 
BRANCH  11  17
ATOM     17  O   UNL A   1      32.235  30.777  26.503  1.00  0.00    -0.496 OA
ATOM     18  C   UNL A   1      31.080  31.477  26.035  1.00  0.00     0.278 C 
ENDBRANCH  11  17
ENDBRANCH   9  10
BRANCH   9  19
ATOM     19  C   UNL A   1      31.511  24.541  24.889  1.00  0.00     0.014 C 
ATOM     20  C   UNL A   1      30.884  23.692  23.770  1.00  0.00     0.012 C 
ATOM     21  C   UNL A   1      31.914  23.807  26.175  1.00  0.00     0.012 C 
ENDBRANCH   9  19
ENDBRANCH   6   8
ENDBRANCH   5   6
ENDBRANCH   4   5
ENDBRANCH   3   4
ENDBRANCH   2   3
ENDBRANCH   1   2
BRANCH   1  22
ATOM     22  C   UNL A   1      38.763  22.372  25.451  1.00  0.00     0.261 C 
BRANCH  22  23
ATOM     23  O   UNL A   1      39.650  22.266  26.588  1.00  0.00    -0.460 OA
BRANCH  23  24
ATOM     24  C   UNL A   1      40.739  23.090  26.607  1.00  0.00     0.338 C 
ATOM     25  O   UNL A   1      41.899  22.722  26.602  1.00  0.00    -0.246 OA
BRANCH  24  26
ATOM     26  C   UNL A   1      40.296  24.506  26.818  1.00  0.00     0.060 A 
ATOM     27  C   UNL A   1      40.886  25.563  26.095  1.00  0.00     0.016 A 
ATOM     28  C   UNL A   1      39.527  24.791  27.940  1.00  0.00     0.016 A 
ATOM     29  C   UNL A   1      40.862  26.876  26.605  1.00  0.00     0.010 A 
ATOM     30  C   UNL A   1      39.595  26.058  28.484  1.00  0.00     0.010 A 
ATOM     31  C   UNL A   1      40.312  27.103  27.862  1.00  0.00    -0.014 A 
BRANCH  31  32
ATOM     32  C   UNL A   1      40.570  28.269  28.734  1.00  0.00     0.031 A 
ATOM     33  C   UNL A   1      39.540  29.330  28.758  1.00  0.00     0.074 A 
ATOM     34  C   UNL A   1      41.506  28.243  29.726  1.00  0.00     0.049 A 
ATOM     35  N   UNL A   1      39.668  30.444  29.379  1.00  0.00    -0.248 NA
ATOM     36  C   UNL A   1      38.249  29.228  28.082  1.00  0.00     0.031 C 
ATOM     37  C   UNL A   1      41.549  29.010  30.979  1.00  0.00     0.029 A 
ATOM     38  N   UNL A   1      42.653  27.452  29.845  1.00  0.00    -0.354 N 
ATOM     39  C   UNL A   1      38.425  31.016  29.502  1.00  0.00     0.074 A 
ATOM     40  C   UNL A   1      37.588  30.257  28.613  1.00  0.00     0.031 C 
ATOM     41  C   UNL A   1      42.761  28.887  31.557  1.00  0.00     0.029 A 
ATOM     42  C   UNL A   1      43.593  28.105  30.656  1.00  0.00     0.049 A 
ATOM     43  H   UNL A   1      42.782  26.570  29.425  1.00  0.00     0.167 HD
ATOM     44  C   UNL A   1      38.259  31.987  30.444  1.00  0.00     0.034 A 
ATOM     45  C   UNL A   1      44.837  28.372  30.182  1.00  0.00     0.034 A 
ATOM     46  C   UNL A   1      39.543  32.258  31.125  1.00  0.00     0.049 A 
ATOM     47  C   UNL A   1      44.866  29.888  30.053  1.00  0.00     0.074 A 
ATOM     48  C   UNL A   1      40.039  32.001  32.394  1.00  0.00     0.029 A 
ATOM     49  N   UNL A   1      40.654  32.595  30.348  1.00  0.00    -0.354 N 
ATOM     50  N   UNL A   1      43.777  30.614  29.949  1.00  0.00    -0.248 NA
ATOM     51  C   UNL A   1      46.057  30.706  30.247  1.00  0.00     0.031 C 
ATOM     52  C   UNL A   1      41.464  32.124  32.342  1.00  0.00     0.029 A 
ATOM     53  C   UNL A   1      41.836  32.476  31.051  1.00  0.00     0.049 A 
ATOM     54  H   UNL A   1      40.600  32.884  29.408  1.00  0.00     0.167 HD
ATOM     55  C   UNL A   1      44.061  31.917  30.234  1.00  0.00     0.074 A 
ATOM     56  C   UNL A   1      45.516  31.936  30.342  1.00  0.00     0.031 C 
ATOM     57  C   UNL A   1      43.104  32.875  30.439  1.00  0.00     0.034 A 
BRANCH  44  58
ATOM     58  C   UNL A   1      36.924  32.551  30.903  1.00  0.00     0.023 A 
ATOM     59  C   UNL A   1      36.073  33.142  29.945  1.00  0.00     0.031 A 
ATOM     60  C   UNL A   1      36.416  32.556  32.220  1.00  0.00     0.131 A 
ATOM     61  C   UNL A   1      34.847  33.737  30.308  1.00  0.00     0.055 A 
ATOM     62  C   UNL A   1      35.218  33.185  32.590  1.00  0.00     0.041 A 
ATOM     63  F   UNL A   1      37.001  31.900  33.224  1.00  0.00    -0.206 F 
ATOM     64  C   UNL A   1      34.424  33.783  31.632  1.00  0.00     0.022 A 
BRANCH  61  65
ATOM     65  S   UNL A   1      33.786  34.427  29.012  1.00  0.00     0.124 S 
ATOM     66  O   UNL A   1      34.645  35.450  28.426  1.00  0.00    -0.237 OA
ATOM     67  O   UNL A   1      33.509  33.259  28.184  1.00  0.00    -0.237 OA
ATOM     68  O   UNL A   1      32.635  34.941  29.755  1.00  0.00    -0.744 OA
ENDBRANCH  61  65
ENDBRANCH  44  58
BRANCH  45  69
ATOM     69  C   UNL A   1      45.282  27.274  29.237  1.00  0.00     0.023 A 
ATOM     70  C   UNL A   1      45.310  27.527  27.829  1.00  0.00     0.031 A 
ATOM     71  C   UNL A   1      46.122  26.251  29.703  1.00  0.00     0.131 A 
ATOM     72  C   UNL A   1      46.241  26.865  26.988  1.00  0.00     0.055 A 
ATOM     73  C   UNL A   1      47.072  25.638  28.867  1.00  0.00     0.041 A 
ATOM     74  F   UNL A   1      46.156  25.942  31.006  1.00  0.00    -0.206 F 
ATOM     75  C   UNL A   1      47.174  25.984  27.524  1.00  0.00     0.022 A 
BRANCH  72  76
ATOM     76  S   UNL A   1      46.350  27.209  25.198  1.00  0.00     0.124 S 
ATOM     77  O   UNL A   1      47.488  28.118  25.131  1.00  0.00    -0.237 OA
ATOM     78  O   UNL A   1      46.566  25.890  24.623  1.00  0.00    -0.237 OA
ATOM     79  O   UNL A   1      45.051  27.801  24.882  1.00  0.00    -0.744 OA
ENDBRANCH  72  76
ENDBRANCH  45  69
BRANCH  57  80
ATOM     80  C   UNL A   1      43.321  34.333  30.106  1.00  0.00     0.023 A 
ATOM     81  C   UNL A   1      43.051  34.848  28.837  1.00  0.00     0.031 A 
ATOM     82  C   UNL A   1      43.672  35.291  31.090  1.00  0.00     0.131 A 
ATOM     83  C   UNL A   1      43.225  36.205  28.547  1.00  0.00     0.055 A 
ATOM     84  C   UNL A   1      43.731  36.662  30.829  1.00  0.00     0.041 A 
ATOM     85  F   UNL A   1      43.944  34.958  32.359  1.00  0.00    -0.206 F 
ATOM     86  C   UNL A   1      43.530  37.127  29.541  1.00  0.00     0.022 A 
BRANCH  83  87
ATOM     87  S   UNL A   1      43.130  36.691  26.812  1.00  0.00     0.124 S 
ATOM     88  O   UNL A   1      42.839  35.414  26.164  1.00  0.00    -0.237 OA
ATOM     89  O   UNL A   1      42.037  37.658  26.816  1.00  0.00    -0.237 OA
ATOM     90  O   UNL A   1      44.454  37.243  26.538  1.00  0.00    -0.744 OA
ENDBRANCH  83  87
ENDBRANCH  57  80
ENDBRANCH  31  32
ENDBRANCH  24  26
ENDBRANCH  23  24
ENDBRANCH  22  23
ENDBRANCH   1  22
TORSDOF 20
ENDMDL
