MODEL 1
REMARK VINA RESULT:     -11.9      0.000      0.000
REMARK SMILES Cc1noc(C[N@H+]2CCC[C@@H](c3ccc(C(=O)OCCOCCOC(=O)c4ccc(-c5c6nc(c(-c7cc(S(=O)(=O)[O-])ccc7F)c7ccc([nH]7)c(-c7cc(S(=O)(=O)[O-])ccc7F)c7nc(c(-c8cc(S(=O)(=O)[O-])ccc8F)c8ccc5[nH]8)C=C7)C=C6)cc4)cc3)C2)n1
REMARK SMILES IDX 21 1 20 2 19 3 18 4 16 5 17 6 15 7 12 8 13 9 91 10 14 11
REMARK SMILES IDX 90 12 11 13 7 14 8 15 92 16 9 18 10 19 6 20 5 21 1 22 2 23
REMARK SMILES IDX 3 24 93 25 4 26 22 27 23 28 24 29 25 30 26 31 27 32 28 33
REMARK SMILES IDX 89 34 29 35 88 36 30 37 31 38 32 39 82 40 33 41 87 42 81 43
REMARK SMILES IDX 83 44 34 45 86 46 80 47 79 48 35 50 67 51 47 52 66 53 48 54
REMARK SMILES IDX 51 55 65 56 84 57 49 58 50 59 64 61 85 62 52 63 36 64 37 65
REMARK SMILES IDX 45 66 38 67 44 68 46 69 43 70 39 71 40 72 41 73 42 74 68 75
REMARK SMILES IDX 69 76 77 77 70 78 76 79 78 80 75 81 71 82 72 83 73 84 74 85
REMARK SMILES IDX 53 86 54 87 62 88 55 89 61 90 63 91 60 92 56 93 57 94 58 95
REMARK SMILES IDX 59 96
REMARK H PARENT 7 17 83 49 51 60
REMARK Flexibility Score: inf
ROOT
ATOM      1  O   UNL A   1      41.925  21.369  27.032  1.00  0.00    -0.374 OA
ENDROOT
BRANCH   1   2
ATOM      2  C   UNL A   1      40.525  21.646  27.070  1.00  0.00     0.202 C 
BRANCH   2   3
ATOM      3  C   UNL A   1      39.651  20.945  26.027  1.00  0.00     0.261 C 
BRANCH   3   4
ATOM      4  O   UNL A   1      38.688  21.843  25.453  1.00  0.00    -0.460 OA
BRANCH   4   5
ATOM      5  C   UNL A   1      37.463  21.300  25.264  1.00  0.00     0.338 C 
ATOM      6  O   UNL A   1      37.209  20.139  24.979  1.00  0.00    -0.246 OA
BRANCH   5   7
ATOM      7  C   UNL A   1      36.408  22.272  25.621  1.00  0.00     0.060 A 
ATOM      8  C   UNL A   1      34.215  23.939  26.151  1.00  0.00    -0.039 A 
ATOM      9  C   UNL A   1      34.192  22.584  26.525  1.00  0.00     0.005 A 
ATOM     10  C   UNL A   1      35.394  24.469  25.602  1.00  0.00     0.005 A 
ATOM     11  C   UNL A   1      35.270  21.754  26.244  1.00  0.00     0.016 A 
ATOM     12  C   UNL A   1      36.495  23.640  25.345  1.00  0.00     0.016 A 
BRANCH   8  13
ATOM     13  C   UNL A   1      32.926  24.757  26.163  1.00  0.00     0.074 C 
ATOM     14  N   UNL A   1      31.713  26.436  24.665  1.00  0.00    -0.327 N 
ATOM     15  C   UNL A   1      30.543  25.550  24.636  1.00  0.00     0.262 C 
ATOM     16  C   UNL A   1      32.955  25.689  24.926  1.00  0.00     0.270 C 
ATOM     17  H   UNL A   1      31.567  27.088  25.435  1.00  0.00     0.348 HD
ATOM     18  C   UNL A   1      30.420  24.749  25.933  1.00  0.00     0.062 C 
ATOM     19  C   UNL A   1      31.659  23.889  26.170  1.00  0.00     0.020 C 
BRANCH  14  20
ATOM     20  C   UNL A   1      31.837  27.226  23.405  1.00  0.00     0.364 C 
BRANCH  20  21
ATOM     21  C   UNL A   1      30.757  28.239  23.162  1.00  0.00     0.281 A 
ATOM     22  C   UNL A   1      28.982  31.248  23.462  1.00  0.00     0.093 C 
ATOM     23  C   UNL A   1      29.534  29.932  23.087  1.00  0.00     0.169 A 
ATOM     24  N   UNL A   1      29.364  29.384  21.876  1.00  0.00    -0.063 NA
ATOM     25  N   UNL A   1      30.348  29.228  23.929  1.00  0.00    -0.191 NA
ATOM     26  O   UNL A   1      30.180  28.249  21.923  1.00  0.00    -0.333 OA
ENDBRANCH  20  21
ENDBRANCH  14  20
ENDBRANCH   8  13
ENDBRANCH   5   7
ENDBRANCH   4   5
ENDBRANCH   3   4
ENDBRANCH   2   3
ENDBRANCH   1   2
BRANCH   1  27
ATOM     27  C   UNL A   1      42.528  21.214  25.747  1.00  0.00     0.202 C 
BRANCH  27  28
ATOM     28  C   UNL A   1      43.588  22.245  25.336  1.00  0.00     0.261 C 
BRANCH  28  29
ATOM     29  O   UNL A   1      43.003  23.467  24.852  1.00  0.00    -0.460 OA
BRANCH  29  30
ATOM     30  C   UNL A   1      43.727  24.584  25.105  1.00  0.00     0.338 C 
ATOM     31  O   UNL A   1      44.712  24.975  24.493  1.00  0.00    -0.246 OA
BRANCH  30  32
ATOM     32  C   UNL A   1      43.036  25.403  26.117  1.00  0.00     0.060 A 
ATOM     33  C   UNL A   1      43.564  26.670  26.402  1.00  0.00     0.016 A 
ATOM     34  C   UNL A   1      41.922  24.927  26.810  1.00  0.00     0.016 A 
ATOM     35  C   UNL A   1      42.999  27.453  27.406  1.00  0.00     0.010 A 
ATOM     36  C   UNL A   1      41.364  25.709  27.826  1.00  0.00     0.010 A 
ATOM     37  C   UNL A   1      41.917  26.964  28.148  1.00  0.00    -0.014 A 
BRANCH  37  38
ATOM     38  C   UNL A   1      41.452  27.699  29.349  1.00  0.00     0.031 A 
ATOM     39  C   UNL A   1      40.180  28.496  29.268  1.00  0.00     0.074 A 
ATOM     40  C   UNL A   1      42.143  27.643  30.501  1.00  0.00     0.049 A 
ATOM     41  N   UNL A   1      39.613  29.255  30.170  1.00  0.00    -0.248 NA
ATOM     42  C   UNL A   1      39.455  28.428  27.991  1.00  0.00     0.031 C 
ATOM     43  C   UNL A   1      43.357  26.857  30.718  1.00  0.00     0.029 A 
ATOM     44  N   UNL A   1      41.920  28.260  31.706  1.00  0.00    -0.354 N 
ATOM     45  C   UNL A   1      38.463  29.759  29.570  1.00  0.00     0.074 A 
ATOM     46  C   UNL A   1      38.446  29.255  28.212  1.00  0.00     0.031 C 
ATOM     47  C   UNL A   1      43.770  27.037  31.984  1.00  0.00     0.029 A 
ATOM     48  C   UNL A   1      42.880  27.986  32.650  1.00  0.00     0.049 A 
ATOM     49  H   UNL A   1      41.147  28.845  31.877  1.00  0.00     0.167 HD
ATOM     50  C   UNL A   1      37.504  30.556  30.107  1.00  0.00     0.034 A 
ATOM     51  C   UNL A   1      43.033  28.467  33.901  1.00  0.00     0.034 A 
ATOM     52  C   UNL A   1      37.551  31.067  31.455  1.00  0.00     0.049 A 
ATOM     53  C   UNL A   1      42.030  29.462  34.432  1.00  0.00     0.074 A 
ATOM     54  C   UNL A   1      36.632  31.870  32.109  1.00  0.00     0.029 A 
ATOM     55  N   UNL A   1      38.587  30.842  32.356  1.00  0.00    -0.354 N 
ATOM     56  N   UNL A   1      40.944  29.929  33.860  1.00  0.00    -0.248 NA
ATOM     57  C   UNL A   1      42.280  29.997  35.777  1.00  0.00     0.031 C 
ATOM     58  C   UNL A   1      37.150  32.197  33.368  1.00  0.00     0.029 A 
ATOM     59  C   UNL A   1      38.354  31.531  33.537  1.00  0.00     0.049 A 
ATOM     60  H   UNL A   1      39.373  30.277  32.179  1.00  0.00     0.167 HD
ATOM     61  C   UNL A   1      40.364  30.788  34.792  1.00  0.00     0.074 A 
ATOM     62  C   UNL A   1      41.217  30.766  35.962  1.00  0.00     0.031 C 
ATOM     63  C   UNL A   1      39.224  31.522  34.691  1.00  0.00     0.034 A 
BRANCH  50  64
ATOM     64  C   UNL A   1      36.366  30.964  29.200  1.00  0.00     0.023 A 
ATOM     65  C   UNL A   1      35.962  32.306  29.078  1.00  0.00     0.031 A 
ATOM     66  C   UNL A   1      35.627  29.992  28.502  1.00  0.00     0.131 A 
ATOM     67  C   UNL A   1      34.798  32.626  28.365  1.00  0.00     0.055 A 
ATOM     68  C   UNL A   1      34.523  30.330  27.715  1.00  0.00     0.041 A 
ATOM     69  F   UNL A   1      35.946  28.692  28.595  1.00  0.00    -0.206 F 
ATOM     70  C   UNL A   1      34.089  31.651  27.660  1.00  0.00     0.022 A 
BRANCH  67  71
ATOM     71  S   UNL A   1      34.116  34.300  28.531  1.00  0.00     0.124 S 
ATOM     72  O   UNL A   1      34.415  34.602  29.930  1.00  0.00    -0.237 OA
ATOM     73  O   UNL A   1      34.875  35.050  27.537  1.00  0.00    -0.237 OA
ATOM     74  O   UNL A   1      32.696  34.123  28.231  1.00  0.00    -0.744 OA
ENDBRANCH  67  71
ENDBRANCH  50  64
BRANCH  51  75
ATOM     75  C   UNL A   1      44.193  28.042  34.735  1.00  0.00     0.023 A 
ATOM     76  C   UNL A   1      44.101  26.924  35.577  1.00  0.00     0.031 A 
ATOM     77  C   UNL A   1      45.395  28.772  34.734  1.00  0.00     0.131 A 
ATOM     78  C   UNL A   1      45.178  26.587  36.411  1.00  0.00     0.055 A 
ATOM     79  C   UNL A   1      46.482  28.403  35.528  1.00  0.00     0.041 A 
ATOM     80  F   UNL A   1      45.534  29.852  33.949  1.00  0.00    -0.206 F 
ATOM     81  C   UNL A   1      46.373  27.310  36.381  1.00  0.00     0.022 A 
BRANCH  78  82
ATOM     82  S   UNL A   1      44.969  25.225  37.590  1.00  0.00     0.124 S 
ATOM     83  O   UNL A   1      45.526  24.101  36.847  1.00  0.00    -0.237 OA
ATOM     84  O   UNL A   1      45.749  25.690  38.732  1.00  0.00    -0.237 OA
ATOM     85  O   UNL A   1      43.524  25.179  37.803  1.00  0.00    -0.744 OA
ENDBRANCH  78  82
ENDBRANCH  51  75
BRANCH  63  86
ATOM     86  C   UNL A   1      38.821  32.333  35.899  1.00  0.00     0.023 A 
ATOM     87  C   UNL A   1      38.072  31.775  36.952  1.00  0.00     0.031 A 
ATOM     88  C   UNL A   1      39.182  33.689  35.995  1.00  0.00     0.131 A 
ATOM     89  C   UNL A   1      37.668  32.581  38.027  1.00  0.00     0.055 A 
ATOM     90  C   UNL A   1      38.831  34.470  37.097  1.00  0.00     0.041 A 
ATOM     91  F   UNL A   1      39.892  34.278  35.019  1.00  0.00    -0.206 F 
ATOM     92  C   UNL A   1      38.058  33.919  38.116  1.00  0.00     0.022 A 
BRANCH  89  93
ATOM     93  S   UNL A   1      36.549  31.878  39.271  1.00  0.00     0.124 S 
ATOM     94  O   UNL A   1      37.288  32.109  40.508  1.00  0.00    -0.237 OA
ATOM     95  O   UNL A   1      35.341  32.676  39.092  1.00  0.00    -0.237 OA
ATOM     96  O   UNL A   1      36.429  30.477  38.873  1.00  0.00    -0.744 OA
ENDBRANCH  89  93
ENDBRANCH  63  86
ENDBRANCH  37  38
ENDBRANCH  30  32
ENDBRANCH  29  30
ENDBRANCH  28  29
ENDBRANCH  27  28
ENDBRANCH   1  27
TORSDOF 20
ENDMDL
MODEL 2
REMARK VINA RESULT:     -11.6      4.936     11.656
REMARK SMILES Cc1noc(C[N@H+]2CCC[C@@H](c3ccc(C(=O)OCCOCCOC(=O)c4ccc(-c5c6nc(c(-c7cc(S(=O)(=O)[O-])ccc7F)c7ccc([nH]7)c(-c7cc(S(=O)(=O)[O-])ccc7F)c7nc(c(-c8cc(S(=O)(=O)[O-])ccc8F)c8ccc5[nH]8)C=C7)C=C6)cc4)cc3)C2)n1
REMARK SMILES IDX 21 1 20 2 19 3 18 4 16 5 17 6 15 7 12 8 13 9 91 10 14 11
REMARK SMILES IDX 90 12 11 13 7 14 8 15 92 16 9 18 10 19 6 20 5 21 1 22 2 23
REMARK SMILES IDX 3 24 93 25 4 26 22 27 23 28 24 29 25 30 26 31 27 32 28 33
REMARK SMILES IDX 89 34 29 35 88 36 30 37 31 38 32 39 82 40 33 41 87 42 81 43
REMARK SMILES IDX 83 44 34 45 86 46 80 47 79 48 35 50 67 51 47 52 66 53 48 54
REMARK SMILES IDX 51 55 65 56 84 57 49 58 50 59 64 61 85 62 52 63 36 64 37 65
REMARK SMILES IDX 45 66 38 67 44 68 46 69 43 70 39 71 40 72 41 73 42 74 68 75
REMARK SMILES IDX 69 76 77 77 70 78 76 79 78 80 75 81 71 82 72 83 73 84 74 85
REMARK SMILES IDX 53 86 54 87 62 88 55 89 61 90 63 91 60 92 56 93 57 94 58 95
REMARK SMILES IDX 59 96
REMARK H PARENT 7 17 83 49 51 60
REMARK Flexibility Score: inf
ROOT
ATOM      1  O   UNL A   1      32.686  35.638  29.112  1.00  0.00    -0.374 OA
ENDROOT
BRANCH   1   2
ATOM      2  C   UNL A   1      33.170  36.204  30.329  1.00  0.00     0.202 C 
BRANCH   2   3
ATOM      3  C   UNL A   1      33.287  35.263  31.533  1.00  0.00     0.261 C 
BRANCH   3   4
ATOM      4  O   UNL A   1      34.658  34.990  31.860  1.00  0.00    -0.460 OA
BRANCH   4   5
ATOM      5  C   UNL A   1      35.092  33.768  31.470  1.00  0.00     0.338 C 
ATOM      6  O   UNL A   1      34.406  32.783  31.242  1.00  0.00    -0.246 OA
BRANCH   5   7
ATOM      7  C   UNL A   1      36.540  33.806  31.175  1.00  0.00     0.060 A 
ATOM      8  C   UNL A   1      39.283  34.162  30.707  1.00  0.00    -0.039 A 
ATOM      9  C   UNL A   1      38.736  34.403  31.979  1.00  0.00     0.005 A 
ATOM     10  C   UNL A   1      38.453  33.639  29.702  1.00  0.00     0.005 A 
ATOM     11  C   UNL A   1      37.373  34.246  32.205  1.00  0.00     0.016 A 
ATOM     12  C   UNL A   1      37.083  33.452  29.936  1.00  0.00     0.016 A 
BRANCH   8  13
ATOM     13  C   UNL A   1      40.695  34.640  30.379  1.00  0.00     0.074 C 
ATOM     14  N   UNL A   1      43.096  33.778  30.550  1.00  0.00    -0.327 N 
ATOM     15  C   UNL A   1      43.252  33.955  29.101  1.00  0.00     0.262 C 
ATOM     16  C   UNL A   1      41.685  33.580  30.925  1.00  0.00     0.270 C 
ATOM     17  H   UNL A   1      43.422  34.639  30.987  1.00  0.00     0.348 HD
ATOM     18  C   UNL A   1      42.398  35.115  28.587  1.00  0.00     0.062 C 
ATOM     19  C   UNL A   1      40.917  34.881  28.878  1.00  0.00     0.020 C 
BRANCH  14  20
ATOM     20  C   UNL A   1      43.930  32.651  31.061  1.00  0.00     0.364 C 
BRANCH  20  21
ATOM     21  C   UNL A   1      44.181  31.534  30.090  1.00  0.00     0.281 A 
ATOM     22  C   UNL A   1      45.999  29.285  28.107  1.00  0.00     0.093 C 
ATOM     23  C   UNL A   1      44.986  30.043  28.867  1.00  0.00     0.169 A 
ATOM     24  N   UNL A   1      43.809  29.523  29.240  1.00  0.00    -0.063 NA
ATOM     25  N   UNL A   1      45.231  31.305  29.330  1.00  0.00    -0.191 NA
ATOM     26  O   UNL A   1      43.266  30.520  30.058  1.00  0.00    -0.333 OA
ENDBRANCH  20  21
ENDBRANCH  14  20
ENDBRANCH   8  13
ENDBRANCH   5   7
ENDBRANCH   4   5
ENDBRANCH   3   4
ENDBRANCH   2   3
ENDBRANCH   1   2
BRANCH   1  27
ATOM     27  C   UNL A   1      33.616  34.904  28.314  1.00  0.00     0.202 C 
BRANCH  27  28
ATOM     28  C   UNL A   1      33.300  33.429  28.038  1.00  0.00     0.261 C 
BRANCH  28  29
ATOM     29  O   UNL A   1      34.479  32.606  28.050  1.00  0.00    -0.460 OA
BRANCH  29  30
ATOM     30  C   UNL A   1      34.248  31.276  27.926  1.00  0.00     0.338 C 
ATOM     31  O   UNL A   1      33.253  30.745  27.450  1.00  0.00    -0.246 OA
BRANCH  30  32
ATOM     32  C   UNL A   1      35.473  30.527  28.262  1.00  0.00     0.060 A 
ATOM     33  C   UNL A   1      35.550  29.938  29.532  1.00  0.00     0.016 A 
ATOM     34  C   UNL A   1      36.545  30.440  27.373  1.00  0.00     0.016 A 
ATOM     35  C   UNL A   1      36.715  29.289  29.931  1.00  0.00     0.010 A 
ATOM     36  C   UNL A   1      37.719  29.797  27.781  1.00  0.00     0.010 A 
ATOM     37  C   UNL A   1      37.819  29.242  29.071  1.00  0.00    -0.014 A 
BRANCH  37  38
ATOM     38  C   UNL A   1      39.123  28.741  29.570  1.00  0.00     0.031 A 
ATOM     39  C   UNL A   1      39.739  29.390  30.778  1.00  0.00     0.074 A 
ATOM     40  C   UNL A   1      39.739  27.709  28.968  1.00  0.00     0.049 A 
ATOM     41  N   UNL A   1      40.888  29.154  31.356  1.00  0.00    -0.248 NA
ATOM     42  C   UNL A   1      38.948  30.454  31.413  1.00  0.00     0.031 C 
ATOM     43  C   UNL A   1      39.212  26.961  27.827  1.00  0.00     0.029 A 
ATOM     44  N   UNL A   1      40.946  27.112  29.234  1.00  0.00    -0.354 N 
ATOM     45  C   UNL A   1      40.962  30.041  32.425  1.00  0.00     0.074 A 
ATOM     46  C   UNL A   1      39.762  30.851  32.378  1.00  0.00     0.031 C 
ATOM     47  C   UNL A   1      40.091  26.001  27.494  1.00  0.00     0.029 A 
ATOM     48  C   UNL A   1      41.262  26.096  28.364  1.00  0.00     0.049 A 
ATOM     49  H   UNL A   1      41.530  27.386  29.977  1.00  0.00     0.167 HD
ATOM     50  C   UNL A   1      41.935  30.160  33.364  1.00  0.00     0.034 A 
ATOM     51  C   UNL A   1      42.379  25.348  28.268  1.00  0.00     0.034 A 
ATOM     52  C   UNL A   1      43.135  29.360  33.379  1.00  0.00     0.049 A 
ATOM     53  C   UNL A   1      43.509  25.590  29.239  1.00  0.00     0.074 A 
ATOM     54  C   UNL A   1      44.180  29.384  34.287  1.00  0.00     0.029 A 
ATOM     55  N   UNL A   1      43.464  28.401  32.427  1.00  0.00    -0.354 N 
ATOM     56  N   UNL A   1      43.569  26.428  30.249  1.00  0.00    -0.248 NA
ATOM     57  C   UNL A   1      44.725  24.787  29.051  1.00  0.00     0.031 C 
ATOM     58  C   UNL A   1      45.172  28.504  33.839  1.00  0.00     0.029 A 
ATOM     59  C   UNL A   1      44.715  27.866  32.698  1.00  0.00     0.049 A 
ATOM     60  H   UNL A   1      42.892  28.141  31.669  1.00  0.00     0.167 HD
ATOM     61  C   UNL A   1      44.818  26.227  30.835  1.00  0.00     0.074 A 
ATOM     62  C   UNL A   1      45.471  25.185  30.071  1.00  0.00     0.031 C 
ATOM     63  C   UNL A   1      45.369  26.843  31.913  1.00  0.00     0.034 A 
BRANCH  50  64
ATOM     64  C   UNL A   1      41.752  31.240  34.406  1.00  0.00     0.023 A 
ATOM     65  C   UNL A   1      42.155  32.568  34.174  1.00  0.00     0.031 A 
ATOM     66  C   UNL A   1      41.233  30.926  35.675  1.00  0.00     0.131 A 
ATOM     67  C   UNL A   1      42.130  33.501  35.220  1.00  0.00     0.055 A 
ATOM     68  C   UNL A   1      41.122  31.885  36.684  1.00  0.00     0.041 A 
ATOM     69  F   UNL A   1      40.853  29.673  35.968  1.00  0.00    -0.206 F 
ATOM     70  C   UNL A   1      41.592  33.177  36.467  1.00  0.00     0.022 A 
BRANCH  67  71
ATOM     71  S   UNL A   1      42.986  35.084  34.986  1.00  0.00     0.124 S 
ATOM     72  O   UNL A   1      41.894  36.039  35.166  1.00  0.00    -0.237 OA
ATOM     73  O   UNL A   1      43.993  35.057  36.041  1.00  0.00    -0.237 OA
ATOM     74  O   UNL A   1      43.505  34.996  33.623  1.00  0.00    -0.744 OA
ENDBRANCH  67  71
ENDBRANCH  50  64
BRANCH  51  75
ATOM     75  C   UNL A   1      42.505  24.315  27.202  1.00  0.00     0.023 A 
ATOM     76  C   UNL A   1      41.910  23.053  27.348  1.00  0.00     0.031 A 
ATOM     77  C   UNL A   1      43.258  24.559  26.039  1.00  0.00     0.131 A 
ATOM     78  C   UNL A   1      42.105  22.070  26.366  1.00  0.00     0.055 A 
ATOM     79  C   UNL A   1      43.409  23.594  25.042  1.00  0.00     0.041 A 
ATOM     80  F   UNL A   1      43.853  25.748  25.851  1.00  0.00    -0.206 F 
ATOM     81  C   UNL A   1      42.839  22.337  25.207  1.00  0.00     0.022 A 
BRANCH  78  82
ATOM     82  S   UNL A   1      41.442  20.407  26.660  1.00  0.00     0.124 S 
ATOM     83  O   UNL A   1      42.180  20.000  27.849  1.00  0.00    -0.237 OA
ATOM     84  O   UNL A   1      40.021  20.676  26.847  1.00  0.00    -0.237 OA
ATOM     85  O   UNL A   1      41.782  19.685  25.435  1.00  0.00    -0.744 OA
ENDBRANCH  78  82
ENDBRANCH  51  75
BRANCH  63  86
ATOM     86  C   UNL A   1      46.737  26.374  32.347  1.00  0.00     0.023 A 
ATOM     87  C   UNL A   1      47.915  26.984  31.878  1.00  0.00     0.031 A 
ATOM     88  C   UNL A   1      46.867  25.293  33.238  1.00  0.00     0.131 A 
ATOM     89  C   UNL A   1      49.167  26.478  32.260  1.00  0.00     0.055 A 
ATOM     90  C   UNL A   1      48.114  24.833  33.665  1.00  0.00     0.041 A 
ATOM     91  F   UNL A   1      45.779  24.668  33.716  1.00  0.00    -0.206 F 
ATOM     92  C   UNL A   1      49.274  25.419  33.165  1.00  0.00     0.022 A 
BRANCH  89  93
ATOM     93  S   UNL A   1      50.659  27.167  31.491  1.00  0.00     0.124 S 
ATOM     94  O   UNL A   1      50.103  28.206  30.630  1.00  0.00    -0.237 OA
ATOM     95  O   UNL A   1      51.419  27.634  32.645  1.00  0.00    -0.237 OA
ATOM     96  O   UNL A   1      51.241  26.025  30.788  1.00  0.00    -0.744 OA
ENDBRANCH  89  93
ENDBRANCH  63  86
ENDBRANCH  37  38
ENDBRANCH  30  32
ENDBRANCH  29  30
ENDBRANCH  28  29
ENDBRANCH  27  28
ENDBRANCH   1  27
TORSDOF 20
ENDMDL
MODEL 3
REMARK VINA RESULT:     -11.4      1.837      2.146
REMARK SMILES Cc1noc(C[N@H+]2CCC[C@@H](c3ccc(C(=O)OCCOCCOC(=O)c4ccc(-c5c6nc(c(-c7cc(S(=O)(=O)[O-])ccc7F)c7ccc([nH]7)c(-c7cc(S(=O)(=O)[O-])ccc7F)c7nc(c(-c8cc(S(=O)(=O)[O-])ccc8F)c8ccc5[nH]8)C=C7)C=C6)cc4)cc3)C2)n1
REMARK SMILES IDX 21 1 20 2 19 3 18 4 16 5 17 6 15 7 12 8 13 9 91 10 14 11
REMARK SMILES IDX 90 12 11 13 7 14 8 15 92 16 9 18 10 19 6 20 5 21 1 22 2 23
REMARK SMILES IDX 3 24 93 25 4 26 22 27 23 28 24 29 25 30 26 31 27 32 28 33
REMARK SMILES IDX 89 34 29 35 88 36 30 37 31 38 32 39 82 40 33 41 87 42 81 43
REMARK SMILES IDX 83 44 34 45 86 46 80 47 79 48 35 50 67 51 47 52 66 53 48 54
REMARK SMILES IDX 51 55 65 56 84 57 49 58 50 59 64 61 85 62 52 63 36 64 37 65
REMARK SMILES IDX 45 66 38 67 44 68 46 69 43 70 39 71 40 72 41 73 42 74 68 75
REMARK SMILES IDX 69 76 77 77 70 78 76 79 78 80 75 81 71 82 72 83 73 84 74 85
REMARK SMILES IDX 53 86 54 87 62 88 55 89 61 90 63 91 60 92 56 93 57 94 58 95
REMARK SMILES IDX 59 96
REMARK H PARENT 7 17 83 49 51 60
REMARK Flexibility Score: inf
ROOT
ATOM      1  O   UNL A   1      41.112  21.210  27.107  1.00  0.00    -0.374 OA
ENDROOT
BRANCH   1   2
ATOM      2  C   UNL A   1      40.042  22.132  26.899  1.00  0.00     0.202 C 
BRANCH   2   3
ATOM      3  C   UNL A   1      38.903  21.677  25.981  1.00  0.00     0.261 C 
BRANCH   3   4
ATOM      4  O   UNL A   1      37.870  22.670  25.888  1.00  0.00    -0.460 OA
BRANCH   4   5
ATOM      5  C   UNL A   1      36.689  22.204  25.418  1.00  0.00     0.338 C 
ATOM      6  O   UNL A   1      36.470  21.099  24.944  1.00  0.00    -0.246 OA
BRANCH   5   7
ATOM      7  C   UNL A   1      35.603  23.165  25.710  1.00  0.00     0.060 A 
ATOM      8  C   UNL A   1      33.364  24.808  26.103  1.00  0.00    -0.039 A 
ATOM      9  C   UNL A   1      33.330  23.451  26.467  1.00  0.00     0.005 A 
ATOM     10  C   UNL A   1      34.572  25.352  25.636  1.00  0.00     0.005 A 
ATOM     11  C   UNL A   1      34.432  22.632  26.253  1.00  0.00     0.016 A 
ATOM     12  C   UNL A   1      35.695  24.535  25.448  1.00  0.00     0.016 A 
BRANCH   8  13
ATOM     13  C   UNL A   1      32.070  25.614  26.034  1.00  0.00     0.074 C 
ATOM     14  N   UNL A   1      30.733  26.941  24.305  1.00  0.00    -0.327 N 
ATOM     15  C   UNL A   1      29.574  26.073  24.548  1.00  0.00     0.262 C 
ATOM     16  C   UNL A   1      31.999  26.262  24.628  1.00  0.00     0.270 C 
ATOM     17  H   UNL A   1      30.634  27.742  24.929  1.00  0.00     0.348 HD
ATOM     18  C   UNL A   1      29.553  25.565  25.991  1.00  0.00     0.062 C 
ATOM     19  C   UNL A   1      30.817  24.771  26.315  1.00  0.00     0.020 C 
BRANCH  14  20
ATOM     20  C   UNL A   1      30.758  27.446  22.901  1.00  0.00     0.364 C 
BRANCH  20  21
ATOM     21  C   UNL A   1      29.846  28.601  22.607  1.00  0.00     0.281 A 
ATOM     22  C   UNL A   1      27.759  31.347  23.235  1.00  0.00     0.093 C 
ATOM     23  C   UNL A   1      28.620  30.293  22.667  1.00  0.00     0.169 A 
ATOM     24  N   UNL A   1      29.225  30.401  21.477  1.00  0.00    -0.063 NA
ATOM     25  N   UNL A   1      28.938  29.167  23.375  1.00  0.00    -0.191 NA
ATOM     26  O   UNL A   1      30.046  29.269  21.432  1.00  0.00    -0.333 OA
ENDBRANCH  20  21
ENDBRANCH  14  20
ENDBRANCH   8  13
ENDBRANCH   5   7
ENDBRANCH   4   5
ENDBRANCH   3   4
ENDBRANCH   2   3
ENDBRANCH   1   2
BRANCH   1  27
ATOM     27  C   UNL A   1      42.027  21.014  26.028  1.00  0.00     0.202 C 
BRANCH  27  28
ATOM     28  C   UNL A   1      43.138  22.056  25.846  1.00  0.00     0.261 C 
BRANCH  28  29
ATOM     29  O   UNL A   1      42.709  23.182  25.062  1.00  0.00    -0.460 OA
BRANCH  29  30
ATOM     30  C   UNL A   1      43.493  24.282  25.167  1.00  0.00     0.338 C 
ATOM     31  O   UNL A   1      44.441  24.580  24.451  1.00  0.00    -0.246 OA
BRANCH  30  32
ATOM     32  C   UNL A   1      42.918  25.208  26.160  1.00  0.00     0.060 A 
ATOM     33  C   UNL A   1      43.794  26.075  26.827  1.00  0.00     0.016 A 
ATOM     34  C   UNL A   1      41.557  25.198  26.469  1.00  0.00     0.016 A 
ATOM     35  C   UNL A   1      43.317  26.913  27.833  1.00  0.00     0.010 A 
ATOM     36  C   UNL A   1      41.082  26.032  27.487  1.00  0.00     0.010 A 
ATOM     37  C   UNL A   1      41.964  26.873  28.192  1.00  0.00    -0.014 A 
BRANCH  37  38
ATOM     38  C   UNL A   1      41.498  27.604  29.395  1.00  0.00     0.031 A 
ATOM     39  C   UNL A   1      40.250  28.438  29.303  1.00  0.00     0.074 A 
ATOM     40  C   UNL A   1      42.165  27.511  30.558  1.00  0.00     0.049 A 
ATOM     41  N   UNL A   1      39.688  29.199  30.205  1.00  0.00    -0.248 NA
ATOM     42  C   UNL A   1      39.548  28.409  28.012  1.00  0.00     0.031 C 
ATOM     43  C   UNL A   1      43.352  26.688  30.786  1.00  0.00     0.029 A 
ATOM     44  N   UNL A   1      41.937  28.117  31.768  1.00  0.00    -0.354 N 
ATOM     45  C   UNL A   1      38.564  29.744  29.592  1.00  0.00     0.074 A 
ATOM     46  C   UNL A   1      38.558  29.261  28.226  1.00  0.00     0.031 C 
ATOM     47  C   UNL A   1      43.747  26.839  32.062  1.00  0.00     0.029 A 
ATOM     48  C   UNL A   1      42.872  27.803  32.726  1.00  0.00     0.049 A 
ATOM     49  H   UNL A   1      41.177  28.721  31.934  1.00  0.00     0.167 HD
ATOM     50  C   UNL A   1      37.618  30.560  30.124  1.00  0.00     0.034 A 
ATOM     51  C   UNL A   1      43.014  28.261  33.986  1.00  0.00     0.034 A 
ATOM     52  C   UNL A   1      37.654  31.050  31.480  1.00  0.00     0.049 A 
ATOM     53  C   UNL A   1      42.029  29.276  34.514  1.00  0.00     0.074 A 
ATOM     54  C   UNL A   1      36.746  31.869  32.129  1.00  0.00     0.029 A 
ATOM     55  N   UNL A   1      38.666  30.783  32.396  1.00  0.00    -0.354 N 
ATOM     56  N   UNL A   1      40.968  29.782  33.929  1.00  0.00    -0.248 NA
ATOM     57  C   UNL A   1      42.269  29.784  35.871  1.00  0.00     0.031 C 
ATOM     58  C   UNL A   1      37.249  32.163  33.402  1.00  0.00     0.029 A 
ATOM     59  C   UNL A   1      38.430  31.461  33.583  1.00  0.00     0.049 A 
ATOM     60  H   UNL A   1      39.439  30.198  32.225  1.00  0.00     0.167 HD
ATOM     61  C   UNL A   1      40.395  30.644  34.863  1.00  0.00     0.074 A 
ATOM     62  C   UNL A   1      41.225  30.580  36.048  1.00  0.00     0.031 C 
ATOM     63  C   UNL A   1      39.278  31.410  34.752  1.00  0.00     0.034 A 
BRANCH  50  64
ATOM     64  C   UNL A   1      36.508  31.013  29.202  1.00  0.00     0.023 A 
ATOM     65  C   UNL A   1      35.530  30.121  28.728  1.00  0.00     0.031 A 
ATOM     66  C   UNL A   1      36.467  32.339  28.735  1.00  0.00     0.131 A 
ATOM     67  C   UNL A   1      34.622  30.536  27.743  1.00  0.00     0.055 A 
ATOM     68  C   UNL A   1      35.500  32.771  27.825  1.00  0.00     0.041 A 
ATOM     69  F   UNL A   1      37.386  33.233  29.132  1.00  0.00    -0.206 F 
ATOM     70  C   UNL A   1      34.582  31.862  27.306  1.00  0.00     0.022 A 
BRANCH  67  71
ATOM     71  S   UNL A   1      33.624  29.275  26.902  1.00  0.00     0.124 S 
ATOM     72  O   UNL A   1      33.481  28.265  27.950  1.00  0.00    -0.237 OA
ATOM     73  O   UNL A   1      32.414  30.011  26.554  1.00  0.00    -0.237 OA
ATOM     74  O   UNL A   1      34.459  28.873  25.772  1.00  0.00    -0.744 OA
ENDBRANCH  67  71
ENDBRANCH  50  64
BRANCH  51  75
ATOM     75  C   UNL A   1      44.146  27.791  34.835  1.00  0.00     0.023 A 
ATOM     76  C   UNL A   1      45.380  28.458  34.821  1.00  0.00     0.031 A 
ATOM     77  C   UNL A   1      44.023  26.645  35.640  1.00  0.00     0.131 A 
ATOM     78  C   UNL A   1      46.455  27.954  35.569  1.00  0.00     0.055 A 
ATOM     79  C   UNL A   1      45.081  26.176  36.420  1.00  0.00     0.041 A 
ATOM     80  F   UNL A   1      42.865  25.967  35.686  1.00  0.00    -0.206 F 
ATOM     81  C   UNL A   1      46.309  26.825  36.380  1.00  0.00     0.022 A 
BRANCH  78  82
ATOM     82  S   UNL A   1      48.073  28.758  35.412  1.00  0.00     0.124 S 
ATOM     83  O   UNL A   1      48.430  28.438  34.034  1.00  0.00    -0.237 OA
ATOM     84  O   UNL A   1      47.747  30.152  35.684  1.00  0.00    -0.237 OA
ATOM     85  O   UNL A   1      48.881  28.098  36.436  1.00  0.00    -0.744 OA
ENDBRANCH  78  82
ENDBRANCH  51  75
BRANCH  63  86
ATOM     86  C   UNL A   1      38.875  32.216  35.965  1.00  0.00     0.023 A 
ATOM     87  C   UNL A   1      38.118  31.655  37.010  1.00  0.00     0.031 A 
ATOM     88  C   UNL A   1      39.245  33.568  36.073  1.00  0.00     0.131 A 
ATOM     89  C   UNL A   1      37.715  32.455  38.090  1.00  0.00     0.055 A 
ATOM     90  C   UNL A   1      38.895  34.343  37.179  1.00  0.00     0.041 A 
ATOM     91  F   UNL A   1      39.964  34.159  35.104  1.00  0.00    -0.206 F 
ATOM     92  C   UNL A   1      38.114  33.790  38.190  1.00  0.00     0.022 A 
BRANCH  89  93
ATOM     93  S   UNL A   1      36.585  31.751  39.324  1.00  0.00     0.124 S 
ATOM     94  O   UNL A   1      35.418  32.618  39.194  1.00  0.00    -0.237 OA
ATOM     95  O   UNL A   1      36.418  30.381  38.850  1.00  0.00    -0.237 OA
ATOM     96  O   UNL A   1      37.322  31.886  40.579  1.00  0.00    -0.744 OA
ENDBRANCH  89  93
ENDBRANCH  63  86
ENDBRANCH  37  38
ENDBRANCH  30  32
ENDBRANCH  29  30
ENDBRANCH  28  29
ENDBRANCH  27  28
ENDBRANCH   1  27
TORSDOF 20
ENDMDL
