MODEL 1
REMARK VINA RESULT:     -10.5      0.000      0.000
REMARK SMILES CCN1C[C@@H](C(=O)OCCOCCOC(=O)c2ccc(-c3c4nc(c(-c5cc(S(=O)(=O)[O-])ccc5F)c5ccc([nH]5)c(-c5cc(S(=O)(=O)[O-])ccc5F)c5nc(c(-c6cc(S(=O)(=O)[O-])ccc6F)c6ccc3[nH]6)C=C5)C=C4)cc2)CC1=O
REMARK SMILES IDX 12 1 11 2 10 3 9 4 8 5 6 6 7 7 5 8 3 9 4 10 81 11 80 12
REMARK SMILES IDX 82 13 2 14 1 15 13 16 14 17 15 18 16 19 17 20 18 21 79 22
REMARK SMILES IDX 19 23 78 24 20 25 21 26 22 27 72 28 23 29 77 30 71 31 73 32
REMARK SMILES IDX 24 33 76 34 70 35 69 36 25 38 57 39 37 40 56 41 38 42 41 43
REMARK SMILES IDX 55 44 74 45 39 46 40 47 54 49 75 50 42 51 26 52 27 53 35 54
REMARK SMILES IDX 28 55 34 56 36 57 33 58 29 59 30 60 31 61 32 62 58 63 59 64
REMARK SMILES IDX 67 65 60 66 66 67 68 68 65 69 61 70 62 71 63 72 64 73 43 74
REMARK SMILES IDX 44 75 52 76 45 77 51 78 53 79 50 80 46 81 47 82 48 83 49 84
REMARK H PARENT 73 37 41 48
REMARK Flexibility Score: inf
ROOT
ATOM      1  C   UNL A   1      45.944  21.900  25.037  1.00  0.00     0.202 C 
ENDROOT
BRANCH   1   2
ATOM      2  O   UNL A   1      46.465  20.616  24.694  1.00  0.00    -0.374 OA
BRANCH   2   3
ATOM      3  C   UNL A   1      45.911  19.476  25.351  1.00  0.00     0.202 C 
BRANCH   3   4
ATOM      4  C   UNL A   1      44.486  19.088  24.950  1.00  0.00     0.261 C 
BRANCH   4   5
ATOM      5  O   UNL A   1      43.521  19.699  25.821  1.00  0.00    -0.463 OA
BRANCH   5   6
ATOM      6  C   UNL A   1      42.421  18.959  26.097  1.00  0.00     0.311 C 
ATOM      7  O   UNL A   1      42.319  17.749  25.927  1.00  0.00    -0.252 OA
BRANCH   6   8
ATOM      8  C   UNL A   1      41.291  19.770  26.667  1.00  0.00     0.128 C 
ATOM      9  N   UNL A   1      39.554  21.183  26.064  1.00  0.00    -0.342 N 
ATOM     10  C   UNL A   1      40.294  20.049  25.567  1.00  0.00     0.135 C 
ATOM     11  C   UNL A   1      40.277  21.881  27.021  1.00  0.00     0.223 C 
ATOM     12  C   UNL A   1      41.584  21.156  27.232  1.00  0.00     0.117 C 
ATOM     13  O   UNL A   1      39.960  22.905  27.603  1.00  0.00    -0.275 OA
BRANCH   9  14
ATOM     14  C   UNL A   1      38.289  21.549  25.448  1.00  0.00     0.116 C 
ATOM     15  C   UNL A   1      37.357  20.411  25.081  1.00  0.00     0.027 C 
ENDBRANCH   9  14
ENDBRANCH   6   8
ENDBRANCH   5   6
ENDBRANCH   4   5
ENDBRANCH   3   4
ENDBRANCH   2   3
ENDBRANCH   1   2
BRANCH   1  16
ATOM     16  C   UNL A   1      45.048  22.603  24.008  1.00  0.00     0.261 C 
BRANCH  16  17
ATOM     17  O   UNL A   1      44.151  23.557  24.606  1.00  0.00    -0.460 OA
BRANCH  17  18
ATOM     18  C   UNL A   1      44.747  24.702  25.023  1.00  0.00     0.338 C 
ATOM     19  O   UNL A   1      45.802  25.170  24.612  1.00  0.00    -0.246 OA
BRANCH  18  20
ATOM     20  C   UNL A   1      43.857  25.451  25.928  1.00  0.00     0.060 A 
ATOM     21  C   UNL A   1      44.058  26.834  26.033  1.00  0.00     0.016 A 
ATOM     22  C   UNL A   1      42.907  24.812  26.728  1.00  0.00     0.016 A 
ATOM     23  C   UNL A   1      43.346  27.576  26.972  1.00  0.00     0.010 A 
ATOM     24  C   UNL A   1      42.200  25.558  27.679  1.00  0.00     0.010 A 
ATOM     25  C   UNL A   1      42.441  26.938  27.830  1.00  0.00    -0.014 A 
BRANCH  25  26
ATOM     26  C   UNL A   1      41.870  27.690  28.976  1.00  0.00     0.031 A 
ATOM     27  C   UNL A   1      42.591  27.663  30.298  1.00  0.00     0.074 A 
ATOM     28  C   UNL A   1      40.749  28.420  28.831  1.00  0.00     0.049 A 
ATOM     29  N   UNL A   1      42.264  28.219  31.434  1.00  0.00    -0.248 NA
ATOM     30  C   UNL A   1      43.851  26.904  30.338  1.00  0.00     0.031 C 
ATOM     31  C   UNL A   1      39.993  28.563  27.587  1.00  0.00     0.029 A 
ATOM     32  N   UNL A   1      40.052  29.177  29.737  1.00  0.00    -0.354 N 
ATOM     33  C   UNL A   1      43.272  27.877  32.329  1.00  0.00     0.074 A 
ATOM     34  C   UNL A   1      44.205  27.035  31.608  1.00  0.00     0.031 C 
ATOM     35  C   UNL A   1      38.928  29.352  27.815  1.00  0.00     0.029 A 
ATOM     36  C   UNL A   1      38.905  29.739  29.224  1.00  0.00     0.049 A 
ATOM     37  H   UNL A   1      40.343  29.307  30.669  1.00  0.00     0.167 HD
ATOM     38  C   UNL A   1      43.412  28.237  33.629  1.00  0.00     0.034 A 
ATOM     39  C   UNL A   1      37.937  30.458  29.828  1.00  0.00     0.034 A 
ATOM     40  C   UNL A   1      42.470  29.069  34.338  1.00  0.00     0.049 A 
ATOM     41  C   UNL A   1      38.071  30.775  31.299  1.00  0.00     0.074 A 
ATOM     42  C   UNL A   1      42.523  29.507  35.650  1.00  0.00     0.029 A 
ATOM     43  N   UNL A   1      41.297  29.582  33.797  1.00  0.00    -0.354 N 
ATOM     44  N   UNL A   1      39.034  30.452  32.131  1.00  0.00    -0.248 NA
ATOM     45  C   UNL A   1      36.990  31.560  31.910  1.00  0.00     0.031 C 
ATOM     46  C   UNL A   1      41.350  30.221  35.922  1.00  0.00     0.029 A 
ATOM     47  C   UNL A   1      40.602  30.299  34.759  1.00  0.00     0.049 A 
ATOM     48  H   UNL A   1      41.002  29.452  32.866  1.00  0.00     0.167 HD
ATOM     49  C   UNL A   1      38.689  31.025  33.354  1.00  0.00     0.074 A 
ATOM     50  C   UNL A   1      37.438  31.722  33.145  1.00  0.00     0.031 C 
ATOM     51  C   UNL A   1      39.348  30.983  34.539  1.00  0.00     0.034 A 
BRANCH  38  52
ATOM     52  C   UNL A   1      44.599  27.686  34.381  1.00  0.00     0.023 A 
ATOM     53  C   UNL A   1      44.537  26.468  35.080  1.00  0.00     0.031 A 
ATOM     54  C   UNL A   1      45.809  28.401  34.412  1.00  0.00     0.131 A 
ATOM     55  C   UNL A   1      45.641  26.033  35.829  1.00  0.00     0.055 A 
ATOM     56  C   UNL A   1      46.929  27.927  35.097  1.00  0.00     0.041 A 
ATOM     57  F   UNL A   1      45.921  29.581  33.781  1.00  0.00    -0.206 F 
ATOM     58  C   UNL A   1      46.845  26.742  35.822  1.00  0.00     0.022 A 
BRANCH  55  59
ATOM     59  S   UNL A   1      45.444  24.593  36.914  1.00  0.00     0.124 S 
ATOM     60  O   UNL A   1      45.699  23.491  35.991  1.00  0.00    -0.237 OA
ATOM     61  O   UNL A   1      46.462  24.823  37.932  1.00  0.00    -0.237 OA
ATOM     62  O   UNL A   1      44.062  24.700  37.378  1.00  0.00    -0.744 OA
ENDBRANCH  55  59
ENDBRANCH  38  52
BRANCH  39  63
ATOM     63  C   UNL A   1      36.729  30.890  29.068  1.00  0.00     0.023 A 
ATOM     64  C   UNL A   1      35.826  29.955  28.540  1.00  0.00     0.031 A 
ATOM     65  C   UNL A   1      36.496  32.252  28.802  1.00  0.00     0.131 A 
ATOM     66  C   UNL A   1      34.762  30.388  27.731  1.00  0.00     0.055 A 
ATOM     67  C   UNL A   1      35.407  32.682  28.043  1.00  0.00     0.041 A 
ATOM     68  F   UNL A   1      37.330  33.190  29.280  1.00  0.00    -0.206 F 
ATOM     69  C   UNL A   1      34.540  31.745  27.490  1.00  0.00     0.022 A 
BRANCH  66  70
ATOM     70  S   UNL A   1      33.726  29.141  26.916  1.00  0.00     0.124 S 
ATOM     71  O   UNL A   1      33.195  29.890  25.783  1.00  0.00    -0.237 OA
ATOM     72  O   UNL A   1      34.700  28.101  26.599  1.00  0.00    -0.237 OA
ATOM     73  O   UNL A   1      32.751  28.786  27.944  1.00  0.00    -0.744 OA
ENDBRANCH  66  70
ENDBRANCH  39  63
BRANCH  51  74
ATOM     74  C   UNL A   1      38.749  31.758  35.689  1.00  0.00     0.023 A 
ATOM     75  C   UNL A   1      38.135  31.116  36.777  1.00  0.00     0.031 A 
ATOM     76  C   UNL A   1      38.787  33.165  35.687  1.00  0.00     0.131 A 
ATOM     77  C   UNL A   1      37.534  31.879  37.791  1.00  0.00     0.055 A 
ATOM     78  C   UNL A   1      38.243  33.917  36.728  1.00  0.00     0.041 A 
ATOM     79  F   UNL A   1      39.361  33.832  34.672  1.00  0.00    -0.206 F 
ATOM     80  C   UNL A   1      37.599  33.275  37.782  1.00  0.00     0.022 A 
BRANCH  77  81
ATOM     81  S   UNL A   1      36.586  31.024  39.080  1.00  0.00     0.124 S 
ATOM     82  O   UNL A   1      35.405  31.874  39.203  1.00  0.00    -0.237 OA
ATOM     83  O   UNL A   1      36.366  29.710  38.487  1.00  0.00    -0.237 OA
ATOM     84  O   UNL A   1      37.483  31.040  40.234  1.00  0.00    -0.744 OA
ENDBRANCH  77  81
ENDBRANCH  51  74
ENDBRANCH  25  26
ENDBRANCH  18  20
ENDBRANCH  17  18
ENDBRANCH  16  17
ENDBRANCH   1  16
TORSDOF 18
ENDMDL
MODEL 2
REMARK VINA RESULT:     -10.0      3.398     11.473
REMARK SMILES CCN1C[C@@H](C(=O)OCCOCCOC(=O)c2ccc(-c3c4nc(c(-c5cc(S(=O)(=O)[O-])ccc5F)c5ccc([nH]5)c(-c5cc(S(=O)(=O)[O-])ccc5F)c5nc(c(-c6cc(S(=O)(=O)[O-])ccc6F)c6ccc3[nH]6)C=C5)C=C4)cc2)CC1=O
REMARK SMILES IDX 12 1 11 2 10 3 9 4 8 5 6 6 7 7 5 8 3 9 4 10 81 11 80 12
REMARK SMILES IDX 82 13 2 14 1 15 13 16 14 17 15 18 16 19 17 20 18 21 79 22
REMARK SMILES IDX 19 23 78 24 20 25 21 26 22 27 72 28 23 29 77 30 71 31 73 32
REMARK SMILES IDX 24 33 76 34 70 35 69 36 25 38 57 39 37 40 56 41 38 42 41 43
REMARK SMILES IDX 55 44 74 45 39 46 40 47 54 49 75 50 42 51 26 52 27 53 35 54
REMARK SMILES IDX 28 55 34 56 36 57 33 58 29 59 30 60 31 61 32 62 58 63 59 64
REMARK SMILES IDX 67 65 60 66 66 67 68 68 65 69 61 70 62 71 63 72 64 73 43 74
REMARK SMILES IDX 44 75 52 76 45 77 51 78 53 79 50 80 46 81 47 82 48 83 49 84
REMARK H PARENT 73 37 41 48
REMARK Flexibility Score: inf
ROOT
ATOM      1  C   UNL A   1      32.866  34.448  28.165  1.00  0.00     0.202 C 
ENDROOT
BRANCH   1   2
ATOM      2  O   UNL A   1      32.471  35.648  28.829  1.00  0.00    -0.374 OA
BRANCH   2   3
ATOM      3  C   UNL A   1      33.496  36.450  29.417  1.00  0.00     0.202 C 
BRANCH   3   4
ATOM      4  C   UNL A   1      33.168  37.079  30.774  1.00  0.00     0.261 C 
BRANCH   4   5
ATOM      5  O   UNL A   1      33.160  36.087  31.813  1.00  0.00    -0.463 OA
BRANCH   5   6
ATOM      6  C   UNL A   1      33.843  36.404  32.938  1.00  0.00     0.311 C 
ATOM      7  O   UNL A   1      33.551  37.305  33.716  1.00  0.00    -0.252 OA
BRANCH   6   8
ATOM      8  C   UNL A   1      35.033  35.516  33.176  1.00  0.00     0.128 C 
ATOM      9  N   UNL A   1      35.890  33.417  32.687  1.00  0.00    -0.342 N 
ATOM     10  C   UNL A   1      35.058  34.444  32.111  1.00  0.00     0.135 C 
ATOM     11  C   UNL A   1      35.936  33.517  34.071  1.00  0.00     0.223 C 
ATOM     12  C   UNL A   1      35.117  34.720  34.474  1.00  0.00     0.117 C 
ATOM     13  O   UNL A   1      36.509  32.784  34.858  1.00  0.00    -0.275 OA
BRANCH   9  14
ATOM     14  C   UNL A   1      36.429  32.363  31.843  1.00  0.00     0.116 C 
ATOM     15  C   UNL A   1      36.025  30.943  32.190  1.00  0.00     0.027 C 
ENDBRANCH   9  14
ENDBRANCH   6   8
ENDBRANCH   5   6
ENDBRANCH   4   5
ENDBRANCH   3   4
ENDBRANCH   2   3
ENDBRANCH   1   2
BRANCH   1  16
ATOM     16  C   UNL A   1      34.340  34.033  28.260  1.00  0.00     0.261 C 
BRANCH  16  17
ATOM     17  O   UNL A   1      34.533  32.813  28.999  1.00  0.00    -0.460 OA
BRANCH  17  18
ATOM     18  C   UNL A   1      34.587  31.696  28.231  1.00  0.00     0.338 C 
ATOM     19  O   UNL A   1      33.767  31.343  27.393  1.00  0.00    -0.246 OA
BRANCH  18  20
ATOM     20  C   UNL A   1      35.889  31.021  28.388  1.00  0.00     0.060 A 
ATOM     21  C   UNL A   1      35.876  29.678  28.786  1.00  0.00     0.016 A 
ATOM     22  C   UNL A   1      37.098  31.703  28.239  1.00  0.00     0.016 A 
ATOM     23  C   UNL A   1      37.069  29.025  29.087  1.00  0.00     0.010 A 
ATOM     24  C   UNL A   1      38.296  31.048  28.552  1.00  0.00     0.010 A 
ATOM     25  C   UNL A   1      38.284  29.716  29.011  1.00  0.00    -0.014 A 
BRANCH  25  26
ATOM     26  C   UNL A   1      39.515  29.089  29.557  1.00  0.00     0.031 A 
ATOM     27  C   UNL A   1      40.153  29.684  30.784  1.00  0.00     0.074 A 
ATOM     28  C   UNL A   1      40.031  27.981  28.995  1.00  0.00     0.049 A 
ATOM     29  N   UNL A   1      41.239  29.321  31.415  1.00  0.00    -0.248 NA
ATOM     30  C   UNL A   1      39.471  30.845  31.377  1.00  0.00     0.031 C 
ATOM     31  C   UNL A   1      39.473  27.286  27.836  1.00  0.00     0.029 A 
ATOM     32  N   UNL A   1      41.143  27.247  29.322  1.00  0.00    -0.354 N 
ATOM     33  C   UNL A   1      41.376  30.209  32.477  1.00  0.00     0.074 A 
ATOM     34  C   UNL A   1      40.278  31.149  32.382  1.00  0.00     0.031 C 
ATOM     35  C   UNL A   1      40.253  26.231  27.542  1.00  0.00     0.029 A 
ATOM     36  C   UNL A   1      41.385  26.197  28.466  1.00  0.00     0.049 A 
ATOM     37  H   UNL A   1      41.715  27.452  30.097  1.00  0.00     0.167 HD
ATOM     38  C   UNL A   1      42.325  30.235  33.445  1.00  0.00     0.034 A 
ATOM     39  C   UNL A   1      42.415  25.328  28.418  1.00  0.00     0.034 A 
ATOM     40  C   UNL A   1      43.419  29.296  33.523  1.00  0.00     0.049 A 
ATOM     41  C   UNL A   1      43.507  25.429  29.457  1.00  0.00     0.074 A 
ATOM     42  C   UNL A   1      44.426  29.222  34.469  1.00  0.00     0.029 A 
ATOM     43  N   UNL A   1      43.657  28.275  32.611  1.00  0.00    -0.354 N 
ATOM     44  N   UNL A   1      43.620  26.268  30.461  1.00  0.00    -0.248 NA
ATOM     45  C   UNL A   1      44.607  24.459  29.361  1.00  0.00     0.031 C 
ATOM     46  C   UNL A   1      45.311  28.205  34.091  1.00  0.00     0.029 A 
ATOM     47  C   UNL A   1      44.814  27.591  32.953  1.00  0.00     0.049 A 
ATOM     48  H   UNL A   1      43.088  28.069  31.834  1.00  0.00     0.167 HD
ATOM     49  C   UNL A   1      44.785  25.904  31.133  1.00  0.00     0.074 A 
ATOM     50  C   UNL A   1      45.329  24.763  30.428  1.00  0.00     0.031 C 
ATOM     51  C   UNL A   1      45.351  26.458  32.235  1.00  0.00     0.034 A 
BRANCH  38  52
ATOM     52  C   UNL A   1      42.250  31.344  34.465  1.00  0.00     0.023 A 
ATOM     53  C   UNL A   1      41.261  31.371  35.463  1.00  0.00     0.031 A 
ATOM     54  C   UNL A   1      43.174  32.404  34.426  1.00  0.00     0.131 A 
ATOM     55  C   UNL A   1      41.181  32.463  36.342  1.00  0.00     0.055 A 
ATOM     56  C   UNL A   1      43.136  33.449  35.350  1.00  0.00     0.041 A 
ATOM     57  F   UNL A   1      44.127  32.444  33.482  1.00  0.00    -0.206 F 
ATOM     58  C   UNL A   1      42.128  33.490  36.308  1.00  0.00     0.022 A 
BRANCH  55  59
ATOM     59  S   UNL A   1      39.751  32.585  37.450  1.00  0.00     0.124 S 
ATOM     60  O   UNL A   1      39.171  33.862  37.044  1.00  0.00    -0.237 OA
ATOM     61  O   UNL A   1      38.982  31.395  37.106  1.00  0.00    -0.237 OA
ATOM     62  O   UNL A   1      40.349  32.578  38.784  1.00  0.00    -0.744 OA
ENDBRANCH  55  59
ENDBRANCH  38  52
BRANCH  39  63
ATOM     63  C   UNL A   1      42.501  24.315  27.327  1.00  0.00     0.023 A 
ATOM     64  C   UNL A   1      41.892  23.057  27.449  1.00  0.00     0.031 A 
ATOM     65  C   UNL A   1      43.258  24.570  26.168  1.00  0.00     0.131 A 
ATOM     66  C   UNL A   1      42.090  22.084  26.455  1.00  0.00     0.055 A 
ATOM     67  C   UNL A   1      43.405  23.619  25.157  1.00  0.00     0.041 A 
ATOM     68  F   UNL A   1      43.865  25.756  26.000  1.00  0.00    -0.206 F 
ATOM     69  C   UNL A   1      42.831  22.361  25.306  1.00  0.00     0.022 A 
BRANCH  66  70
ATOM     70  S   UNL A   1      41.440  20.412  26.735  1.00  0.00     0.124 S 
ATOM     71  O   UNL A   1      42.300  19.936  27.812  1.00  0.00    -0.237 OA
ATOM     72  O   UNL A   1      40.052  20.684  27.093  1.00  0.00    -0.237 OA
ATOM     73  O   UNL A   1      41.632  19.754  25.445  1.00  0.00    -0.744 OA
ENDBRANCH  66  70
ENDBRANCH  39  63
BRANCH  51  74
ATOM     74  C   UNL A   1      46.599  25.800  32.774  1.00  0.00     0.023 A 
ATOM     75  C   UNL A   1      46.542  24.711  33.660  1.00  0.00     0.031 A 
ATOM     76  C   UNL A   1      47.868  26.280  32.397  1.00  0.00     0.131 A 
ATOM     77  C   UNL A   1      47.728  24.174  34.184  1.00  0.00     0.055 A 
ATOM     78  C   UNL A   1      49.044  25.702  32.874  1.00  0.00     0.041 A 
ATOM     79  F   UNL A   1      47.982  27.318  31.553  1.00  0.00    -0.206 F 
ATOM     80  C   UNL A   1      48.979  24.651  33.784  1.00  0.00     0.022 A 
BRANCH  77  81
ATOM     81  S   UNL A   1      47.614  22.898  35.470  1.00  0.00     0.124 S 
ATOM     82  O   UNL A   1      47.692  21.669  34.686  1.00  0.00    -0.237 OA
ATOM     83  O   UNL A   1      48.771  23.195  36.308  1.00  0.00    -0.237 OA
ATOM     84  O   UNL A   1      46.317  23.153  36.094  1.00  0.00    -0.744 OA
ENDBRANCH  77  81
ENDBRANCH  51  74
ENDBRANCH  25  26
ENDBRANCH  18  20
ENDBRANCH  17  18
ENDBRANCH  16  17
ENDBRANCH   1  16
TORSDOF 18
ENDMDL
MODEL 3
REMARK VINA RESULT:      -9.9      2.860      9.448
REMARK SMILES CCN1C[C@@H](C(=O)OCCOCCOC(=O)c2ccc(-c3c4nc(c(-c5cc(S(=O)(=O)[O-])ccc5F)c5ccc([nH]5)c(-c5cc(S(=O)(=O)[O-])ccc5F)c5nc(c(-c6cc(S(=O)(=O)[O-])ccc6F)c6ccc3[nH]6)C=C5)C=C4)cc2)CC1=O
REMARK SMILES IDX 12 1 11 2 10 3 9 4 8 5 6 6 7 7 5 8 3 9 4 10 81 11 80 12
REMARK SMILES IDX 82 13 2 14 1 15 13 16 14 17 15 18 16 19 17 20 18 21 79 22
REMARK SMILES IDX 19 23 78 24 20 25 21 26 22 27 72 28 23 29 77 30 71 31 73 32
REMARK SMILES IDX 24 33 76 34 70 35 69 36 25 38 57 39 37 40 56 41 38 42 41 43
REMARK SMILES IDX 55 44 74 45 39 46 40 47 54 49 75 50 42 51 26 52 27 53 35 54
REMARK SMILES IDX 28 55 34 56 36 57 33 58 29 59 30 60 31 61 32 62 58 63 59 64
REMARK SMILES IDX 67 65 60 66 66 67 68 68 65 69 61 70 62 71 63 72 64 73 43 74
REMARK SMILES IDX 44 75 52 76 45 77 51 78 53 79 50 80 46 81 47 82 48 83 49 84
REMARK H PARENT 73 37 41 48
REMARK Flexibility Score: inf
ROOT
ATOM      1  C   UNL A   1      32.279  29.458  25.381  1.00  0.00     0.202 C 
ENDROOT
BRANCH   1   2
ATOM      2  O   UNL A   1      31.866  29.295  24.025  1.00  0.00    -0.374 OA
BRANCH   2   3
ATOM      3  C   UNL A   1      30.973  28.221  23.726  1.00  0.00     0.202 C 
BRANCH   3   4
ATOM      4  C   UNL A   1      31.458  27.206  22.689  1.00  0.00     0.261 C 
BRANCH   4   5
ATOM      5  O   UNL A   1      32.852  26.910  22.869  1.00  0.00    -0.463 OA
BRANCH   5   6
ATOM      6  C   UNL A   1      33.334  25.870  22.149  1.00  0.00     0.311 C 
ATOM      7  O   UNL A   1      33.279  25.764  20.929  1.00  0.00    -0.252 OA
BRANCH   6   8
ATOM      8  C   UNL A   1      33.984  24.814  23.000  1.00  0.00     0.128 C 
ATOM      9  N   UNL A   1      33.554  22.825  24.112  1.00  0.00    -0.342 N 
ATOM     10  C   UNL A   1      33.143  23.560  22.941  1.00  0.00     0.135 C 
ATOM     11  C   UNL A   1      34.119  23.661  25.065  1.00  0.00     0.223 C 
ATOM     12  C   UNL A   1      34.140  25.060  24.497  1.00  0.00     0.117 C 
ATOM     13  O   UNL A   1      34.525  23.367  26.176  1.00  0.00    -0.275 OA
BRANCH   9  14
ATOM     14  C   UNL A   1      33.218  21.416  24.237  1.00  0.00     0.116 C 
ATOM     15  C   UNL A   1      32.176  21.056  25.278  1.00  0.00     0.027 C 
ENDBRANCH   9  14
ENDBRANCH   6   8
ENDBRANCH   5   6
ENDBRANCH   4   5
ENDBRANCH   3   4
ENDBRANCH   2   3
ENDBRANCH   1   2
BRANCH   1  16
ATOM     16  C   UNL A   1      31.911  30.772  26.084  1.00  0.00     0.261 C 
BRANCH  16  17
ATOM     17  O   UNL A   1      32.493  30.887  27.396  1.00  0.00    -0.460 OA
BRANCH  17  18
ATOM     18  C   UNL A   1      33.331  31.943  27.547  1.00  0.00     0.338 C 
ATOM     19  O   UNL A   1      33.027  33.129  27.515  1.00  0.00    -0.246 OA
BRANCH  18  20
ATOM     20  C   UNL A   1      34.671  31.487  27.958  1.00  0.00     0.060 A 
ATOM     21  C   UNL A   1      34.863  30.108  28.117  1.00  0.00     0.016 A 
ATOM     22  C   UNL A   1      35.694  32.384  28.272  1.00  0.00     0.016 A 
ATOM     23  C   UNL A   1      36.061  29.623  28.637  1.00  0.00     0.010 A 
ATOM     24  C   UNL A   1      36.893  31.896  28.804  1.00  0.00     0.010 A 
ATOM     25  C   UNL A   1      37.070  30.515  29.022  1.00  0.00    -0.014 A 
BRANCH  25  26
ATOM     26  C   UNL A   1      38.236  30.009  29.790  1.00  0.00     0.031 A 
ATOM     27  C   UNL A   1      38.438  30.481  31.205  1.00  0.00     0.074 A 
ATOM     28  C   UNL A   1      39.078  29.109  29.249  1.00  0.00     0.049 A 
ATOM     29  N   UNL A   1      39.395  30.195  32.048  1.00  0.00    -0.248 NA
ATOM     30  C   UNL A   1      37.420  31.400  31.738  1.00  0.00     0.031 C 
ATOM     31  C   UNL A   1      38.956  28.541  27.907  1.00  0.00     0.029 A 
ATOM     32  N   UNL A   1      40.204  28.517  29.763  1.00  0.00    -0.354 N 
ATOM     33  C   UNL A   1      39.101  30.900  33.211  1.00  0.00     0.074 A 
ATOM     34  C   UNL A   1      37.893  31.654  32.949  1.00  0.00     0.031 C 
ATOM     35  C   UNL A   1      39.976  27.690  27.700  1.00  0.00     0.029 A 
ATOM     36  C   UNL A   1      40.843  27.680  28.877  1.00  0.00     0.049 A 
ATOM     37  H   UNL A   1      40.526  28.676  30.680  1.00  0.00     0.167 HD
ATOM     38  C   UNL A   1      39.772  30.911  34.389  1.00  0.00     0.034 A 
ATOM     39  C   UNL A   1      42.006  27.008  28.992  1.00  0.00     0.034 A 
ATOM     40  C   UNL A   1      40.980  30.160  34.633  1.00  0.00     0.049 A 
ATOM     41  C   UNL A   1      42.781  27.103  30.286  1.00  0.00     0.074 A 
ATOM     42  C   UNL A   1      41.731  30.088  35.794  1.00  0.00     0.029 A 
ATOM     43  N   UNL A   1      41.622  29.360  33.696  1.00  0.00    -0.354 N 
ATOM     44  N   UNL A   1      42.487  27.768  31.380  1.00  0.00    -0.248 NA
ATOM     45  C   UNL A   1      44.042  26.352  30.360  1.00  0.00     0.031 C 
ATOM     46  C   UNL A   1      42.862  29.305  35.537  1.00  0.00     0.029 A 
ATOM     47  C   UNL A   1      42.778  28.821  34.242  1.00  0.00     0.049 A 
ATOM     48  H   UNL A   1      41.304  29.200  32.778  1.00  0.00     0.167 HD
ATOM     49  C   UNL A   1      43.511  27.485  32.283  1.00  0.00     0.074 A 
ATOM     50  C   UNL A   1      44.419  26.582  31.609  1.00  0.00     0.031 C 
ATOM     51  C   UNL A   1      43.681  27.927  33.555  1.00  0.00     0.034 A 
BRANCH  38  52
ATOM     52  C   UNL A   1      39.242  31.805  35.483  1.00  0.00     0.023 A 
ATOM     53  C   UNL A   1      38.580  31.289  36.610  1.00  0.00     0.031 A 
ATOM     54  C   UNL A   1      39.386  33.201  35.387  1.00  0.00     0.131 A 
ATOM     55  C   UNL A   1      38.035  32.162  37.565  1.00  0.00     0.055 A 
ATOM     56  C   UNL A   1      38.907  34.061  36.377  1.00  0.00     0.041 A 
ATOM     57  F   UNL A   1      39.989  33.753  34.323  1.00  0.00    -0.206 F 
ATOM     58  C   UNL A   1      38.216  33.544  37.468  1.00  0.00     0.022 A 
BRANCH  55  59
ATOM     59  S   UNL A   1      36.978  31.476  38.869  1.00  0.00     0.124 S 
ATOM     60  O   UNL A   1      36.750  30.118  38.381  1.00  0.00    -0.237 OA
ATOM     61  O   UNL A   1      37.820  31.596  40.054  1.00  0.00    -0.237 OA
ATOM     62  O   UNL A   1      35.802  32.343  38.849  1.00  0.00    -0.744 OA
ENDBRANCH  55  59
ENDBRANCH  38  52
BRANCH  39  63
ATOM     63  C   UNL A   1      42.544  26.222  27.845  1.00  0.00     0.023 A 
ATOM     64  C   UNL A   1      42.083  24.926  27.568  1.00  0.00     0.031 A 
ATOM     65  C   UNL A   1      43.582  26.736  27.045  1.00  0.00     0.131 A 
ATOM     66  C   UNL A   1      42.692  24.168  26.554  1.00  0.00     0.055 A 
ATOM     67  C   UNL A   1      44.146  25.999  26.003  1.00  0.00     0.041 A 
ATOM     68  F   UNL A   1      44.064  27.969  27.268  1.00  0.00    -0.206 F 
ATOM     69  C   UNL A   1      43.711  24.701  25.762  1.00  0.00     0.022 A 
BRANCH  66  70
ATOM     70  S   UNL A   1      42.196  22.434  26.347  1.00  0.00     0.124 S 
ATOM     71  O   UNL A   1      40.749  22.518  26.511  1.00  0.00    -0.237 OA
ATOM     72  O   UNL A   1      42.674  22.143  25.000  1.00  0.00    -0.237 OA
ATOM     73  O   UNL A   1      42.908  21.747  27.422  1.00  0.00    -0.744 OA
ENDBRANCH  66  70
ENDBRANCH  39  63
BRANCH  51  74
ATOM     74  C   UNL A   1      44.873  27.395  34.315  1.00  0.00     0.023 A 
ATOM     75  C   UNL A   1      44.787  26.249  35.124  1.00  0.00     0.031 A 
ATOM     76  C   UNL A   1      46.113  28.054  34.233  1.00  0.00     0.131 A 
ATOM     77  C   UNL A   1      45.904  25.830  35.863  1.00  0.00     0.055 A 
ATOM     78  C   UNL A   1      47.237  27.597  34.922  1.00  0.00     0.041 A 
ATOM     79  F   UNL A   1      46.253  29.155  33.476  1.00  0.00    -0.206 F 
ATOM     80  C   UNL A   1      47.132  26.486  35.754  1.00  0.00     0.022 A 
BRANCH  77  81
ATOM     81  S   UNL A   1      45.707  24.465  37.042  1.00  0.00     0.124 S 
ATOM     82  O   UNL A   1      44.865  23.536  36.295  1.00  0.00    -0.237 OA
ATOM     83  O   UNL A   1      47.086  24.040  37.261  1.00  0.00    -0.237 OA
ATOM     84  O   UNL A   1      45.065  25.095  38.194  1.00  0.00    -0.744 OA
ENDBRANCH  77  81
ENDBRANCH  51  74
ENDBRANCH  25  26
ENDBRANCH  18  20
ENDBRANCH  17  18
ENDBRANCH  16  17
ENDBRANCH   1  16
TORSDOF 18
ENDMDL
