MODEL 1
REMARK VINA RESULT:     -10.3      0.000      0.000
REMARK SMILES O=C(OCCOCCOC(=O)C(F)(F)[C@H](O)c1ccccc1C1CC1)c1ccc(-c2c3nc(c(-c4cc(S(=O)(=O)[O-])ccc4F)c4ccc([nH]4)c(-c4cc(S(=O)(=O)[O-])ccc4F)c4nc(c(-c5cc(S(=O)(=O)[O-])ccc5F)c5ccc2[nH]5)C=C4)C=C3)cc1
REMARK SMILES IDX 6 1 5 2 4 3 3 4 2 5 1 6 26 7 27 8 88 9 28 10 87 11 29 12
REMARK SMILES IDX 30 13 31 14 81 15 32 16 86 17 80 18 82 19 33 20 85 21 79 22
REMARK SMILES IDX 78 23 34 25 66 26 46 27 65 28 47 29 50 30 64 31 83 32 48 33
REMARK SMILES IDX 49 34 63 36 84 37 51 38 35 39 36 40 44 41 37 42 43 43 45 44
REMARK SMILES IDX 42 45 38 46 39 47 40 48 41 49 67 50 68 51 76 52 69 53 75 54
REMARK SMILES IDX 77 55 74 56 70 57 71 58 72 59 73 60 52 61 53 62 61 63 54 64
REMARK SMILES IDX 60 65 62 66 59 67 55 68 56 69 57 70 58 71 7 72 8 73 9 74
REMARK SMILES IDX 10 75 11 76 12 77 13 78 14 79 15 80 17 81 18 82 22 83 19 84
REMARK SMILES IDX 21 85 20 86 23 87 24 88 25 89 16 90
REMARK H PARENT 82 24 50 35 16 91
REMARK Flexibility Score: inf
ROOT
ATOM      1  O   UNL A   1      35.767  21.744  25.809  1.00  0.00    -0.374 OA
ENDROOT
BRANCH   1   2
ATOM      2  C   UNL A   1      36.145  20.577  25.083  1.00  0.00     0.202 C 
BRANCH   2   3
ATOM      3  C   UNL A   1      37.642  20.248  24.979  1.00  0.00     0.261 C 
BRANCH   3   4
ATOM      4  O   UNL A   1      38.455  21.396  25.268  1.00  0.00    -0.460 OA
BRANCH   4   5
ATOM      5  C   UNL A   1      39.355  21.517  26.275  1.00  0.00     0.338 C 
ATOM      6  O   UNL A   1      39.781  20.501  26.820  1.00  0.00    -0.246 OA
BRANCH   5   7
ATOM      7  C   UNL A   1      39.832  22.843  26.765  1.00  0.00     0.060 A 
ATOM      8  C   UNL A   1      41.016  23.020  27.477  1.00  0.00     0.016 A 
ATOM      9  C   UNL A   1      39.097  23.985  26.417  1.00  0.00     0.016 A 
ATOM     10  C   UNL A   1      41.434  24.257  27.910  1.00  0.00     0.010 A 
ATOM     11  C   UNL A   1      39.553  25.259  26.782  1.00  0.00     0.010 A 
ATOM     12  C   UNL A   1      40.728  25.389  27.532  1.00  0.00    -0.014 A 
BRANCH  12  13
ATOM     13  C   UNL A   1      41.260  26.672  28.011  1.00  0.00     0.031 A 
ATOM     14  C   UNL A   1      42.674  27.019  27.682  1.00  0.00     0.074 A 
ATOM     15  C   UNL A   1      40.404  27.562  28.549  1.00  0.00     0.049 A 
ATOM     16  N   UNL A   1      43.359  28.077  28.010  1.00  0.00    -0.248 NA
ATOM     17  C   UNL A   1      43.413  26.049  26.855  1.00  0.00     0.031 C 
ATOM     18  C   UNL A   1      38.964  27.335  28.744  1.00  0.00     0.029 A 
ATOM     19  N   UNL A   1      40.592  28.846  28.978  1.00  0.00    -0.354 N 
ATOM     20  C   UNL A   1      44.616  27.895  27.452  1.00  0.00     0.074 A 
ATOM     21  C   UNL A   1      44.606  26.617  26.775  1.00  0.00     0.031 C 
ATOM     22  C   UNL A   1      38.401  28.453  29.224  1.00  0.00     0.029 A 
ATOM     23  C   UNL A   1      39.447  29.437  29.465  1.00  0.00     0.049 A 
ATOM     24  H   UNL A   1      41.463  29.304  28.944  1.00  0.00     0.167 HD
ATOM     25  C   UNL A   1      45.678  28.731  27.514  1.00  0.00     0.034 A 
ATOM     26  C   UNL A   1      39.287  30.622  30.085  1.00  0.00     0.034 A 
ATOM     27  C   UNL A   1      45.632  29.988  28.216  1.00  0.00     0.049 A 
ATOM     28  C   UNL A   1      40.523  31.468  30.261  1.00  0.00     0.074 A 
ATOM     29  C   UNL A   1      46.654  30.888  28.450  1.00  0.00     0.029 A 
ATOM     30  N   UNL A   1      44.486  30.522  28.798  1.00  0.00    -0.354 N 
ATOM     31  N   UNL A   1      41.744  31.244  29.825  1.00  0.00    -0.248 NA
ATOM     32  C   UNL A   1      40.367  32.715  31.014  1.00  0.00     0.031 C 
ATOM     33  C   UNL A   1      46.139  31.932  29.228  1.00  0.00     0.029 A 
ATOM     34  C   UNL A   1      44.779  31.728  29.411  1.00  0.00     0.049 A 
ATOM     35  H   UNL A   1      43.596  30.103  28.776  1.00  0.00     0.167 HD
ATOM     36  C   UNL A   1      42.500  32.335  30.238  1.00  0.00     0.074 A 
ATOM     37  C   UNL A   1      41.584  33.229  30.921  1.00  0.00     0.031 C 
ATOM     38  C   UNL A   1      43.828  32.581  30.085  1.00  0.00     0.034 A 
BRANCH  25  39
ATOM     39  C   UNL A   1      46.966  28.249  26.900  1.00  0.00     0.023 A 
ATOM     40  C   UNL A   1      47.174  28.253  25.508  1.00  0.00     0.031 A 
ATOM     41  C   UNL A   1      47.971  27.701  27.716  1.00  0.00     0.131 A 
ATOM     42  C   UNL A   1      48.327  27.656  24.974  1.00  0.00     0.055 A 
ATOM     43  C   UNL A   1      49.150  27.179  27.181  1.00  0.00     0.041 A 
ATOM     44  F   UNL A   1      47.809  27.634  29.046  1.00  0.00    -0.206 F 
ATOM     45  C   UNL A   1      49.327  27.142  25.802  1.00  0.00     0.022 A 
BRANCH  42  46
ATOM     46  S   UNL A   1      48.434  27.429  23.176  1.00  0.00     0.124 S 
ATOM     47  O   UNL A   1      49.738  28.019  22.883  1.00  0.00    -0.237 OA
ATOM     48  O   UNL A   1      48.342  25.981  23.033  1.00  0.00    -0.237 OA
ATOM     49  O   UNL A   1      47.288  28.180  22.666  1.00  0.00    -0.744 OA
ENDBRANCH  42  46
ENDBRANCH  25  39
BRANCH  26  50
ATOM     50  C   UNL A   1      37.971  31.025  30.667  1.00  0.00     0.023 A 
ATOM     51  C   UNL A   1      36.997  31.678  29.894  1.00  0.00     0.031 A 
ATOM     52  C   UNL A   1      37.700  30.849  32.039  1.00  0.00     0.131 A 
ATOM     53  C   UNL A   1      35.840  32.189  30.507  1.00  0.00     0.055 A 
ATOM     54  C   UNL A   1      36.515  31.291  32.628  1.00  0.00     0.041 A 
ATOM     55  F   UNL A   1      38.594  30.243  32.838  1.00  0.00    -0.206 F 
ATOM     56  C   UNL A   1      35.585  31.986  31.865  1.00  0.00     0.022 A 
BRANCH  53  57
ATOM     57  S   UNL A   1      34.738  33.251  29.532  1.00  0.00     0.124 S 
ATOM     58  O   UNL A   1      34.151  32.294  28.602  1.00  0.00    -0.237 OA
ATOM     59  O   UNL A   1      33.845  33.781  30.557  1.00  0.00    -0.237 OA
ATOM     60  O   UNL A   1      35.648  34.225  28.933  1.00  0.00    -0.744 OA
ENDBRANCH  53  57
ENDBRANCH  26  50
BRANCH  38  61
ATOM     61  C   UNL A   1      44.330  33.888  30.640  1.00  0.00     0.023 A 
ATOM     62  C   UNL A   1      44.274  35.073  29.889  1.00  0.00     0.031 A 
ATOM     63  C   UNL A   1      44.897  33.938  31.925  1.00  0.00     0.131 A 
ATOM     64  C   UNL A   1      44.846  36.245  30.398  1.00  0.00     0.055 A 
ATOM     65  C   UNL A   1      45.394  35.125  32.458  1.00  0.00     0.041 A 
ATOM     66  F   UNL A   1      44.975  32.831  32.682  1.00  0.00    -0.206 F 
ATOM     67  C   UNL A   1      45.387  36.284  31.686  1.00  0.00     0.022 A 
BRANCH  64  68
ATOM     68  S   UNL A   1      44.985  37.683  29.305  1.00  0.00     0.124 S 
ATOM     69  O   UNL A   1      46.430  37.879  29.246  1.00  0.00    -0.237 OA
ATOM     70  O   UNL A   1      44.358  37.203  28.078  1.00  0.00    -0.237 OA
ATOM     71  O   UNL A   1      44.244  38.724  30.014  1.00  0.00    -0.744 OA
ENDBRANCH  64  68
ENDBRANCH  38  61
ENDBRANCH  12  13
ENDBRANCH   5   7
ENDBRANCH   4   5
ENDBRANCH   3   4
ENDBRANCH   2   3
ENDBRANCH   1   2
BRANCH   1  72
ATOM     72  C   UNL A   1      34.584  22.411  25.361  1.00  0.00     0.202 C 
BRANCH  72  73
ATOM     73  C   UNL A   1      34.995  23.550  24.432  1.00  0.00     0.261 C 
BRANCH  73  74
ATOM     74  O   UNL A   1      33.885  24.461  24.374  1.00  0.00    -0.459 OA
BRANCH  74  75
ATOM     75  C   UNL A   1      33.128  24.384  23.238  1.00  0.00     0.380 C 
ATOM     76  O   UNL A   1      33.345  23.624  22.294  1.00  0.00    -0.245 OA
BRANCH  75  77
ATOM     77  C   UNL A   1      31.989  25.394  23.291  1.00  0.00     0.372 C 
ATOM     78  F   UNL A   1      30.912  24.964  22.556  1.00  0.00    -0.190 F 
ATOM     79  F   UNL A   1      31.538  25.492  24.574  1.00  0.00    -0.190 F 
BRANCH  77  80
ATOM     80  C   UNL A   1      32.460  26.781  22.725  1.00  0.00     0.227 C 
BRANCH  80  81
ATOM     81  C   UNL A   1      32.486  27.890  23.778  1.00  0.00    -0.009 A 
ATOM     82  C   UNL A   1      33.714  28.004  24.486  1.00  0.00     0.007 A 
ATOM     83  C   UNL A   1      31.434  28.794  24.098  1.00  0.00    -0.039 A 
ATOM     84  C   UNL A   1      33.893  28.865  25.560  1.00  0.00     0.000 A 
ATOM     85  C   UNL A   1      31.657  29.635  25.227  1.00  0.00     0.004 A 
ATOM     86  C   UNL A   1      32.846  29.668  25.953  1.00  0.00     0.000 A 
BRANCH  83  87
ATOM     87  C   UNL A   1      30.101  29.081  23.404  1.00  0.00     0.019 C 
ATOM     88  C   UNL A   1      29.370  30.376  23.229  1.00  0.00     0.009 C 
ATOM     89  C   UNL A   1      30.097  29.765  22.063  1.00  0.00     0.009 C 
ENDBRANCH  83  87
ENDBRANCH  80  81
BRANCH  80  90
ATOM     90  O   UNL A   1      33.778  26.730  22.152  1.00  0.00    -0.381 OA
ATOM     91  H   UNL A   1      34.398  26.365  22.801  1.00  0.00     0.211 HD
ENDBRANCH  80  90
ENDBRANCH  77  80
ENDBRANCH  75  77
ENDBRANCH  74  75
ENDBRANCH  73  74
ENDBRANCH  72  73
ENDBRANCH   1  72
TORSDOF 21
ENDMDL
MODEL 2
REMARK VINA RESULT:     -10.2      1.711      2.489
REMARK SMILES O=C(OCCOCCOC(=O)C(F)(F)[C@H](O)c1ccccc1C1CC1)c1ccc(-c2c3nc(c(-c4cc(S(=O)(=O)[O-])ccc4F)c4ccc([nH]4)c(-c4cc(S(=O)(=O)[O-])ccc4F)c4nc(c(-c5cc(S(=O)(=O)[O-])ccc5F)c5ccc2[nH]5)C=C4)C=C3)cc1
REMARK SMILES IDX 6 1 5 2 4 3 3 4 2 5 1 6 26 7 27 8 88 9 28 10 87 11 29 12
REMARK SMILES IDX 30 13 31 14 81 15 32 16 86 17 80 18 82 19 33 20 85 21 79 22
REMARK SMILES IDX 78 23 34 25 66 26 46 27 65 28 47 29 50 30 64 31 83 32 48 33
REMARK SMILES IDX 49 34 63 36 84 37 51 38 35 39 36 40 44 41 37 42 43 43 45 44
REMARK SMILES IDX 42 45 38 46 39 47 40 48 41 49 67 50 68 51 76 52 69 53 75 54
REMARK SMILES IDX 77 55 74 56 70 57 71 58 72 59 73 60 52 61 53 62 61 63 54 64
REMARK SMILES IDX 60 65 62 66 59 67 55 68 56 69 57 70 58 71 7 72 8 73 9 74
REMARK SMILES IDX 10 75 11 76 12 77 13 78 14 79 15 80 17 81 18 82 22 83 19 84
REMARK SMILES IDX 21 85 20 86 23 87 24 88 25 89 16 90
REMARK H PARENT 82 24 50 35 16 91
REMARK Flexibility Score: inf
ROOT
ATOM      1  O   UNL A   1      36.013  21.741  24.737  1.00  0.00    -0.374 OA
ENDROOT
BRANCH   1   2
ATOM      2  C   UNL A   1      37.373  21.373  24.522  1.00  0.00     0.202 C 
BRANCH   2   3
ATOM      3  C   UNL A   1      38.030  20.421  25.533  1.00  0.00     0.261 C 
BRANCH   3   4
ATOM      4  O   UNL A   1      39.453  20.605  25.581  1.00  0.00    -0.460 OA
BRANCH   4   5
ATOM      5  C   UNL A   1      40.201  20.849  26.687  1.00  0.00     0.338 C 
ATOM      6  O   UNL A   1      40.481  19.916  27.436  1.00  0.00    -0.246 OA
BRANCH   5   7
ATOM      7  C   UNL A   1      40.677  22.217  27.043  1.00  0.00     0.060 A 
ATOM      8  C   UNL A   1      40.223  23.376  26.419  1.00  0.00     0.016 A 
ATOM      9  C   UNL A   1      41.563  22.355  28.121  1.00  0.00     0.016 A 
ATOM     10  C   UNL A   1      40.676  24.626  26.774  1.00  0.00     0.010 A 
ATOM     11  C   UNL A   1      41.969  23.626  28.546  1.00  0.00     0.010 A 
ATOM     12  C   UNL A   1      41.520  24.764  27.865  1.00  0.00    -0.014 A 
BRANCH  12  13
ATOM     13  C   UNL A   1      41.930  26.136  28.195  1.00  0.00     0.031 A 
ATOM     14  C   UNL A   1      43.279  26.597  27.750  1.00  0.00     0.074 A 
ATOM     15  C   UNL A   1      41.010  26.978  28.702  1.00  0.00     0.049 A 
ATOM     16  N   UNL A   1      43.858  27.748  27.940  1.00  0.00    -0.248 NA
ATOM     17  C   UNL A   1      44.077  25.636  26.970  1.00  0.00     0.031 C 
ATOM     18  C   UNL A   1      39.616  26.620  29.004  1.00  0.00     0.029 A 
ATOM     19  N   UNL A   1      41.076  28.310  29.003  1.00  0.00    -0.354 N 
ATOM     20  C   UNL A   1      45.098  27.647  27.324  1.00  0.00     0.074 A 
ATOM     21  C   UNL A   1      45.194  26.316  26.766  1.00  0.00     0.031 C 
ATOM     22  C   UNL A   1      38.958  27.713  29.416  1.00  0.00     0.029 A 
ATOM     23  C   UNL A   1      39.900  28.820  29.504  1.00  0.00     0.049 A 
ATOM     24  H   UNL A   1      41.888  28.852  28.874  1.00  0.00     0.167 HD
ATOM     25  C   UNL A   1      46.062  28.592  27.246  1.00  0.00     0.034 A 
ATOM     26  C   UNL A   1      39.641  30.035  30.024  1.00  0.00     0.034 A 
ATOM     27  C   UNL A   1      45.914  29.899  27.835  1.00  0.00     0.049 A 
ATOM     28  C   UNL A   1      40.783  31.020  30.048  1.00  0.00     0.074 A 
ATOM     29  C   UNL A   1      46.840  30.920  27.925  1.00  0.00     0.029 A 
ATOM     30  N   UNL A   1      44.747  30.362  28.435  1.00  0.00    -0.354 N 
ATOM     31  N   UNL A   1      41.998  30.886  29.559  1.00  0.00    -0.248 NA
ATOM     32  C   UNL A   1      40.530  32.310  30.695  1.00  0.00     0.031 C 
ATOM     33  C   UNL A   1      46.254  31.973  28.636  1.00  0.00     0.029 A 
ATOM     34  C   UNL A   1      44.935  31.645  28.919  1.00  0.00     0.049 A 
ATOM     35  H   UNL A   1      43.908  29.851  28.506  1.00  0.00     0.167 HD
ATOM     36  C   UNL A   1      42.648  32.085  29.827  1.00  0.00     0.074 A 
ATOM     37  C   UNL A   1      41.675  32.939  30.482  1.00  0.00     0.031 C 
ATOM     38  C   UNL A   1      43.932  32.454  29.572  1.00  0.00     0.034 A 
BRANCH  25  39
ATOM     39  C   UNL A   1      47.363  28.192  26.600  1.00  0.00     0.023 A 
ATOM     40  C   UNL A   1      47.497  28.085  25.204  1.00  0.00     0.031 A 
ATOM     41  C   UNL A   1      48.462  27.834  27.399  1.00  0.00     0.131 A 
ATOM     42  C   UNL A   1      48.680  27.564  24.655  1.00  0.00     0.055 A 
ATOM     43  C   UNL A   1      49.663  27.391  26.842  1.00  0.00     0.041 A 
ATOM     44  F   UNL A   1      48.377  27.878  28.737  1.00  0.00    -0.206 F 
ATOM     45  C   UNL A   1      49.773  27.241  25.463  1.00  0.00     0.022 A 
BRANCH  42  46
ATOM     46  S   UNL A   1      48.720  27.178  22.882  1.00  0.00     0.124 S 
ATOM     47  O   UNL A   1      47.798  28.176  22.344  1.00  0.00    -0.237 OA
ATOM     48  O   UNL A   1      50.127  27.365  22.548  1.00  0.00    -0.237 OA
ATOM     49  O   UNL A   1      48.241  25.798  22.820  1.00  0.00    -0.744 OA
ENDBRANCH  42  46
ENDBRANCH  25  39
BRANCH  26  50
ATOM     50  C   UNL A   1      38.320  30.352  30.647  1.00  0.00     0.023 A 
ATOM     51  C   UNL A   1      37.331  31.062  29.947  1.00  0.00     0.031 A 
ATOM     52  C   UNL A   1      38.058  30.030  31.994  1.00  0.00     0.131 A 
ATOM     53  C   UNL A   1      36.167  31.485  30.612  1.00  0.00     0.055 A 
ATOM     54  C   UNL A   1      36.867  30.387  32.628  1.00  0.00     0.041 A 
ATOM     55  F   UNL A   1      38.966  29.363  32.724  1.00  0.00    -0.206 F 
ATOM     56  C   UNL A   1      35.921  31.138  31.942  1.00  0.00     0.022 A 
BRANCH  53  57
ATOM     57  S   UNL A   1      35.041  32.621  29.753  1.00  0.00     0.124 S 
ATOM     58  O   UNL A   1      35.978  33.539  29.115  1.00  0.00    -0.237 OA
ATOM     59  O   UNL A   1      34.322  31.716  28.864  1.00  0.00    -0.237 OA
ATOM     60  O   UNL A   1      34.246  33.194  30.837  1.00  0.00    -0.744 OA
ENDBRANCH  53  57
ENDBRANCH  26  50
BRANCH  38  61
ATOM     61  C   UNL A   1      44.314  33.853  29.975  1.00  0.00     0.023 A 
ATOM     62  C   UNL A   1      44.850  34.130  31.244  1.00  0.00     0.031 A 
ATOM     63  C   UNL A   1      44.111  34.924  29.087  1.00  0.00     0.131 A 
ATOM     64  C   UNL A   1      45.094  35.456  31.619  1.00  0.00     0.055 A 
ATOM     65  C   UNL A   1      44.430  36.234  29.440  1.00  0.00     0.041 A 
ATOM     66  F   UNL A   1      43.600  34.711  27.864  1.00  0.00    -0.206 F 
ATOM     67  C   UNL A   1      44.907  36.508  30.718  1.00  0.00     0.022 A 
BRANCH  64  68
ATOM     68  S   UNL A   1      45.539  35.797  33.343  1.00  0.00     0.124 S 
ATOM     69  O   UNL A   1      45.128  34.565  34.009  1.00  0.00    -0.237 OA
ATOM     70  O   UNL A   1      46.978  36.023  33.254  1.00  0.00    -0.237 OA
ATOM     71  O   UNL A   1      44.745  36.978  33.673  1.00  0.00    -0.744 OA
ENDBRANCH  64  68
ENDBRANCH  38  61
ENDBRANCH  12  13
ENDBRANCH   5   7
ENDBRANCH   4   5
ENDBRANCH   3   4
ENDBRANCH   2   3
ENDBRANCH   1   2
BRANCH   1  72
ATOM     72  C   UNL A   1      35.260  20.892  25.606  1.00  0.00     0.202 C 
BRANCH  72  73
ATOM     73  C   UNL A   1      33.775  21.144  25.360  1.00  0.00     0.261 C 
BRANCH  73  74
ATOM     74  O   UNL A   1      33.632  22.544  25.073  1.00  0.00    -0.459 OA
BRANCH  74  75
ATOM     75  C   UNL A   1      33.290  23.326  26.143  1.00  0.00     0.380 C 
ATOM     76  O   UNL A   1      33.118  22.916  27.291  1.00  0.00    -0.245 OA
BRANCH  75  77
ATOM     77  C   UNL A   1      33.125  24.776  25.708  1.00  0.00     0.372 C 
ATOM     78  F   UNL A   1      34.229  25.521  26.042  1.00  0.00    -0.190 F 
ATOM     79  F   UNL A   1      33.049  24.830  24.347  1.00  0.00    -0.190 F 
BRANCH  77  80
ATOM     80  C   UNL A   1      31.864  25.414  26.394  1.00  0.00     0.227 C 
BRANCH  80  81
ATOM     81  C   UNL A   1      31.117  26.401  25.494  1.00  0.00    -0.009 A 
ATOM     82  C   UNL A   1      30.034  25.835  24.768  1.00  0.00     0.007 A 
ATOM     83  C   UNL A   1      31.392  27.787  25.330  1.00  0.00    -0.039 A 
ATOM     84  C   UNL A   1      29.314  26.537  23.811  1.00  0.00     0.000 A 
ATOM     85  C   UNL A   1      30.647  28.454  24.314  1.00  0.00     0.004 A 
ATOM     86  C   UNL A   1      29.641  27.851  23.561  1.00  0.00     0.000 A 
BRANCH  83  87
ATOM     87  C   UNL A   1      32.317  28.734  26.098  1.00  0.00     0.019 C 
ATOM     88  C   UNL A   1      33.402  28.426  27.083  1.00  0.00     0.009 C 
ATOM     89  C   UNL A   1      33.760  28.855  25.686  1.00  0.00     0.009 C 
ENDBRANCH  83  87
ENDBRANCH  80  81
BRANCH  80  90
ATOM     90  O   UNL A   1      30.900  24.430  26.810  1.00  0.00    -0.381 OA
ATOM     91  H   UNL A   1      30.339  24.190  26.058  1.00  0.00     0.211 HD
ENDBRANCH  80  90
ENDBRANCH  77  80
ENDBRANCH  75  77
ENDBRANCH  74  75
ENDBRANCH  73  74
ENDBRANCH  72  73
ENDBRANCH   1  72
TORSDOF 21
ENDMDL
MODEL 3
REMARK VINA RESULT:     -10.2      6.085     12.912
REMARK SMILES O=C(OCCOCCOC(=O)C(F)(F)[C@H](O)c1ccccc1C1CC1)c1ccc(-c2c3nc(c(-c4cc(S(=O)(=O)[O-])ccc4F)c4ccc([nH]4)c(-c4cc(S(=O)(=O)[O-])ccc4F)c4nc(c(-c5cc(S(=O)(=O)[O-])ccc5F)c5ccc2[nH]5)C=C4)C=C3)cc1
REMARK SMILES IDX 6 1 5 2 4 3 3 4 2 5 1 6 26 7 27 8 88 9 28 10 87 11 29 12
REMARK SMILES IDX 30 13 31 14 81 15 32 16 86 17 80 18 82 19 33 20 85 21 79 22
REMARK SMILES IDX 78 23 34 25 66 26 46 27 65 28 47 29 50 30 64 31 83 32 48 33
REMARK SMILES IDX 49 34 63 36 84 37 51 38 35 39 36 40 44 41 37 42 43 43 45 44
REMARK SMILES IDX 42 45 38 46 39 47 40 48 41 49 67 50 68 51 76 52 69 53 75 54
REMARK SMILES IDX 77 55 74 56 70 57 71 58 72 59 73 60 52 61 53 62 61 63 54 64
REMARK SMILES IDX 60 65 62 66 59 67 55 68 56 69 57 70 58 71 7 72 8 73 9 74
REMARK SMILES IDX 10 75 11 76 12 77 13 78 14 79 15 80 17 81 18 82 22 83 19 84
REMARK SMILES IDX 21 85 20 86 23 87 24 88 25 89 16 90
REMARK H PARENT 82 24 50 35 16 91
REMARK Flexibility Score: inf
ROOT
ATOM      1  O   UNL A   1      46.683  39.460  26.316  1.00  0.00    -0.374 OA
ENDROOT
BRANCH   1   2
ATOM      2  C   UNL A   1      45.651  39.746  27.257  1.00  0.00     0.202 C 
BRANCH   2   3
ATOM      3  C   UNL A   1      45.489  38.801  28.457  1.00  0.00     0.261 C 
BRANCH   3   4
ATOM      4  O   UNL A   1      46.339  37.650  28.340  1.00  0.00    -0.460 OA
BRANCH   4   5
ATOM      5  C   UNL A   1      46.442  36.626  29.223  1.00  0.00     0.338 C 
ATOM      6  O   UNL A   1      47.051  36.803  30.275  1.00  0.00    -0.246 OA
BRANCH   5   7
ATOM      7  C   UNL A   1      45.860  35.278  28.954  1.00  0.00     0.060 A 
ATOM      8  C   UNL A   1      45.962  34.206  29.836  1.00  0.00     0.016 A 
ATOM      9  C   UNL A   1      45.096  35.103  27.791  1.00  0.00     0.016 A 
ATOM     10  C   UNL A   1      45.410  32.976  29.564  1.00  0.00     0.010 A 
ATOM     11  C   UNL A   1      44.460  33.880  27.540  1.00  0.00     0.010 A 
ATOM     12  C   UNL A   1      44.621  32.815  28.435  1.00  0.00    -0.014 A 
BRANCH  12  13
ATOM     13  C   UNL A   1      44.044  31.479  28.235  1.00  0.00     0.031 A 
ATOM     14  C   UNL A   1      44.850  30.463  27.497  1.00  0.00     0.074 A 
ATOM     15  C   UNL A   1      42.910  31.164  28.891  1.00  0.00     0.049 A 
ATOM     16  N   UNL A   1      44.543  29.235  27.188  1.00  0.00    -0.248 NA
ATOM     17  C   UNL A   1      46.194  30.881  27.061  1.00  0.00     0.031 C 
ATOM     18  C   UNL A   1      42.162  32.077  29.768  1.00  0.00     0.029 A 
ATOM     19  N   UNL A   1      42.215  29.990  28.976  1.00  0.00    -0.354 N 
ATOM     20  C   UNL A   1      45.642  28.737  26.502  1.00  0.00     0.074 A 
ATOM     21  C   UNL A   1      46.620  29.800  26.427  1.00  0.00     0.031 C 
ATOM     22  C   UNL A   1      41.135  31.416  30.322  1.00  0.00     0.029 A 
ATOM     23  C   UNL A   1      41.090  30.071  29.766  1.00  0.00     0.049 A 
ATOM     24  H   UNL A   1      42.492  29.165  28.515  1.00  0.00     0.167 HD
ATOM     25  C   UNL A   1      45.801  27.499  25.982  1.00  0.00     0.034 A 
ATOM     26  C   UNL A   1      40.112  29.168  29.966  1.00  0.00     0.034 A 
ATOM     27  C   UNL A   1      44.784  26.483  26.077  1.00  0.00     0.049 A 
ATOM     28  C   UNL A   1      40.254  27.845  29.257  1.00  0.00     0.074 A 
ATOM     29  C   UNL A   1      44.762  25.223  25.513  1.00  0.00     0.029 A 
ATOM     30  N   UNL A   1      43.599  26.623  26.794  1.00  0.00    -0.354 N 
ATOM     31  N   UNL A   1      41.250  27.411  28.514  1.00  0.00    -0.248 NA
ATOM     32  C   UNL A   1      39.147  26.896  29.400  1.00  0.00     0.031 C 
ATOM     33  C   UNL A   1      43.537  24.627  25.836  1.00  0.00     0.029 A 
ATOM     34  C   UNL A   1      42.828  25.481  26.670  1.00  0.00     0.049 A 
ATOM     35  H   UNL A   1      43.346  27.419  27.315  1.00  0.00     0.167 HD
ATOM     36  C   UNL A   1      40.895  26.127  28.116  1.00  0.00     0.074 A 
ATOM     37  C   UNL A   1      39.613  25.849  28.736  1.00  0.00     0.031 C 
ATOM     38  C   UNL A   1      41.550  25.255  27.305  1.00  0.00     0.034 A 
BRANCH  25  39
ATOM     39  C   UNL A   1      47.061  27.243  25.197  1.00  0.00     0.023 A 
ATOM     40  C   UNL A   1      47.231  27.722  23.886  1.00  0.00     0.031 A 
ATOM     41  C   UNL A   1      48.075  26.436  25.742  1.00  0.00     0.131 A 
ATOM     42  C   UNL A   1      48.355  27.332  23.141  1.00  0.00     0.055 A 
ATOM     43  C   UNL A   1      49.227  26.116  25.022  1.00  0.00     0.041 A 
ATOM     44  F   UNL A   1      47.948  25.918  26.973  1.00  0.00    -0.206 F 
ATOM     45  C   UNL A   1      49.366  26.553  23.708  1.00  0.00     0.022 A 
BRANCH  42  46
ATOM     46  S   UNL A   1      48.408  27.735  21.372  1.00  0.00     0.124 S 
ATOM     47  O   UNL A   1      48.828  26.461  20.793  1.00  0.00    -0.237 OA
ATOM     48  O   UNL A   1      47.034  28.138  21.096  1.00  0.00    -0.237 OA
ATOM     49  O   UNL A   1      49.400  28.806  21.293  1.00  0.00    -0.744 OA
ENDBRANCH  42  46
ENDBRANCH  25  39
BRANCH  26  50
ATOM     50  C   UNL A   1      38.892  29.504  30.762  1.00  0.00     0.023 A 
ATOM     51  C   UNL A   1      37.899  30.360  30.256  1.00  0.00     0.031 A 
ATOM     52  C   UNL A   1      38.742  29.047  32.087  1.00  0.00     0.131 A 
ATOM     53  C   UNL A   1      36.848  30.785  31.087  1.00  0.00     0.055 A 
ATOM     54  C   UNL A   1      37.655  29.412  32.883  1.00  0.00     0.041 A 
ATOM     55  F   UNL A   1      39.660  28.236  32.636  1.00  0.00    -0.206 F 
ATOM     56  C   UNL A   1      36.711  30.304  32.391  1.00  0.00     0.022 A 
BRANCH  53  57
ATOM     57  S   UNL A   1      35.740  32.090  30.486  1.00  0.00     0.124 S 
ATOM     58  O   UNL A   1      34.832  32.250  31.615  1.00  0.00    -0.237 OA
ATOM     59  O   UNL A   1      36.670  33.189  30.248  1.00  0.00    -0.237 OA
ATOM     60  O   UNL A   1      35.147  31.504  29.285  1.00  0.00    -0.744 OA
ENDBRANCH  53  57
ENDBRANCH  26  50
BRANCH  38  61
ATOM     61  C   UNL A   1      40.890  23.919  27.094  1.00  0.00     0.023 A 
ATOM     62  C   UNL A   1      39.752  23.783  26.282  1.00  0.00     0.031 A 
ATOM     63  C   UNL A   1      41.391  22.774  27.739  1.00  0.00     0.131 A 
ATOM     64  C   UNL A   1      39.105  22.544  26.196  1.00  0.00     0.055 A 
ATOM     65  C   UNL A   1      40.789  21.527  27.585  1.00  0.00     0.041 A 
ATOM     66  F   UNL A   1      42.476  22.852  28.527  1.00  0.00    -0.206 F 
ATOM     67  C   UNL A   1      39.628  21.411  26.825  1.00  0.00     0.022 A 
BRANCH  64  68
ATOM     68  S   UNL A   1      37.504  22.464  25.352  1.00  0.00     0.124 S 
ATOM     69  O   UNL A   1      37.642  21.248  24.557  1.00  0.00    -0.237 OA
ATOM     70  O   UNL A   1      36.566  22.391  26.469  1.00  0.00    -0.237 OA
ATOM     71  O   UNL A   1      37.459  23.707  24.586  1.00  0.00    -0.744 OA
ENDBRANCH  64  68
ENDBRANCH  38  61
ENDBRANCH  12  13
ENDBRANCH   5   7
ENDBRANCH   4   5
ENDBRANCH   3   4
ENDBRANCH   2   3
ENDBRANCH   1   2
BRANCH   1  72
ATOM     72  C   UNL A   1      46.693  40.256  25.129  1.00  0.00     0.202 C 
BRANCH  72  73
ATOM     73  C   UNL A   1      45.619  41.333  25.260  1.00  0.00     0.261 C 
BRANCH  73  74
ATOM     74  O   UNL A   1      45.316  41.784  23.930  1.00  0.00    -0.459 OA
BRANCH  74  75
ATOM     75  C   UNL A   1      44.330  42.728  23.846  1.00  0.00     0.380 C 
ATOM     76  O   UNL A   1      43.472  42.931  24.705  1.00  0.00    -0.245 OA
BRANCH  75  77
ATOM     77  C   UNL A   1      44.426  43.478  22.525  1.00  0.00     0.372 C 
ATOM     78  F   UNL A   1      43.749  44.671  22.582  1.00  0.00    -0.190 F 
ATOM     79  F   UNL A   1      45.728  43.811  22.293  1.00  0.00    -0.190 F 
BRANCH  77  80
ATOM     80  C   UNL A   1      43.823  42.616  21.359  1.00  0.00     0.227 C 
BRANCH  80  81
ATOM     81  C   UNL A   1      43.135  43.452  20.278  1.00  0.00    -0.009 A 
ATOM     82  C   UNL A   1      41.730  43.254  20.182  1.00  0.00     0.007 A 
ATOM     83  C   UNL A   1      43.749  44.384  19.396  1.00  0.00    -0.039 A 
ATOM     84  C   UNL A   1      40.950  43.827  19.187  1.00  0.00     0.000 A 
ATOM     85  C   UNL A   1      42.912  44.920  18.374  1.00  0.00     0.004 A 
ATOM     86  C   UNL A   1      41.550  44.645  18.257  1.00  0.00     0.000 A 
BRANCH  83  87
ATOM     87  C   UNL A   1      45.159  44.981  19.374  1.00  0.00     0.019 C 
ATOM     88  C   UNL A   1      45.724  46.073  18.521  1.00  0.00     0.009 C 
ATOM     89  C   UNL A   1      45.394  46.346  19.963  1.00  0.00     0.009 C 
ENDBRANCH  83  87
ENDBRANCH  80  81
BRANCH  80  90
ATOM     90  O   UNL A   1      44.812  41.815  20.689  1.00  0.00    -0.381 OA
ATOM     91  H   UNL A   1      44.571  41.720  19.755  1.00  0.00     0.211 HD
ENDBRANCH  80  90
ENDBRANCH  77  80
ENDBRANCH  75  77
ENDBRANCH  74  75
ENDBRANCH  73  74
ENDBRANCH  72  73
ENDBRANCH   1  72
TORSDOF 21
ENDMDL
