MODEL 1
REMARK VINA RESULT:     -10.1      0.000      0.000
REMARK SMILES CCc1cccc2c3c([nH]c12)[C@](CC)(CC(=O)OCCOCCOC(=O)c1ccc(-c2c4nc(c(-c5cc(S(=O)(=O)[O-])ccc5F)c5ccc([nH]5)c(-c5cc(S(=O)(=O)[O-])ccc5F)c5nc(c(-c6cc(S(=O)(=O)[O-])ccc6F)c6ccc2[nH]6)C=C5)C=C4)cc1)OCC3
REMARK SMILES IDX 22 1 21 2 20 3 19 4 18 5 16 6 17 7 15 8 12 9 3 10 4 11 11 12
REMARK SMILES IDX 5 13 7 14 10 15 6 16 8 17 9 18 92 20 91 21 90 22 2 23 1 24
REMARK SMILES IDX 13 25 14 26 23 27 24 28 25 29 26 30 27 31 28 32 89 33 29 34
REMARK SMILES IDX 88 35 30 36 31 37 32 38 82 39 33 40 87 41 81 42 83 43 34 44
REMARK SMILES IDX 86 45 80 46 79 47 35 49 67 50 47 51 66 52 48 53 51 54 65 55
REMARK SMILES IDX 84 56 49 57 50 58 64 60 85 61 52 62 36 63 37 64 45 65 38 66
REMARK SMILES IDX 44 67 46 68 43 69 39 70 40 71 41 72 42 73 68 74 69 75 77 76
REMARK SMILES IDX 70 77 76 78 78 79 75 80 71 81 72 82 73 83 74 84 53 85 54 86
REMARK SMILES IDX 62 87 55 88 61 89 63 90 60 91 56 92 57 93 58 94 59 95
REMARK H PARENT 10 19 83 48 51 59
REMARK Flexibility Score: inf
ROOT
ATOM      1  C   UNL A   1      42.410  20.386  25.842  1.00  0.00     0.202 C 
ENDROOT
BRANCH   1   2
ATOM      2  O   UNL A   1      42.959  19.112  25.510  1.00  0.00    -0.374 OA
BRANCH   2   3
ATOM      3  C   UNL A   1      44.150  19.092  24.731  1.00  0.00     0.202 C 
BRANCH   3   4
ATOM      4  C   UNL A   1      45.322  19.984  25.166  1.00  0.00     0.261 C 
BRANCH   4   5
ATOM      5  O   UNL A   1      45.328  21.336  24.647  1.00  0.00    -0.463 OA
BRANCH   5   6
ATOM      6  C   UNL A   1      45.612  22.290  25.561  1.00  0.00     0.309 C 
ATOM      7  O   UNL A   1      45.327  22.192  26.756  1.00  0.00    -0.252 OA
BRANCH   6   8
ATOM      8  C   UNL A   1      46.149  23.604  25.040  1.00  0.00     0.164 C 
BRANCH   8   9
ATOM      9  C   UNL A   1      45.747  25.046  25.404  1.00  0.00     0.118 C 
ATOM     10  C   UNL A   1      45.589  25.539  30.440  1.00  0.00    -0.024 A 
ATOM     11  C   UNL A   1      46.418  26.231  31.347  1.00  0.00     0.006 A 
ATOM     12  C   UNL A   1      45.907  25.688  29.074  1.00  0.00     0.049 A 
ATOM     13  C   UNL A   1      47.422  27.095  30.917  1.00  0.00     0.001 A 
ATOM     14  C   UNL A   1      46.859  26.604  28.615  1.00  0.00     0.003 A 
ATOM     15  N   UNL A   1      45.401  25.047  27.956  1.00  0.00    -0.356 N 
ATOM     16  C   UNL A   1      47.611  27.337  29.554  1.00  0.00     0.010 A 
ATOM     17  C   UNL A   1      46.819  26.557  27.197  1.00  0.00    -0.014 A 
ATOM     18  C   UNL A   1      46.020  25.498  26.819  1.00  0.00     0.052 A 
ATOM     19  H   UNL A   1      44.694  24.362  27.976  1.00  0.00     0.166 HD
ATOM     20  C   UNL A   1      47.465  27.411  26.172  1.00  0.00     0.066 C 
ATOM     21  C   UNL A   1      47.542  26.624  24.858  1.00  0.00     0.166 C 
ATOM     22  O   UNL A   1      46.297  26.025  24.489  1.00  0.00    -0.368 OA
BRANCH  10  23
ATOM     23  C   UNL A   1      44.399  24.768  30.953  1.00  0.00     0.034 C 
ATOM     24  C   UNL A   1      44.659  23.997  32.234  1.00  0.00     0.009 C 
ENDBRANCH  10  23
BRANCH   9  25
ATOM     25  C   UNL A   1      44.200  25.168  25.161  1.00  0.00     0.039 C 
ATOM     26  C   UNL A   1      43.638  26.582  25.296  1.00  0.00     0.007 C 
ENDBRANCH   9  25
ENDBRANCH   8   9
ENDBRANCH   6   8
ENDBRANCH   5   6
ENDBRANCH   4   5
ENDBRANCH   3   4
ENDBRANCH   2   3
ENDBRANCH   1   2
BRANCH   1  27
ATOM     27  C   UNL A   1      41.799  20.541  27.240  1.00  0.00     0.261 C 
BRANCH  27  28
ATOM     28  O   UNL A   1      41.669  21.924  27.596  1.00  0.00    -0.460 OA
BRANCH  28  29
ATOM     29  C   UNL A   1      40.584  22.549  27.050  1.00  0.00     0.338 C 
ATOM     30  O   UNL A   1      39.523  22.067  26.761  1.00  0.00    -0.246 OA
BRANCH  29  31
ATOM     31  C   UNL A   1      40.865  23.986  27.257  1.00  0.00     0.060 A 
ATOM     32  C   UNL A   1      41.995  24.398  27.962  1.00  0.00     0.016 A 
ATOM     33  C   UNL A   1      39.793  24.856  27.031  1.00  0.00     0.016 A 
ATOM     34  C   UNL A   1      41.981  25.634  28.588  1.00  0.00     0.010 A 
ATOM     35  C   UNL A   1      39.782  26.096  27.656  1.00  0.00     0.010 A 
ATOM     36  C   UNL A   1      40.846  26.453  28.488  1.00  0.00    -0.014 A 
BRANCH  36  37
ATOM     37  C   UNL A   1      40.897  27.750  29.159  1.00  0.00     0.031 A 
ATOM     38  C   UNL A   1      41.859  28.696  28.537  1.00  0.00     0.074 A 
ATOM     39  C   UNL A   1      40.076  28.153  30.148  1.00  0.00     0.049 A 
ATOM     40  N   UNL A   1      42.910  29.244  29.054  1.00  0.00    -0.248 NA
ATOM     41  C   UNL A   1      41.692  28.934  27.096  1.00  0.00     0.031 C 
ATOM     42  C   UNL A   1      38.865  27.485  30.623  1.00  0.00     0.029 A 
ATOM     43  N   UNL A   1      40.084  29.324  30.852  1.00  0.00    -0.354 N 
ATOM     44  C   UNL A   1      43.432  30.056  28.047  1.00  0.00     0.074 A 
ATOM     45  C   UNL A   1      42.768  29.667  26.830  1.00  0.00     0.031 C 
ATOM     46  C   UNL A   1      38.142  28.352  31.365  1.00  0.00     0.029 A 
ATOM     47  C   UNL A   1      38.888  29.591  31.506  1.00  0.00     0.049 A 
ATOM     48  H   UNL A   1      40.865  29.922  30.895  1.00  0.00     0.167 HD
ATOM     49  C   UNL A   1      44.198  31.150  28.316  1.00  0.00     0.034 A 
ATOM     50  C   UNL A   1      38.486  30.778  32.024  1.00  0.00     0.034 A 
ATOM     51  C   UNL A   1      44.733  31.110  29.649  1.00  0.00     0.049 A 
ATOM     52  C   UNL A   1      39.664  31.662  32.175  1.00  0.00     0.074 A 
ATOM     53  C   UNL A   1      45.577  30.264  30.339  1.00  0.00     0.029 A 
ATOM     54  N   UNL A   1      44.139  31.906  30.595  1.00  0.00    -0.354 N 
ATOM     55  N   UNL A   1      40.600  31.510  33.065  1.00  0.00    -0.248 NA
ATOM     56  C   UNL A   1      39.994  32.550  31.070  1.00  0.00     0.031 C 
ATOM     57  C   UNL A   1      45.128  30.302  31.688  1.00  0.00     0.029 A 
ATOM     58  C   UNL A   1      44.052  31.189  31.759  1.00  0.00     0.049 A 
ATOM     59  H   UNL A   1      43.830  32.831  30.461  1.00  0.00     0.167 HD
ATOM     60  C   UNL A   1      41.761  31.890  32.413  1.00  0.00     0.074 A 
ATOM     61  C   UNL A   1      41.310  32.656  31.256  1.00  0.00     0.031 C 
ATOM     62  C   UNL A   1      42.960  31.306  32.707  1.00  0.00     0.034 A 
BRANCH  49  63
ATOM     63  C   UNL A   1      44.154  32.412  27.479  1.00  0.00     0.023 A 
ATOM     64  C   UNL A   1      43.467  33.572  27.885  1.00  0.00     0.031 A 
ATOM     65  C   UNL A   1      44.991  32.566  26.358  1.00  0.00     0.131 A 
ATOM     66  C   UNL A   1      43.584  34.787  27.201  1.00  0.00     0.055 A 
ATOM     67  C   UNL A   1      45.170  33.800  25.716  1.00  0.00     0.041 A 
ATOM     68  F   UNL A   1      45.712  31.536  25.886  1.00  0.00    -0.206 F 
ATOM     69  C   UNL A   1      44.463  34.920  26.135  1.00  0.00     0.022 A 
BRANCH  66  70
ATOM     70  S   UNL A   1      42.589  36.215  27.714  1.00  0.00     0.124 S 
ATOM     71  O   UNL A   1      43.306  36.668  28.900  1.00  0.00    -0.237 OA
ATOM     72  O   UNL A   1      42.688  37.081  26.541  1.00  0.00    -0.237 OA
ATOM     73  O   UNL A   1      41.265  35.645  27.946  1.00  0.00    -0.744 OA
ENDBRANCH  66  70
ENDBRANCH  49  63
BRANCH  50  74
ATOM     74  C   UNL A   1      37.111  31.331  31.995  1.00  0.00     0.023 A 
ATOM     75  C   UNL A   1      36.504  31.626  30.761  1.00  0.00     0.031 A 
ATOM     76  C   UNL A   1      36.509  31.852  33.153  1.00  0.00     0.131 A 
ATOM     77  C   UNL A   1      35.373  32.447  30.701  1.00  0.00     0.055 A 
ATOM     78  C   UNL A   1      35.371  32.665  33.092  1.00  0.00     0.041 A 
ATOM     79  F   UNL A   1      37.054  31.637  34.360  1.00  0.00    -0.206 F 
ATOM     80  C   UNL A   1      34.805  32.978  31.859  1.00  0.00     0.022 A 
BRANCH  77  81
ATOM     81  S   UNL A   1      34.662  32.898  29.094  1.00  0.00     0.124 S 
ATOM     82  O   UNL A   1      33.643  33.876  29.467  1.00  0.00    -0.237 OA
ATOM     83  O   UNL A   1      35.825  33.435  28.397  1.00  0.00    -0.237 OA
ATOM     84  O   UNL A   1      34.143  31.632  28.584  1.00  0.00    -0.744 OA
ENDBRANCH  77  81
ENDBRANCH  50  74
BRANCH  62  85
ATOM     85  C   UNL A   1      43.085  30.492  33.978  1.00  0.00     0.023 A 
ATOM     86  C   UNL A   1      42.590  29.174  33.951  1.00  0.00     0.031 A 
ATOM     87  C   UNL A   1      43.479  31.011  35.226  1.00  0.00     0.131 A 
ATOM     88  C   UNL A   1      42.477  28.434  35.133  1.00  0.00     0.055 A 
ATOM     89  C   UNL A   1      43.436  30.240  36.393  1.00  0.00     0.041 A 
ATOM     90  F   UNL A   1      43.836  32.293  35.374  1.00  0.00    -0.206 F 
ATOM     91  C   UNL A   1      42.918  28.950  36.353  1.00  0.00     0.022 A 
BRANCH  88  92
ATOM     92  S   UNL A   1      41.605  26.845  35.140  1.00  0.00     0.124 S 
ATOM     93  O   UNL A   1      42.660  25.912  34.759  1.00  0.00    -0.237 OA
ATOM     94  O   UNL A   1      41.150  26.743  36.526  1.00  0.00    -0.237 OA
ATOM     95  O   UNL A   1      40.541  27.023  34.156  1.00  0.00    -0.744 OA
ENDBRANCH  88  92
ENDBRANCH  62  85
ENDBRANCH  36  37
ENDBRANCH  29  31
ENDBRANCH  28  29
ENDBRANCH  27  28
ENDBRANCH   1  27
TORSDOF 20
ENDMDL
MODEL 2
REMARK VINA RESULT:      -9.8      3.880      7.000
REMARK SMILES CCc1cccc2c3c([nH]c12)[C@](CC)(CC(=O)OCCOCCOC(=O)c1ccc(-c2c4nc(c(-c5cc(S(=O)(=O)[O-])ccc5F)c5ccc([nH]5)c(-c5cc(S(=O)(=O)[O-])ccc5F)c5nc(c(-c6cc(S(=O)(=O)[O-])ccc6F)c6ccc2[nH]6)C=C5)C=C4)cc1)OCC3
REMARK SMILES IDX 22 1 21 2 20 3 19 4 18 5 16 6 17 7 15 8 12 9 3 10 4 11 11 12
REMARK SMILES IDX 5 13 7 14 10 15 6 16 8 17 9 18 92 20 91 21 90 22 2 23 1 24
REMARK SMILES IDX 13 25 14 26 23 27 24 28 25 29 26 30 27 31 28 32 89 33 29 34
REMARK SMILES IDX 88 35 30 36 31 37 32 38 82 39 33 40 87 41 81 42 83 43 34 44
REMARK SMILES IDX 86 45 80 46 79 47 35 49 67 50 47 51 66 52 48 53 51 54 65 55
REMARK SMILES IDX 84 56 49 57 50 58 64 60 85 61 52 62 36 63 37 64 45 65 38 66
REMARK SMILES IDX 44 67 46 68 43 69 39 70 40 71 41 72 42 73 68 74 69 75 77 76
REMARK SMILES IDX 70 77 76 78 78 79 75 80 71 81 72 82 73 83 74 84 53 85 54 86
REMARK SMILES IDX 62 87 55 88 61 89 63 90 60 91 56 92 57 93 58 94 59 95
REMARK H PARENT 10 19 83 48 51 59
REMARK Flexibility Score: inf
ROOT
ATOM      1  C   UNL A   1      37.736  21.421  25.424  1.00  0.00     0.202 C 
ENDROOT
BRANCH   1   2
ATOM      2  O   UNL A   1      37.401  22.222  24.292  1.00  0.00    -0.374 OA
BRANCH   2   3
ATOM      3  C   UNL A   1      36.777  23.477  24.536  1.00  0.00     0.202 C 
BRANCH   3   4
ATOM      4  C   UNL A   1      35.706  23.558  25.635  1.00  0.00     0.261 C 
BRANCH   4   5
ATOM      5  O   UNL A   1      34.585  22.650  25.507  1.00  0.00    -0.463 OA
BRANCH   5   6
ATOM      6  C   UNL A   1      33.953  22.367  26.667  1.00  0.00     0.309 C 
ATOM      7  O   UNL A   1      34.371  21.545  27.485  1.00  0.00    -0.252 OA
BRANCH   6   8
ATOM      8  C   UNL A   1      32.582  22.972  26.870  1.00  0.00     0.164 C 
BRANCH   8   9
ATOM      9  C   UNL A   1      31.641  23.643  25.851  1.00  0.00     0.118 C 
ATOM     10  C   UNL A   1      33.273  28.337  24.883  1.00  0.00    -0.024 A 
ATOM     11  C   UNL A   1      33.865  28.914  23.741  1.00  0.00     0.006 A 
ATOM     12  C   UNL A   1      32.877  26.989  24.761  1.00  0.00     0.049 A 
ATOM     13  C   UNL A   1      33.956  28.228  22.531  1.00  0.00     0.001 A 
ATOM     14  C   UNL A   1      32.890  26.305  23.541  1.00  0.00     0.003 A 
ATOM     15  N   UNL A   1      32.409  26.098  25.712  1.00  0.00    -0.356 N 
ATOM     16  C   UNL A   1      33.416  26.947  22.403  1.00  0.00     0.010 A 
ATOM     17  C   UNL A   1      32.318  25.028  23.784  1.00  0.00    -0.014 A 
ATOM     18  C   UNL A   1      32.161  24.874  25.146  1.00  0.00     0.052 A 
ATOM     19  H   UNL A   1      32.274  26.314  26.663  1.00  0.00     0.166 HD
ATOM     20  C   UNL A   1      31.913  23.946  22.856  1.00  0.00     0.066 C 
ATOM     21  C   UNL A   1      31.874  22.625  23.633  1.00  0.00     0.166 C 
ATOM     22  O   UNL A   1      31.141  22.715  24.858  1.00  0.00    -0.368 OA
BRANCH  10  23
ATOM     23  C   UNL A   1      33.028  29.184  26.106  1.00  0.00     0.034 C 
ATOM     24  C   UNL A   1      34.029  28.969  27.226  1.00  0.00     0.009 C 
ENDBRANCH  10  23
BRANCH   9  25
ATOM     25  C   UNL A   1      30.342  24.059  26.629  1.00  0.00     0.039 C 
ATOM     26  C   UNL A   1      29.527  22.894  27.186  1.00  0.00     0.007 C 
ENDBRANCH   9  25
ENDBRANCH   8   9
ENDBRANCH   6   8
ENDBRANCH   5   6
ENDBRANCH   4   5
ENDBRANCH   3   4
ENDBRANCH   2   3
ENDBRANCH   1   2
BRANCH   1  27
ATOM     27  C   UNL A   1      39.199  21.436  25.884  1.00  0.00     0.261 C 
BRANCH  27  28
ATOM     28  O   UNL A   1      39.499  22.637  26.609  1.00  0.00    -0.460 OA
BRANCH  28  29
ATOM     29  C   UNL A   1      40.745  22.665  27.165  1.00  0.00     0.338 C 
ATOM     30  O   UNL A   1      41.556  21.780  27.204  1.00  0.00    -0.246 OA
BRANCH  29  31
ATOM     31  C   UNL A   1      41.014  24.108  27.351  1.00  0.00     0.060 A 
ATOM     32  C   UNL A   1      42.068  24.540  28.154  1.00  0.00     0.016 A 
ATOM     33  C   UNL A   1      39.978  24.973  26.984  1.00  0.00     0.016 A 
ATOM     34  C   UNL A   1      41.998  25.797  28.732  1.00  0.00     0.010 A 
ATOM     35  C   UNL A   1      39.912  26.235  27.561  1.00  0.00     0.010 A 
ATOM     36  C   UNL A   1      40.887  26.617  28.486  1.00  0.00    -0.014 A 
BRANCH  36  37
ATOM     37  C   UNL A   1      40.877  27.937  29.113  1.00  0.00     0.031 A 
ATOM     38  C   UNL A   1      41.880  28.869  28.535  1.00  0.00     0.074 A 
ATOM     39  C   UNL A   1      39.979  28.367  30.020  1.00  0.00     0.049 A 
ATOM     40  N   UNL A   1      42.884  29.443  29.113  1.00  0.00    -0.248 NA
ATOM     41  C   UNL A   1      41.824  29.056  27.078  1.00  0.00     0.031 C 
ATOM     42  C   UNL A   1      38.739  27.706  30.423  1.00  0.00     0.029 A 
ATOM     43  N   UNL A   1      39.925  29.562  30.682  1.00  0.00    -0.354 N 
ATOM     44  C   UNL A   1      43.478  30.224  28.122  1.00  0.00     0.074 A 
ATOM     45  C   UNL A   1      42.914  29.788  26.871  1.00  0.00     0.031 C 
ATOM     46  C   UNL A   1      37.954  28.591  31.075  1.00  0.00     0.029 A 
ATOM     47  C   UNL A   1      38.681  29.840  31.231  1.00  0.00     0.049 A 
ATOM     48  H   UNL A   1      40.697  30.167  30.764  1.00  0.00     0.167 HD
ATOM     49  C   UNL A   1      44.215  31.333  28.411  1.00  0.00     0.034 A 
ATOM     50  C   UNL A   1      38.233  31.041  31.673  1.00  0.00     0.034 A 
ATOM     51  C   UNL A   1      44.644  31.344  29.782  1.00  0.00     0.049 A 
ATOM     52  C   UNL A   1      39.390  31.940  31.885  1.00  0.00     0.074 A 
ATOM     53  C   UNL A   1      45.436  30.529  30.565  1.00  0.00     0.029 A 
ATOM     54  N   UNL A   1      43.974  32.167  30.651  1.00  0.00    -0.354 N 
ATOM     55  N   UNL A   1      40.255  31.826  32.850  1.00  0.00    -0.248 NA
ATOM     56  C   UNL A   1      39.800  32.792  30.779  1.00  0.00     0.031 C 
ATOM     57  C   UNL A   1      44.883  30.609  31.874  1.00  0.00     0.029 A 
ATOM     58  C   UNL A   1      43.800  31.490  31.829  1.00  0.00     0.049 A 
ATOM     59  H   UNL A   1      43.670  33.084  30.461  1.00  0.00     0.167 HD
ATOM     60  C   UNL A   1      41.461  32.194  32.278  1.00  0.00     0.074 A 
ATOM     61  C   UNL A   1      41.098  32.915  31.063  1.00  0.00     0.031 C 
ATOM     62  C   UNL A   1      42.637  31.630  32.685  1.00  0.00     0.034 A 
BRANCH  49  63
ATOM     63  C   UNL A   1      44.229  32.565  27.530  1.00  0.00     0.023 A 
ATOM     64  C   UNL A   1      43.612  33.775  27.901  1.00  0.00     0.031 A 
ATOM     65  C   UNL A   1      45.059  32.632  26.395  1.00  0.00     0.131 A 
ATOM     66  C   UNL A   1      43.786  34.957  27.173  1.00  0.00     0.055 A 
ATOM     67  C   UNL A   1      45.297  33.831  25.707  1.00  0.00     0.041 A 
ATOM     68  F   UNL A   1      45.717  31.549  25.953  1.00  0.00    -0.206 F 
ATOM     69  C   UNL A   1      44.658  35.003  26.092  1.00  0.00     0.022 A 
BRANCH  66  70
ATOM     70  S   UNL A   1      42.878  36.455  27.645  1.00  0.00     0.124 S 
ATOM     71  O   UNL A   1      41.803  35.907  28.464  1.00  0.00    -0.237 OA
ATOM     72  O   UNL A   1      43.904  37.209  28.363  1.00  0.00    -0.237 OA
ATOM     73  O   UNL A   1      42.476  37.030  26.364  1.00  0.00    -0.744 OA
ENDBRANCH  66  70
ENDBRANCH  49  63
BRANCH  50  74
ATOM     74  C   UNL A   1      36.861  31.581  31.519  1.00  0.00     0.023 A 
ATOM     75  C   UNL A   1      36.391  31.935  30.241  1.00  0.00     0.031 A 
ATOM     76  C   UNL A   1      36.124  32.035  32.626  1.00  0.00     0.131 A 
ATOM     77  C   UNL A   1      35.261  32.747  30.095  1.00  0.00     0.055 A 
ATOM     78  C   UNL A   1      34.988  32.839  32.480  1.00  0.00     0.041 A 
ATOM     79  F   UNL A   1      36.534  31.761  33.874  1.00  0.00    -0.206 F 
ATOM     80  C   UNL A   1      34.559  33.210  31.208  1.00  0.00     0.022 A 
BRANCH  77  81
ATOM     81  S   UNL A   1      34.729  33.276  28.444  1.00  0.00     0.124 S 
ATOM     82  O   UNL A   1      33.586  32.402  28.190  1.00  0.00    -0.237 OA
ATOM     83  O   UNL A   1      34.409  34.680  28.671  1.00  0.00    -0.237 OA
ATOM     84  O   UNL A   1      35.899  33.016  27.610  1.00  0.00    -0.744 OA
ENDBRANCH  77  81
ENDBRANCH  50  74
BRANCH  62  85
ATOM     85  C   UNL A   1      42.666  30.861  33.989  1.00  0.00     0.023 A 
ATOM     86  C   UNL A   1      42.375  29.485  33.933  1.00  0.00     0.031 A 
ATOM     87  C   UNL A   1      42.772  31.450  35.263  1.00  0.00     0.131 A 
ATOM     88  C   UNL A   1      42.177  28.753  35.110  1.00  0.00     0.055 A 
ATOM     89  C   UNL A   1      42.648  30.699  36.437  1.00  0.00     0.041 A 
ATOM     90  F   UNL A   1      42.913  32.773  35.418  1.00  0.00    -0.206 F 
ATOM     91  C   UNL A   1      42.334  29.346  36.364  1.00  0.00     0.022 A 
BRANCH  88  92
ATOM     92  S   UNL A   1      41.552  27.053  35.037  1.00  0.00     0.124 S 
ATOM     93  O   UNL A   1      42.732  26.308  34.610  1.00  0.00    -0.237 OA
ATOM     94  O   UNL A   1      41.126  26.817  36.416  1.00  0.00    -0.237 OA
ATOM     95  O   UNL A   1      40.466  27.118  34.062  1.00  0.00    -0.744 OA
ENDBRANCH  88  92
ENDBRANCH  62  85
ENDBRANCH  36  37
ENDBRANCH  29  31
ENDBRANCH  28  29
ENDBRANCH  27  28
ENDBRANCH   1  27
TORSDOF 20
ENDMDL
MODEL 3
REMARK VINA RESULT:      -9.6      4.154      7.299
REMARK SMILES CCc1cccc2c3c([nH]c12)[C@](CC)(CC(=O)OCCOCCOC(=O)c1ccc(-c2c4nc(c(-c5cc(S(=O)(=O)[O-])ccc5F)c5ccc([nH]5)c(-c5cc(S(=O)(=O)[O-])ccc5F)c5nc(c(-c6cc(S(=O)(=O)[O-])ccc6F)c6ccc2[nH]6)C=C5)C=C4)cc1)OCC3
REMARK SMILES IDX 22 1 21 2 20 3 19 4 18 5 16 6 17 7 15 8 12 9 3 10 4 11 11 12
REMARK SMILES IDX 5 13 7 14 10 15 6 16 8 17 9 18 92 20 91 21 90 22 2 23 1 24
REMARK SMILES IDX 13 25 14 26 23 27 24 28 25 29 26 30 27 31 28 32 89 33 29 34
REMARK SMILES IDX 88 35 30 36 31 37 32 38 82 39 33 40 87 41 81 42 83 43 34 44
REMARK SMILES IDX 86 45 80 46 79 47 35 49 67 50 47 51 66 52 48 53 51 54 65 55
REMARK SMILES IDX 84 56 49 57 50 58 64 60 85 61 52 62 36 63 37 64 45 65 38 66
REMARK SMILES IDX 44 67 46 68 43 69 39 70 40 71 41 72 42 73 68 74 69 75 77 76
REMARK SMILES IDX 70 77 76 78 78 79 75 80 71 81 72 82 73 83 74 84 53 85 54 86
REMARK SMILES IDX 62 87 55 88 61 89 63 90 60 91 56 92 57 93 58 94 59 95
REMARK H PARENT 10 19 83 48 51 59
REMARK Flexibility Score: inf
ROOT
ATOM      1  C   UNL A   1      38.069  21.339  25.346  1.00  0.00     0.202 C 
ENDROOT
BRANCH   1   2
ATOM      2  O   UNL A   1      37.648  20.096  24.786  1.00  0.00    -0.374 OA
BRANCH   2   3
ATOM      3  C   UNL A   1      36.264  19.776  24.862  1.00  0.00     0.202 C 
BRANCH   3   4
ATOM      4  C   UNL A   1      35.267  20.911  25.142  1.00  0.00     0.261 C 
BRANCH   4   5
ATOM      5  O   UNL A   1      34.550  21.431  23.997  1.00  0.00    -0.463 OA
BRANCH   5   6
ATOM      6  C   UNL A   1      34.679  22.763  23.808  1.00  0.00     0.309 C 
ATOM      7  O   UNL A   1      35.367  23.258  22.913  1.00  0.00    -0.252 OA
BRANCH   6   8
ATOM      8  C   UNL A   1      34.081  23.670  24.860  1.00  0.00     0.164 C 
BRANCH   8   9
ATOM      9  C   UNL A   1      32.604  23.952  25.192  1.00  0.00     0.118 C 
ATOM     10  C   UNL A   1      31.962  28.916  25.957  1.00  0.00    -0.024 A 
ATOM     11  C   UNL A   1      31.310  29.911  25.201  1.00  0.00     0.006 A 
ATOM     12  C   UNL A   1      31.875  27.600  25.456  1.00  0.00     0.049 A 
ATOM     13  C   UNL A   1      30.536  29.600  24.085  1.00  0.00     0.001 A 
ATOM     14  C   UNL A   1      31.046  27.254  24.384  1.00  0.00     0.003 A 
ATOM     15  N   UNL A   1      32.507  26.438  25.862  1.00  0.00    -0.356 N 
ATOM     16  C   UNL A   1      30.346  28.270  23.705  1.00  0.00     0.010 A 
ATOM     17  C   UNL A   1      31.128  25.843  24.245  1.00  0.00    -0.014 A 
ATOM     18  C   UNL A   1      32.135  25.383  25.069  1.00  0.00     0.052 A 
ATOM     19  H   UNL A   1      33.136  26.377  26.617  1.00  0.00     0.166 HD
ATOM     20  C   UNL A   1      30.354  24.897  23.408  1.00  0.00     0.066 C 
ATOM     21  C   UNL A   1      31.180  23.618  23.225  1.00  0.00     0.166 C 
ATOM     22  O   UNL A   1      31.694  23.100  24.455  1.00  0.00    -0.368 OA
BRANCH  10  23
ATOM     23  C   UNL A   1      32.628  29.283  27.260  1.00  0.00     0.034 C 
ATOM     24  C   UNL A   1      34.143  29.337  27.194  1.00  0.00     0.009 C 
ENDBRANCH  10  23
BRANCH   9  25
ATOM     25  C   UNL A   1      32.374  23.508  26.681  1.00  0.00     0.039 C 
ATOM     26  C   UNL A   1      30.925  23.174  27.034  1.00  0.00     0.007 C 
ENDBRANCH   9  25
ENDBRANCH   8   9
ENDBRANCH   6   8
ENDBRANCH   5   6
ENDBRANCH   4   5
ENDBRANCH   3   4
ENDBRANCH   2   3
ENDBRANCH   1   2
BRANCH   1  27
ATOM     27  C   UNL A   1      39.402  21.349  26.105  1.00  0.00     0.261 C 
BRANCH  27  28
ATOM     28  O   UNL A   1      39.760  22.680  26.501  1.00  0.00    -0.460 OA
BRANCH  28  29
ATOM     29  C   UNL A   1      41.050  22.815  26.927  1.00  0.00     0.338 C 
ATOM     30  O   UNL A   1      41.939  22.011  26.855  1.00  0.00    -0.246 OA
BRANCH  29  31
ATOM     31  C   UNL A   1      41.202  24.272  27.128  1.00  0.00     0.060 A 
ATOM     32  C   UNL A   1      42.306  24.788  27.804  1.00  0.00     0.016 A 
ATOM     33  C   UNL A   1      40.049  25.039  26.930  1.00  0.00     0.016 A 
ATOM     34  C   UNL A   1      42.194  26.019  28.432  1.00  0.00     0.010 A 
ATOM     35  C   UNL A   1      39.939  26.274  27.556  1.00  0.00     0.010 A 
ATOM     36  C   UNL A   1      40.986  26.729  28.361  1.00  0.00    -0.014 A 
BRANCH  36  37
ATOM     37  C   UNL A   1      40.934  28.027  29.031  1.00  0.00     0.031 A 
ATOM     38  C   UNL A   1      41.961  28.982  28.543  1.00  0.00     0.074 A 
ATOM     39  C   UNL A   1      39.984  28.421  29.901  1.00  0.00     0.049 A 
ATOM     40  N   UNL A   1      42.927  29.541  29.196  1.00  0.00    -0.248 NA
ATOM     41  C   UNL A   1      41.986  29.219  27.092  1.00  0.00     0.031 C 
ATOM     42  C   UNL A   1      38.727  27.741  30.211  1.00  0.00     0.029 A 
ATOM     43  N   UNL A   1      39.885  29.592  30.599  1.00  0.00    -0.354 N 
ATOM     44  C   UNL A   1      43.572  30.358  28.267  1.00  0.00     0.074 A 
ATOM     45  C   UNL A   1      43.080  29.963  26.972  1.00  0.00     0.031 C 
ATOM     46  C   UNL A   1      37.902  28.600  30.848  1.00  0.00     0.029 A 
ATOM     47  C   UNL A   1      38.611  29.846  31.087  1.00  0.00     0.049 A 
ATOM     48  H   UNL A   1      40.648  30.197  30.745  1.00  0.00     0.167 HD
ATOM     49  C   UNL A   1      44.284  31.460  28.635  1.00  0.00     0.034 A 
ATOM     50  C   UNL A   1      38.131  31.029  31.544  1.00  0.00     0.034 A 
ATOM     51  C   UNL A   1      44.636  31.425  30.027  1.00  0.00     0.049 A 
ATOM     52  C   UNL A   1      39.269  31.925  31.852  1.00  0.00     0.074 A 
ATOM     53  C   UNL A   1      45.388  30.586  30.825  1.00  0.00     0.029 A 
ATOM     54  N   UNL A   1      43.913  32.215  30.885  1.00  0.00    -0.354 N 
ATOM     55  N   UNL A   1      40.079  31.782  32.859  1.00  0.00    -0.248 NA
ATOM     56  C   UNL A   1      39.735  32.816  30.800  1.00  0.00     0.031 C 
ATOM     57  C   UNL A   1      44.762  30.619  32.102  1.00  0.00     0.029 A 
ATOM     58  C   UNL A   1      43.678  31.496  32.027  1.00  0.00     0.049 A 
ATOM     59  H   UNL A   1      43.615  33.136  30.710  1.00  0.00     0.167 HD
ATOM     60  C   UNL A   1      41.313  32.174  32.368  1.00  0.00     0.074 A 
ATOM     61  C   UNL A   1      41.014  32.935  31.160  1.00  0.00     0.031 C 
ATOM     62  C   UNL A   1      42.468  31.601  32.820  1.00  0.00     0.034 A 
BRANCH  49  63
ATOM     63  C   UNL A   1      44.340  32.721  27.799  1.00  0.00     0.023 A 
ATOM     64  C   UNL A   1      43.540  33.849  28.065  1.00  0.00     0.031 A 
ATOM     65  C   UNL A   1      45.361  32.916  26.850  1.00  0.00     0.131 A 
ATOM     66  C   UNL A   1      43.727  35.071  27.409  1.00  0.00     0.055 A 
ATOM     67  C   UNL A   1      45.602  34.159  26.246  1.00  0.00     0.041 A 
ATOM     68  F   UNL A   1      46.202  31.921  26.524  1.00  0.00    -0.206 F 
ATOM     69  C   UNL A   1      44.781  35.246  26.522  1.00  0.00     0.022 A 
BRANCH  66  70
ATOM     70  S   UNL A   1      42.594  36.452  27.723  1.00  0.00     0.124 S 
ATOM     71  O   UNL A   1      41.334  35.756  27.959  1.00  0.00    -0.237 OA
ATOM     72  O   UNL A   1      43.205  37.075  28.895  1.00  0.00    -0.237 OA
ATOM     73  O   UNL A   1      42.668  37.242  26.498  1.00  0.00    -0.744 OA
ENDBRANCH  66  70
ENDBRANCH  49  63
BRANCH  50  74
ATOM     74  C   UNL A   1      36.767  31.568  31.332  1.00  0.00     0.023 A 
ATOM     75  C   UNL A   1      36.371  31.977  30.045  1.00  0.00     0.031 A 
ATOM     76  C   UNL A   1      35.962  31.967  32.412  1.00  0.00     0.131 A 
ATOM     77  C   UNL A   1      35.245  32.788  29.868  1.00  0.00     0.055 A 
ATOM     78  C   UNL A   1      34.830  32.771  32.234  1.00  0.00     0.041 A 
ATOM     79  F   UNL A   1      36.298  31.640  33.669  1.00  0.00    -0.206 F 
ATOM     80  C   UNL A   1      34.474  33.197  30.957  1.00  0.00     0.022 A 
BRANCH  77  81
ATOM     81  S   UNL A   1      34.809  33.388  28.213  1.00  0.00     0.124 S 
ATOM     82  O   UNL A   1      34.675  34.826  28.428  1.00  0.00    -0.237 OA
ATOM     83  O   UNL A   1      35.967  32.972  27.432  1.00  0.00    -0.237 OA
ATOM     84  O   UNL A   1      33.559  32.692  27.919  1.00  0.00    -0.744 OA
ENDBRANCH  77  81
ENDBRANCH  50  74
BRANCH  62  85
ATOM     85  C   UNL A   1      42.429  30.788  34.097  1.00  0.00     0.023 A 
ATOM     86  C   UNL A   1      42.796  31.442  35.289  1.00  0.00     0.031 A 
ATOM     87  C   UNL A   1      42.241  29.394  34.154  1.00  0.00     0.131 A 
ATOM     88  C   UNL A   1      42.988  30.712  36.468  1.00  0.00     0.055 A 
ATOM     89  C   UNL A   1      42.359  28.681  35.351  1.00  0.00     0.041 A 
ATOM     90  F   UNL A   1      42.023  28.668  33.049  1.00  0.00    -0.206 F 
ATOM     91  C   UNL A   1      42.750  29.338  36.513  1.00  0.00     0.022 A 
BRANCH  88  92
ATOM     92  S   UNL A   1      43.706  31.507  37.930  1.00  0.00     0.124 S 
ATOM     93  O   UNL A   1      44.842  30.640  38.226  1.00  0.00    -0.237 OA
ATOM     94  O   UNL A   1      44.048  32.837  37.427  1.00  0.00    -0.237 OA
ATOM     95  O   UNL A   1      42.627  31.481  38.913  1.00  0.00    -0.744 OA
ENDBRANCH  88  92
ENDBRANCH  62  85
ENDBRANCH  36  37
ENDBRANCH  29  31
ENDBRANCH  28  29
ENDBRANCH  27  28
ENDBRANCH   1  27
TORSDOF 20
ENDMDL
