MODEL 1
REMARK VINA RESULT:     -11.6      0.000      0.000
REMARK SMILES C[C@H](c1cccc(-c2cc(C(=O)OCCOCCOC(=O)c3ccc(-c4c5nc(c(-c6cc(S(=O)(=O)[O-])ccc6F)c6ccc([nH]6)c(-c6cc(S(=O)(=O)[O-])ccc6F)c6nc(c(-c7cc(S(=O)(=O)[O-])ccc7F)c7ccc4[nH]7)C=C6)C=C5)cc3)cc(S(=O)(=O)N3CCOCC3)c2)c1)[NH+](C)C
REMARK SMILES IDX 16 1 15 2 14 3 13 4 11 5 12 6 10 7 8 8 9 9 96 10 86 11 85 12
REMARK SMILES IDX 7 13 3 14 4 15 97 16 5 17 6 18 2 19 1 20 98 21 99 22 100 23
REMARK SMILES IDX 87 25 88 26 89 27 90 28 91 29 95 30 92 31 94 32 93 33 17 34
REMARK SMILES IDX 18 35 19 36 20 37 21 38 22 39 23 40 84 41 24 42 83 43 25 44
REMARK SMILES IDX 26 45 27 46 77 47 28 48 82 49 76 50 78 51 29 52 81 53 75 54
REMARK SMILES IDX 74 55 30 57 62 58 42 59 61 60 43 61 46 62 60 63 79 64 44 65
REMARK SMILES IDX 45 66 59 68 80 69 47 70 31 71 32 72 40 73 33 74 39 75 41 76
REMARK SMILES IDX 38 77 34 78 35 79 36 80 37 81 63 82 64 83 72 84 65 85 71 86
REMARK SMILES IDX 73 87 70 88 66 89 67 90 68 91 69 92 48 93 49 94 57 95 50 96
REMARK SMILES IDX 56 97 58 98 55 99 51 100 52 101 53 102 54 103
REMARK H PARENT 98 24 78 56 46 67
REMARK Flexibility Score: inf
ROOT
ATOM      1  O   UNL A   1      32.034  28.180  24.925  1.00  0.00    -0.374 OA
ENDROOT
BRANCH   1   2
ATOM      2  C   UNL A   1      32.043  27.619  23.610  1.00  0.00     0.202 C 
BRANCH   2   3
ATOM      3  C   UNL A   1      33.389  27.084  23.108  1.00  0.00     0.261 C 
BRANCH   3   4
ATOM      4  O   UNL A   1      33.691  25.814  23.708  1.00  0.00    -0.460 OA
BRANCH   4   5
ATOM      5  C   UNL A   1      33.661  24.748  22.873  1.00  0.00     0.338 C 
ATOM      6  O   UNL A   1      33.369  24.745  21.690  1.00  0.00    -0.246 OA
BRANCH   5   7
ATOM      7  C   UNL A   1      34.268  23.580  23.561  1.00  0.00     0.062 A 
ATOM      8  C   UNL A   1      36.194  22.731  24.791  1.00  0.00    -0.016 A 
ATOM      9  C   UNL A   1      35.598  23.724  24.011  1.00  0.00     0.024 A 
ATOM     10  C   UNL A   1      35.421  21.604  25.090  1.00  0.00     0.030 A 
ATOM     11  C   UNL A   1      34.116  21.434  24.641  1.00  0.00     0.084 A 
ATOM     12  C   UNL A   1      33.523  22.431  23.870  1.00  0.00     0.037 A 
BRANCH   8  13
ATOM     13  C   UNL A   1      37.511  22.868  25.437  1.00  0.00    -0.018 A 
ATOM     14  C   UNL A   1      39.538  21.860  26.452  1.00  0.00     0.010 A 
ATOM     15  C   UNL A   1      39.850  23.129  26.969  1.00  0.00     0.010 A 
ATOM     16  C   UNL A   1      38.367  21.762  25.662  1.00  0.00     0.018 A 
ATOM     17  C   UNL A   1      39.031  24.236  26.742  1.00  0.00     0.001 A 
ATOM     18  C   UNL A   1      37.872  24.106  25.984  1.00  0.00     0.009 A 
BRANCH  14  19
ATOM     19  C   UNL A   1      40.500  20.663  26.662  1.00  0.00     0.211 C 
ATOM     20  C   UNL A   1      40.139  19.412  25.825  1.00  0.00     0.081 C 
BRANCH  19  21
ATOM     21  N   UNL A   1      41.942  21.014  26.540  1.00  0.00    -0.334 N 
ATOM     22  C   UNL A   1      42.584  21.209  27.845  1.00  0.00     0.333 C 
ATOM     23  C   UNL A   1      42.714  20.039  25.770  1.00  0.00     0.333 C 
ATOM     24  H   UNL A   1      41.944  21.897  26.029  1.00  0.00     0.348 HD
ENDBRANCH  19  21
ENDBRANCH  14  19
ENDBRANCH   8  13
BRANCH  11  25
ATOM     25  S   UNL A   1      33.172  19.986  25.074  1.00  0.00     0.243 S 
ATOM     26  O   UNL A   1      33.372  19.791  26.491  1.00  0.00    -0.207 OA
ATOM     27  O   UNL A   1      31.857  20.194  24.502  1.00  0.00    -0.207 OA
BRANCH  25  28
ATOM     28  N   UNL A   1      33.862  18.686  24.269  1.00  0.00    -0.193 NA
ATOM     29  C   UNL A   1      33.112  17.817  23.341  1.00  0.00     0.131 C 
ATOM     30  C   UNL A   1      35.219  18.201  24.569  1.00  0.00     0.131 C 
ATOM     31  C   UNL A   1      33.130  16.358  23.814  1.00  0.00     0.177 C 
ATOM     32  C   UNL A   1      35.160  16.753  25.055  1.00  0.00     0.177 C 
ATOM     33  O   UNL A   1      34.449  15.896  24.146  1.00  0.00    -0.379 OA
ENDBRANCH  25  28
ENDBRANCH  11  25
ENDBRANCH   5   7
ENDBRANCH   4   5
ENDBRANCH   3   4
ENDBRANCH   2   3
ENDBRANCH   1   2
BRANCH   1  34
ATOM     34  C   UNL A   1      31.683  29.560  25.034  1.00  0.00     0.202 C 
BRANCH  34  35
ATOM     35  C   UNL A   1      32.073  30.283  26.330  1.00  0.00     0.261 C 
BRANCH  35  36
ATOM     36  O   UNL A   1      33.498  30.378  26.489  1.00  0.00    -0.460 OA
BRANCH  36  37
ATOM     37  C   UNL A   1      33.906  31.338  27.357  1.00  0.00     0.338 C 
ATOM     38  O   UNL A   1      33.235  32.254  27.801  1.00  0.00    -0.246 OA
BRANCH  37  39
ATOM     39  C   UNL A   1      35.252  31.007  27.867  1.00  0.00     0.060 A 
ATOM     40  C   UNL A   1      35.556  29.652  28.057  1.00  0.00     0.016 A 
ATOM     41  C   UNL A   1      36.173  31.997  28.208  1.00  0.00     0.016 A 
ATOM     42  C   UNL A   1      36.767  29.285  28.641  1.00  0.00     0.010 A 
ATOM     43  C   UNL A   1      37.385  31.626  28.802  1.00  0.00     0.010 A 
ATOM     44  C   UNL A   1      37.671  30.271  29.055  1.00  0.00    -0.014 A 
BRANCH  44  45
ATOM     45  C   UNL A   1      38.838  29.898  29.895  1.00  0.00     0.031 A 
ATOM     46  C   UNL A   1      38.943  30.478  31.280  1.00  0.00     0.074 A 
ATOM     47  C   UNL A   1      39.770  29.039  29.445  1.00  0.00     0.049 A 
ATOM     48  N   UNL A   1      39.905  30.363  32.159  1.00  0.00    -0.248 NA
ATOM     49  C   UNL A   1      37.812  31.305  31.729  1.00  0.00     0.031 C 
ATOM     50  C   UNL A   1      39.742  28.368  28.148  1.00  0.00     0.029 A 
ATOM     51  N   UNL A   1      40.927  28.591  30.031  1.00  0.00    -0.354 N 
ATOM     52  C   UNL A   1      39.500  31.107  33.262  1.00  0.00     0.074 A 
ATOM     53  C   UNL A   1      38.225  31.702  32.923  1.00  0.00     0.031 C 
ATOM     54  C   UNL A   1      40.837  27.597  28.032  1.00  0.00     0.029 A 
ATOM     55  C   UNL A   1      41.669  27.760  29.224  1.00  0.00     0.049 A 
ATOM     56  H   UNL A   1      41.202  28.840  30.943  1.00  0.00     0.167 HD
ATOM     57  C   UNL A   1      40.130  31.269  34.452  1.00  0.00     0.034 A 
ATOM     58  C   UNL A   1      42.891  27.221  29.413  1.00  0.00     0.034 A 
ATOM     59  C   UNL A   1      41.407  30.677  34.769  1.00  0.00     0.049 A 
ATOM     60  C   UNL A   1      43.624  27.505  30.704  1.00  0.00     0.074 A 
ATOM     61  C   UNL A   1      42.135  30.775  35.941  1.00  0.00     0.029 A 
ATOM     62  N   UNL A   1      42.153  29.883  33.906  1.00  0.00    -0.354 N 
ATOM     63  N   UNL A   1      43.236  28.219  31.737  1.00  0.00    -0.248 NA
ATOM     64  C   UNL A   1      44.957  26.908  30.856  1.00  0.00     0.031 C 
ATOM     65  C   UNL A   1      43.352  30.110  35.760  1.00  0.00     0.029 A 
ATOM     66  C   UNL A   1      43.345  29.514  34.510  1.00  0.00     0.049 A 
ATOM     67  H   UNL A   1      41.874  29.620  32.999  1.00  0.00     0.167 HD
ATOM     68  C   UNL A   1      44.260  28.113  32.677  1.00  0.00     0.074 A 
ATOM     69  C   UNL A   1      45.275  27.265  32.092  1.00  0.00     0.031 C 
ATOM     70  C   UNL A   1      44.350  28.663  33.916  1.00  0.00     0.034 A 
BRANCH  57  71
ATOM     71  C   UNL A   1      39.470  32.163  35.474  1.00  0.00     0.023 A 
ATOM     72  C   UNL A   1      39.854  33.505  35.646  1.00  0.00     0.031 A 
ATOM     73  C   UNL A   1      38.451  31.661  36.304  1.00  0.00     0.131 A 
ATOM     74  C   UNL A   1      39.273  34.276  36.664  1.00  0.00     0.055 A 
ATOM     75  C   UNL A   1      37.817  32.458  37.259  1.00  0.00     0.041 A 
ATOM     76  F   UNL A   1      38.058  30.382  36.206  1.00  0.00    -0.206 F 
ATOM     77  C   UNL A   1      38.236  33.770  37.453  1.00  0.00     0.022 A 
BRANCH  74  78
ATOM     78  S   UNL A   1      39.986  35.901  37.037  1.00  0.00     0.124 S 
ATOM     79  O   UNL A   1      39.693  36.640  35.811  1.00  0.00    -0.237 OA
ATOM     80  O   UNL A   1      39.241  36.308  38.223  1.00  0.00    -0.237 OA
ATOM     81  O   UNL A   1      41.402  35.612  37.257  1.00  0.00    -0.744 OA
ENDBRANCH  74  78
ENDBRANCH  57  71
BRANCH  58  82
ATOM     82  C   UNL A   1      43.530  26.392  28.348  1.00  0.00     0.023 A 
ATOM     83  C   UNL A   1      44.539  26.920  27.527  1.00  0.00     0.031 A 
ATOM     84  C   UNL A   1      43.088  25.082  28.086  1.00  0.00     0.131 A 
ATOM     85  C   UNL A   1      45.027  26.168  26.447  1.00  0.00     0.055 A 
ATOM     86  C   UNL A   1      43.625  24.314  27.051  1.00  0.00     0.041 A 
ATOM     87  F   UNL A   1      42.121  24.528  28.833  1.00  0.00    -0.206 F 
ATOM     88  C   UNL A   1      44.589  24.863  26.213  1.00  0.00     0.022 A 
BRANCH  85  89
ATOM     89  S   UNL A   1      46.160  26.969  25.277  1.00  0.00     0.124 S 
ATOM     90  O   UNL A   1      46.553  25.846  24.433  1.00  0.00    -0.237 OA
ATOM     91  O   UNL A   1      45.296  27.967  24.655  1.00  0.00    -0.237 OA
ATOM     92  O   UNL A   1      47.214  27.504  26.135  1.00  0.00    -0.744 OA
ENDBRANCH  85  89
ENDBRANCH  58  82
BRANCH  70  93
ATOM     93  C   UNL A   1      45.559  28.303  34.750  1.00  0.00     0.023 A 
ATOM     94  C   UNL A   1      46.752  29.044  34.699  1.00  0.00     0.031 A 
ATOM     95  C   UNL A   1      45.510  27.191  35.612  1.00  0.00     0.131 A 
ATOM     96  C   UNL A   1      47.863  28.632  35.450  1.00  0.00     0.055 A 
ATOM     97  C   UNL A   1      46.595  26.828  36.409  1.00  0.00     0.041 A 
ATOM     98  F   UNL A   1      44.398  26.443  35.700  1.00  0.00    -0.206 F 
ATOM     99  C   UNL A   1      47.786  27.542  36.320  1.00  0.00     0.022 A 
BRANCH  96 100
ATOM    100  S   UNL A   1      49.447  29.482  35.204  1.00  0.00     0.124 S 
ATOM    101  O   UNL A   1      49.958  28.830  34.003  1.00  0.00    -0.237 OA
ATOM    102  O   UNL A   1      49.035  30.873  35.047  1.00  0.00    -0.237 OA
ATOM    103  O   UNL A   1      50.188  29.191  36.430  1.00  0.00    -0.744 OA
ENDBRANCH  96 100
ENDBRANCH  70  93
ENDBRANCH  44  45
ENDBRANCH  37  39
ENDBRANCH  36  37
ENDBRANCH  35  36
ENDBRANCH  34  35
ENDBRANCH   1  34
TORSDOF 22
ENDMDL
MODEL 2
REMARK VINA RESULT:     -11.5      1.381      7.217
REMARK SMILES C[C@H](c1cccc(-c2cc(C(=O)OCCOCCOC(=O)c3ccc(-c4c5nc(c(-c6cc(S(=O)(=O)[O-])ccc6F)c6ccc([nH]6)c(-c6cc(S(=O)(=O)[O-])ccc6F)c6nc(c(-c7cc(S(=O)(=O)[O-])ccc7F)c7ccc4[nH]7)C=C6)C=C5)cc3)cc(S(=O)(=O)N3CCOCC3)c2)c1)[NH+](C)C
REMARK SMILES IDX 16 1 15 2 14 3 13 4 11 5 12 6 10 7 8 8 9 9 96 10 86 11 85 12
REMARK SMILES IDX 7 13 3 14 4 15 97 16 5 17 6 18 2 19 1 20 98 21 99 22 100 23
REMARK SMILES IDX 87 25 88 26 89 27 90 28 91 29 95 30 92 31 94 32 93 33 17 34
REMARK SMILES IDX 18 35 19 36 20 37 21 38 22 39 23 40 84 41 24 42 83 43 25 44
REMARK SMILES IDX 26 45 27 46 77 47 28 48 82 49 76 50 78 51 29 52 81 53 75 54
REMARK SMILES IDX 74 55 30 57 62 58 42 59 61 60 43 61 46 62 60 63 79 64 44 65
REMARK SMILES IDX 45 66 59 68 80 69 47 70 31 71 32 72 40 73 33 74 39 75 41 76
REMARK SMILES IDX 38 77 34 78 35 79 36 80 37 81 63 82 64 83 72 84 65 85 71 86
REMARK SMILES IDX 73 87 70 88 66 89 67 90 68 91 69 92 48 93 49 94 57 95 50 96
REMARK SMILES IDX 56 97 58 98 55 99 51 100 52 101 53 102 54 103
REMARK H PARENT 98 24 78 56 46 67
REMARK Flexibility Score: inf
ROOT
ATOM      1  O   UNL A   1      31.394  28.074  25.336  1.00  0.00    -0.374 OA
ENDROOT
BRANCH   1   2
ATOM      2  C   UNL A   1      32.172  26.894  25.124  1.00  0.00     0.202 C 
BRANCH   2   3
ATOM      3  C   UNL A   1      32.543  26.577  23.670  1.00  0.00     0.261 C 
BRANCH   3   4
ATOM      4  O   UNL A   1      33.735  25.778  23.608  1.00  0.00    -0.460 OA
BRANCH   4   5
ATOM      5  C   UNL A   1      33.660  24.671  22.831  1.00  0.00     0.338 C 
ATOM      6  O   UNL A   1      33.327  24.612  21.660  1.00  0.00    -0.246 OA
BRANCH   5   7
ATOM      7  C   UNL A   1      34.272  23.530  23.558  1.00  0.00     0.062 A 
ATOM      8  C   UNL A   1      36.192  22.740  24.836  1.00  0.00    -0.016 A 
ATOM      9  C   UNL A   1      35.594  23.704  24.022  1.00  0.00     0.024 A 
ATOM     10  C   UNL A   1      35.430  21.612  25.155  1.00  0.00     0.030 A 
ATOM     11  C   UNL A   1      34.134  21.412  24.693  1.00  0.00     0.084 A 
ATOM     12  C   UNL A   1      33.539  22.380  23.888  1.00  0.00     0.037 A 
BRANCH   8  13
ATOM     13  C   UNL A   1      37.499  22.912  25.495  1.00  0.00    -0.018 A 
ATOM     14  C   UNL A   1      39.539  21.958  26.538  1.00  0.00     0.010 A 
ATOM     15  C   UNL A   1      39.814  23.238  27.052  1.00  0.00     0.010 A 
ATOM     16  C   UNL A   1      38.378  21.828  25.736  1.00  0.00     0.018 A 
ATOM     17  C   UNL A   1      38.970  24.323  26.810  1.00  0.00     0.001 A 
ATOM     18  C   UNL A   1      37.823  24.162  26.041  1.00  0.00     0.009 A 
BRANCH  14  19
ATOM     19  C   UNL A   1      40.527  20.786  26.764  1.00  0.00     0.211 C 
ATOM     20  C   UNL A   1      40.221  19.532  25.909  1.00  0.00     0.081 C 
BRANCH  19  21
ATOM     21  N   UNL A   1      41.961  21.177  26.680  1.00  0.00    -0.334 N 
ATOM     22  C   UNL A   1      42.596  21.267  28.001  1.00  0.00     0.333 C 
ATOM     23  C   UNL A   1      42.756  20.292  25.829  1.00  0.00     0.333 C 
ATOM     24  H   UNL A   1      41.947  22.102  26.251  1.00  0.00     0.348 HD
ENDBRANCH  19  21
ENDBRANCH  14  19
ENDBRANCH   8  13
BRANCH  11  25
ATOM     25  S   UNL A   1      33.203  19.963  25.153  1.00  0.00     0.243 S 
ATOM     26  O   UNL A   1      33.468  19.750  26.557  1.00  0.00    -0.207 OA
ATOM     27  O   UNL A   1      31.865  20.185  24.645  1.00  0.00    -0.207 OA
BRANCH  25  28
ATOM     28  N   UNL A   1      33.848  18.670  24.301  1.00  0.00    -0.193 NA
ATOM     29  C   UNL A   1      33.058  17.834  23.376  1.00  0.00     0.131 C 
ATOM     30  C   UNL A   1      35.205  18.156  24.552  1.00  0.00     0.131 C 
ATOM     31  C   UNL A   1      33.063  16.365  23.817  1.00  0.00     0.177 C 
ATOM     32  C   UNL A   1      35.134  16.699  25.009  1.00  0.00     0.177 C 
ATOM     33  O   UNL A   1      34.382  15.874  24.102  1.00  0.00    -0.379 OA
ENDBRANCH  25  28
ENDBRANCH  11  25
ENDBRANCH   5   7
ENDBRANCH   4   5
ENDBRANCH   3   4
ENDBRANCH   2   3
ENDBRANCH   1   2
BRANCH   1  34
ATOM     34  C   UNL A   1      32.013  29.320  25.018  1.00  0.00     0.202 C 
BRANCH  34  35
ATOM     35  C   UNL A   1      32.191  30.329  26.160  1.00  0.00     0.261 C 
BRANCH  35  36
ATOM     36  O   UNL A   1      33.448  30.165  26.838  1.00  0.00    -0.460 OA
BRANCH  36  37
ATOM     37  C   UNL A   1      33.928  31.295  27.415  1.00  0.00     0.338 C 
ATOM     38  O   UNL A   1      33.323  32.338  27.594  1.00  0.00    -0.246 OA
BRANCH  37  39
ATOM     39  C   UNL A   1      35.258  31.028  27.997  1.00  0.00     0.060 A 
ATOM     40  C   UNL A   1      35.513  29.729  28.458  1.00  0.00     0.016 A 
ATOM     41  C   UNL A   1      36.213  32.035  28.145  1.00  0.00     0.016 A 
ATOM     42  C   UNL A   1      36.707  29.446  29.119  1.00  0.00     0.010 A 
ATOM     43  C   UNL A   1      37.407  31.749  28.816  1.00  0.00     0.010 A 
ATOM     44  C   UNL A   1      37.643  30.464  29.339  1.00  0.00    -0.014 A 
BRANCH  44  45
ATOM     45  C   UNL A   1      38.791  30.227  30.251  1.00  0.00     0.031 A 
ATOM     46  C   UNL A   1      39.911  29.337  29.784  1.00  0.00     0.074 A 
ATOM     47  C   UNL A   1      38.848  30.814  31.460  1.00  0.00     0.049 A 
ATOM     48  N   UNL A   1      40.969  28.921  30.432  1.00  0.00    -0.248 NA
ATOM     49  C   UNL A   1      39.820  28.844  28.401  1.00  0.00     0.031 C 
ATOM     50  C   UNL A   1      37.855  31.742  31.995  1.00  0.00     0.029 A 
ATOM     51  N   UNL A   1      39.783  30.708  32.459  1.00  0.00    -0.354 N 
ATOM     52  C   UNL A   1      41.666  28.114  29.539  1.00  0.00     0.074 A 
ATOM     53  C   UNL A   1      40.888  28.066  28.320  1.00  0.00     0.031 C 
ATOM     54  C   UNL A   1      38.229  32.116  33.231  1.00  0.00     0.029 A 
ATOM     55  C   UNL A   1      39.460  31.416  33.594  1.00  0.00     0.049 A 
ATOM     56  H   UNL A   1      40.607  30.177  32.374  1.00  0.00     0.167 HD
ATOM     57  C   UNL A   1      42.852  27.481  29.718  1.00  0.00     0.034 A 
ATOM     58  C   UNL A   1      40.070  31.466  34.796  1.00  0.00     0.034 A 
ATOM     59  C   UNL A   1      43.610  27.531  30.945  1.00  0.00     0.049 A 
ATOM     60  C   UNL A   1      41.333  30.663  35.009  1.00  0.00     0.074 A 
ATOM     61  C   UNL A   1      44.820  26.929  31.236  1.00  0.00     0.029 A 
ATOM     62  N   UNL A   1      43.224  28.216  32.091  1.00  0.00    -0.354 N 
ATOM     63  N   UNL A   1      41.979  29.894  34.161  1.00  0.00    -0.248 NA
ATOM     64  C   UNL A   1      41.951  30.739  36.339  1.00  0.00     0.031 C 
ATOM     65  C   UNL A   1      45.127  27.182  32.577  1.00  0.00     0.029 A 
ATOM     66  C   UNL A   1      44.157  28.023  33.098  1.00  0.00     0.049 A 
ATOM     67  H   UNL A   1      42.408  28.761  32.175  1.00  0.00     0.167 HD
ATOM     68  C   UNL A   1      43.104  29.436  34.845  1.00  0.00     0.074 A 
ATOM     69  C   UNL A   1      43.051  30.018  36.168  1.00  0.00     0.031 C 
ATOM     70  C   UNL A   1      44.096  28.613  34.415  1.00  0.00     0.034 A 
BRANCH  57  71
ATOM     71  C   UNL A   1      43.372  26.639  28.578  1.00  0.00     0.023 A 
ATOM     72  C   UNL A   1      44.410  27.083  27.740  1.00  0.00     0.031 A 
ATOM     73  C   UNL A   1      42.809  25.377  28.313  1.00  0.00     0.131 A 
ATOM     74  C   UNL A   1      44.806  26.305  26.642  1.00  0.00     0.055 A 
ATOM     75  C   UNL A   1      43.265  24.570  27.268  1.00  0.00     0.041 A 
ATOM     76  F   UNL A   1      41.798  24.909  29.061  1.00  0.00    -0.206 F 
ATOM     77  C   UNL A   1      44.261  25.039  26.417  1.00  0.00     0.022 A 
BRANCH  74  78
ATOM     78  S   UNL A   1      45.943  27.031  25.429  1.00  0.00     0.124 S 
ATOM     79  O   UNL A   1      45.148  28.141  24.907  1.00  0.00    -0.237 OA
ATOM     80  O   UNL A   1      47.090  27.398  26.251  1.00  0.00    -0.237 OA
ATOM     81  O   UNL A   1      46.175  25.942  24.482  1.00  0.00    -0.744 OA
ENDBRANCH  74  78
ENDBRANCH  57  71
BRANCH  58  82
ATOM     82  C   UNL A   1      39.487  32.266  35.914  1.00  0.00     0.023 A 
ATOM     83  C   UNL A   1      40.016  33.519  36.261  1.00  0.00     0.031 A 
ATOM     84  C   UNL A   1      38.440  31.753  36.702  1.00  0.00     0.131 A 
ATOM     85  C   UNL A   1      39.541  34.188  37.400  1.00  0.00     0.055 A 
ATOM     86  C   UNL A   1      37.926  32.454  37.795  1.00  0.00     0.041 A 
ATOM     87  F   UNL A   1      37.901  30.556  36.423  1.00  0.00    -0.206 F 
ATOM     88  C   UNL A   1      38.489  33.672  38.160  1.00  0.00     0.022 A 
BRANCH  85  89
ATOM     89  S   UNL A   1      40.403  35.689  37.945  1.00  0.00     0.124 S 
ATOM     90  O   UNL A   1      40.768  35.339  39.313  1.00  0.00    -0.237 OA
ATOM     91  O   UNL A   1      41.501  35.771  36.988  1.00  0.00    -0.237 OA
ATOM     92  O   UNL A   1      39.386  36.730  37.816  1.00  0.00    -0.744 OA
ENDBRANCH  85  89
ENDBRANCH  58  82
BRANCH  70  93
ATOM     93  C   UNL A   1      45.242  28.352  35.365  1.00  0.00     0.023 A 
ATOM     94  C   UNL A   1      45.267  27.238  36.222  1.00  0.00     0.031 A 
ATOM     95  C   UNL A   1      46.331  29.242  35.411  1.00  0.00     0.131 A 
ATOM     96  C   UNL A   1      46.328  27.074  37.125  1.00  0.00     0.055 A 
ATOM     97  C   UNL A   1      47.417  29.037  36.262  1.00  0.00     0.041 A 
ATOM     98  F   UNL A   1      46.361  30.327  34.619  1.00  0.00    -0.206 F 
ATOM     99  C   UNL A   1      47.413  27.955  37.136  1.00  0.00     0.022 A 
BRANCH  96 100
ATOM    100  S   UNL A   1      46.228  25.747  38.358  1.00  0.00     0.124 S 
ATOM    101  O   UNL A   1      47.230  26.163  39.334  1.00  0.00    -0.237 OA
ATOM    102  O   UNL A   1      44.839  25.830  38.796  1.00  0.00    -0.237 OA
ATOM    103  O   UNL A   1      46.566  24.545  37.597  1.00  0.00    -0.744 OA
ENDBRANCH  96 100
ENDBRANCH  70  93
ENDBRANCH  44  45
ENDBRANCH  37  39
ENDBRANCH  36  37
ENDBRANCH  35  36
ENDBRANCH  34  35
ENDBRANCH   1  34
TORSDOF 22
ENDMDL
MODEL 3
REMARK VINA RESULT:     -11.1      1.920      2.166
REMARK SMILES C[C@H](c1cccc(-c2cc(C(=O)OCCOCCOC(=O)c3ccc(-c4c5nc(c(-c6cc(S(=O)(=O)[O-])ccc6F)c6ccc([nH]6)c(-c6cc(S(=O)(=O)[O-])ccc6F)c6nc(c(-c7cc(S(=O)(=O)[O-])ccc7F)c7ccc4[nH]7)C=C6)C=C5)cc3)cc(S(=O)(=O)N3CCOCC3)c2)c1)[NH+](C)C
REMARK SMILES IDX 16 1 15 2 14 3 13 4 11 5 12 6 10 7 8 8 9 9 96 10 86 11 85 12
REMARK SMILES IDX 7 13 3 14 4 15 97 16 5 17 6 18 2 19 1 20 98 21 99 22 100 23
REMARK SMILES IDX 87 25 88 26 89 27 90 28 91 29 95 30 92 31 94 32 93 33 17 34
REMARK SMILES IDX 18 35 19 36 20 37 21 38 22 39 23 40 84 41 24 42 83 43 25 44
REMARK SMILES IDX 26 45 27 46 77 47 28 48 82 49 76 50 78 51 29 52 81 53 75 54
REMARK SMILES IDX 74 55 30 57 62 58 42 59 61 60 43 61 46 62 60 63 79 64 44 65
REMARK SMILES IDX 45 66 59 68 80 69 47 70 31 71 32 72 40 73 33 74 39 75 41 76
REMARK SMILES IDX 38 77 34 78 35 79 36 80 37 81 63 82 64 83 72 84 65 85 71 86
REMARK SMILES IDX 73 87 70 88 66 89 67 90 68 91 69 92 48 93 49 94 57 95 50 96
REMARK SMILES IDX 56 97 58 98 55 99 51 100 52 101 53 102 54 103
REMARK H PARENT 98 24 78 56 46 67
REMARK Flexibility Score: inf
ROOT
ATOM      1  O   UNL A   1      32.294  27.932  25.087  1.00  0.00    -0.374 OA
ENDROOT
BRANCH   1   2
ATOM      2  C   UNL A   1      32.124  27.552  23.719  1.00  0.00     0.202 C 
BRANCH   2   3
ATOM      3  C   UNL A   1      33.366  27.008  23.006  1.00  0.00     0.261 C 
BRANCH   3   4
ATOM      4  O   UNL A   1      33.813  25.786  23.616  1.00  0.00    -0.460 OA
BRANCH   4   5
ATOM      5  C   UNL A   1      33.733  24.678  22.840  1.00  0.00     0.338 C 
ATOM      6  O   UNL A   1      33.400  24.619  21.670  1.00  0.00    -0.246 OA
BRANCH   5   7
ATOM      7  C   UNL A   1      34.340  23.535  23.569  1.00  0.00     0.062 A 
ATOM      8  C   UNL A   1      36.242  22.746  24.873  1.00  0.00    -0.016 A 
ATOM      9  C   UNL A   1      35.652  23.713  24.057  1.00  0.00     0.024 A 
ATOM     10  C   UNL A   1      35.482  21.611  25.171  1.00  0.00     0.030 A 
ATOM     11  C   UNL A   1      34.195  21.408  24.685  1.00  0.00     0.084 A 
ATOM     12  C   UNL A   1      33.607  22.378  23.878  1.00  0.00     0.037 A 
BRANCH   8  13
ATOM     13  C   UNL A   1      37.537  22.921  25.556  1.00  0.00    -0.018 A 
ATOM     14  C   UNL A   1      39.613  21.975  26.532  1.00  0.00     0.010 A 
ATOM     15  C   UNL A   1      39.827  23.217  27.154  1.00  0.00     0.010 A 
ATOM     16  C   UNL A   1      38.464  21.861  25.712  1.00  0.00     0.018 A 
ATOM     17  C   UNL A   1      38.936  24.280  26.997  1.00  0.00     0.001 A 
ATOM     18  C   UNL A   1      37.801  24.133  26.207  1.00  0.00     0.009 A 
BRANCH  14  19
ATOM     19  C   UNL A   1      40.652  20.833  26.667  1.00  0.00     0.211 C 
ATOM     20  C   UNL A   1      40.203  19.495  26.031  1.00  0.00     0.081 C 
BRANCH  19  21
ATOM     21  N   UNL A   1      42.028  21.213  26.244  1.00  0.00    -0.334 N 
ATOM     22  C   UNL A   1      42.738  21.986  27.271  1.00  0.00     0.333 C 
ATOM     23  C   UNL A   1      42.853  20.069  25.854  1.00  0.00     0.333 C 
ATOM     24  H   UNL A   1      41.888  21.799  25.421  1.00  0.00     0.348 HD
ENDBRANCH  19  21
ENDBRANCH  14  19
ENDBRANCH   8  13
BRANCH  11  25
ATOM     25  S   UNL A   1      33.264  19.950  25.118  1.00  0.00     0.243 S 
ATOM     26  O   UNL A   1      33.490  19.739  26.529  1.00  0.00    -0.207 OA
ATOM     27  O   UNL A   1      31.940  20.159  24.571  1.00  0.00    -0.207 OA
BRANCH  25  28
ATOM     28  N   UNL A   1      33.947  18.663  24.286  1.00  0.00    -0.193 NA
ATOM     29  C   UNL A   1      33.222  17.885  23.262  1.00  0.00     0.131 C 
ATOM     30  C   UNL A   1      35.256  18.094  24.646  1.00  0.00     0.131 C 
ATOM     31  C   UNL A   1      33.139  16.403  23.649  1.00  0.00     0.177 C 
ATOM     32  C   UNL A   1      35.096  16.627  25.042  1.00  0.00     0.177 C 
ATOM     33  O   UNL A   1      34.409  15.857  24.041  1.00  0.00    -0.379 OA
ENDBRANCH  25  28
ENDBRANCH  11  25
ENDBRANCH   5   7
ENDBRANCH   4   5
ENDBRANCH   3   4
ENDBRANCH   2   3
ENDBRANCH   1   2
BRANCH   1  34
ATOM     34  C   UNL A   1      32.004  29.290  25.419  1.00  0.00     0.202 C 
BRANCH  34  35
ATOM     35  C   UNL A   1      32.530  29.812  26.762  1.00  0.00     0.261 C 
BRANCH  35  36
ATOM     36  O   UNL A   1      33.959  29.967  26.761  1.00  0.00    -0.460 OA
BRANCH  36  37
ATOM     37  C   UNL A   1      34.411  31.030  27.473  1.00  0.00     0.338 C 
ATOM     38  O   UNL A   1      33.788  32.040  27.753  1.00  0.00    -0.246 OA
BRANCH  37  39
ATOM     39  C   UNL A   1      35.731  30.713  28.054  1.00  0.00     0.060 A 
ATOM     40  C   UNL A   1      35.954  29.394  28.470  1.00  0.00     0.016 A 
ATOM     41  C   UNL A   1      36.706  31.693  28.243  1.00  0.00     0.016 A 
ATOM     42  C   UNL A   1      37.136  29.060  29.127  1.00  0.00     0.010 A 
ATOM     43  C   UNL A   1      37.889  31.357  28.911  1.00  0.00     0.010 A 
ATOM     44  C   UNL A   1      38.093  30.049  29.389  1.00  0.00    -0.014 A 
BRANCH  44  45
ATOM     45  C   UNL A   1      39.229  29.754  30.300  1.00  0.00     0.031 A 
ATOM     46  C   UNL A   1      39.205  30.328  31.691  1.00  0.00     0.074 A 
ATOM     47  C   UNL A   1      40.249  28.970  29.906  1.00  0.00     0.049 A 
ATOM     48  N   UNL A   1      40.115  30.276  32.629  1.00  0.00    -0.248 NA
ATOM     49  C   UNL A   1      37.989  31.065  32.071  1.00  0.00     0.031 C 
ATOM     50  C   UNL A   1      40.352  28.311  28.606  1.00  0.00     0.029 A 
ATOM     51  N   UNL A   1      41.397  28.604  30.561  1.00  0.00    -0.354 N 
ATOM     52  C   UNL A   1      39.588  30.978  33.707  1.00  0.00     0.074 A 
ATOM     53  C   UNL A   1      38.296  31.481  33.291  1.00  0.00     0.031 C 
ATOM     54  C   UNL A   1      41.507  27.624  28.556  1.00  0.00     0.029 A 
ATOM     55  C   UNL A   1      42.247  27.836  29.799  1.00  0.00     0.049 A 
ATOM     56  H   UNL A   1      41.595  28.864  31.490  1.00  0.00     0.167 HD
ATOM     57  C   UNL A   1      40.128  31.175  34.935  1.00  0.00     0.034 A 
ATOM     58  C   UNL A   1      43.491  27.387  30.062  1.00  0.00     0.034 A 
ATOM     59  C   UNL A   1      41.423  30.675  35.330  1.00  0.00     0.049 A 
ATOM     60  C   UNL A   1      44.119  27.712  31.399  1.00  0.00     0.074 A 
ATOM     61  C   UNL A   1      42.067  30.816  36.546  1.00  0.00     0.029 A 
ATOM     62  N   UNL A   1      42.278  29.946  34.512  1.00  0.00    -0.354 N 
ATOM     63  N   UNL A   1      43.616  28.386  32.409  1.00  0.00    -0.248 NA
ATOM     64  C   UNL A   1      45.481  27.213  31.631  1.00  0.00     0.031 C 
ATOM     65  C   UNL A   1      43.339  30.244  36.439  1.00  0.00     0.029 A 
ATOM     66  C   UNL A   1      43.454  29.660  35.188  1.00  0.00     0.049 A 
ATOM     67  H   UNL A   1      42.078  29.672  33.588  1.00  0.00     0.167 HD
ATOM     68  C   UNL A   1      44.584  28.347  33.411  1.00  0.00     0.074 A 
ATOM     69  C   UNL A   1      45.693  27.581  32.887  1.00  0.00     0.031 C 
ATOM     70  C   UNL A   1      44.555  28.891  34.656  1.00  0.00     0.034 A 
BRANCH  57  71
ATOM     71  C   UNL A   1      39.341  32.008  35.918  1.00  0.00     0.023 A 
ATOM     72  C   UNL A   1      38.674  31.431  37.013  1.00  0.00     0.031 A 
ATOM     73  C   UNL A   1      39.241  33.401  35.748  1.00  0.00     0.131 A 
ATOM     74  C   UNL A   1      37.885  32.231  37.854  1.00  0.00     0.055 A 
ATOM     75  C   UNL A   1      38.524  34.203  36.637  1.00  0.00     0.041 A 
ATOM     76  F   UNL A   1      39.835  34.007  34.708  1.00  0.00    -0.206 F 
ATOM     77  C   UNL A   1      37.829  33.617  37.691  1.00  0.00     0.022 A 
BRANCH  74  78
ATOM     78  S   UNL A   1      36.821  31.419  39.078  1.00  0.00     0.124 S 
ATOM     79  O   UNL A   1      36.538  30.144  38.422  1.00  0.00    -0.237 OA
ATOM     80  O   UNL A   1      37.683  31.355  40.253  1.00  0.00    -0.237 OA
ATOM     81  O   UNL A   1      35.677  32.321  39.190  1.00  0.00    -0.744 OA
ENDBRANCH  74  78
ENDBRANCH  57  71
BRANCH  58  82
ATOM     82  C   UNL A   1      44.256  26.617  29.037  1.00  0.00     0.023 A 
ATOM     83  C   UNL A   1      44.858  27.263  27.946  1.00  0.00     0.031 A 
ATOM     84  C   UNL A   1      44.330  25.213  29.091  1.00  0.00     0.131 A 
ATOM     85  C   UNL A   1      45.453  26.506  26.924  1.00  0.00     0.055 A 
ATOM     86  C   UNL A   1      44.981  24.468  28.106  1.00  0.00     0.041 A 
ATOM     87  F   UNL A   1      43.766  24.540  30.106  1.00  0.00    -0.206 F 
ATOM     88  C   UNL A   1      45.533  25.114  27.005  1.00  0.00     0.022 A 
BRANCH  85  89
ATOM     89  S   UNL A   1      46.015  27.362  25.426  1.00  0.00     0.124 S 
ATOM     90  O   UNL A   1      47.291  27.917  25.866  1.00  0.00    -0.237 OA
ATOM     91  O   UNL A   1      46.089  26.269  24.463  1.00  0.00    -0.237 OA
ATOM     92  O   UNL A   1      44.960  28.342  25.178  1.00  0.00    -0.744 OA
ENDBRANCH  85  89
ENDBRANCH  58  82
BRANCH  70  93
ATOM     93  C   UNL A   1      45.732  28.613  35.562  1.00  0.00     0.023 A 
ATOM     94  C   UNL A   1      45.764  27.509  36.432  1.00  0.00     0.031 A 
ATOM     95  C   UNL A   1      46.844  29.475  35.551  1.00  0.00     0.131 A 
ATOM     96  C   UNL A   1      46.857  27.329  37.294  1.00  0.00     0.055 A 
ATOM     97  C   UNL A   1      47.958  29.253  36.361  1.00  0.00     0.041 A 
ATOM     98  F   UNL A   1      46.869  30.548  34.744  1.00  0.00    -0.206 F 
ATOM     99  C   UNL A   1      47.963  28.182  37.249  1.00  0.00     0.022 A 
BRANCH  96 100
ATOM    100  S   UNL A   1      46.774  26.021  38.548  1.00  0.00     0.124 S 
ATOM    101  O   UNL A   1      45.345  25.723  38.582  1.00  0.00    -0.237 OA
ATOM    102  O   UNL A   1      47.627  24.984  37.976  1.00  0.00    -0.237 OA
ATOM    103  O   UNL A   1      47.302  26.663  39.750  1.00  0.00    -0.744 OA
ENDBRANCH  96 100
ENDBRANCH  70  93
ENDBRANCH  44  45
ENDBRANCH  37  39
ENDBRANCH  36  37
ENDBRANCH  35  36
ENDBRANCH  34  35
ENDBRANCH   1  34
TORSDOF 22
ENDMDL
