MODEL 1
REMARK VINA RESULT:     -11.6      0.000      0.000
REMARK SMILES COc1cc(Cl)c2c(c1)C=C(C(=O)OCCOCCOC(=O)c1ccc(-c3c4nc(c(-c5cc(S(=O)(=O)[O-])ccc5F)c5ccc([nH]5)c(-c5cc(S(=O)(=O)[O-])ccc5F)c5nc(c(-c6cc(S(=O)(=O)[O-])ccc6F)c6ccc3[nH]6)C=C5)C=C4)cc1)[C@@H](C(F)(F)F)O2
REMARK SMILES IDX 18 1 17 2 16 3 15 4 14 5 12 6 13 7 11 8 3 9 4 10 9 11 5 12
REMARK SMILES IDX 8 13 6 14 7 15 10 16 91 17 86 18 2 19 1 20 87 21 88 22 89 23
REMARK SMILES IDX 90 24 19 25 20 26 21 27 22 28 23 29 24 30 85 31 25 32 84 33
REMARK SMILES IDX 26 34 27 35 28 36 78 37 29 38 83 39 77 40 79 41 30 42 82 43
REMARK SMILES IDX 76 44 75 45 31 47 63 48 43 49 62 50 44 51 47 52 61 53 80 54
REMARK SMILES IDX 45 55 46 56 60 58 81 59 48 60 32 61 33 62 41 63 34 64 40 65
REMARK SMILES IDX 42 66 39 67 35 68 36 69 37 70 38 71 64 72 65 73 73 74 66 75
REMARK SMILES IDX 72 76 74 77 71 78 67 79 68 80 69 81 70 82 49 83 50 84 58 85
REMARK SMILES IDX 51 86 57 87 59 88 56 89 52 90 53 91 54 92 55 93
REMARK H PARENT 79 46 47 57
REMARK Flexibility Score: inf
ROOT
ATOM      1  C   UNL A   1      35.221  20.719  25.417  1.00  0.00     0.202 C 
ENDROOT
BRANCH   1   2
ATOM      2  O   UNL A   1      34.178  20.111  24.653  1.00  0.00    -0.374 OA
BRANCH   2   3
ATOM      3  C   UNL A   1      33.092  20.935  24.238  1.00  0.00     0.202 C 
BRANCH   3   4
ATOM      4  C   UNL A   1      32.006  21.235  25.276  1.00  0.00     0.261 C 
BRANCH   4   5
ATOM      5  O   UNL A   1      31.387  22.511  25.053  1.00  0.00    -0.460 OA
BRANCH   5   6
ATOM      6  C   UNL A   1      31.209  23.250  26.171  1.00  0.00     0.338 C 
ATOM      7  O   UNL A   1      31.130  22.838  27.320  1.00  0.00    -0.246 OA
BRANCH   6   8
ATOM      8  C   UNL A   1      31.264  24.686  25.839  1.00  0.00     0.087 C 
ATOM      9  C   UNL A   1      29.346  28.269  23.273  1.00  0.00     0.121 A 
ATOM     10  C   UNL A   1      30.444  29.075  23.558  1.00  0.00     0.070 A 
ATOM     11  C   UNL A   1      29.249  27.003  23.846  1.00  0.00     0.058 A 
ATOM     12  C   UNL A   1      31.448  28.604  24.412  1.00  0.00     0.087 A 
ATOM     13  C   UNL A   1      30.273  26.516  24.666  1.00  0.00     0.022 A 
ATOM     14  Cl  UNL A   1      32.789  29.646  24.737  1.00  0.00    -0.080 Cl
ATOM     15  C   UNL A   1      31.371  27.322  24.973  1.00  0.00     0.146 A 
ATOM     16  C   UNL A   1      30.219  25.148  25.141  1.00  0.00     0.027 C 
ATOM     17  O   UNL A   1      32.369  26.918  25.817  1.00  0.00    -0.474 OA
ATOM     18  C   UNL A   1      32.445  25.526  26.240  1.00  0.00     0.316 C 
BRANCH   9  19
ATOM     19  O   UNL A   1      28.290  28.651  22.491  1.00  0.00    -0.497 OA
ATOM     20  C   UNL A   1      27.926  30.020  22.636  1.00  0.00     0.278 C 
ENDBRANCH   9  19
BRANCH  18  21
ATOM     21  C   UNL A   1      33.777  24.940  25.751  1.00  0.00     0.430 C 
ATOM     22  F   UNL A   1      34.755  25.871  25.759  1.00  0.00    -0.167 F 
ATOM     23  F   UNL A   1      34.189  23.918  26.538  1.00  0.00    -0.167 F 
ATOM     24  F   UNL A   1      33.671  24.461  24.490  1.00  0.00    -0.167 F 
ENDBRANCH  18  21
ENDBRANCH   6   8
ENDBRANCH   5   6
ENDBRANCH   4   5
ENDBRANCH   3   4
ENDBRANCH   2   3
ENDBRANCH   1   2
BRANCH   1  25
ATOM     25  C   UNL A   1      36.670  20.410  25.020  1.00  0.00     0.261 C 
BRANCH  25  26
ATOM     26  O   UNL A   1      37.546  21.535  25.214  1.00  0.00    -0.460 OA
BRANCH  26  27
ATOM     27  C   UNL A   1      38.721  21.253  25.825  1.00  0.00     0.338 C 
ATOM     28  O   UNL A   1      39.332  20.190  25.804  1.00  0.00    -0.246 OA
BRANCH  27  29
ATOM     29  C   UNL A   1      39.282  22.483  26.401  1.00  0.00     0.060 A 
ATOM     30  C   UNL A   1      38.653  23.701  26.115  1.00  0.00     0.016 A 
ATOM     31  C   UNL A   1      40.458  22.444  27.153  1.00  0.00     0.016 A 
ATOM     32  C   UNL A   1      39.212  24.893  26.568  1.00  0.00     0.010 A 
ATOM     33  C   UNL A   1      41.025  23.643  27.592  1.00  0.00     0.010 A 
ATOM     34  C   UNL A   1      40.418  24.872  27.282  1.00  0.00    -0.014 A 
BRANCH  34  35
ATOM     35  C   UNL A   1      41.087  26.147  27.622  1.00  0.00     0.031 A 
ATOM     36  C   UNL A   1      42.488  26.397  27.151  1.00  0.00     0.074 A 
ATOM     37  C   UNL A   1      40.432  27.080  28.336  1.00  0.00     0.049 A 
ATOM     38  N   UNL A   1      43.238  27.454  27.322  1.00  0.00    -0.248 NA
ATOM     39  C   UNL A   1      43.131  25.315  26.388  1.00  0.00     0.031 C 
ATOM     40  C   UNL A   1      39.067  26.944  28.838  1.00  0.00     0.029 A 
ATOM     41  N   UNL A   1      40.835  28.317  28.767  1.00  0.00    -0.354 N 
ATOM     42  C   UNL A   1      44.437  27.173  26.678  1.00  0.00     0.074 A 
ATOM     43  C   UNL A   1      44.330  25.828  26.155  1.00  0.00     0.031 C 
ATOM     44  C   UNL A   1      38.746  28.054  29.522  1.00  0.00     0.029 A 
ATOM     45  C   UNL A   1      39.890  28.967  29.525  1.00  0.00     0.049 A 
ATOM     46  H   UNL A   1      41.714  28.705  28.554  1.00  0.00     0.167 HD
ATOM     47  C   UNL A   1      45.517  27.973  26.521  1.00  0.00     0.034 A 
ATOM     48  C   UNL A   1      39.943  30.156  30.158  1.00  0.00     0.034 A 
ATOM     49  C   UNL A   1      45.618  29.303  27.063  1.00  0.00     0.049 A 
ATOM     50  C   UNL A   1      41.174  31.011  30.019  1.00  0.00     0.074 A 
ATOM     51  C   UNL A   1      46.664  30.201  26.936  1.00  0.00     0.029 A 
ATOM     52  N   UNL A   1      44.651  29.924  27.841  1.00  0.00    -0.354 N 
ATOM     53  N   UNL A   1      42.274  30.767  29.345  1.00  0.00    -0.248 NA
ATOM     54  C   UNL A   1      41.173  32.308  30.711  1.00  0.00     0.031 C 
ATOM     55  C   UNL A   1      46.353  31.340  27.683  1.00  0.00     0.029 A 
ATOM     56  C   UNL A   1      45.088  31.182  28.226  1.00  0.00     0.049 A 
ATOM     57  H   UNL A   1      43.782  29.529  28.082  1.00  0.00     0.167 HD
ATOM     58  C   UNL A   1      43.091  31.880  29.523  1.00  0.00     0.074 A 
ATOM     59  C   UNL A   1      42.345  32.811  30.345  1.00  0.00     0.031 C 
ATOM     60  C   UNL A   1      44.344  32.105  29.051  1.00  0.00     0.034 A 
BRANCH  47  61
ATOM     61  C   UNL A   1      46.679  27.445  25.720  1.00  0.00     0.023 A 
ATOM     62  C   UNL A   1      46.892  27.888  24.403  1.00  0.00     0.031 A 
ATOM     63  C   UNL A   1      47.514  26.434  26.228  1.00  0.00     0.131 A 
ATOM     64  C   UNL A   1      47.903  27.304  23.630  1.00  0.00     0.055 A 
ATOM     65  C   UNL A   1      48.542  25.880  25.466  1.00  0.00     0.041 A 
ATOM     66  F   UNL A   1      47.351  25.981  27.483  1.00  0.00    -0.206 F 
ATOM     67  C   UNL A   1      48.734  26.308  24.156  1.00  0.00     0.022 A 
BRANCH  64  68
ATOM     68  S   UNL A   1      48.156  27.785  21.900  1.00  0.00     0.124 S 
ATOM     69  O   UNL A   1      49.319  28.663  22.000  1.00  0.00    -0.237 OA
ATOM     70  O   UNL A   1      48.401  26.496  21.260  1.00  0.00    -0.237 OA
ATOM     71  O   UNL A   1      46.910  28.447  21.534  1.00  0.00    -0.744 OA
ENDBRANCH  64  68
ENDBRANCH  47  61
BRANCH  48  72
ATOM     72  C   UNL A   1      38.755  30.598  30.938  1.00  0.00     0.023 A 
ATOM     73  C   UNL A   1      37.664  31.211  30.295  1.00  0.00     0.031 A 
ATOM     74  C   UNL A   1      38.753  30.539  32.340  1.00  0.00     0.131 A 
ATOM     75  C   UNL A   1      36.653  31.806  31.059  1.00  0.00     0.055 A 
ATOM     76  C   UNL A   1      37.713  31.079  33.096  1.00  0.00     0.041 A 
ATOM     77  F   UNL A   1      39.779  29.970  32.993  1.00  0.00    -0.206 F 
ATOM     78  C   UNL A   1      36.663  31.732  32.455  1.00  0.00     0.022 A 
BRANCH  75  79
ATOM     79  S   UNL A   1      35.353  32.791  30.267  1.00  0.00     0.124 S 
ATOM     80  O   UNL A   1      36.009  34.085  30.095  1.00  0.00    -0.237 OA
ATOM     81  O   UNL A   1      35.121  32.034  29.040  1.00  0.00    -0.237 OA
ATOM     82  O   UNL A   1      34.263  32.766  31.236  1.00  0.00    -0.744 OA
ENDBRANCH  75  79
ENDBRANCH  48  72
BRANCH  60  83
ATOM     83  C   UNL A   1      45.027  33.401  29.415  1.00  0.00     0.023 A 
ATOM     84  C   UNL A   1      44.948  34.512  28.556  1.00  0.00     0.031 A 
ATOM     85  C   UNL A   1      45.867  33.489  30.540  1.00  0.00     0.131 A 
ATOM     86  C   UNL A   1      45.722  35.650  28.814  1.00  0.00     0.055 A 
ATOM     87  C   UNL A   1      46.604  34.641  30.817  1.00  0.00     0.041 A 
ATOM     88  F   UNL A   1      45.984  32.452  31.385  1.00  0.00    -0.206 F 
ATOM     89  C   UNL A   1      46.543  35.724  29.945  1.00  0.00     0.022 A 
BRANCH  86  90
ATOM     90  S   UNL A   1      45.746  37.051  27.661  1.00  0.00     0.124 S 
ATOM     91  O   UNL A   1      46.482  38.059  28.422  1.00  0.00    -0.237 OA
ATOM     92  O   UNL A   1      46.458  36.493  26.515  1.00  0.00    -0.237 OA
ATOM     93  O   UNL A   1      44.335  37.349  27.440  1.00  0.00    -0.744 OA
ENDBRANCH  86  90
ENDBRANCH  60  83
ENDBRANCH  34  35
ENDBRANCH  27  29
ENDBRANCH  26  27
ENDBRANCH  25  26
ENDBRANCH   1  25
TORSDOF 19
ENDMDL
MODEL 2
REMARK VINA RESULT:     -11.5      0.353      7.377
REMARK SMILES COc1cc(Cl)c2c(c1)C=C(C(=O)OCCOCCOC(=O)c1ccc(-c3c4nc(c(-c5cc(S(=O)(=O)[O-])ccc5F)c5ccc([nH]5)c(-c5cc(S(=O)(=O)[O-])ccc5F)c5nc(c(-c6cc(S(=O)(=O)[O-])ccc6F)c6ccc3[nH]6)C=C5)C=C4)cc1)[C@@H](C(F)(F)F)O2
REMARK SMILES IDX 18 1 17 2 16 3 15 4 14 5 12 6 13 7 11 8 3 9 4 10 9 11 5 12
REMARK SMILES IDX 8 13 6 14 7 15 10 16 91 17 86 18 2 19 1 20 87 21 88 22 89 23
REMARK SMILES IDX 90 24 19 25 20 26 21 27 22 28 23 29 24 30 85 31 25 32 84 33
REMARK SMILES IDX 26 34 27 35 28 36 78 37 29 38 83 39 77 40 79 41 30 42 82 43
REMARK SMILES IDX 76 44 75 45 31 47 63 48 43 49 62 50 44 51 47 52 61 53 80 54
REMARK SMILES IDX 45 55 46 56 60 58 81 59 48 60 32 61 33 62 41 63 34 64 40 65
REMARK SMILES IDX 42 66 39 67 35 68 36 69 37 70 38 71 64 72 65 73 73 74 66 75
REMARK SMILES IDX 72 76 74 77 71 78 67 79 68 80 69 81 70 82 49 83 50 84 58 85
REMARK SMILES IDX 51 86 57 87 59 88 56 89 52 90 53 91 54 92 55 93
REMARK H PARENT 79 46 47 57
REMARK Flexibility Score: inf
ROOT
ATOM      1  C   UNL A   1      35.298  20.483  25.010  1.00  0.00     0.202 C 
ENDROOT
BRANCH   1   2
ATOM      2  O   UNL A   1      34.277  21.145  24.263  1.00  0.00    -0.374 OA
BRANCH   2   3
ATOM      3  C   UNL A   1      32.959  20.605  24.316  1.00  0.00     0.202 C 
BRANCH   3   4
ATOM      4  C   UNL A   1      32.033  21.131  25.417  1.00  0.00     0.261 C 
BRANCH   4   5
ATOM      5  O   UNL A   1      31.483  22.416  25.088  1.00  0.00    -0.460 OA
BRANCH   5   6
ATOM      6  C   UNL A   1      31.268  23.223  26.151  1.00  0.00     0.338 C 
ATOM      7  O   UNL A   1      31.084  22.878  27.310  1.00  0.00    -0.246 OA
BRANCH   6   8
ATOM      8  C   UNL A   1      31.430  24.634  25.753  1.00  0.00     0.087 C 
ATOM      9  C   UNL A   1      29.774  28.231  23.029  1.00  0.00     0.121 A 
ATOM     10  C   UNL A   1      30.932  28.963  23.273  1.00  0.00     0.070 A 
ATOM     11  C   UNL A   1      29.585  27.003  23.659  1.00  0.00     0.058 A 
ATOM     12  C   UNL A   1      31.902  28.458  24.147  1.00  0.00     0.087 A 
ATOM     13  C   UNL A   1      30.574  26.478  24.498  1.00  0.00     0.022 A 
ATOM     14  Cl  UNL A   1      33.319  29.408  24.420  1.00  0.00    -0.080 Cl
ATOM     15  C   UNL A   1      31.731  27.212  24.766  1.00  0.00     0.146 A 
ATOM     16  C   UNL A   1      30.419  25.142  25.037  1.00  0.00     0.027 C 
ATOM     17  O   UNL A   1      32.701  26.772  25.626  1.00  0.00    -0.474 OA
ATOM     18  C   UNL A   1      32.673  25.400  26.113  1.00  0.00     0.316 C 
BRANCH   9  19
ATOM     19  O   UNL A   1      28.746  28.655  22.231  1.00  0.00    -0.497 OA
ATOM     20  C   UNL A   1      27.885  29.606  22.851  1.00  0.00     0.278 C 
ENDBRANCH   9  19
BRANCH  18  21
ATOM     21  C   UNL A   1      33.955  24.692  25.648  1.00  0.00     0.430 C 
ATOM     22  F   UNL A   1      35.020  25.521  25.700  1.00  0.00    -0.167 F 
ATOM     23  F   UNL A   1      34.241  23.622  26.426  1.00  0.00    -0.167 F 
ATOM     24  F   UNL A   1      33.838  24.248  24.375  1.00  0.00    -0.167 F 
ENDBRANCH  18  21
ENDBRANCH   6   8
ENDBRANCH   5   6
ENDBRANCH   4   5
ENDBRANCH   3   4
ENDBRANCH   2   3
ENDBRANCH   1   2
BRANCH   1  25
ATOM     25  C   UNL A   1      36.755  20.878  24.735  1.00  0.00     0.261 C 
BRANCH  25  26
ATOM     26  O   UNL A   1      37.337  21.626  25.818  1.00  0.00    -0.460 OA
BRANCH  26  27
ATOM     27  C   UNL A   1      38.658  21.413  26.023  1.00  0.00     0.338 C 
ATOM     28  O   UNL A   1      39.306  20.419  25.712  1.00  0.00    -0.246 OA
BRANCH  27  29
ATOM     29  C   UNL A   1      39.280  22.641  26.534  1.00  0.00     0.060 A 
ATOM     30  C   UNL A   1      38.743  23.874  26.142  1.00  0.00     0.016 A 
ATOM     31  C   UNL A   1      40.426  22.581  27.329  1.00  0.00     0.016 A 
ATOM     32  C   UNL A   1      39.365  25.057  26.532  1.00  0.00     0.010 A 
ATOM     33  C   UNL A   1      41.057  23.769  27.705  1.00  0.00     0.010 A 
ATOM     34  C   UNL A   1      40.543  25.009  27.289  1.00  0.00    -0.014 A 
BRANCH  34  35
ATOM     35  C   UNL A   1      41.283  26.260  27.566  1.00  0.00     0.031 A 
ATOM     36  C   UNL A   1      40.623  27.352  28.354  1.00  0.00     0.074 A 
ATOM     37  C   UNL A   1      42.545  26.406  27.127  1.00  0.00     0.049 A 
ATOM     38  N   UNL A   1      41.107  28.510  28.722  1.00  0.00    -0.248 NA
ATOM     39  C   UNL A   1      39.236  27.111  28.783  1.00  0.00     0.031 C 
ATOM     40  C   UNL A   1      43.284  25.407  26.358  1.00  0.00     0.029 A 
ATOM     41  N   UNL A   1      43.419  27.455  27.256  1.00  0.00    -0.354 N 
ATOM     42  C   UNL A   1      40.091  29.131  29.438  1.00  0.00     0.074 A 
ATOM     43  C   UNL A   1      38.949  28.243  29.410  1.00  0.00     0.031 C 
ATOM     44  C   UNL A   1      44.502  25.896  26.073  1.00  0.00     0.029 A 
ATOM     45  C   UNL A   1      44.618  27.249  26.618  1.00  0.00     0.049 A 
ATOM     46  H   UNL A   1      43.209  28.275  27.758  1.00  0.00     0.167 HD
ATOM     47  C   UNL A   1      40.118  30.325  30.076  1.00  0.00     0.034 A 
ATOM     48  C   UNL A   1      45.685  28.062  26.479  1.00  0.00     0.034 A 
ATOM     49  C   UNL A   1      41.255  31.209  30.080  1.00  0.00     0.049 A 
ATOM     50  C   UNL A   1      45.678  29.409  27.149  1.00  0.00     0.074 A 
ATOM     51  C   UNL A   1      41.386  32.429  30.720  1.00  0.00     0.029 A 
ATOM     52  N   UNL A   1      42.448  30.979  29.409  1.00  0.00    -0.354 N 
ATOM     53  N   UNL A   1      44.740  29.957  27.886  1.00  0.00    -0.248 NA
ATOM     54  C   UNL A   1      46.875  30.247  26.984  1.00  0.00     0.031 C 
ATOM     55  C   UNL A   1      42.635  32.962  30.390  1.00  0.00     0.029 A 
ATOM     56  C   UNL A   1      43.309  32.048  29.595  1.00  0.00     0.049 A 
ATOM     57  H   UNL A   1      42.652  30.174  28.881  1.00  0.00     0.167 HD
ATOM     58  C   UNL A   1      45.235  31.197  28.281  1.00  0.00     0.074 A 
ATOM     59  C   UNL A   1      46.568  31.306  27.724  1.00  0.00     0.031 C 
ATOM     60  C   UNL A   1      44.636  32.156  29.033  1.00  0.00     0.034 A 
BRANCH  47  61
ATOM     61  C   UNL A   1      38.890  30.748  30.839  1.00  0.00     0.023 A 
ATOM     62  C   UNL A   1      37.809  31.344  30.167  1.00  0.00     0.031 A 
ATOM     63  C   UNL A   1      38.832  30.647  32.241  1.00  0.00     0.131 A 
ATOM     64  C   UNL A   1      36.723  31.840  30.901  1.00  0.00     0.055 A 
ATOM     65  C   UNL A   1      37.733  31.109  32.964  1.00  0.00     0.041 A 
ATOM     66  F   UNL A   1      39.839  30.081  32.925  1.00  0.00    -0.206 F 
ATOM     67  C   UNL A   1      36.676  31.718  32.294  1.00  0.00     0.022 A 
BRANCH  64  68
ATOM     68  S   UNL A   1      35.349  32.692  30.083  1.00  0.00     0.124 S 
ATOM     69  O   UNL A   1      35.962  33.965  29.711  1.00  0.00    -0.237 OA
ATOM     70  O   UNL A   1      35.053  31.793  28.971  1.00  0.00    -0.237 OA
ATOM     71  O   UNL A   1      34.324  32.778  31.117  1.00  0.00    -0.744 OA
ENDBRANCH  64  68
ENDBRANCH  47  61
BRANCH  48  72
ATOM     72  C   UNL A   1      46.855  27.570  25.699  1.00  0.00     0.023 A 
ATOM     73  C   UNL A   1      47.073  28.009  24.382  1.00  0.00     0.031 A 
ATOM     74  C   UNL A   1      47.684  26.559  26.210  1.00  0.00     0.131 A 
ATOM     75  C   UNL A   1      48.049  27.386  23.594  1.00  0.00     0.055 A 
ATOM     76  C   UNL A   1      48.697  25.984  25.443  1.00  0.00     0.041 A 
ATOM     77  F   UNL A   1      47.504  26.105  27.461  1.00  0.00    -0.206 F 
ATOM     78  C   UNL A   1      48.872  26.385  24.121  1.00  0.00     0.022 A 
BRANCH  75  79
ATOM     79  S   UNL A   1      48.204  27.777  21.831  1.00  0.00     0.124 S 
ATOM     80  O   UNL A   1      49.310  28.731  21.823  1.00  0.00    -0.237 OA
ATOM     81  O   UNL A   1      48.500  26.463  21.266  1.00  0.00    -0.237 OA
ATOM     82  O   UNL A   1      46.899  28.329  21.484  1.00  0.00    -0.744 OA
ENDBRANCH  75  79
ENDBRANCH  48  72
BRANCH  60  83
ATOM     83  C   UNL A   1      45.390  33.437  29.298  1.00  0.00     0.023 A 
ATOM     84  C   UNL A   1      45.333  34.498  28.375  1.00  0.00     0.031 A 
ATOM     85  C   UNL A   1      46.268  33.551  30.389  1.00  0.00     0.131 A 
ATOM     86  C   UNL A   1      46.168  35.611  28.540  1.00  0.00     0.055 A 
ATOM     87  C   UNL A   1      47.066  34.681  30.574  1.00  0.00     0.041 A 
ATOM     88  F   UNL A   1      46.365  32.561  31.292  1.00  0.00    -0.206 F 
ATOM     89  C   UNL A   1      47.027  35.712  29.639  1.00  0.00     0.022 A 
BRANCH  86  90
ATOM     90  S   UNL A   1      46.218  36.938  27.304  1.00  0.00     0.124 S 
ATOM     91  O   UNL A   1      47.144  37.889  27.916  1.00  0.00    -0.237 OA
ATOM     92  O   UNL A   1      46.729  36.241  26.127  1.00  0.00    -0.237 OA
ATOM     93  O   UNL A   1      44.834  37.390  27.216  1.00  0.00    -0.744 OA
ENDBRANCH  86  90
ENDBRANCH  60  83
ENDBRANCH  34  35
ENDBRANCH  27  29
ENDBRANCH  26  27
ENDBRANCH  25  26
ENDBRANCH   1  25
TORSDOF 19
ENDMDL
MODEL 3
REMARK VINA RESULT:     -11.4      5.401      8.273
REMARK SMILES COc1cc(Cl)c2c(c1)C=C(C(=O)OCCOCCOC(=O)c1ccc(-c3c4nc(c(-c5cc(S(=O)(=O)[O-])ccc5F)c5ccc([nH]5)c(-c5cc(S(=O)(=O)[O-])ccc5F)c5nc(c(-c6cc(S(=O)(=O)[O-])ccc6F)c6ccc3[nH]6)C=C5)C=C4)cc1)[C@@H](C(F)(F)F)O2
REMARK SMILES IDX 18 1 17 2 16 3 15 4 14 5 12 6 13 7 11 8 3 9 4 10 9 11 5 12
REMARK SMILES IDX 8 13 6 14 7 15 10 16 91 17 86 18 2 19 1 20 87 21 88 22 89 23
REMARK SMILES IDX 90 24 19 25 20 26 21 27 22 28 23 29 24 30 85 31 25 32 84 33
REMARK SMILES IDX 26 34 27 35 28 36 78 37 29 38 83 39 77 40 79 41 30 42 82 43
REMARK SMILES IDX 76 44 75 45 31 47 63 48 43 49 62 50 44 51 47 52 61 53 80 54
REMARK SMILES IDX 45 55 46 56 60 58 81 59 48 60 32 61 33 62 41 63 34 64 40 65
REMARK SMILES IDX 42 66 39 67 35 68 36 69 37 70 38 71 64 72 65 73 73 74 66 75
REMARK SMILES IDX 72 76 74 77 71 78 67 79 68 80 69 81 70 82 49 83 50 84 58 85
REMARK SMILES IDX 51 86 57 87 59 88 56 89 52 90 53 91 54 92 55 93
REMARK H PARENT 79 46 47 57
REMARK Flexibility Score: inf
ROOT
ATOM      1  C   UNL A   1      31.785  31.285  26.832  1.00  0.00     0.202 C 
ENDROOT
BRANCH   1   2
ATOM      2  O   UNL A   1      32.729  30.588  26.016  1.00  0.00    -0.374 OA
BRANCH   2   3
ATOM      3  C   UNL A   1      33.658  29.724  26.666  1.00  0.00     0.202 C 
BRANCH   3   4
ATOM      4  C   UNL A   1      34.157  28.512  25.872  1.00  0.00     0.261 C 
BRANCH   4   5
ATOM      5  O   UNL A   1      33.765  28.575  24.493  1.00  0.00    -0.460 OA
BRANCH   5   6
ATOM      6  C   UNL A   1      33.271  27.418  23.996  1.00  0.00     0.338 C 
ATOM      7  O   UNL A   1      33.860  26.351  23.898  1.00  0.00    -0.246 OA
BRANCH   6   8
ATOM      8  C   UNL A   1      31.833  27.568  23.708  1.00  0.00     0.087 C 
ATOM      9  C   UNL A   1      28.411  30.347  21.793  1.00  0.00     0.121 A 
ATOM     10  C   UNL A   1      27.427  29.574  22.403  1.00  0.00     0.070 A 
ATOM     11  C   UNL A   1      29.750  29.979  21.906  1.00  0.00     0.058 A 
ATOM     12  C   UNL A   1      27.791  28.436  23.133  1.00  0.00     0.087 A 
ATOM     13  C   UNL A   1      30.116  28.867  22.671  1.00  0.00     0.022 A 
ATOM     14  Cl  UNL A   1      26.531  27.509  23.868  1.00  0.00    -0.080 Cl
ATOM     15  C   UNL A   1      29.137  28.073  23.273  1.00  0.00     0.146 A 
ATOM     16  C   UNL A   1      31.520  28.580  22.889  1.00  0.00     0.027 C 
ATOM     17  O   UNL A   1      29.438  26.942  23.981  1.00  0.00    -0.474 OA
ATOM     18  C   UNL A   1      30.820  26.652  24.338  1.00  0.00     0.316 C 
BRANCH   9  19
ATOM     19  O   UNL A   1      28.159  31.448  21.020  1.00  0.00    -0.497 OA
ATOM     20  C   UNL A   1      28.361  32.687  21.693  1.00  0.00     0.278 C 
ENDBRANCH   9  19
BRANCH  18  21
ATOM     21  C   UNL A   1      30.930  26.619  25.870  1.00  0.00     0.430 C 
ATOM     22  F   UNL A   1      31.057  27.863  26.379  1.00  0.00    -0.167 F 
ATOM     23  F   UNL A   1      29.833  26.063  26.435  1.00  0.00    -0.167 F 
ATOM     24  F   UNL A   1      32.002  25.896  26.271  1.00  0.00    -0.167 F 
ENDBRANCH  18  21
ENDBRANCH   6   8
ENDBRANCH   5   6
ENDBRANCH   4   5
ENDBRANCH   3   4
ENDBRANCH   2   3
ENDBRANCH   1   2
BRANCH   1  25
ATOM     25  C   UNL A   1      31.884  32.814  26.892  1.00  0.00     0.261 C 
BRANCH  25  26
ATOM     26  O   UNL A   1      33.233  33.272  27.098  1.00  0.00    -0.460 OA
BRANCH  26  27
ATOM     27  C   UNL A   1      33.410  34.082  28.168  1.00  0.00     0.338 C 
ATOM     28  O   UNL A   1      32.708  35.028  28.507  1.00  0.00    -0.246 OA
BRANCH  27  29
ATOM     29  C   UNL A   1      34.500  33.559  29.004  1.00  0.00     0.060 A 
ATOM     30  C   UNL A   1      35.799  34.031  28.778  1.00  0.00     0.016 A 
ATOM     31  C   UNL A   1      34.256  32.560  29.948  1.00  0.00     0.016 A 
ATOM     32  C   UNL A   1      36.867  33.490  29.488  1.00  0.00     0.010 A 
ATOM     33  C   UNL A   1      35.331  32.007  30.647  1.00  0.00     0.010 A 
ATOM     34  C   UNL A   1      36.642  32.453  30.403  1.00  0.00    -0.014 A 
BRANCH  34  35
ATOM     35  C   UNL A   1      37.796  31.775  31.036  1.00  0.00     0.031 A 
ATOM     36  C   UNL A   1      38.524  30.699  30.287  1.00  0.00     0.074 A 
ATOM     37  C   UNL A   1      38.196  32.137  32.267  1.00  0.00     0.049 A 
ATOM     38  N   UNL A   1      39.568  30.003  30.654  1.00  0.00    -0.248 NA
ATOM     39  C   UNL A   1      38.008  30.359  28.952  1.00  0.00     0.031 C 
ATOM     40  C   UNL A   1      37.565  33.174  33.080  1.00  0.00     0.029 A 
ATOM     41  N   UNL A   1      39.219  31.664  33.047  1.00  0.00    -0.354 N 
ATOM     42  C   UNL A   1      39.846  29.153  29.591  1.00  0.00     0.074 A 
ATOM     43  C   UNL A   1      38.830  29.386  28.587  1.00  0.00     0.031 C 
ATOM     44  C   UNL A   1      38.210  33.253  34.256  1.00  0.00     0.029 A 
ATOM     45  C   UNL A   1      39.282  32.257  34.285  1.00  0.00     0.049 A 
ATOM     46  H   UNL A   1      39.848  30.968  32.750  1.00  0.00     0.167 HD
ATOM     47  C   UNL A   1      40.866  28.273  29.459  1.00  0.00     0.034 A 
ATOM     48  C   UNL A   1      40.103  32.020  35.328  1.00  0.00     0.034 A 
ATOM     49  C   UNL A   1      41.859  28.037  30.474  1.00  0.00     0.049 A 
ATOM     50  C   UNL A   1      41.200  30.999  35.185  1.00  0.00     0.074 A 
ATOM     51  C   UNL A   1      42.947  27.183  30.423  1.00  0.00     0.029 A 
ATOM     52  N   UNL A   1      41.885  28.641  31.723  1.00  0.00    -0.354 N 
ATOM     53  N   UNL A   1      41.500  30.253  34.147  1.00  0.00    -0.248 NA
ATOM     54  C   UNL A   1      42.081  30.793  36.344  1.00  0.00     0.031 C 
ATOM     55  C   UNL A   1      43.597  27.229  31.659  1.00  0.00     0.029 A 
ATOM     56  C   UNL A   1      42.952  28.157  32.462  1.00  0.00     0.049 A 
ATOM     57  H   UNL A   1      41.240  29.315  32.037  1.00  0.00     0.167 HD
ATOM     58  C   UNL A   1      42.607  29.496  34.522  1.00  0.00     0.074 A 
ATOM     59  C   UNL A   1      42.941  29.898  35.874  1.00  0.00     0.031 C 
ATOM     60  C   UNL A   1      43.279  28.555  33.812  1.00  0.00     0.034 A 
BRANCH  47  61
ATOM     61  C   UNL A   1      40.977  27.506  28.167  1.00  0.00     0.023 A 
ATOM     62  C   UNL A   1      40.654  26.139  28.125  1.00  0.00     0.031 A 
ATOM     63  C   UNL A   1      41.494  28.107  27.005  1.00  0.00     0.131 A 
ATOM     64  C   UNL A   1      40.872  25.410  26.949  1.00  0.00     0.055 A 
ATOM     65  C   UNL A   1      41.677  27.385  25.826  1.00  0.00     0.041 A 
ATOM     66  F   UNL A   1      41.813  29.411  26.996  1.00  0.00    -0.206 F 
ATOM     67  C   UNL A   1      41.375  26.027  25.798  1.00  0.00     0.022 A 
BRANCH  64  68
ATOM     68  S   UNL A   1      40.550  23.628  26.877  1.00  0.00     0.124 S 
ATOM     69  O   UNL A   1      41.615  23.165  25.991  1.00  0.00    -0.237 OA
ATOM     70  O   UNL A   1      40.688  23.238  28.277  1.00  0.00    -0.237 OA
ATOM     71  O   UNL A   1      39.203  23.537  26.325  1.00  0.00    -0.744 OA
ENDBRANCH  64  68
ENDBRANCH  47  61
BRANCH  48  72
ATOM     72  C   UNL A   1      39.919  32.816  36.572  1.00  0.00     0.023 A 
ATOM     73  C   UNL A   1      39.056  32.367  37.588  1.00  0.00     0.031 A 
ATOM     74  C   UNL A   1      40.492  34.091  36.701  1.00  0.00     0.131 A 
ATOM     75  C   UNL A   1      38.733  33.218  38.652  1.00  0.00     0.055 A 
ATOM     76  C   UNL A   1      40.216  34.912  37.794  1.00  0.00     0.041 A 
ATOM     77  F   UNL A   1      41.314  34.561  35.750  1.00  0.00    -0.206 F 
ATOM     78  C   UNL A   1      39.318  34.483  38.769  1.00  0.00     0.022 A 
BRANCH  75  79
ATOM     79  S   UNL A   1      37.459  32.754  39.855  1.00  0.00     0.124 S 
ATOM     80  O   UNL A   1      37.449  33.906  40.753  1.00  0.00    -0.237 OA
ATOM     81  O   UNL A   1      36.285  32.614  38.997  1.00  0.00    -0.237 OA
ATOM     82  O   UNL A   1      37.966  31.514  40.432  1.00  0.00    -0.744 OA
ENDBRANCH  75  79
ENDBRANCH  48  72
BRANCH  60  83
ATOM     83  C   UNL A   1      44.445  27.856  34.469  1.00  0.00     0.023 A 
ATOM     84  C   UNL A   1      44.243  26.664  35.190  1.00  0.00     0.031 A 
ATOM     85  C   UNL A   1      45.723  28.441  34.496  1.00  0.00     0.131 A 
ATOM     86  C   UNL A   1      45.293  26.116  35.939  1.00  0.00     0.055 A 
ATOM     87  C   UNL A   1      46.778  27.867  35.208  1.00  0.00     0.041 A 
ATOM     88  F   UNL A   1      45.963  29.583  33.831  1.00  0.00    -0.206 F 
ATOM     89  C   UNL A   1      46.561  26.706  35.944  1.00  0.00     0.022 A 
BRANCH  86  90
ATOM     90  S   UNL A   1      45.037  24.655  36.983  1.00  0.00     0.124 S 
ATOM     91  O   UNL A   1      44.213  23.807  36.124  1.00  0.00    -0.237 OA
ATOM     92  O   UNL A   1      46.404  24.186  37.194  1.00  0.00    -0.237 OA
ATOM     93  O   UNL A   1      44.364  25.180  38.165  1.00  0.00    -0.744 OA
ENDBRANCH  86  90
ENDBRANCH  60  83
ENDBRANCH  34  35
ENDBRANCH  27  29
ENDBRANCH  26  27
ENDBRANCH  25  26
ENDBRANCH   1  25
TORSDOF 19
ENDMDL
