MODEL 1
REMARK VINA RESULT:     -10.2      0.000      0.000
REMARK SMILES COc1ccc(OCC(=O)N[C@H](C)C(=O)OCCOCCOC(=O)c2ccc(-c3c4nc(c(-c5cc(S(=O)(=O)[O-])ccc5F)c5ccc([nH]5)c(-c5cc(S(=O)(=O)[O-])ccc5F)c5nc(c(-c6cc(S(=O)(=O)[O-])ccc6F)c6ccc3[nH]6)C=C5)C=C4)cc2)cc1
REMARK SMILES IDX 18 1 17 2 16 3 14 4 15 5 12 6 13 7 11 8 9 9 10 10 8 12 7 13
REMARK SMILES IDX 6 14 3 15 4 16 89 17 5 18 88 19 2 20 1 21 19 22 20 23 21 24
REMARK SMILES IDX 22 25 23 26 24 27 25 28 26 29 87 30 27 31 86 32 28 33 29 34
REMARK SMILES IDX 30 35 80 36 31 37 85 38 79 39 81 40 32 41 84 42 78 43 77 44
REMARK SMILES IDX 33 46 65 47 45 48 64 49 46 50 49 51 63 52 82 53 47 54 48 55
REMARK SMILES IDX 62 57 83 58 50 59 34 60 35 61 43 62 36 63 42 64 44 65 41 66
REMARK SMILES IDX 37 67 38 68 39 69 40 70 66 71 67 72 75 73 68 74 74 75 76 76
REMARK SMILES IDX 73 77 69 78 70 79 71 80 72 81 51 82 52 83 60 84 53 85 59 86
REMARK SMILES IDX 61 87 58 88 54 89 55 90 56 91 57 92
REMARK H PARENT 11 11 81 45 49 56
REMARK Flexibility Score: inf
ROOT
ATOM      1  C   UNL A   1      34.616  21.819  26.662  1.00  0.00     0.202 C 
ENDROOT
BRANCH   1   2
ATOM      2  C   UNL A   1      33.395  22.443  27.339  1.00  0.00     0.261 C 
BRANCH   2   3
ATOM      3  O   UNL A   1      32.279  22.503  26.432  1.00  0.00    -0.462 OA
BRANCH   3   4
ATOM      4  C   UNL A   1      31.669  23.713  26.318  1.00  0.00     0.328 C 
ATOM      5  O   UNL A   1      31.403  24.462  27.252  1.00  0.00    -0.250 OA
BRANCH   4   6
ATOM      6  C   UNL A   1      31.218  23.997  24.882  1.00  0.00     0.189 C 
ATOM      7  C   UNL A   1      30.488  25.311  24.665  1.00  0.00     0.043 C 
BRANCH   6   8
ATOM      8  N   UNL A   1      32.305  23.664  23.969  1.00  0.00    -0.340 N 
ATOM      9  C   UNL A   1      32.436  22.706  23.016  1.00  0.00     0.258 C 
ATOM     10  O   UNL A   1      33.336  22.869  22.185  1.00  0.00    -0.271 OA
ATOM     11  H   UNL A   1      33.094  24.245  24.061  1.00  0.00     0.164 HD
BRANCH   9  12
ATOM     12  C   UNL A   1      31.535  21.460  22.962  1.00  0.00     0.329 C 
BRANCH  12  13
ATOM     13  O   UNL A   1      31.990  20.287  22.303  1.00  0.00    -0.484 OA
BRANCH  13  14
ATOM     14  C   UNL A   1      32.528  19.282  23.055  1.00  0.00     0.120 A 
ATOM     15  C   UNL A   1      33.441  16.991  24.388  1.00  0.00     0.119 A 
ATOM     16  C   UNL A   1      33.351  17.001  22.997  1.00  0.00     0.050 A 
ATOM     17  C   UNL A   1      33.156  18.153  25.102  1.00  0.00     0.050 A 
ATOM     18  C   UNL A   1      32.893  18.142  22.335  1.00  0.00     0.050 A 
ATOM     19  C   UNL A   1      32.716  19.301  24.434  1.00  0.00     0.050 A 
BRANCH  15  20
ATOM     20  O   UNL A   1      33.862  15.817  24.951  1.00  0.00    -0.497 OA
ATOM     21  C   UNL A   1      35.221  15.825  25.377  1.00  0.00     0.278 C 
ENDBRANCH  15  20
ENDBRANCH  13  14
ENDBRANCH  12  13
ENDBRANCH   9  12
ENDBRANCH   6   8
ENDBRANCH   4   6
ENDBRANCH   3   4
ENDBRANCH   2   3
ENDBRANCH   1   2
BRANCH   1  22
ATOM     22  O   UNL A   1      34.656  21.908  25.235  1.00  0.00    -0.374 OA
BRANCH  22  23
ATOM     23  C   UNL A   1      35.932  21.798  24.608  1.00  0.00     0.202 C 
BRANCH  23  24
ATOM     24  C   UNL A   1      36.990  20.937  25.309  1.00  0.00     0.261 C 
BRANCH  24  25
ATOM     25  O   UNL A   1      38.335  21.341  25.004  1.00  0.00    -0.460 OA
BRANCH  25  26
ATOM     26  C   UNL A   1      39.232  21.084  25.989  1.00  0.00     0.338 C 
ATOM     27  O   UNL A   1      39.742  20.001  26.248  1.00  0.00    -0.246 OA
BRANCH  26  28
ATOM     28  C   UNL A   1      39.682  22.339  26.618  1.00  0.00     0.060 A 
ATOM     29  C   UNL A   1      39.080  23.527  26.182  1.00  0.00     0.016 A 
ATOM     30  C   UNL A   1      40.722  22.371  27.549  1.00  0.00     0.016 A 
ATOM     31  C   UNL A   1      39.548  24.756  26.641  1.00  0.00     0.010 A 
ATOM     32  C   UNL A   1      41.197  23.609  28.000  1.00  0.00     0.010 A 
ATOM     33  C   UNL A   1      40.635  24.808  27.524  1.00  0.00    -0.014 A 
BRANCH  33  34
ATOM     34  C   UNL A   1      41.268  26.119  27.817  1.00  0.00     0.031 A 
ATOM     35  C   UNL A   1      42.672  26.374  27.339  1.00  0.00     0.074 A 
ATOM     36  C   UNL A   1      40.584  27.086  28.456  1.00  0.00     0.049 A 
ATOM     37  N   UNL A   1      43.423  27.435  27.491  1.00  0.00    -0.248 NA
ATOM     38  C   UNL A   1      43.314  25.283  26.590  1.00  0.00     0.031 C 
ATOM     39  C   UNL A   1      39.203  26.974  28.920  1.00  0.00     0.029 A 
ATOM     40  N   UNL A   1      40.962  28.353  28.825  1.00  0.00    -0.354 N 
ATOM     41  C   UNL A   1      44.625  27.142  26.857  1.00  0.00     0.074 A 
ATOM     42  C   UNL A   1      44.515  25.788  26.354  1.00  0.00     0.031 C 
ATOM     43  C   UNL A   1      38.851  28.125  29.521  1.00  0.00     0.029 A 
ATOM     44  C   UNL A   1      39.991  29.040  29.517  1.00  0.00     0.049 A 
ATOM     45  H   UNL A   1      41.845  28.734  28.614  1.00  0.00     0.167 HD
ATOM     46  C   UNL A   1      45.716  27.933  26.698  1.00  0.00     0.034 A 
ATOM     47  C   UNL A   1      40.028  30.255  30.102  1.00  0.00     0.034 A 
ATOM     48  C   UNL A   1      45.814  29.276  27.215  1.00  0.00     0.049 A 
ATOM     49  C   UNL A   1      41.291  31.078  30.001  1.00  0.00     0.074 A 
ATOM     50  C   UNL A   1      46.863  30.172  27.092  1.00  0.00     0.029 A 
ATOM     51  N   UNL A   1      44.836  29.914  27.967  1.00  0.00    -0.354 N 
ATOM     52  N   UNL A   1      42.416  30.796  29.386  1.00  0.00    -0.248 NA
ATOM     53  C   UNL A   1      41.286  32.385  30.672  1.00  0.00     0.031 C 
ATOM     54  C   UNL A   1      46.550  31.317  27.832  1.00  0.00     0.029 A 
ATOM     55  C   UNL A   1      45.274  31.172  28.351  1.00  0.00     0.049 A 
ATOM     56  H   UNL A   1      43.959  29.528  28.194  1.00  0.00     0.167 HD
ATOM     57  C   UNL A   1      43.240  31.903  29.573  1.00  0.00     0.074 A 
ATOM     58  C   UNL A   1      42.480  32.861  30.349  1.00  0.00     0.031 C 
ATOM     59  C   UNL A   1      44.509  32.112  29.138  1.00  0.00     0.034 A 
BRANCH  46  60
ATOM     60  C   UNL A   1      46.905  27.340  25.983  1.00  0.00     0.023 A 
ATOM     61  C   UNL A   1      47.927  26.667  26.674  1.00  0.00     0.031 A 
ATOM     62  C   UNL A   1      47.033  27.474  24.589  1.00  0.00     0.131 A 
ATOM     63  C   UNL A   1      49.062  26.215  25.983  1.00  0.00     0.055 A 
ATOM     64  C   UNL A   1      48.127  26.955  23.895  1.00  0.00     0.041 A 
ATOM     65  F   UNL A   1      46.099  28.126  23.878  1.00  0.00    -0.206 F 
ATOM     66  C   UNL A   1      49.158  26.334  24.594  1.00  0.00     0.022 A 
BRANCH  63  67
ATOM     67  S   UNL A   1      50.474  25.599  26.940  1.00  0.00     0.124 S 
ATOM     68  O   UNL A   1      49.887  24.450  27.626  1.00  0.00    -0.237 OA
ATOM     69  O   UNL A   1      51.450  25.293  25.901  1.00  0.00    -0.237 OA
ATOM     70  O   UNL A   1      50.817  26.724  27.808  1.00  0.00    -0.744 OA
ENDBRANCH  63  67
ENDBRANCH  46  60
BRANCH  47  71
ATOM     71  C   UNL A   1      38.857  30.755  30.877  1.00  0.00     0.023 A 
ATOM     72  C   UNL A   1      37.875  31.559  30.278  1.00  0.00     0.031 A 
ATOM     73  C   UNL A   1      38.735  30.479  32.251  1.00  0.00     0.131 A 
ATOM     74  C   UNL A   1      36.838  32.095  31.060  1.00  0.00     0.055 A 
ATOM     75  C   UNL A   1      37.675  30.972  33.013  1.00  0.00     0.041 A 
ATOM     76  F   UNL A   1      39.650  29.719  32.875  1.00  0.00    -0.206 F 
ATOM     77  C   UNL A   1      36.725  31.796  32.420  1.00  0.00     0.022 A 
BRANCH  74  78
ATOM     78  S   UNL A   1      35.684  33.263  30.289  1.00  0.00     0.124 S 
ATOM     79  O   UNL A   1      34.574  32.389  29.927  1.00  0.00    -0.237 OA
ATOM     80  O   UNL A   1      35.433  34.203  31.377  1.00  0.00    -0.237 OA
ATOM     81  O   UNL A   1      36.446  33.803  29.165  1.00  0.00    -0.744 OA
ENDBRANCH  74  78
ENDBRANCH  47  71
BRANCH  59  82
ATOM     82  C   UNL A   1      45.139  33.447  29.459  1.00  0.00     0.023 A 
ATOM     83  C   UNL A   1      44.942  34.574  28.641  1.00  0.00     0.031 A 
ATOM     84  C   UNL A   1      45.943  33.591  30.603  1.00  0.00     0.131 A 
ATOM     85  C   UNL A   1      45.577  35.785  28.958  1.00  0.00     0.055 A 
ATOM     86  C   UNL A   1      46.526  34.812  30.943  1.00  0.00     0.041 A 
ATOM     87  F   UNL A   1      46.166  32.546  31.418  1.00  0.00    -0.206 F 
ATOM     88  C   UNL A   1      46.353  35.915  30.113  1.00  0.00     0.022 A 
BRANCH  85  89
ATOM     89  S   UNL A   1      45.433  37.175  27.801  1.00  0.00     0.124 S 
ATOM     90  O   UNL A   1      44.467  36.665  26.834  1.00  0.00    -0.237 OA
ATOM     91  O   UNL A   1      44.964  38.254  28.664  1.00  0.00    -0.237 OA
ATOM     92  O   UNL A   1      46.793  37.339  27.290  1.00  0.00    -0.744 OA
ENDBRANCH  85  89
ENDBRANCH  59  82
ENDBRANCH  33  34
ENDBRANCH  26  28
ENDBRANCH  25  26
ENDBRANCH  24  25
ENDBRANCH  23  24
ENDBRANCH  22  23
ENDBRANCH   1  22
TORSDOF 22
ENDMDL
MODEL 2
REMARK VINA RESULT:     -10.0      5.130     10.707
REMARK SMILES COc1ccc(OCC(=O)N[C@H](C)C(=O)OCCOCCOC(=O)c2ccc(-c3c4nc(c(-c5cc(S(=O)(=O)[O-])ccc5F)c5ccc([nH]5)c(-c5cc(S(=O)(=O)[O-])ccc5F)c5nc(c(-c6cc(S(=O)(=O)[O-])ccc6F)c6ccc3[nH]6)C=C5)C=C4)cc2)cc1
REMARK SMILES IDX 18 1 17 2 16 3 14 4 15 5 12 6 13 7 11 8 9 9 10 10 8 12 7 13
REMARK SMILES IDX 6 14 3 15 4 16 89 17 5 18 88 19 2 20 1 21 19 22 20 23 21 24
REMARK SMILES IDX 22 25 23 26 24 27 25 28 26 29 87 30 27 31 86 32 28 33 29 34
REMARK SMILES IDX 30 35 80 36 31 37 85 38 79 39 81 40 32 41 84 42 78 43 77 44
REMARK SMILES IDX 33 46 65 47 45 48 64 49 46 50 49 51 63 52 82 53 47 54 48 55
REMARK SMILES IDX 62 57 83 58 50 59 34 60 35 61 43 62 36 63 42 64 44 65 41 66
REMARK SMILES IDX 37 67 38 68 39 69 40 70 66 71 67 72 75 73 68 74 74 75 76 76
REMARK SMILES IDX 73 77 69 78 70 79 71 80 72 81 51 82 52 83 60 84 53 85 59 86
REMARK SMILES IDX 61 87 58 88 54 89 55 90 56 91 57 92
REMARK H PARENT 11 11 81 45 49 56
REMARK Flexibility Score: inf
ROOT
ATOM      1  C   UNL A   1      31.663  27.849  26.498  1.00  0.00     0.202 C 
ENDROOT
BRANCH   1   2
ATOM      2  C   UNL A   1      32.698  26.816  26.050  1.00  0.00     0.261 C 
BRANCH   2   3
ATOM      3  O   UNL A   1      32.057  25.668  25.465  1.00  0.00    -0.462 OA
BRANCH   3   4
ATOM      4  C   UNL A   1      32.807  24.950  24.586  1.00  0.00     0.328 C 
ATOM      5  O   UNL A   1      34.033  24.913  24.568  1.00  0.00    -0.250 OA
BRANCH   4   6
ATOM      6  C   UNL A   1      31.947  24.279  23.511  1.00  0.00     0.189 C 
ATOM      7  C   UNL A   1      30.452  24.267  23.771  1.00  0.00     0.043 C 
BRANCH   6   8
ATOM      8  N   UNL A   1      32.406  24.715  22.197  1.00  0.00    -0.340 N 
ATOM      9  C   UNL A   1      32.597  25.947  21.659  1.00  0.00     0.258 C 
ATOM     10  O   UNL A   1      33.297  26.007  20.642  1.00  0.00    -0.271 OA
ATOM     11  H   UNL A   1      32.619  23.976  21.584  1.00  0.00     0.164 HD
BRANCH   9  12
ATOM     12  C   UNL A   1      31.970  27.219  22.254  1.00  0.00     0.329 C 
BRANCH  12  13
ATOM     13  O   UNL A   1      30.721  27.143  22.928  1.00  0.00    -0.484 OA
BRANCH  13  14
ATOM     14  C   UNL A   1      29.849  28.187  22.806  1.00  0.00     0.120 A 
ATOM     15  C   UNL A   1      28.332  30.541  22.675  1.00  0.00     0.119 A 
ATOM     16  C   UNL A   1      29.655  30.537  22.237  1.00  0.00     0.050 A 
ATOM     17  C   UNL A   1      27.746  29.349  23.098  1.00  0.00     0.050 A 
ATOM     18  C   UNL A   1      30.410  29.364  22.306  1.00  0.00     0.050 A 
ATOM     19  C   UNL A   1      28.500  28.171  23.147  1.00  0.00     0.050 A 
BRANCH  15  20
ATOM     20  O   UNL A   1      27.683  31.744  22.607  1.00  0.00    -0.497 OA
ATOM     21  C   UNL A   1      28.026  32.531  21.470  1.00  0.00     0.278 C 
ENDBRANCH  15  20
ENDBRANCH  13  14
ENDBRANCH  12  13
ENDBRANCH   9  12
ENDBRANCH   6   8
ENDBRANCH   4   6
ENDBRANCH   3   4
ENDBRANCH   2   3
ENDBRANCH   1   2
BRANCH   1  22
ATOM     22  O   UNL A   1      32.161  29.164  26.757  1.00  0.00    -0.374 OA
BRANCH  22  23
ATOM     23  C   UNL A   1      31.738  30.208  25.883  1.00  0.00     0.202 C 
BRANCH  23  24
ATOM     24  C   UNL A   1      31.615  31.617  26.475  1.00  0.00     0.261 C 
BRANCH  24  25
ATOM     25  O   UNL A   1      32.368  31.785  27.688  1.00  0.00    -0.460 OA
BRANCH  25  26
ATOM     26  C   UNL A   1      33.342  32.726  27.616  1.00  0.00     0.338 C 
ATOM     27  O   UNL A   1      33.186  33.925  27.420  1.00  0.00    -0.246 OA
BRANCH  26  28
ATOM     28  C   UNL A   1      34.645  32.152  27.997  1.00  0.00     0.060 A 
ATOM     29  C   UNL A   1      34.686  30.777  28.266  1.00  0.00     0.016 A 
ATOM     30  C   UNL A   1      35.782  32.942  28.172  1.00  0.00     0.016 A 
ATOM     31  C   UNL A   1      35.854  30.196  28.756  1.00  0.00     0.010 A 
ATOM     32  C   UNL A   1      36.951  32.357  28.674  1.00  0.00     0.010 A 
ATOM     33  C   UNL A   1      36.983  30.988  28.999  1.00  0.00    -0.014 A 
BRANCH  33  34
ATOM     34  C   UNL A   1      38.133  30.404  29.736  1.00  0.00     0.031 A 
ATOM     35  C   UNL A   1      38.373  30.822  31.162  1.00  0.00     0.074 A 
ATOM     36  C   UNL A   1      38.921  29.479  29.159  1.00  0.00     0.049 A 
ATOM     37  N   UNL A   1      39.317  30.452  31.989  1.00  0.00    -0.248 NA
ATOM     38  C   UNL A   1      37.419  31.787  31.729  1.00  0.00     0.031 C 
ATOM     39  C   UNL A   1      38.755  28.958  27.804  1.00  0.00     0.029 A 
ATOM     40  N   UNL A   1      40.019  28.813  29.644  1.00  0.00    -0.354 N 
ATOM     41  C   UNL A   1      39.073  31.137  33.174  1.00  0.00     0.074 A 
ATOM     42  C   UNL A   1      37.914  31.974  32.943  1.00  0.00     0.031 C 
ATOM     43  C   UNL A   1      39.724  28.057  27.561  1.00  0.00     0.029 A 
ATOM     44  C   UNL A   1      40.600  27.965  28.729  1.00  0.00     0.049 A 
ATOM     45  H   UNL A   1      40.360  28.931  30.560  1.00  0.00     0.167 HD
ATOM     46  C   UNL A   1      39.745  31.066  34.349  1.00  0.00     0.034 A 
ATOM     47  C   UNL A   1      41.722  27.222  28.814  1.00  0.00     0.034 A 
ATOM     48  C   UNL A   1      40.905  30.234  34.561  1.00  0.00     0.049 A 
ATOM     49  C   UNL A   1      42.514  27.237  30.101  1.00  0.00     0.074 A 
ATOM     50  C   UNL A   1      41.648  30.070  35.718  1.00  0.00     0.029 A 
ATOM     51  N   UNL A   1      41.503  29.440  33.591  1.00  0.00    -0.354 N 
ATOM     52  N   UNL A   1      42.264  27.878  31.219  1.00  0.00    -0.248 NA
ATOM     53  C   UNL A   1      43.739  26.426  30.135  1.00  0.00     0.031 C 
ATOM     54  C   UNL A   1      42.735  29.239  35.426  1.00  0.00     0.029 A 
ATOM     55  C   UNL A   1      42.628  28.819  34.111  1.00  0.00     0.049 A 
ATOM     56  H   UNL A   1      41.174  29.334  32.669  1.00  0.00     0.167 HD
ATOM     57  C   UNL A   1      43.285  27.523  32.097  1.00  0.00     0.074 A 
ATOM     58  C   UNL A   1      44.148  26.606  31.383  1.00  0.00     0.031 C 
ATOM     59  C   UNL A   1      43.489  27.916  33.381  1.00  0.00     0.034 A 
BRANCH  46  60
ATOM     60  C   UNL A   1      39.271  31.952  35.475  1.00  0.00     0.023 A 
ATOM     61  C   UNL A   1      39.732  33.272  35.626  1.00  0.00     0.031 A 
ATOM     62  C   UNL A   1      38.363  31.460  36.431  1.00  0.00     0.131 A 
ATOM     63  C   UNL A   1      39.339  34.029  36.741  1.00  0.00     0.055 A 
ATOM     64  C   UNL A   1      37.916  32.243  37.495  1.00  0.00     0.041 A 
ATOM     65  F   UNL A   1      37.905  30.200  36.351  1.00  0.00    -0.206 F 
ATOM     66  C   UNL A   1      38.416  33.532  37.664  1.00  0.00     0.022 A 
BRANCH  63  67
ATOM     67  S   UNL A   1      40.161  35.617  37.045  1.00  0.00     0.124 S 
ATOM     68  O   UNL A   1      41.569  35.250  36.914  1.00  0.00    -0.237 OA
ATOM     69  O   UNL A   1      39.619  36.460  35.986  1.00  0.00    -0.237 OA
ATOM     70  O   UNL A   1      39.740  35.966  38.400  1.00  0.00    -0.744 OA
ENDBRANCH  63  67
ENDBRANCH  46  60
BRANCH  47  71
ATOM     71  C   UNL A   1      42.199  26.436  27.640  1.00  0.00     0.023 A 
ATOM     72  C   UNL A   1      41.911  25.068  27.511  1.00  0.00     0.031 A 
ATOM     73  C   UNL A   1      43.002  27.037  26.653  1.00  0.00     0.131 A 
ATOM     74  C   UNL A   1      42.458  24.337  26.445  1.00  0.00     0.055 A 
ATOM     75  C   UNL A   1      43.501  26.316  25.567  1.00  0.00     0.041 A 
ATOM     76  F   UNL A   1      43.311  28.341  26.730  1.00  0.00    -0.206 F 
ATOM     77  C   UNL A   1      43.239  24.954  25.465  1.00  0.00     0.022 A 
BRANCH  74  78
ATOM     78  S   UNL A   1      42.203  22.541  26.403  1.00  0.00     0.124 S 
ATOM     79  O   UNL A   1      40.753  22.444  26.519  1.00  0.00    -0.237 OA
ATOM     80  O   UNL A   1      42.770  22.185  25.105  1.00  0.00    -0.237 OA
ATOM     81  O   UNL A   1      42.955  22.063  27.561  1.00  0.00    -0.744 OA
ENDBRANCH  74  78
ENDBRANCH  47  71
BRANCH  59  82
ATOM     82  C   UNL A   1      44.671  27.320  34.107  1.00  0.00     0.023 A 
ATOM     83  C   UNL A   1      44.574  26.105  34.808  1.00  0.00     0.031 A 
ATOM     84  C   UNL A   1      45.914  27.977  34.091  1.00  0.00     0.131 A 
ATOM     85  C   UNL A   1      45.689  25.607  35.500  1.00  0.00     0.055 A 
ATOM     86  C   UNL A   1      47.034  27.449  34.734  1.00  0.00     0.041 A 
ATOM     87  F   UNL A   1      46.063  29.143  33.439  1.00  0.00    -0.206 F 
ATOM     88  C   UNL A   1      46.923  26.262  35.452  1.00  0.00     0.022 A 
BRANCH  85  89
ATOM     89  S   UNL A   1      45.491  24.123  36.524  1.00  0.00     0.124 S 
ATOM     90  O   UNL A   1      46.852  23.596  36.559  1.00  0.00    -0.237 OA
ATOM     91  O   UNL A   1      44.987  24.672  37.778  1.00  0.00    -0.237 OA
ATOM     92  O   UNL A   1      44.533  23.314  35.773  1.00  0.00    -0.744 OA
ENDBRANCH  85  89
ENDBRANCH  59  82
ENDBRANCH  33  34
ENDBRANCH  26  28
ENDBRANCH  25  26
ENDBRANCH  24  25
ENDBRANCH  23  24
ENDBRANCH  22  23
ENDBRANCH   1  22
TORSDOF 22
ENDMDL
MODEL 3
REMARK VINA RESULT:      -9.9      2.054      3.965
REMARK SMILES COc1ccc(OCC(=O)N[C@H](C)C(=O)OCCOCCOC(=O)c2ccc(-c3c4nc(c(-c5cc(S(=O)(=O)[O-])ccc5F)c5ccc([nH]5)c(-c5cc(S(=O)(=O)[O-])ccc5F)c5nc(c(-c6cc(S(=O)(=O)[O-])ccc6F)c6ccc3[nH]6)C=C5)C=C4)cc2)cc1
REMARK SMILES IDX 18 1 17 2 16 3 14 4 15 5 12 6 13 7 11 8 9 9 10 10 8 12 7 13
REMARK SMILES IDX 6 14 3 15 4 16 89 17 5 18 88 19 2 20 1 21 19 22 20 23 21 24
REMARK SMILES IDX 22 25 23 26 24 27 25 28 26 29 87 30 27 31 86 32 28 33 29 34
REMARK SMILES IDX 30 35 80 36 31 37 85 38 79 39 81 40 32 41 84 42 78 43 77 44
REMARK SMILES IDX 33 46 65 47 45 48 64 49 46 50 49 51 63 52 82 53 47 54 48 55
REMARK SMILES IDX 62 57 83 58 50 59 34 60 35 61 43 62 36 63 42 64 44 65 41 66
REMARK SMILES IDX 37 67 38 68 39 69 40 70 66 71 67 72 75 73 68 74 74 75 76 76
REMARK SMILES IDX 73 77 69 78 70 79 71 80 72 81 51 82 52 83 60 84 53 85 59 86
REMARK SMILES IDX 61 87 58 88 54 89 55 90 56 91 57 92
REMARK H PARENT 11 11 81 45 49 56
REMARK Flexibility Score: inf
ROOT
ATOM      1  C   UNL A   1      34.681  21.195  26.164  1.00  0.00     0.202 C 
ENDROOT
BRANCH   1   2
ATOM      2  C   UNL A   1      34.252  22.429  26.959  1.00  0.00     0.261 C 
BRANCH   2   3
ATOM      3  O   UNL A   1      32.863  22.728  26.731  1.00  0.00    -0.462 OA
BRANCH   3   4
ATOM      4  C   UNL A   1      32.603  23.914  26.117  1.00  0.00     0.328 C 
ATOM      5  O   UNL A   1      33.179  24.972  26.348  1.00  0.00    -0.250 OA
BRANCH   4   6
ATOM      6  C   UNL A   1      31.397  23.823  25.177  1.00  0.00     0.189 C 
ATOM      7  C   UNL A   1      30.485  25.037  25.151  1.00  0.00     0.043 C 
BRANCH   6   8
ATOM      8  N   UNL A   1      31.832  23.270  23.900  1.00  0.00    -0.340 N 
ATOM      9  C   UNL A   1      32.720  23.709  22.971  1.00  0.00     0.258 C 
ATOM     10  O   UNL A   1      33.121  22.876  22.150  1.00  0.00    -0.271 OA
ATOM     11  H   UNL A   1      31.402  22.417  23.668  1.00  0.00     0.164 HD
BRANCH   9  12
ATOM     12  C   UNL A   1      33.204  25.167  22.908  1.00  0.00     0.329 C 
BRANCH  12  13
ATOM     13  O   UNL A   1      32.404  26.151  22.268  1.00  0.00    -0.484 OA
BRANCH  13  14
ATOM     14  C   UNL A   1      32.077  27.280  22.963  1.00  0.00     0.120 A 
ATOM     15  C   UNL A   1      31.565  29.439  24.676  1.00  0.00     0.119 A 
ATOM     16  C   UNL A   1      32.800  28.793  24.716  1.00  0.00     0.050 A 
ATOM     17  C   UNL A   1      30.623  29.059  23.723  1.00  0.00     0.050 A 
ATOM     18  C   UNL A   1      33.052  27.716  23.864  1.00  0.00     0.050 A 
ATOM     19  C   UNL A   1      30.886  27.992  22.857  1.00  0.00     0.050 A 
BRANCH  15  20
ATOM     20  O   UNL A   1      31.394  30.457  25.575  1.00  0.00    -0.497 OA
ATOM     21  C   UNL A   1      32.209  30.354  26.739  1.00  0.00     0.278 C 
ENDBRANCH  15  20
ENDBRANCH  13  14
ENDBRANCH  12  13
ENDBRANCH   9  12
ENDBRANCH   6   8
ENDBRANCH   4   6
ENDBRANCH   3   4
ENDBRANCH   2   3
ENDBRANCH   1   2
BRANCH   1  22
ATOM     22  O   UNL A   1      34.839  21.379  24.755  1.00  0.00    -0.374 OA
BRANCH  22  23
ATOM     23  C   UNL A   1      36.165  21.554  24.263  1.00  0.00     0.202 C 
BRANCH  23  24
ATOM     24  C   UNL A   1      37.299  20.861  25.028  1.00  0.00     0.261 C 
BRANCH  24  25
ATOM     25  O   UNL A   1      38.513  21.629  25.052  1.00  0.00    -0.460 OA
BRANCH  25  26
ATOM     26  C   UNL A   1      39.301  21.396  26.132  1.00  0.00     0.338 C 
ATOM     27  O   UNL A   1      39.787  20.322  26.463  1.00  0.00    -0.246 OA
BRANCH  26  28
ATOM     28  C   UNL A   1      39.672  22.665  26.785  1.00  0.00     0.060 A 
ATOM     29  C   UNL A   1      38.995  23.821  26.373  1.00  0.00     0.016 A 
ATOM     30  C   UNL A   1      40.711  22.746  27.713  1.00  0.00     0.016 A 
ATOM     31  C   UNL A   1      39.385  25.068  26.854  1.00  0.00     0.010 A 
ATOM     32  C   UNL A   1      41.108  24.003  28.188  1.00  0.00     0.010 A 
ATOM     33  C   UNL A   1      40.469  25.172  27.735  1.00  0.00    -0.014 A 
BRANCH  33  34
ATOM     34  C   UNL A   1      41.019  26.515  28.053  1.00  0.00     0.031 A 
ATOM     35  C   UNL A   1      42.444  26.826  27.681  1.00  0.00     0.074 A 
ATOM     36  C   UNL A   1      40.245  27.459  28.619  1.00  0.00     0.049 A 
ATOM     37  N   UNL A   1      43.132  27.922  27.871  1.00  0.00    -0.248 NA
ATOM     38  C   UNL A   1      43.190  25.755  27.004  1.00  0.00     0.031 C 
ATOM     39  C   UNL A   1      38.838  27.291  28.976  1.00  0.00     0.029 A 
ATOM     40  N   UNL A   1      40.536  28.748  28.992  1.00  0.00    -0.354 N 
ATOM     41  C   UNL A   1      44.393  27.675  27.337  1.00  0.00     0.074 A 
ATOM     42  C   UNL A   1      44.382  26.310  26.853  1.00  0.00     0.031 C 
ATOM     43  C   UNL A   1      38.389  28.434  29.526  1.00  0.00     0.029 A 
ATOM     44  C   UNL A   1      39.485  29.400  29.594  1.00  0.00     0.049 A 
ATOM     45  H   UNL A   1      41.415  29.165  28.844  1.00  0.00     0.167 HD
ATOM     46  C   UNL A   1      45.456  28.512  27.250  1.00  0.00     0.034 A 
ATOM     47  C   UNL A   1      39.422  30.624  30.157  1.00  0.00     0.034 A 
ATOM     48  C   UNL A   1      45.454  29.867  27.747  1.00  0.00     0.049 A 
ATOM     49  C   UNL A   1      40.651  31.502  30.139  1.00  0.00     0.074 A 
ATOM     50  C   UNL A   1      46.468  30.807  27.690  1.00  0.00     0.029 A 
ATOM     51  N   UNL A   1      44.392  30.470  28.409  1.00  0.00    -0.354 N 
ATOM     52  N   UNL A   1      41.832  31.262  29.619  1.00  0.00    -0.248 NA
ATOM     53  C   UNL A   1      40.535  32.818  30.784  1.00  0.00     0.031 C 
ATOM     54  C   UNL A   1      46.048  31.948  28.382  1.00  0.00     0.029 A 
ATOM     55  C   UNL A   1      44.742  31.752  28.802  1.00  0.00     0.049 A 
ATOM     56  H   UNL A   1      43.518  30.048  28.574  1.00  0.00     0.167 HD
ATOM     57  C   UNL A   1      42.589  32.408  29.849  1.00  0.00     0.074 A 
ATOM     58  C   UNL A   1      41.729  33.342  30.545  1.00  0.00     0.031 C 
ATOM     59  C   UNL A   1      43.878  32.669  29.510  1.00  0.00     0.034 A 
BRANCH  46  60
ATOM     60  C   UNL A   1      46.723  27.963  26.640  1.00  0.00     0.023 A 
ATOM     61  C   UNL A   1      47.010  28.105  25.271  1.00  0.00     0.031 A 
ATOM     62  C   UNL A   1      47.646  27.261  27.436  1.00  0.00     0.131 A 
ATOM     63  C   UNL A   1      48.152  27.497  24.727  1.00  0.00     0.055 A 
ATOM     64  C   UNL A   1      48.819  26.724  26.905  1.00  0.00     0.041 A 
ATOM     65  F   UNL A   1      47.415  27.075  28.746  1.00  0.00    -0.206 F 
ATOM     66  C   UNL A   1      49.071  26.827  25.539  1.00  0.00     0.022 A 
BRANCH  63  67
ATOM     67  S   UNL A   1      48.346  27.470  22.924  1.00  0.00     0.124 S 
ATOM     68  O   UNL A   1      48.385  26.034  22.653  1.00  0.00    -0.237 OA
ATOM     69  O   UNL A   1      47.153  28.174  22.468  1.00  0.00    -0.237 OA
ATOM     70  O   UNL A   1      49.609  28.171  22.705  1.00  0.00    -0.744 OA
ENDBRANCH  63  67
ENDBRANCH  46  60
BRANCH  47  71
ATOM     71  C   UNL A   1      38.172  31.082  30.830  1.00  0.00     0.023 A 
ATOM     72  C   UNL A   1      37.175  31.773  30.124  1.00  0.00     0.031 A 
ATOM     73  C   UNL A   1      37.985  30.881  32.210  1.00  0.00     0.131 A 
ATOM     74  C   UNL A   1      36.056  32.277  30.809  1.00  0.00     0.055 A 
ATOM     75  C   UNL A   1      36.847  31.339  32.876  1.00  0.00     0.041 A 
ATOM     76  F   UNL A   1      38.910  30.230  32.933  1.00  0.00    -0.206 F 
ATOM     77  C   UNL A   1      35.880  32.052  32.176  1.00  0.00     0.022 A 
BRANCH  74  78
ATOM     78  S   UNL A   1      34.873  33.307  29.899  1.00  0.00     0.124 S 
ATOM     79  O   UNL A   1      34.133  33.940  30.985  1.00  0.00    -0.237 OA
ATOM     80  O   UNL A   1      35.757  34.178  29.130  1.00  0.00    -0.237 OA
ATOM     81  O   UNL A   1      34.115  32.339  29.110  1.00  0.00    -0.744 OA
ENDBRANCH  74  78
ENDBRANCH  47  71
BRANCH  59  82
ATOM     82  C   UNL A   1      44.421  34.035  29.854  1.00  0.00     0.023 A 
ATOM     83  C   UNL A   1      44.310  35.121  28.967  1.00  0.00     0.031 A 
ATOM     84  C   UNL A   1      45.052  34.253  31.091  1.00  0.00     0.131 A 
ATOM     85  C   UNL A   1      44.862  36.364  29.313  1.00  0.00     0.055 A 
ATOM     86  C   UNL A   1      45.550  35.506  31.452  1.00  0.00     0.041 A 
ATOM     87  F   UNL A   1      45.187  33.251  31.976  1.00  0.00    -0.206 F 
ATOM     88  C   UNL A   1      45.465  36.567  30.557  1.00  0.00     0.022 A 
BRANCH  85  89
ATOM     89  S   UNL A   1      44.845  37.699  28.085  1.00  0.00     0.124 S 
ATOM     90  O   UNL A   1      43.664  37.368  27.294  1.00  0.00    -0.237 OA
ATOM     91  O   UNL A   1      44.739  38.891  28.920  1.00  0.00    -0.237 OA
ATOM     92  O   UNL A   1      46.121  37.543  27.390  1.00  0.00    -0.744 OA
ENDBRANCH  85  89
ENDBRANCH  59  82
ENDBRANCH  33  34
ENDBRANCH  26  28
ENDBRANCH  25  26
ENDBRANCH  24  25
ENDBRANCH  23  24
ENDBRANCH  22  23
ENDBRANCH   1  22
TORSDOF 22
ENDMDL
