MODEL 1
REMARK VINA RESULT:     -11.4      0.000      0.000
REMARK SMILES Cc1cc(OC(F)(F)F)cc2c1O[C@H](C(F)(F)F)C(C(=O)OCCOCCOC(=O)c1ccc(-c3c4nc(c(-c5cc(S(=O)(=O)[O-])ccc5F)c5ccc([nH]5)c(-c5cc(S(=O)(=O)[O-])ccc5F)c5nc(c(-c6cc(S(=O)(=O)[O-])ccc6F)c6ccc3[nH]6)C=C5)C=C4)cc1)=C2
REMARK SMILES IDX 26 1 25 2 24 3 23 4 22 5 20 6 21 7 19 8 1 9 2 10 3 11 12 12
REMARK SMILES IDX 4 13 11 14 13 15 10 16 94 17 14 18 5 19 6 20 7 21 8 22 9 23
REMARK SMILES IDX 15 24 16 25 17 26 18 27 27 28 28 29 29 30 30 31 31 32 32 33
REMARK SMILES IDX 93 34 33 35 92 36 34 37 35 38 36 39 86 40 37 41 91 42 85 43
REMARK SMILES IDX 87 44 38 45 90 46 84 47 83 48 39 50 71 51 51 52 70 53 52 54
REMARK SMILES IDX 55 55 69 56 88 57 53 58 54 59 68 61 89 62 56 63 40 64 41 65
REMARK SMILES IDX 49 66 42 67 48 68 50 69 47 70 43 71 44 72 45 73 46 74 72 75
REMARK SMILES IDX 73 76 81 77 74 78 80 79 82 80 79 81 75 82 76 83 77 84 78 85
REMARK SMILES IDX 57 86 58 87 66 88 59 89 65 90 67 91 64 92 60 93 61 94 62 95
REMARK SMILES IDX 63 96
REMARK H PARENT 87 49 55 60
REMARK Flexibility Score: inf
ROOT
ATOM      1  C   UNL A   1      35.824  21.562  24.618  1.00  0.00     0.202 C 
ENDROOT
BRANCH   1   2
ATOM      2  O   UNL A   1      34.858  22.246  25.421  1.00  0.00    -0.374 OA
BRANCH   2   3
ATOM      3  C   UNL A   1      34.426  21.601  26.618  1.00  0.00     0.202 C 
BRANCH   3   4
ATOM      4  C   UNL A   1      33.147  22.147  27.257  1.00  0.00     0.261 C 
BRANCH   4   5
ATOM      5  O   UNL A   1      32.134  22.404  26.272  1.00  0.00    -0.460 OA
BRANCH   5   6
ATOM      6  C   UNL A   1      31.443  23.551  26.458  1.00  0.00     0.338 C 
ATOM      7  O   UNL A   1      30.449  23.706  27.151  1.00  0.00    -0.246 OA
BRANCH   6   8
ATOM      8  C   UNL A   1      32.142  24.670  25.797  1.00  0.00     0.087 C 
ATOM      9  C   UNL A   1      33.819  28.280  22.558  1.00  0.00     0.048 C 
ATOM     10  C   UNL A   1      33.749  28.108  24.052  1.00  0.00    -0.005 A 
ATOM     11  C   UNL A   1      34.059  29.205  24.881  1.00  0.00     0.054 A 
ATOM     12  C   UNL A   1      33.286  26.916  24.632  1.00  0.00     0.131 A 
ATOM     13  C   UNL A   1      33.945  29.107  26.268  1.00  0.00     0.130 A 
ATOM     14  C   UNL A   1      33.146  26.827  26.016  1.00  0.00     0.021 A 
ATOM     15  O   UNL A   1      32.999  25.877  23.790  1.00  0.00    -0.475 OA
ATOM     16  C   UNL A   1      33.499  27.909  26.829  1.00  0.00     0.058 A 
ATOM     17  C   UNL A   1      32.566  25.641  26.615  1.00  0.00     0.027 C 
ATOM     18  C   UNL A   1      32.316  24.697  24.303  1.00  0.00     0.316 C 
BRANCH  13  19
ATOM     19  O   UNL A   1      34.216  30.083  27.182  1.00  0.00    -0.406 OA
BRANCH  19  20
ATOM     20  C   UNL A   1      35.516  30.120  27.743  1.00  0.00     0.573 C 
ATOM     21  F   UNL A   1      35.475  29.952  29.081  1.00  0.00    -0.132 F 
ATOM     22  F   UNL A   1      36.316  29.183  27.191  1.00  0.00    -0.132 F 
ATOM     23  F   UNL A   1      36.059  31.334  27.490  1.00  0.00    -0.132 F 
ENDBRANCH  19  20
ENDBRANCH  13  19
BRANCH  18  24
ATOM     24  C   UNL A   1      30.984  24.551  23.551  1.00  0.00     0.430 C 
ATOM     25  F   UNL A   1      29.995  25.233  24.172  1.00  0.00    -0.167 F 
ATOM     26  F   UNL A   1      31.066  25.030  22.289  1.00  0.00    -0.167 F 
ATOM     27  F   UNL A   1      30.599  23.256  23.469  1.00  0.00    -0.167 F 
ENDBRANCH  18  24
ENDBRANCH   6   8
ENDBRANCH   5   6
ENDBRANCH   4   5
ENDBRANCH   3   4
ENDBRANCH   2   3
ENDBRANCH   1   2
BRANCH   1  28
ATOM     28  C   UNL A   1      36.995  20.902  25.358  1.00  0.00     0.261 C 
BRANCH  28  29
ATOM     29  O   UNL A   1      38.247  21.548  25.062  1.00  0.00    -0.460 OA
BRANCH  29  30
ATOM     30  C   UNL A   1      39.237  21.307  25.955  1.00  0.00     0.338 C 
ATOM     31  O   UNL A   1      39.854  20.264  26.110  1.00  0.00    -0.246 OA
BRANCH  30  32
ATOM     32  C   UNL A   1      39.621  22.559  26.627  1.00  0.00     0.060 A 
ATOM     33  C   UNL A   1      39.009  23.746  26.202  1.00  0.00     0.016 A 
ATOM     34  C   UNL A   1      40.645  22.584  27.575  1.00  0.00     0.016 A 
ATOM     35  C   UNL A   1      39.453  24.971  26.691  1.00  0.00     0.010 A 
ATOM     36  C   UNL A   1      41.102  23.818  28.050  1.00  0.00     0.010 A 
ATOM     37  C   UNL A   1      40.534  25.014  27.579  1.00  0.00    -0.014 A 
BRANCH  37  38
ATOM     38  C   UNL A   1      41.174  26.315  27.881  1.00  0.00     0.031 A 
ATOM     39  C   UNL A   1      42.582  26.555  27.414  1.00  0.00     0.074 A 
ATOM     40  C   UNL A   1      40.501  27.276  28.538  1.00  0.00     0.049 A 
ATOM     41  N   UNL A   1      43.330  27.616  27.559  1.00  0.00    -0.248 NA
ATOM     42  C   UNL A   1      43.233  25.455  26.683  1.00  0.00     0.031 C 
ATOM     43  C   UNL A   1      39.123  27.163  29.009  1.00  0.00     0.029 A 
ATOM     44  N   UNL A   1      40.893  28.532  28.928  1.00  0.00    -0.354 N 
ATOM     45  C   UNL A   1      44.534  27.317  26.936  1.00  0.00     0.074 A 
ATOM     46  C   UNL A   1      44.432  25.964  26.439  1.00  0.00     0.031 C 
ATOM     47  C   UNL A   1      38.786  28.301  29.638  1.00  0.00     0.029 A 
ATOM     48  C   UNL A   1      39.932  29.212  29.636  1.00  0.00     0.049 A 
ATOM     49  H   UNL A   1      41.777  28.910  28.720  1.00  0.00     0.167 HD
ATOM     50  C   UNL A   1      45.623  28.107  26.782  1.00  0.00     0.034 A 
ATOM     51  C   UNL A   1      39.974  30.424  30.228  1.00  0.00     0.034 A 
ATOM     52  C   UNL A   1      45.718  29.450  27.288  1.00  0.00     0.049 A 
ATOM     53  C   UNL A   1      41.220  31.265  30.094  1.00  0.00     0.074 A 
ATOM     54  C   UNL A   1      46.773  30.334  27.164  1.00  0.00     0.029 A 
ATOM     55  N   UNL A   1      44.731  30.099  28.013  1.00  0.00    -0.354 N 
ATOM     56  N   UNL A   1      42.331  30.994  29.450  1.00  0.00    -0.248 NA
ATOM     57  C   UNL A   1      41.220  32.577  30.757  1.00  0.00     0.031 C 
ATOM     58  C   UNL A   1      46.447  31.500  27.859  1.00  0.00     0.029 A 
ATOM     59  C   UNL A   1      45.163  31.366  28.366  1.00  0.00     0.049 A 
ATOM     60  H   UNL A   1      43.854  29.716  28.243  1.00  0.00     0.167 HD
ATOM     61  C   UNL A   1      43.148  32.112  29.603  1.00  0.00     0.074 A 
ATOM     62  C   UNL A   1      42.400  33.067  30.393  1.00  0.00     0.031 C 
ATOM     63  C   UNL A   1      44.401  32.323  29.131  1.00  0.00     0.034 A 
BRANCH  50  64
ATOM     64  C   UNL A   1      46.806  27.556  26.034  1.00  0.00     0.023 A 
ATOM     65  C   UNL A   1      47.010  27.903  24.686  1.00  0.00     0.031 A 
ATOM     66  C   UNL A   1      47.657  26.602  26.617  1.00  0.00     0.131 A 
ATOM     67  C   UNL A   1      48.023  27.273  23.955  1.00  0.00     0.055 A 
ATOM     68  C   UNL A   1      48.686  26.000  25.893  1.00  0.00     0.041 A 
ATOM     69  F   UNL A   1      47.502  26.245  27.903  1.00  0.00    -0.206 F 
ATOM     70  C   UNL A   1      48.866  26.328  24.551  1.00  0.00     0.022 A 
BRANCH  67  71
ATOM     71  S   UNL A   1      48.264  27.629  22.194  1.00  0.00     0.124 S 
ATOM     72  O   UNL A   1      49.433  28.504  22.219  1.00  0.00    -0.237 OA
ATOM     73  O   UNL A   1      48.494  26.297  21.643  1.00  0.00    -0.237 OA
ATOM     74  O   UNL A   1      47.019  28.275  21.793  1.00  0.00    -0.744 OA
ENDBRANCH  67  71
ENDBRANCH  50  64
BRANCH  51  75
ATOM     75  C   UNL A   1      38.774  30.916  30.960  1.00  0.00     0.023 A 
ATOM     76  C   UNL A   1      37.841  31.759  30.330  1.00  0.00     0.031 A 
ATOM     77  C   UNL A   1      38.592  30.624  32.321  1.00  0.00     0.131 A 
ATOM     78  C   UNL A   1      36.800  32.325  31.077  1.00  0.00     0.055 A 
ATOM     79  C   UNL A   1      37.521  31.145  33.049  1.00  0.00     0.041 A 
ATOM     80  F   UNL A   1      39.463  29.832  32.964  1.00  0.00    -0.206 F 
ATOM     81  C   UNL A   1      36.625  32.011  32.429  1.00  0.00     0.022 A 
BRANCH  78  82
ATOM     82  S   UNL A   1      35.694  33.560  30.341  1.00  0.00     0.124 S 
ATOM     83  O   UNL A   1      35.534  34.518  31.431  1.00  0.00    -0.237 OA
ATOM     84  O   UNL A   1      36.486  34.024  29.204  1.00  0.00    -0.237 OA
ATOM     85  O   UNL A   1      34.501  32.793  29.998  1.00  0.00    -0.744 OA
ENDBRANCH  78  82
ENDBRANCH  51  75
BRANCH  63  86
ATOM     86  C   UNL A   1      45.075  33.641  29.417  1.00  0.00     0.023 A 
ATOM     87  C   UNL A   1      44.882  34.729  28.543  1.00  0.00     0.031 A 
ATOM     88  C   UNL A   1      46.032  33.767  30.437  1.00  0.00     0.131 A 
ATOM     89  C   UNL A   1      45.670  35.879  28.679  1.00  0.00     0.055 A 
ATOM     90  C   UNL A   1      46.784  34.931  30.595  1.00  0.00     0.041 A 
ATOM     91  F   UNL A   1      46.258  32.751  31.286  1.00  0.00    -0.206 F 
ATOM     92  C   UNL A   1      46.614  35.988  29.705  1.00  0.00     0.022 A 
BRANCH  89  93
ATOM     93  S   UNL A   1      45.549  37.241  27.487  1.00  0.00     0.124 S 
ATOM     94  O   UNL A   1      44.213  37.039  26.931  1.00  0.00    -0.237 OA
ATOM     95  O   UNL A   1      45.696  38.413  28.345  1.00  0.00    -0.237 OA
ATOM     96  O   UNL A   1      46.648  36.997  26.560  1.00  0.00    -0.744 OA
ENDBRANCH  89  93
ENDBRANCH  63  86
ENDBRANCH  37  38
ENDBRANCH  30  32
ENDBRANCH  29  30
ENDBRANCH  28  29
ENDBRANCH   1  28
TORSDOF 20
ENDMDL
MODEL 2
REMARK VINA RESULT:     -11.3      5.152      7.971
REMARK SMILES Cc1cc(OC(F)(F)F)cc2c1O[C@H](C(F)(F)F)C(C(=O)OCCOCCOC(=O)c1ccc(-c3c4nc(c(-c5cc(S(=O)(=O)[O-])ccc5F)c5ccc([nH]5)c(-c5cc(S(=O)(=O)[O-])ccc5F)c5nc(c(-c6cc(S(=O)(=O)[O-])ccc6F)c6ccc3[nH]6)C=C5)C=C4)cc1)=C2
REMARK SMILES IDX 26 1 25 2 24 3 23 4 22 5 20 6 21 7 19 8 1 9 2 10 3 11 12 12
REMARK SMILES IDX 4 13 11 14 13 15 10 16 94 17 14 18 5 19 6 20 7 21 8 22 9 23
REMARK SMILES IDX 15 24 16 25 17 26 18 27 27 28 28 29 29 30 30 31 31 32 32 33
REMARK SMILES IDX 93 34 33 35 92 36 34 37 35 38 36 39 86 40 37 41 91 42 85 43
REMARK SMILES IDX 87 44 38 45 90 46 84 47 83 48 39 50 71 51 51 52 70 53 52 54
REMARK SMILES IDX 55 55 69 56 88 57 53 58 54 59 68 61 89 62 56 63 40 64 41 65
REMARK SMILES IDX 49 66 42 67 48 68 50 69 47 70 43 71 44 72 45 73 46 74 72 75
REMARK SMILES IDX 73 76 81 77 74 78 80 79 82 80 79 81 75 82 76 83 77 84 78 85
REMARK SMILES IDX 57 86 58 87 66 88 59 89 65 90 67 91 64 92 60 93 61 94 62 95
REMARK SMILES IDX 63 96
REMARK H PARENT 87 49 55 60
REMARK Flexibility Score: inf
ROOT
ATOM      1  C   UNL A   1      31.408  30.738  25.980  1.00  0.00     0.202 C 
ENDROOT
BRANCH   1   2
ATOM      2  O   UNL A   1      32.152  29.636  26.509  1.00  0.00    -0.374 OA
BRANCH   2   3
ATOM      3  C   UNL A   1      33.363  29.283  25.841  1.00  0.00     0.202 C 
BRANCH   3   4
ATOM      4  C   UNL A   1      33.639  27.786  25.687  1.00  0.00     0.261 C 
BRANCH   4   5
ATOM      5  O   UNL A   1      33.634  27.388  24.307  1.00  0.00    -0.460 OA
BRANCH   5   6
ATOM      6  C   UNL A   1      32.868  26.308  24.032  1.00  0.00     0.338 C 
ATOM      7  O   UNL A   1      33.199  25.135  24.112  1.00  0.00    -0.246 OA
BRANCH   6   8
ATOM      8  C   UNL A   1      31.486  26.734  23.739  1.00  0.00     0.087 C 
ATOM      9  C   UNL A   1      26.455  27.735  23.838  1.00  0.00     0.048 C 
ATOM     10  C   UNL A   1      27.667  28.327  23.171  1.00  0.00    -0.005 A 
ATOM     11  C   UNL A   1      27.542  29.554  22.490  1.00  0.00     0.054 A 
ATOM     12  C   UNL A   1      28.935  27.736  23.298  1.00  0.00     0.131 A 
ATOM     13  C   UNL A   1      28.653  30.168  21.913  1.00  0.00     0.130 A 
ATOM     14  C   UNL A   1      30.050  28.364  22.745  1.00  0.00     0.021 A 
ATOM     15  O   UNL A   1      29.010  26.545  23.965  1.00  0.00    -0.475 OA
ATOM     16  C   UNL A   1      29.903  29.559  22.034  1.00  0.00     0.058 A 
ATOM     17  C   UNL A   1      31.376  27.820  22.965  1.00  0.00     0.027 C 
ATOM     18  C   UNL A   1      30.312  25.994  24.317  1.00  0.00     0.316 C 
BRANCH  13  19
ATOM     19  O   UNL A   1      28.672  31.346  21.224  1.00  0.00    -0.406 OA
BRANCH  19  20
ATOM     20  C   UNL A   1      28.321  32.527  21.923  1.00  0.00     0.573 C 
ATOM     21  F   UNL A   1      29.414  33.145  22.414  1.00  0.00    -0.132 F 
ATOM     22  F   UNL A   1      27.633  33.379  21.133  1.00  0.00    -0.132 F 
ATOM     23  F   UNL A   1      27.527  32.189  22.965  1.00  0.00    -0.132 F 
ENDBRANCH  19  20
ENDBRANCH  13  19
BRANCH  18  24
ATOM     24  C   UNL A   1      30.383  25.875  25.847  1.00  0.00     0.430 C 
ATOM     25  F   UNL A   1      30.623  27.077  26.420  1.00  0.00    -0.167 F 
ATOM     26  F   UNL A   1      29.225  25.411  26.369  1.00  0.00    -0.167 F 
ATOM     27  F   UNL A   1      31.368  25.033  26.236  1.00  0.00    -0.167 F 
ENDBRANCH  18  24
ENDBRANCH   6   8
ENDBRANCH   5   6
ENDBRANCH   4   5
ENDBRANCH   3   4
ENDBRANCH   2   3
ENDBRANCH   1   2
BRANCH   1  28
ATOM     28  C   UNL A   1      31.398  32.027  26.811  1.00  0.00     0.261 C 
BRANCH  28  29
ATOM     29  O   UNL A   1      32.563  32.835  26.559  1.00  0.00    -0.460 OA
BRANCH  29  30
ATOM     30  C   UNL A   1      33.081  33.445  27.652  1.00  0.00     0.338 C 
ATOM     31  O   UNL A   1      32.549  34.303  28.341  1.00  0.00    -0.246 OA
BRANCH  30  32
ATOM     32  C   UNL A   1      34.347  32.798  28.034  1.00  0.00     0.060 A 
ATOM     33  C   UNL A   1      34.292  31.483  28.515  1.00  0.00     0.016 A 
ATOM     34  C   UNL A   1      35.550  33.507  28.030  1.00  0.00     0.016 A 
ATOM     35  C   UNL A   1      35.435  30.886  29.039  1.00  0.00     0.010 A 
ATOM     36  C   UNL A   1      36.692  32.912  28.575  1.00  0.00     0.010 A 
ATOM     37  C   UNL A   1      36.627  31.616  29.117  1.00  0.00    -0.014 A 
BRANCH  37  38
ATOM     38  C   UNL A   1      37.755  31.082  29.914  1.00  0.00     0.031 A 
ATOM     39  C   UNL A   1      38.658  30.053  29.293  1.00  0.00     0.074 A 
ATOM     40  C   UNL A   1      37.986  31.526  31.162  1.00  0.00     0.049 A 
ATOM     41  N   UNL A   1      39.703  29.459  29.801  1.00  0.00    -0.248 NA
ATOM     42  C   UNL A   1      38.342  29.643  27.914  1.00  0.00     0.031 C 
ATOM     43  C   UNL A   1      37.195  32.543  31.850  1.00  0.00     0.029 A 
ATOM     44  N   UNL A   1      38.949  31.170  32.072  1.00  0.00    -0.354 N 
ATOM     45  C   UNL A   1      40.175  28.610  28.807  1.00  0.00     0.074 A 
ATOM     46  C   UNL A   1      39.283  28.741  27.678  1.00  0.00     0.031 C 
ATOM     47  C   UNL A   1      37.697  32.721  33.083  1.00  0.00     0.029 A 
ATOM     48  C   UNL A   1      38.830  31.814  33.279  1.00  0.00     0.049 A 
ATOM     49  H   UNL A   1      39.659  30.517  31.877  1.00  0.00     0.167 HD
ATOM     50  C   UNL A   1      41.261  27.804  28.834  1.00  0.00     0.034 A 
ATOM     51  C   UNL A   1      39.541  31.679  34.417  1.00  0.00     0.034 A 
ATOM     52  C   UNL A   1      42.138  27.675  29.967  1.00  0.00     0.049 A 
ATOM     53  C   UNL A   1      40.714  30.729  34.444  1.00  0.00     0.074 A 
ATOM     54  C   UNL A   1      43.276  26.897  30.080  1.00  0.00     0.029 A 
ATOM     55  N   UNL A   1      41.976  28.330  31.177  1.00  0.00    -0.354 N 
ATOM     56  N   UNL A   1      41.186  29.977  33.477  1.00  0.00    -0.248 NA
ATOM     57  C   UNL A   1      41.458  30.614  35.706  1.00  0.00     0.031 C 
ATOM     58  C   UNL A   1      43.774  27.041  31.375  1.00  0.00     0.029 A 
ATOM     59  C   UNL A   1      42.980  27.956  32.053  1.00  0.00     0.049 A 
ATOM     60  H   UNL A   1      41.255  28.967  31.383  1.00  0.00     0.167 HD
ATOM     61  C   UNL A   1      42.298  29.324  34.005  1.00  0.00     0.074 A 
ATOM     62  C   UNL A   1      42.435  29.778  35.373  1.00  0.00     0.031 C 
ATOM     63  C   UNL A   1      43.127  28.432  33.407  1.00  0.00     0.034 A 
BRANCH  50  64
ATOM     64  C   UNL A   1      41.582  26.995  27.607  1.00  0.00     0.023 A 
ATOM     65  C   UNL A   1      41.362  25.605  27.602  1.00  0.00     0.031 A 
ATOM     66  C   UNL A   1      42.213  27.577  26.494  1.00  0.00     0.131 A 
ATOM     67  C   UNL A   1      41.799  24.838  26.516  1.00  0.00     0.055 A 
ATOM     68  C   UNL A   1      42.618  26.813  25.400  1.00  0.00     0.041 A 
ATOM     69  F   UNL A   1      42.438  28.901  26.454  1.00  0.00    -0.206 F 
ATOM     70  C   UNL A   1      42.421  25.435  25.414  1.00  0.00     0.022 A 
BRANCH  67  71
ATOM     71  S   UNL A   1      41.611  23.036  26.509  1.00  0.00     0.124 S 
ATOM     72  O   UNL A   1      42.303  22.664  25.278  1.00  0.00    -0.237 OA
ATOM     73  O   UNL A   1      42.287  22.654  27.745  1.00  0.00    -0.237 OA
ATOM     74  O   UNL A   1      40.166  22.835  26.489  1.00  0.00    -0.744 OA
ENDBRANCH  67  71
ENDBRANCH  50  64
BRANCH  51  75
ATOM     75  C   UNL A   1      39.175  32.501  35.604  1.00  0.00     0.023 A 
ATOM     76  C   UNL A   1      39.626  33.828  35.727  1.00  0.00     0.031 A 
ATOM     77  C   UNL A   1      38.449  31.946  36.668  1.00  0.00     0.131 A 
ATOM     78  C   UNL A   1      39.392  34.535  36.913  1.00  0.00     0.055 A 
ATOM     79  C   UNL A   1      38.168  32.672  37.826  1.00  0.00     0.041 A 
ATOM     80  F   UNL A   1      38.007  30.680  36.597  1.00  0.00    -0.206 F 
ATOM     81  C   UNL A   1      38.653  33.971  37.958  1.00  0.00     0.022 A 
BRANCH  78  82
ATOM     82  S   UNL A   1      40.119  36.175  37.176  1.00  0.00     0.124 S 
ATOM     83  O   UNL A   1      39.309  36.699  38.271  1.00  0.00    -0.237 OA
ATOM     84  O   UNL A   1      41.498  35.834  37.519  1.00  0.00    -0.237 OA
ATOM     85  O   UNL A   1      39.944  36.841  35.889  1.00  0.00    -0.744 OA
ENDBRANCH  78  82
ENDBRANCH  51  75
BRANCH  63  86
ATOM     86  C   UNL A   1      44.287  27.877  34.192  1.00  0.00     0.023 A 
ATOM     87  C   UNL A   1      44.091  26.771  35.041  1.00  0.00     0.031 A 
ATOM     88  C   UNL A   1      45.524  28.541  34.237  1.00  0.00     0.131 A 
ATOM     89  C   UNL A   1      45.101  26.389  35.933  1.00  0.00     0.055 A 
ATOM     90  C   UNL A   1      46.544  28.131  35.097  1.00  0.00     0.041 A 
ATOM     91  F   UNL A   1      45.752  29.608  33.454  1.00  0.00    -0.206 F 
ATOM     92  C   UNL A   1      46.329  27.059  35.960  1.00  0.00     0.022 A 
BRANCH  89  93
ATOM     93  S   UNL A   1      44.832  25.062  37.139  1.00  0.00     0.124 S 
ATOM     94  O   UNL A   1      43.373  25.007  37.209  1.00  0.00    -0.237 OA
ATOM     95  O   UNL A   1      45.467  23.921  36.485  1.00  0.00    -0.237 OA
ATOM     96  O   UNL A   1      45.492  25.543  38.347  1.00  0.00    -0.744 OA
ENDBRANCH  89  93
ENDBRANCH  63  86
ENDBRANCH  37  38
ENDBRANCH  30  32
ENDBRANCH  29  30
ENDBRANCH  28  29
ENDBRANCH   1  28
TORSDOF 20
ENDMDL
MODEL 3
REMARK VINA RESULT:     -11.3      5.144     10.058
REMARK SMILES Cc1cc(OC(F)(F)F)cc2c1O[C@H](C(F)(F)F)C(C(=O)OCCOCCOC(=O)c1ccc(-c3c4nc(c(-c5cc(S(=O)(=O)[O-])ccc5F)c5ccc([nH]5)c(-c5cc(S(=O)(=O)[O-])ccc5F)c5nc(c(-c6cc(S(=O)(=O)[O-])ccc6F)c6ccc3[nH]6)C=C5)C=C4)cc1)=C2
REMARK SMILES IDX 26 1 25 2 24 3 23 4 22 5 20 6 21 7 19 8 1 9 2 10 3 11 12 12
REMARK SMILES IDX 4 13 11 14 13 15 10 16 94 17 14 18 5 19 6 20 7 21 8 22 9 23
REMARK SMILES IDX 15 24 16 25 17 26 18 27 27 28 28 29 29 30 30 31 31 32 32 33
REMARK SMILES IDX 93 34 33 35 92 36 34 37 35 38 36 39 86 40 37 41 91 42 85 43
REMARK SMILES IDX 87 44 38 45 90 46 84 47 83 48 39 50 71 51 51 52 70 53 52 54
REMARK SMILES IDX 55 55 69 56 88 57 53 58 54 59 68 61 89 62 56 63 40 64 41 65
REMARK SMILES IDX 49 66 42 67 48 68 50 69 47 70 43 71 44 72 45 73 46 74 72 75
REMARK SMILES IDX 73 76 81 77 74 78 80 79 82 80 79 81 75 82 76 83 77 84 78 85
REMARK SMILES IDX 57 86 58 87 66 88 59 89 65 90 67 91 64 92 60 93 61 94 62 95
REMARK SMILES IDX 63 96
REMARK H PARENT 87 49 55 60
REMARK Flexibility Score: inf
ROOT
ATOM      1  C   UNL A   1      31.785  30.202  25.908  1.00  0.00     0.202 C 
ENDROOT
BRANCH   1   2
ATOM      2  O   UNL A   1      32.963  29.410  25.724  1.00  0.00    -0.374 OA
BRANCH   2   3
ATOM      3  C   UNL A   1      33.097  28.240  26.529  1.00  0.00     0.202 C 
BRANCH   3   4
ATOM      4  C   UNL A   1      33.790  27.043  25.873  1.00  0.00     0.261 C 
BRANCH   4   5
ATOM      5  O   UNL A   1      33.479  26.956  24.474  1.00  0.00    -0.460 OA
BRANCH   5   6
ATOM      6  C   UNL A   1      32.636  25.952  24.144  1.00  0.00     0.338 C 
ATOM      7  O   UNL A   1      32.865  24.753  24.199  1.00  0.00    -0.246 OA
BRANCH   6   8
ATOM      8  C   UNL A   1      31.305  26.501  23.819  1.00  0.00     0.087 C 
ATOM      9  C   UNL A   1      26.362  27.878  23.765  1.00  0.00     0.048 C 
ATOM     10  C   UNL A   1      27.646  28.416  23.193  1.00  0.00    -0.005 A 
ATOM     11  C   UNL A   1      27.645  29.690  22.590  1.00  0.00     0.054 A 
ATOM     12  C   UNL A   1      28.859  27.722  23.335  1.00  0.00     0.131 A 
ATOM     13  C   UNL A   1      28.826  30.251  22.104  1.00  0.00     0.130 A 
ATOM     14  C   UNL A   1      30.043  28.296  22.874  1.00  0.00     0.021 A 
ATOM     15  O   UNL A   1      28.813  26.489  23.924  1.00  0.00    -0.475 OA
ATOM     16  C   UNL A   1      30.020  29.542  22.240  1.00  0.00     0.058 A 
ATOM     17  C   UNL A   1      31.313  27.639  23.115  1.00  0.00     0.027 C 
ATOM     18  C   UNL A   1      30.052  25.818  24.295  1.00  0.00     0.316 C 
BRANCH  13  19
ATOM     19  O   UNL A   1      28.965  31.466  21.497  1.00  0.00    -0.406 OA
BRANCH  19  20
ATOM     20  C   UNL A   1      28.441  32.601  22.161  1.00  0.00     0.573 C 
ATOM     21  F   UNL A   1      27.771  32.247  23.277  1.00  0.00    -0.132 F 
ATOM     22  F   UNL A   1      29.416  33.480  22.477  1.00  0.00    -0.132 F 
ATOM     23  F   UNL A   1      27.572  33.222  21.331  1.00  0.00    -0.132 F 
ENDBRANCH  19  20
ENDBRANCH  13  19
BRANCH  18  24
ATOM     24  C   UNL A   1      30.039  25.597  25.815  1.00  0.00     0.430 C 
ATOM     25  F   UNL A   1      30.761  24.505  26.156  1.00  0.00    -0.167 F 
ATOM     26  F   UNL A   1      30.571  26.648  26.479  1.00  0.00    -0.167 F 
ATOM     27  F   UNL A   1      28.781  25.417  26.281  1.00  0.00    -0.167 F 
ENDBRANCH  18  24
ENDBRANCH   6   8
ENDBRANCH   5   6
ENDBRANCH   4   5
ENDBRANCH   3   4
ENDBRANCH   2   3
ENDBRANCH   1   2
BRANCH   1  28
ATOM     28  C   UNL A   1      31.976  31.587  26.539  1.00  0.00     0.261 C 
BRANCH  28  29
ATOM     29  O   UNL A   1      32.822  31.534  27.702  1.00  0.00    -0.460 OA
BRANCH  29  30
ATOM     30  C   UNL A   1      33.746  32.521  27.781  1.00  0.00     0.338 C 
ATOM     31  O   UNL A   1      33.542  33.726  27.789  1.00  0.00    -0.246 OA
BRANCH  30  32
ATOM     32  C   UNL A   1      35.074  31.944  28.044  1.00  0.00     0.060 A 
ATOM     33  C   UNL A   1      35.160  30.559  28.241  1.00  0.00     0.016 A 
ATOM     34  C   UNL A   1      36.196  32.758  28.208  1.00  0.00     0.016 A 
ATOM     35  C   UNL A   1      36.361  29.988  28.651  1.00  0.00     0.010 A 
ATOM     36  C   UNL A   1      37.396  32.185  28.639  1.00  0.00     0.010 A 
ATOM     37  C   UNL A   1      37.471  30.806  28.900  1.00  0.00    -0.014 A 
BRANCH  37  38
ATOM     38  C   UNL A   1      38.651  30.238  29.590  1.00  0.00     0.031 A 
ATOM     39  C   UNL A   1      38.980  30.719  30.976  1.00  0.00     0.074 A 
ATOM     40  C   UNL A   1      39.401  29.290  29.002  1.00  0.00     0.049 A 
ATOM     41  N   UNL A   1      39.955  30.355  31.765  1.00  0.00    -0.248 NA
ATOM     42  C   UNL A   1      38.090  31.743  31.549  1.00  0.00     0.031 C 
ATOM     43  C   UNL A   1      39.155  28.727  27.677  1.00  0.00     0.029 A 
ATOM     44  N   UNL A   1      40.526  28.640  29.444  1.00  0.00    -0.354 N 
ATOM     45  C   UNL A   1      39.796  31.098  32.928  1.00  0.00     0.074 A 
ATOM     46  C   UNL A   1      38.651  31.957  32.730  1.00  0.00     0.031 C 
ATOM     47  C   UNL A   1      40.111  27.824  27.406  1.00  0.00     0.029 A 
ATOM     48  C   UNL A   1      41.050  27.762  28.527  1.00  0.00     0.049 A 
ATOM     49  H   UNL A   1      40.920  28.789  30.334  1.00  0.00     0.167 HD
ATOM     50  C   UNL A   1      40.534  31.057  34.062  1.00  0.00     0.034 A 
ATOM     51  C   UNL A   1      42.165  27.005  28.579  1.00  0.00     0.034 A 
ATOM     52  C   UNL A   1      41.677  30.204  34.245  1.00  0.00     0.049 A 
ATOM     53  C   UNL A   1      43.007  27.018  29.831  1.00  0.00     0.074 A 
ATOM     54  C   UNL A   1      42.476  30.079  35.367  1.00  0.00     0.029 A 
ATOM     55  N   UNL A   1      42.187  29.340  33.289  1.00  0.00    -0.354 N 
ATOM     56  N   UNL A   1      42.811  27.681  30.947  1.00  0.00    -0.248 NA
ATOM     57  C   UNL A   1      44.214  26.178  29.840  1.00  0.00     0.031 C 
ATOM     58  C   UNL A   1      43.499  29.178  35.072  1.00  0.00     0.029 A 
ATOM     59  C   UNL A   1      43.305  28.695  33.786  1.00  0.00     0.049 A 
ATOM     60  H   UNL A   1      41.809  29.205  32.390  1.00  0.00     0.167 HD
ATOM     61  C   UNL A   1      43.850  27.314  31.800  1.00  0.00     0.074 A 
ATOM     62  C   UNL A   1      44.667  26.364  31.074  1.00  0.00     0.031 C 
ATOM     63  C   UNL A   1      44.100  27.729  33.067  1.00  0.00     0.034 A 
BRANCH  50  64
ATOM     64  C   UNL A   1      40.137  31.950  35.206  1.00  0.00     0.023 A 
ATOM     65  C   UNL A   1      39.211  31.497  36.163  1.00  0.00     0.031 A 
ATOM     66  C   UNL A   1      40.581  33.281  35.280  1.00  0.00     0.131 A 
ATOM     67  C   UNL A   1      38.733  32.381  37.137  1.00  0.00     0.055 A 
ATOM     68  C   UNL A   1      40.127  34.149  36.272  1.00  0.00     0.041 A 
ATOM     69  F   UNL A   1      41.470  33.753  34.390  1.00  0.00    -0.206 F 
ATOM     70  C   UNL A   1      39.190  33.703  37.201  1.00  0.00     0.022 A 
BRANCH  67  71
ATOM     71  S   UNL A   1      37.477  31.862  38.336  1.00  0.00     0.124 S 
ATOM     72  O   UNL A   1      38.190  32.002  39.602  1.00  0.00    -0.237 OA
ATOM     73  O   UNL A   1      36.416  32.838  38.106  1.00  0.00    -0.237 OA
ATOM     74  O   UNL A   1      37.170  30.489  37.949  1.00  0.00    -0.744 OA
ENDBRANCH  67  71
ENDBRANCH  50  64
BRANCH  51  75
ATOM     75  C   UNL A   1      42.512  26.144  27.413  1.00  0.00     0.023 A 
ATOM     76  C   UNL A   1      42.069  24.812  27.345  1.00  0.00     0.031 A 
ATOM     77  C   UNL A   1      43.364  26.613  26.401  1.00  0.00     0.131 A 
ATOM     78  C   UNL A   1      42.524  23.979  26.315  1.00  0.00     0.055 A 
ATOM     79  C   UNL A   1      43.771  25.797  25.345  1.00  0.00     0.041 A 
ATOM     80  F   UNL A   1      43.818  27.876  26.431  1.00  0.00    -0.206 F 
ATOM     81  C   UNL A   1      43.361  24.467  25.305  1.00  0.00     0.022 A 
BRANCH  78  82
ATOM     82  S   UNL A   1      42.122  22.210  26.303  1.00  0.00     0.124 S 
ATOM     83  O   UNL A   1      42.539  21.791  27.637  1.00  0.00    -0.237 OA
ATOM     84  O   UNL A   1      40.679  22.239  26.073  1.00  0.00    -0.237 OA
ATOM     85  O   UNL A   1      42.918  21.683  25.200  1.00  0.00    -0.744 OA
ENDBRANCH  78  82
ENDBRANCH  51  75
BRANCH  63  86
ATOM     86  C   UNL A   1      45.291  27.162  33.797  1.00  0.00     0.023 A 
ATOM     87  C   UNL A   1      45.138  26.014  34.598  1.00  0.00     0.031 A 
ATOM     88  C   UNL A   1      46.515  27.849  33.841  1.00  0.00     0.131 A 
ATOM     89  C   UNL A   1      46.179  25.613  35.446  1.00  0.00     0.055 A 
ATOM     90  C   UNL A   1      47.565  27.421  34.655  1.00  0.00     0.041 A 
ATOM     91  F   UNL A   1      46.702  28.955  33.103  1.00  0.00    -0.206 F 
ATOM     92  C   UNL A   1      47.393  26.307  35.473  1.00  0.00     0.022 A 
BRANCH  89  93
ATOM     93  S   UNL A   1      45.967  24.227  36.595  1.00  0.00     0.124 S 
ATOM     94  O   UNL A   1      44.778  23.567  36.059  1.00  0.00    -0.237 OA
ATOM     95  O   UNL A   1      47.217  23.493  36.424  1.00  0.00    -0.237 OA
ATOM     96  O   UNL A   1      45.786  24.868  37.893  1.00  0.00    -0.744 OA
ENDBRANCH  89  93
ENDBRANCH  63  86
ENDBRANCH  37  38
ENDBRANCH  30  32
ENDBRANCH  29  30
ENDBRANCH  28  29
ENDBRANCH   1  28
TORSDOF 20
ENDMDL
