MODEL 1
REMARK VINA RESULT:      -9.9      0.000      0.000
REMARK SMILES CC(C)Cn1ncnc1C[N@H+]1CC[C@H](C(=O)OCCOCCOC(=O)c2ccc(-c3c4nc(c(-c5cc(S(=O)(=O)[O-])ccc5F)c5ccc([nH]5)c(-c5cc(S(=O)(=O)[O-])ccc5F)c5nc(c(-c6cc(S(=O)(=O)[O-])ccc6F)c6ccc3[nH]6)C=C5)C=C4)cc2)[C@@H]1C
REMARK SMILES IDX 19 1 18 2 17 3 15 4 16 5 14 6 11 7 12 8 89 9 13 11 90 12
REMARK SMILES IDX 10 13 9 14 5 15 6 16 7 17 8 18 4 19 2 20 1 21 3 22 20 23
REMARK SMILES IDX 21 24 22 25 23 26 24 27 25 28 26 29 27 30 88 31 28 32 87 33
REMARK SMILES IDX 29 34 30 35 31 36 81 37 32 38 86 39 80 40 82 41 33 42 85 43
REMARK SMILES IDX 79 44 78 45 34 47 66 48 46 49 65 50 47 51 50 52 64 53 83 54
REMARK SMILES IDX 48 55 49 56 63 58 84 59 51 60 35 61 36 62 44 63 37 64 43 65
REMARK SMILES IDX 45 66 42 67 38 68 39 69 40 70 41 71 67 72 68 73 76 74 69 75
REMARK SMILES IDX 75 76 77 77 74 78 70 79 71 80 72 81 73 82 52 83 53 84 61 85
REMARK SMILES IDX 54 86 60 87 62 88 59 89 55 90 56 91 57 92 58 93
REMARK H PARENT 11 10 82 46 50 57
REMARK Flexibility Score: inf
ROOT
ATOM      1  C   UNL A   1      34.597  32.230  27.706  1.00  0.00     0.202 C 
ENDROOT
BRANCH   1   2
ATOM      2  C   UNL A   1      34.071  30.797  27.705  1.00  0.00     0.261 C 
BRANCH   2   3
ATOM      3  O   UNL A   1      33.804  30.374  26.352  1.00  0.00    -0.463 OA
BRANCH   3   4
ATOM      4  C   UNL A   1      32.772  29.525  26.176  1.00  0.00     0.315 C 
ATOM      5  O   UNL A   1      31.667  29.871  25.768  1.00  0.00    -0.252 OA
BRANCH   4   6
ATOM      6  C   UNL A   1      33.088  28.066  26.478  1.00  0.00     0.162 C 
ATOM      7  N   UNL A   1      32.798  25.854  25.494  1.00  0.00    -0.326 N 
ATOM      8  C   UNL A   1      31.539  26.215  26.130  1.00  0.00     0.263 C 
ATOM      9  C   UNL A   1      33.657  27.064  25.453  1.00  0.00     0.195 C 
ATOM     10  H   UNL A   1      32.607  25.541  24.543  1.00  0.00     0.348 HD
ATOM     11  C   UNL A   1      31.830  27.389  27.042  1.00  0.00     0.083 C 
ATOM     12  C   UNL A   1      33.788  27.472  23.999  1.00  0.00     0.076 C 
BRANCH   7  13
ATOM     13  C   UNL A   1      33.460  24.682  26.092  1.00  0.00     0.340 C 
BRANCH  13  14
ATOM     14  C   UNL A   1      34.582  24.127  25.273  1.00  0.00     0.182 A 
ATOM     15  N   UNL A   1      34.441  23.268  24.212  1.00  0.00    -0.245 N 
ATOM     16  N   UNL A   1      35.650  22.883  23.748  1.00  0.00    -0.159 NA
ATOM     17  C   UNL A   1      36.475  23.512  24.581  1.00  0.00     0.246 A 
ATOM     18  N   UNL A   1      35.872  24.312  25.495  1.00  0.00    -0.214 NA
BRANCH  15  19
ATOM     19  C   UNL A   1      33.222  22.791  23.585  1.00  0.00     0.149 C 
BRANCH  19  20
ATOM     20  C   UNL A   1      32.654  21.476  24.153  1.00  0.00     0.004 C 
ATOM     21  C   UNL A   1      33.760  20.545  24.659  1.00  0.00     0.009 C 
ATOM     22  C   UNL A   1      31.676  21.778  25.289  1.00  0.00     0.009 C 
ENDBRANCH  19  20
ENDBRANCH  15  19
ENDBRANCH  13  14
ENDBRANCH   7  13
ENDBRANCH   4   6
ENDBRANCH   3   4
ENDBRANCH   2   3
ENDBRANCH   1   2
BRANCH   1  23
ATOM     23  O   UNL A   1      33.697  33.207  28.239  1.00  0.00    -0.374 OA
BRANCH  23  24
ATOM     24  C   UNL A   1      34.139  33.944  29.377  1.00  0.00     0.202 C 
BRANCH  24  25
ATOM     25  C   UNL A   1      35.396  33.431  30.072  1.00  0.00     0.261 C 
BRANCH  25  26
ATOM     26  O   UNL A   1      35.110  32.192  30.702  1.00  0.00    -0.460 OA
BRANCH  26  27
ATOM     27  C   UNL A   1      36.135  31.587  31.339  1.00  0.00     0.338 C 
ATOM     28  O   UNL A   1      36.328  31.511  32.544  1.00  0.00    -0.246 OA
BRANCH  27  29
ATOM     29  C   UNL A   1      37.043  31.088  30.299  1.00  0.00     0.060 A 
ATOM     30  C   UNL A   1      36.916  29.737  30.010  1.00  0.00     0.016 A 
ATOM     31  C   UNL A   1      38.224  31.798  30.051  1.00  0.00     0.016 A 
ATOM     32  C   UNL A   1      38.082  29.024  29.885  1.00  0.00     0.010 A 
ATOM     33  C   UNL A   1      39.384  31.093  29.958  1.00  0.00     0.010 A 
ATOM     34  C   UNL A   1      39.293  29.710  30.014  1.00  0.00    -0.014 A 
BRANCH  34  35
ATOM     35  C   UNL A   1      40.520  28.964  30.074  1.00  0.00     0.031 A 
ATOM     36  C   UNL A   1      40.865  28.681  31.478  1.00  0.00     0.074 A 
ATOM     37  C   UNL A   1      41.136  28.481  28.982  1.00  0.00     0.049 A 
ATOM     38  N   UNL A   1      41.632  29.394  32.235  1.00  0.00    -0.248 NA
ATOM     39  C   UNL A   1      39.986  27.754  32.217  1.00  0.00     0.031 C 
ATOM     40  C   UNL A   1      40.703  28.484  27.583  1.00  0.00     0.029 A 
ATOM     41  N   UNL A   1      42.293  27.775  28.934  1.00  0.00    -0.354 N 
ATOM     42  C   UNL A   1      41.557  28.772  33.470  1.00  0.00     0.074 A 
ATOM     43  C   UNL A   1      40.303  28.082  33.469  1.00  0.00     0.031 C 
ATOM     44  C   UNL A   1      41.468  27.614  26.878  1.00  0.00     0.029 A 
ATOM     45  C   UNL A   1      42.510  27.086  27.744  1.00  0.00     0.049 A 
ATOM     46  H   UNL A   1      42.930  27.752  29.684  1.00  0.00     0.167 HD
ATOM     47  C   UNL A   1      42.689  28.530  34.187  1.00  0.00     0.034 A 
ATOM     48  C   UNL A   1      43.413  26.073  27.589  1.00  0.00     0.034 A 
ATOM     49  C   UNL A   1      43.786  29.344  33.683  1.00  0.00     0.049 A 
ATOM     50  C   UNL A   1      44.414  26.254  28.690  1.00  0.00     0.074 A 
ATOM     51  C   UNL A   1      43.955  30.702  33.472  1.00  0.00     0.029 A 
ATOM     52  N   UNL A   1      44.745  28.733  32.898  1.00  0.00    -0.354 N 
ATOM     53  N   UNL A   1      45.197  27.302  28.768  1.00  0.00    -0.248 NA
ATOM     54  C   UNL A   1      44.140  25.598  29.966  1.00  0.00     0.031 C 
ATOM     55  C   UNL A   1      44.622  30.800  32.214  1.00  0.00     0.029 A 
ATOM     56  C   UNL A   1      44.933  29.510  31.779  1.00  0.00     0.049 A 
ATOM     57  H   UNL A   1      45.212  27.890  33.103  1.00  0.00     0.167 HD
ATOM     58  C   UNL A   1      45.172  27.683  30.106  1.00  0.00     0.074 A 
ATOM     59  C   UNL A   1      44.543  26.559  30.805  1.00  0.00     0.031 C 
ATOM     60  C   UNL A   1      45.356  28.983  30.491  1.00  0.00     0.034 A 
BRANCH  47  61
ATOM     61  C   UNL A   1      42.920  27.255  34.983  1.00  0.00     0.023 A 
ATOM     62  C   UNL A   1      43.844  26.356  34.429  1.00  0.00     0.031 A 
ATOM     63  C   UNL A   1      42.130  26.736  36.037  1.00  0.00     0.131 A 
ATOM     64  C   UNL A   1      43.824  24.997  34.774  1.00  0.00     0.055 A 
ATOM     65  C   UNL A   1      42.152  25.392  36.418  1.00  0.00     0.041 A 
ATOM     66  F   UNL A   1      41.249  27.455  36.737  1.00  0.00    -0.206 F 
ATOM     67  C   UNL A   1      42.971  24.501  35.753  1.00  0.00     0.022 A 
BRANCH  64  68
ATOM     68  S   UNL A   1      44.800  23.866  33.763  1.00  0.00     0.124 S 
ATOM     69  O   UNL A   1      43.821  23.470  32.756  1.00  0.00    -0.237 OA
ATOM     70  O   UNL A   1      45.879  24.735  33.306  1.00  0.00    -0.237 OA
ATOM     71  O   UNL A   1      45.192  22.823  34.707  1.00  0.00    -0.744 OA
ENDBRANCH  64  68
ENDBRANCH  47  61
BRANCH  48  72
ATOM     72  C   UNL A   1      43.183  24.783  26.860  1.00  0.00     0.023 A 
ATOM     73  C   UNL A   1      42.206  23.827  27.234  1.00  0.00     0.031 A 
ATOM     74  C   UNL A   1      43.809  24.569  25.609  1.00  0.00     0.131 A 
ATOM     75  C   UNL A   1      41.915  22.725  26.382  1.00  0.00     0.055 A 
ATOM     76  C   UNL A   1      43.519  23.485  24.777  1.00  0.00     0.041 A 
ATOM     77  F   UNL A   1      44.679  25.457  25.101  1.00  0.00    -0.206 F 
ATOM     78  C   UNL A   1      42.563  22.561  25.158  1.00  0.00     0.022 A 
BRANCH  75  79
ATOM     79  S   UNL A   1      40.626  21.503  26.816  1.00  0.00     0.124 S 
ATOM     80  O   UNL A   1      41.038  20.332  26.050  1.00  0.00    -0.237 OA
ATOM     81  O   UNL A   1      40.751  21.411  28.265  1.00  0.00    -0.237 OA
ATOM     82  O   UNL A   1      39.387  22.131  26.351  1.00  0.00    -0.744 OA
ENDBRANCH  75  79
ENDBRANCH  48  72
BRANCH  60  83
ATOM     83  C   UNL A   1      45.857  29.999  29.477  1.00  0.00     0.023 A 
ATOM     84  C   UNL A   1      45.042  30.802  28.643  1.00  0.00     0.031 A 
ATOM     85  C   UNL A   1      47.238  30.263  29.481  1.00  0.00     0.131 A 
ATOM     86  C   UNL A   1      45.628  31.821  27.858  1.00  0.00     0.055 A 
ATOM     87  C   UNL A   1      47.807  31.284  28.724  1.00  0.00     0.041 A 
ATOM     88  F   UNL A   1      48.063  29.552  30.267  1.00  0.00    -0.206 F 
ATOM     89  C   UNL A   1      47.005  32.066  27.905  1.00  0.00     0.022 A 
BRANCH  86  90
ATOM     90  S   UNL A   1      44.615  32.847  26.738  1.00  0.00     0.124 S 
ATOM     91  O   UNL A   1      43.972  31.868  25.870  1.00  0.00    -0.237 OA
ATOM     92  O   UNL A   1      43.736  33.554  27.666  1.00  0.00    -0.237 OA
ATOM     93  O   UNL A   1      45.602  33.698  26.069  1.00  0.00    -0.744 OA
ENDBRANCH  86  90
ENDBRANCH  60  83
ENDBRANCH  34  35
ENDBRANCH  27  29
ENDBRANCH  26  27
ENDBRANCH  25  26
ENDBRANCH  24  25
ENDBRANCH  23  24
ENDBRANCH   1  23
TORSDOF 21
ENDMDL
MODEL 2
REMARK VINA RESULT:      -9.4      4.685      9.968
REMARK SMILES CC(C)Cn1ncnc1C[N@H+]1CC[C@H](C(=O)OCCOCCOC(=O)c2ccc(-c3c4nc(c(-c5cc(S(=O)(=O)[O-])ccc5F)c5ccc([nH]5)c(-c5cc(S(=O)(=O)[O-])ccc5F)c5nc(c(-c6cc(S(=O)(=O)[O-])ccc6F)c6ccc3[nH]6)C=C5)C=C4)cc2)[C@@H]1C
REMARK SMILES IDX 19 1 18 2 17 3 15 4 16 5 14 6 11 7 12 8 89 9 13 11 90 12
REMARK SMILES IDX 10 13 9 14 5 15 6 16 7 17 8 18 4 19 2 20 1 21 3 22 20 23
REMARK SMILES IDX 21 24 22 25 23 26 24 27 25 28 26 29 27 30 88 31 28 32 87 33
REMARK SMILES IDX 29 34 30 35 31 36 81 37 32 38 86 39 80 40 82 41 33 42 85 43
REMARK SMILES IDX 79 44 78 45 34 47 66 48 46 49 65 50 47 51 50 52 64 53 83 54
REMARK SMILES IDX 48 55 49 56 63 58 84 59 51 60 35 61 36 62 44 63 37 64 43 65
REMARK SMILES IDX 45 66 42 67 38 68 39 69 40 70 41 71 67 72 68 73 76 74 69 75
REMARK SMILES IDX 75 76 77 77 74 78 70 79 71 80 72 81 73 82 52 83 53 84 61 85
REMARK SMILES IDX 54 86 60 87 62 88 59 89 55 90 56 91 57 92 58 93
REMARK H PARENT 11 10 82 46 50 57
REMARK Flexibility Score: inf
ROOT
ATOM      1  C   UNL A   1      47.226  29.513  27.340  1.00  0.00     0.202 C 
ENDROOT
BRANCH   1   2
ATOM      2  C   UNL A   1      48.307  28.499  27.705  1.00  0.00     0.261 C 
BRANCH   2   3
ATOM      3  O   UNL A   1      47.716  27.194  27.877  1.00  0.00    -0.463 OA
BRANCH   3   4
ATOM      4  C   UNL A   1      48.245  26.190  27.149  1.00  0.00     0.315 C 
ATOM      5  O   UNL A   1      49.230  26.318  26.426  1.00  0.00    -0.252 OA
BRANCH   4   6
ATOM      6  C   UNL A   1      47.556  24.844  27.324  1.00  0.00     0.162 C 
ATOM      7  N   UNL A   1      45.497  23.707  26.680  1.00  0.00    -0.326 N 
ATOM      8  C   UNL A   1      45.185  24.559  27.819  1.00  0.00     0.263 C 
ATOM      9  C   UNL A   1      46.851  24.069  26.191  1.00  0.00     0.195 C 
ATOM     10  H   UNL A   1      44.813  23.881  25.943  1.00  0.00     0.348 HD
ATOM     11  C   UNL A   1      46.507  24.960  28.440  1.00  0.00     0.083 C 
ATOM     12  C   UNL A   1      46.680  24.718  24.832  1.00  0.00     0.076 C 
BRANCH   7  13
ATOM     13  C   UNL A   1      45.329  22.267  26.941  1.00  0.00     0.340 C 
BRANCH  13  14
ATOM     14  C   UNL A   1      45.161  21.437  25.708  1.00  0.00     0.182 A 
ATOM     15  N   UNL A   1      43.989  20.854  25.296  1.00  0.00    -0.245 N 
ATOM     16  N   UNL A   1      44.196  20.095  24.197  1.00  0.00    -0.159 NA
ATOM     17  C   UNL A   1      45.506  20.232  24.013  1.00  0.00     0.246 A 
ATOM     18  N   UNL A   1      46.126  21.071  24.881  1.00  0.00    -0.214 NA
BRANCH  15  19
ATOM     19  C   UNL A   1      42.662  20.982  25.869  1.00  0.00     0.149 C 
BRANCH  19  20
ATOM     20  C   UNL A   1      41.962  19.656  26.223  1.00  0.00     0.004 C 
ATOM     21  C   UNL A   1      42.236  19.231  27.669  1.00  0.00     0.009 C 
ATOM     22  C   UNL A   1      40.454  19.788  26.003  1.00  0.00     0.009 C 
ENDBRANCH  19  20
ENDBRANCH  15  19
ENDBRANCH  13  14
ENDBRANCH   7  13
ENDBRANCH   4   6
ENDBRANCH   3   4
ENDBRANCH   2   3
ENDBRANCH   1   2
BRANCH   1  23
ATOM     23  O   UNL A   1      46.413  29.157  26.217  1.00  0.00    -0.374 OA
BRANCH  23  24
ATOM     24  C   UNL A   1      45.069  28.764  26.488  1.00  0.00     0.202 C 
BRANCH  24  25
ATOM     25  C   UNL A   1      44.559  27.532  25.749  1.00  0.00     0.261 C 
BRANCH  25  26
ATOM     26  O   UNL A   1      43.473  26.970  26.468  1.00  0.00    -0.460 OA
BRANCH  26  27
ATOM     27  C   UNL A   1      42.352  26.704  25.764  1.00  0.00     0.338 C 
ATOM     28  O   UNL A   1      42.256  26.080  24.717  1.00  0.00    -0.246 OA
BRANCH  27  29
ATOM     29  C   UNL A   1      41.250  27.384  26.456  1.00  0.00     0.060 A 
ATOM     30  C   UNL A   1      41.167  28.749  26.224  1.00  0.00     0.016 A 
ATOM     31  C   UNL A   1      40.717  26.786  27.605  1.00  0.00     0.016 A 
ATOM     32  C   UNL A   1      40.945  29.545  27.320  1.00  0.00     0.010 A 
ATOM     33  C   UNL A   1      40.526  27.571  28.701  1.00  0.00     0.010 A 
ATOM     34  C   UNL A   1      40.779  28.928  28.563  1.00  0.00    -0.014 A 
BRANCH  34  35
ATOM     35  C   UNL A   1      40.731  29.737  29.750  1.00  0.00     0.031 A 
ATOM     36  C   UNL A   1      39.428  30.417  29.838  1.00  0.00     0.074 A 
ATOM     37  C   UNL A   1      41.693  29.715  30.689  1.00  0.00     0.049 A 
ATOM     38  N   UNL A   1      39.154  31.603  29.403  1.00  0.00    -0.248 NA
ATOM     39  C   UNL A   1      38.239  29.576  30.076  1.00  0.00     0.031 C 
ATOM     40  C   UNL A   1      42.874  28.858  30.800  1.00  0.00     0.029 A 
ATOM     41  N   UNL A   1      41.741  30.441  31.832  1.00  0.00    -0.354 N 
ATOM     42  C   UNL A   1      37.795  31.739  29.630  1.00  0.00     0.074 A 
ATOM     43  C   UNL A   1      37.282  30.403  29.658  1.00  0.00     0.031 C 
ATOM     44  C   UNL A   1      43.380  28.957  32.055  1.00  0.00     0.029 A 
ATOM     45  C   UNL A   1      42.633  29.965  32.791  1.00  0.00     0.049 A 
ATOM     46  H   UNL A   1      41.188  31.243  31.975  1.00  0.00     0.167 HD
ATOM     47  C   UNL A   1      37.303  32.877  30.193  1.00  0.00     0.034 A 
ATOM     48  C   UNL A   1      42.617  30.323  34.108  1.00  0.00     0.034 A 
ATOM     49  C   UNL A   1      38.286  33.948  30.099  1.00  0.00     0.049 A 
ATOM     50  C   UNL A   1      41.895  31.635  34.162  1.00  0.00     0.074 A 
ATOM     51  C   UNL A   1      38.989  34.516  29.051  1.00  0.00     0.029 A 
ATOM     52  N   UNL A   1      38.997  34.282  31.237  1.00  0.00    -0.354 N 
ATOM     53  N   UNL A   1      42.360  32.721  33.594  1.00  0.00    -0.248 NA
ATOM     54  C   UNL A   1      40.444  31.600  34.320  1.00  0.00     0.031 C 
ATOM     55  C   UNL A   1      40.315  34.692  29.548  1.00  0.00     0.029 A 
ATOM     56  C   UNL A   1      40.329  34.341  30.899  1.00  0.00     0.049 A 
ATOM     57  H   UNL A   1      38.618  34.449  32.130  1.00  0.00     0.167 HD
ATOM     58  C   UNL A   1      41.268  33.301  32.957  1.00  0.00     0.074 A 
ATOM     59  C   UNL A   1      40.102  32.590  33.487  1.00  0.00     0.031 C 
ATOM     60  C   UNL A   1      41.411  34.068  31.832  1.00  0.00     0.034 A 
BRANCH  47  61
ATOM     61  C   UNL A   1      36.183  32.887  31.222  1.00  0.00     0.023 A 
ATOM     62  C   UNL A   1      35.143  33.795  30.973  1.00  0.00     0.031 A 
ATOM     63  C   UNL A   1      36.192  32.319  32.519  1.00  0.00     0.131 A 
ATOM     64  C   UNL A   1      34.312  34.242  32.011  1.00  0.00     0.055 A 
ATOM     65  C   UNL A   1      35.325  32.724  33.536  1.00  0.00     0.041 A 
ATOM     66  F   UNL A   1      37.056  31.383  32.921  1.00  0.00    -0.206 F 
ATOM     67  C   UNL A   1      34.405  33.726  33.298  1.00  0.00     0.022 A 
BRANCH  64  68
ATOM     68  S   UNL A   1      33.245  35.657  31.675  1.00  0.00     0.124 S 
ATOM     69  O   UNL A   1      33.227  35.657  30.216  1.00  0.00    -0.237 OA
ATOM     70  O   UNL A   1      32.007  35.257  32.336  1.00  0.00    -0.237 OA
ATOM     71  O   UNL A   1      33.957  36.769  32.297  1.00  0.00    -0.744 OA
ENDBRANCH  64  68
ENDBRANCH  47  61
BRANCH  48  72
ATOM     72  C   UNL A   1      42.781  29.401  35.280  1.00  0.00     0.023 A 
ATOM     73  C   UNL A   1      42.037  28.208  35.458  1.00  0.00     0.031 A 
ATOM     74  C   UNL A   1      43.869  29.588  36.166  1.00  0.00     0.131 A 
ATOM     75  C   UNL A   1      42.385  27.289  36.486  1.00  0.00     0.055 A 
ATOM     76  C   UNL A   1      44.206  28.682  37.174  1.00  0.00     0.041 A 
ATOM     77  F   UNL A   1      44.706  30.629  36.035  1.00  0.00    -0.206 F 
ATOM     78  C   UNL A   1      43.469  27.523  37.334  1.00  0.00     0.022 A 
BRANCH  75  79
ATOM     79  S   UNL A   1      41.474  25.720  36.708  1.00  0.00     0.124 S 
ATOM     80  O   UNL A   1      42.550  24.768  36.959  1.00  0.00    -0.237 OA
ATOM     81  O   UNL A   1      40.595  26.020  37.832  1.00  0.00    -0.237 OA
ATOM     82  O   UNL A   1      40.785  25.539  35.429  1.00  0.00    -0.744 OA
ENDBRANCH  75  79
ENDBRANCH  48  72
BRANCH  60  83
ATOM     83  C   UNL A   1      42.799  34.520  31.408  1.00  0.00     0.023 A 
ATOM     84  C   UNL A   1      43.523  34.028  30.295  1.00  0.00     0.031 A 
ATOM     85  C   UNL A   1      43.338  35.624  32.094  1.00  0.00     0.131 A 
ATOM     86  C   UNL A   1      44.736  34.645  29.915  1.00  0.00     0.055 A 
ATOM     87  C   UNL A   1      44.522  36.243  31.701  1.00  0.00     0.041 A 
ATOM     88  F   UNL A   1      42.689  36.153  33.145  1.00  0.00    -0.206 F 
ATOM     89  C   UNL A   1      45.229  35.754  30.612  1.00  0.00     0.022 A 
BRANCH  86  90
ATOM     90  S   UNL A   1      45.718  34.010  28.514  1.00  0.00     0.124 S 
ATOM     91  O   UNL A   1      46.415  32.862  29.081  1.00  0.00    -0.237 OA
ATOM     92  O   UNL A   1      44.691  33.709  27.521  1.00  0.00    -0.237 OA
ATOM     93  O   UNL A   1      46.585  35.138  28.167  1.00  0.00    -0.744 OA
ENDBRANCH  86  90
ENDBRANCH  60  83
ENDBRANCH  34  35
ENDBRANCH  27  29
ENDBRANCH  26  27
ENDBRANCH  25  26
ENDBRANCH  24  25
ENDBRANCH  23  24
ENDBRANCH   1  23
TORSDOF 21
ENDMDL
MODEL 3
REMARK VINA RESULT:      -9.3      2.983      4.107
REMARK SMILES CC(C)Cn1ncnc1C[N@H+]1CC[C@H](C(=O)OCCOCCOC(=O)c2ccc(-c3c4nc(c(-c5cc(S(=O)(=O)[O-])ccc5F)c5ccc([nH]5)c(-c5cc(S(=O)(=O)[O-])ccc5F)c5nc(c(-c6cc(S(=O)(=O)[O-])ccc6F)c6ccc3[nH]6)C=C5)C=C4)cc2)[C@@H]1C
REMARK SMILES IDX 19 1 18 2 17 3 15 4 16 5 14 6 11 7 12 8 89 9 13 11 90 12
REMARK SMILES IDX 10 13 9 14 5 15 6 16 7 17 8 18 4 19 2 20 1 21 3 22 20 23
REMARK SMILES IDX 21 24 22 25 23 26 24 27 25 28 26 29 27 30 88 31 28 32 87 33
REMARK SMILES IDX 29 34 30 35 31 36 81 37 32 38 86 39 80 40 82 41 33 42 85 43
REMARK SMILES IDX 79 44 78 45 34 47 66 48 46 49 65 50 47 51 50 52 64 53 83 54
REMARK SMILES IDX 48 55 49 56 63 58 84 59 51 60 35 61 36 62 44 63 37 64 43 65
REMARK SMILES IDX 45 66 42 67 38 68 39 69 40 70 41 71 67 72 68 73 76 74 69 75
REMARK SMILES IDX 75 76 77 77 74 78 70 79 71 80 72 81 73 82 52 83 53 84 61 85
REMARK SMILES IDX 54 86 60 87 62 88 59 89 55 90 56 91 57 92 58 93
REMARK H PARENT 11 10 82 46 50 57
REMARK Flexibility Score: inf
ROOT
ATOM      1  C   UNL A   1      33.608  31.980  28.294  1.00  0.00     0.202 C 
ENDROOT
BRANCH   1   2
ATOM      2  C   UNL A   1      33.457  31.120  27.042  1.00  0.00     0.261 C 
BRANCH   2   3
ATOM      3  O   UNL A   1      33.123  29.767  27.414  1.00  0.00    -0.463 OA
BRANCH   3   4
ATOM      4  C   UNL A   1      34.035  28.817  27.125  1.00  0.00     0.315 C 
ATOM      5  O   UNL A   1      35.226  28.908  27.409  1.00  0.00    -0.252 OA
BRANCH   4   6
ATOM      6  C   UNL A   1      33.470  27.575  26.450  1.00  0.00     0.162 C 
ATOM      7  N   UNL A   1      31.958  26.964  24.637  1.00  0.00    -0.326 N 
ATOM      8  C   UNL A   1      31.138  27.299  25.792  1.00  0.00     0.263 C 
ATOM      9  C   UNL A   1      33.352  27.386  24.923  1.00  0.00     0.195 C 
ATOM     10  H   UNL A   1      31.608  27.475  23.827  1.00  0.00     0.348 HD
ATOM     11  C   UNL A   1      32.059  27.308  26.995  1.00  0.00     0.083 C 
ATOM     12  C   UNL A   1      33.669  28.544  23.998  1.00  0.00     0.076 C 
BRANCH   7  13
ATOM     13  C   UNL A   1      31.844  25.560  24.205  1.00  0.00     0.340 C 
BRANCH  13  14
ATOM     14  C   UNL A   1      32.193  25.331  22.768  1.00  0.00     0.182 A 
ATOM     15  N   UNL A   1      33.109  24.419  22.308  1.00  0.00    -0.245 N 
ATOM     16  N   UNL A   1      33.257  24.528  20.969  1.00  0.00    -0.159 NA
ATOM     17  C   UNL A   1      32.436  25.535  20.684  1.00  0.00     0.246 A 
ATOM     18  N   UNL A   1      31.737  26.025  21.739  1.00  0.00    -0.214 NA
BRANCH  15  19
ATOM     19  C   UNL A   1      33.853  23.423  23.057  1.00  0.00     0.149 C 
BRANCH  19  20
ATOM     20  C   UNL A   1      35.194  23.901  23.646  1.00  0.00     0.004 C 
ATOM     21  C   UNL A   1      35.139  24.024  25.172  1.00  0.00     0.009 C 
ATOM     22  C   UNL A   1      36.311  22.936  23.247  1.00  0.00     0.009 C 
ENDBRANCH  19  20
ENDBRANCH  15  19
ENDBRANCH  13  14
ENDBRANCH   7  13
ENDBRANCH   4   6
ENDBRANCH   3   4
ENDBRANCH   2   3
ENDBRANCH   1   2
BRANCH   1  23
ATOM     23  O   UNL A   1      34.743  32.851  28.300  1.00  0.00    -0.374 OA
BRANCH  23  24
ATOM     24  C   UNL A   1      34.492  34.242  28.491  1.00  0.00     0.202 C 
BRANCH  24  25
ATOM     25  C   UNL A   1      34.122  34.678  29.904  1.00  0.00     0.261 C 
BRANCH  25  26
ATOM     26  O   UNL A   1      34.809  33.863  30.841  1.00  0.00    -0.460 OA
BRANCH  26  27
ATOM     27  C   UNL A   1      34.528  34.071  32.145  1.00  0.00     0.338 C 
ATOM     28  O   UNL A   1      33.483  34.478  32.631  1.00  0.00    -0.246 OA
BRANCH  27  29
ATOM     29  C   UNL A   1      35.761  33.789  32.891  1.00  0.00     0.060 A 
ATOM     30  C   UNL A   1      36.790  34.697  32.683  1.00  0.00     0.016 A 
ATOM     31  C   UNL A   1      35.996  32.476  33.315  1.00  0.00     0.016 A 
ATOM     32  C   UNL A   1      38.042  34.170  32.484  1.00  0.00     0.010 A 
ATOM     33  C   UNL A   1      37.229  31.944  33.090  1.00  0.00     0.010 A 
ATOM     34  C   UNL A   1      38.192  32.781  32.547  1.00  0.00    -0.014 A 
BRANCH  34  35
ATOM     35  C   UNL A   1      39.445  32.192  32.162  1.00  0.00     0.031 A 
ATOM     36  C   UNL A   1      40.345  32.126  33.326  1.00  0.00     0.074 A 
ATOM     37  C   UNL A   1      39.656  31.649  30.950  1.00  0.00     0.049 A 
ATOM     38  N   UNL A   1      41.227  33.008  33.661  1.00  0.00    -0.248 NA
ATOM     39  C   UNL A   1      39.974  31.204  34.418  1.00  0.00     0.031 C 
ATOM     40  C   UNL A   1      38.720  31.431  29.846  1.00  0.00     0.029 A 
ATOM     41  N   UNL A   1      40.797  31.078  30.493  1.00  0.00    -0.354 N 
ATOM     42  C   UNL A   1      41.732  32.540  34.863  1.00  0.00     0.074 A 
ATOM     43  C   UNL A   1      40.697  31.719  35.412  1.00  0.00     0.031 C 
ATOM     44  C   UNL A   1      39.275  30.571  28.956  1.00  0.00     0.029 A 
ATOM     45  C   UNL A   1      40.639  30.275  29.366  1.00  0.00     0.049 A 
ATOM     46  H   UNL A   1      41.670  31.220  30.924  1.00  0.00     0.167 HD
ATOM     47  C   UNL A   1      43.076  32.518  35.081  1.00  0.00     0.034 A 
ATOM     48  C   UNL A   1      41.554  29.359  28.933  1.00  0.00     0.034 A 
ATOM     49  C   UNL A   1      43.754  33.382  34.125  1.00  0.00     0.049 A 
ATOM     50  C   UNL A   1      42.863  29.786  29.525  1.00  0.00     0.074 A 
ATOM     51  C   UNL A   1      43.619  34.713  33.770  1.00  0.00     0.029 A 
ATOM     52  N   UNL A   1      44.415  32.789  33.066  1.00  0.00    -0.354 N 
ATOM     53  N   UNL A   1      43.445  30.918  29.210  1.00  0.00    -0.248 NA
ATOM     54  C   UNL A   1      43.207  29.267  30.846  1.00  0.00     0.031 C 
ATOM     55  C   UNL A   1      43.723  34.728  32.347  1.00  0.00     0.029 A 
ATOM     56  C   UNL A   1      44.034  33.438  31.914  1.00  0.00     0.049 A 
ATOM     57  H   UNL A   1      45.048  32.037  33.124  1.00  0.00     0.167 HD
ATOM     58  C   UNL A   1      43.883  31.456  30.416  1.00  0.00     0.074 A 
ATOM     59  C   UNL A   1      43.753  30.364  31.384  1.00  0.00     0.031 C 
ATOM     60  C   UNL A   1      44.000  32.807  30.604  1.00  0.00     0.034 A 
BRANCH  47  61
ATOM     61  C   UNL A   1      43.788  31.386  35.803  1.00  0.00     0.023 A 
ATOM     62  C   UNL A   1      43.817  30.159  35.124  1.00  0.00     0.031 A 
ATOM     63  C   UNL A   1      44.167  31.330  37.167  1.00  0.00     0.131 A 
ATOM     64  C   UNL A   1      44.012  28.954  35.816  1.00  0.00     0.055 A 
ATOM     65  C   UNL A   1      44.417  30.132  37.842  1.00  0.00     0.041 A 
ATOM     66  F   UNL A   1      44.273  32.399  37.959  1.00  0.00    -0.206 F 
ATOM     67  C   UNL A   1      44.296  28.929  37.177  1.00  0.00     0.022 A 
BRANCH  64  68
ATOM     68  S   UNL A   1      43.685  27.419  34.927  1.00  0.00     0.124 S 
ATOM     69  O   UNL A   1      44.651  27.511  33.839  1.00  0.00    -0.237 OA
ATOM     70  O   UNL A   1      43.962  26.419  35.953  1.00  0.00    -0.237 OA
ATOM     71  O   UNL A   1      42.283  27.548  34.539  1.00  0.00    -0.744 OA
ENDBRANCH  64  68
ENDBRANCH  47  61
BRANCH  48  72
ATOM     72  C   UNL A   1      41.259  27.971  28.449  1.00  0.00     0.023 A 
ATOM     73  C   UNL A   1      42.030  27.292  27.473  1.00  0.00     0.031 A 
ATOM     74  C   UNL A   1      40.293  27.188  29.127  1.00  0.00     0.131 A 
ATOM     75  C   UNL A   1      41.807  25.912  27.211  1.00  0.00     0.055 A 
ATOM     76  C   UNL A   1      40.078  25.833  28.864  1.00  0.00     0.041 A 
ATOM     77  F   UNL A   1      39.569  27.692  30.138  1.00  0.00    -0.206 F 
ATOM     78  C   UNL A   1      40.840  25.187  27.909  1.00  0.00     0.022 A 
BRANCH  75  79
ATOM     79  S   UNL A   1      42.820  24.999  25.994  1.00  0.00     0.124 S 
ATOM     80  O   UNL A   1      42.305  25.499  24.724  1.00  0.00    -0.237 OA
ATOM     81  O   UNL A   1      44.177  25.396  26.348  1.00  0.00    -0.237 OA
ATOM     82  O   UNL A   1      42.505  23.596  26.268  1.00  0.00    -0.744 OA
ENDBRANCH  75  79
ENDBRANCH  48  72
BRANCH  60  83
ATOM     83  C   UNL A   1      43.908  33.739  29.407  1.00  0.00     0.023 A 
ATOM     84  C   UNL A   1      44.936  33.970  28.461  1.00  0.00     0.031 A 
ATOM     85  C   UNL A   1      42.645  34.297  29.141  1.00  0.00     0.131 A 
ATOM     86  C   UNL A   1      44.668  34.737  27.305  1.00  0.00     0.055 A 
ATOM     87  C   UNL A   1      42.380  35.032  27.988  1.00  0.00     0.041 A 
ATOM     88  F   UNL A   1      41.621  34.096  29.987  1.00  0.00    -0.206 F 
ATOM     89  C   UNL A   1      43.392  35.259  27.066  1.00  0.00     0.022 A 
BRANCH  86  90
ATOM     90  S   UNL A   1      45.979  35.094  26.086  1.00  0.00     0.124 S 
ATOM     91  O   UNL A   1      46.069  36.549  26.100  1.00  0.00    -0.237 OA
ATOM     92  O   UNL A   1      47.125  34.376  26.637  1.00  0.00    -0.237 OA
ATOM     93  O   UNL A   1      45.451  34.529  24.842  1.00  0.00    -0.744 OA
ENDBRANCH  86  90
ENDBRANCH  60  83
ENDBRANCH  34  35
ENDBRANCH  27  29
ENDBRANCH  26  27
ENDBRANCH  25  26
ENDBRANCH  24  25
ENDBRANCH  23  24
ENDBRANCH   1  23
TORSDOF 21
ENDMDL
