MODEL 1
REMARK VINA RESULT:     -11.2      0.000      0.000
REMARK SMILES Cc1ccc(C(=O)OCCOCCOC(=O)c2ccc(-c3c4nc(c(-c5cc(S(=O)(=O)[O-])ccc5F)c5ccc([nH]5)c(-c5cc(S(=O)(=O)[O-])ccc5F)c5nc(c(-c6cc(S(=O)(=O)[O-])ccc6F)c6ccc3[nH]6)C=C5)C=C4)cc2)cc1S(=O)(=O)N(C)[C@H]1CCSC1
REMARK SMILES IDX 11 1 10 2 9 3 8 4 6 5 7 6 5 7 1 8 2 9 3 10 81 11 4 12 80 13
REMARK SMILES IDX 82 14 83 15 84 16 85 17 86 18 87 19 88 20 91 21 89 22 90 23
REMARK SMILES IDX 12 24 13 25 14 26 15 27 16 28 17 29 18 30 79 31 19 32 78 33
REMARK SMILES IDX 20 34 21 35 22 36 72 37 23 38 77 39 71 40 73 41 24 42 76 43
REMARK SMILES IDX 70 44 69 45 25 47 57 48 37 49 56 50 38 51 41 52 55 53 74 54
REMARK SMILES IDX 39 55 40 56 54 58 75 59 42 60 26 61 27 62 35 63 28 64 34 65
REMARK SMILES IDX 36 66 33 67 29 68 30 69 31 70 32 71 58 72 59 73 67 74 60 75
REMARK SMILES IDX 66 76 68 77 65 78 61 79 62 80 63 81 64 82 43 83 44 84 52 85
REMARK SMILES IDX 45 86 51 87 53 88 50 89 46 90 47 91 48 92 49 93
REMARK H PARENT 73 46 41 57
REMARK Flexibility Score: inf
ROOT
ATOM      1  O   UNL A   1      34.301  32.421  29.717  1.00  0.00    -0.374 OA
ENDROOT
BRANCH   1   2
ATOM      2  C   UNL A   1      34.083  33.654  29.041  1.00  0.00     0.202 C 
BRANCH   2   3
ATOM      3  C   UNL A   1      33.593  33.251  27.693  1.00  0.00     0.261 C 
BRANCH   3   4
ATOM      4  O   UNL A   1      33.164  31.886  27.677  1.00  0.00    -0.460 OA
BRANCH   4   5
ATOM      5  C   UNL A   1      32.083  31.504  26.955  1.00  0.00     0.338 C 
ATOM      6  O   UNL A   1      31.229  32.179  26.418  1.00  0.00    -0.246 OA
BRANCH   5   7
ATOM      7  C   UNL A   1      32.251  30.057  26.724  1.00  0.00     0.061 A 
ATOM      8  C   UNL A   1      31.582  25.946  25.708  1.00  0.00     0.046 C 
ATOM      9  C   UNL A   1      31.942  27.373  25.981  1.00  0.00    -0.031 A 
ATOM     10  C   UNL A   1      31.560  27.829  27.264  1.00  0.00     0.006 A 
ATOM     11  C   UNL A   1      32.521  28.297  25.087  1.00  0.00     0.086 A 
ATOM     12  C   UNL A   1      31.697  29.163  27.632  1.00  0.00     0.016 A 
ATOM     13  C   UNL A   1      32.734  29.609  25.497  1.00  0.00     0.037 A 
BRANCH  11  14
ATOM     14  S   UNL A   1      32.939  28.045  23.369  1.00  0.00     0.243 S 
ATOM     15  O   UNL A   1      33.400  29.312  22.852  1.00  0.00    -0.207 OA
ATOM     16  O   UNL A   1      33.722  26.827  23.269  1.00  0.00    -0.207 OA
BRANCH  14  17
ATOM     17  N   UNL A   1      31.471  27.666  22.652  1.00  0.00    -0.197 NA
ATOM     18  C   UNL A   1      31.384  26.390  21.951  1.00  0.00     0.125 C 
BRANCH  17  19
ATOM     19  C   UNL A   1      30.318  28.523  22.976  1.00  0.00     0.083 C 
ATOM     20  C   UNL A   1      30.097  29.635  21.962  1.00  0.00     0.032 C 
ATOM     21  C   UNL A   1      28.994  27.780  23.118  1.00  0.00     0.089 C 
ATOM     22  C   UNL A   1      28.900  30.400  22.491  1.00  0.00     0.071 C 
ATOM     23  S   UNL A   1      27.727  29.092  22.954  1.00  0.00    -0.160 SA
ENDBRANCH  17  19
ENDBRANCH  14  17
ENDBRANCH  11  14
ENDBRANCH   5   7
ENDBRANCH   4   5
ENDBRANCH   3   4
ENDBRANCH   2   3
ENDBRANCH   1   2
BRANCH   1  24
ATOM     24  C   UNL A   1      35.293  32.447  30.714  1.00  0.00     0.202 C 
BRANCH  24  25
ATOM     25  C   UNL A   1      36.356  31.363  30.506  1.00  0.00     0.261 C 
BRANCH  25  26
ATOM     26  O   UNL A   1      37.114  31.648  29.308  1.00  0.00    -0.460 OA
BRANCH  26  27
ATOM     27  C   UNL A   1      36.887  30.828  28.240  1.00  0.00     0.338 C 
ATOM     28  O   UNL A   1      36.044  31.018  27.382  1.00  0.00    -0.246 OA
BRANCH  27  29
ATOM     29  C   UNL A   1      37.739  29.605  28.342  1.00  0.00     0.060 A 
ATOM     30  C   UNL A   1      37.560  28.678  29.391  1.00  0.00     0.016 A 
ATOM     31  C   UNL A   1      38.879  29.532  27.548  1.00  0.00     0.016 A 
ATOM     32  C   UNL A   1      38.594  27.786  29.738  1.00  0.00     0.010 A 
ATOM     33  C   UNL A   1      39.918  28.721  27.951  1.00  0.00     0.010 A 
ATOM     34  C   UNL A   1      39.812  27.870  29.068  1.00  0.00    -0.014 A 
BRANCH  34  35
ATOM     35  C   UNL A   1      41.097  27.291  29.500  1.00  0.00     0.031 A 
ATOM     36  C   UNL A   1      41.538  26.023  28.875  1.00  0.00     0.074 A 
ATOM     37  C   UNL A   1      42.016  28.054  30.147  1.00  0.00     0.049 A 
ATOM     38  N   UNL A   1      42.582  25.363  29.232  1.00  0.00    -0.248 NA
ATOM     39  C   UNL A   1      40.807  25.353  27.800  1.00  0.00     0.031 C 
ATOM     40  C   UNL A   1      43.478  27.957  30.102  1.00  0.00     0.029 A 
ATOM     41  N   UNL A   1      41.814  29.145  30.988  1.00  0.00    -0.354 N 
ATOM     42  C   UNL A   1      42.887  24.493  28.211  1.00  0.00     0.074 A 
ATOM     43  C   UNL A   1      41.671  24.397  27.450  1.00  0.00     0.031 C 
ATOM     44  C   UNL A   1      44.019  28.741  31.052  1.00  0.00     0.029 A 
ATOM     45  C   UNL A   1      42.924  29.287  31.834  1.00  0.00     0.049 A 
ATOM     46  H   UNL A   1      41.020  29.726  30.989  1.00  0.00     0.167 HD
ATOM     47  C   UNL A   1      44.188  24.112  28.056  1.00  0.00     0.034 A 
ATOM     48  C   UNL A   1      42.752  29.274  33.182  1.00  0.00     0.034 A 
ATOM     49  C   UNL A   1      45.009  24.619  29.175  1.00  0.00     0.049 A 
ATOM     50  C   UNL A   1      43.386  27.998  33.674  1.00  0.00     0.074 A 
ATOM     51  C   UNL A   1      46.022  25.560  29.271  1.00  0.00     0.029 A 
ATOM     52  N   UNL A   1      44.614  24.349  30.489  1.00  0.00    -0.354 N 
ATOM     53  N   UNL A   1      43.619  26.986  32.878  1.00  0.00    -0.248 NA
ATOM     54  C   UNL A   1      43.944  27.795  35.005  1.00  0.00     0.031 C 
ATOM     55  C   UNL A   1      46.152  25.924  30.646  1.00  0.00     0.029 A 
ATOM     56  C   UNL A   1      45.247  25.182  31.391  1.00  0.00     0.049 A 
ATOM     57  H   UNL A   1      43.966  23.653  30.740  1.00  0.00     0.167 HD
ATOM     58  C   UNL A   1      44.449  26.102  33.487  1.00  0.00     0.074 A 
ATOM     59  C   UNL A   1      44.569  26.612  34.846  1.00  0.00     0.031 C 
ATOM     60  C   UNL A   1      45.008  25.047  32.825  1.00  0.00     0.034 A 
BRANCH  47  61
ATOM     61  C   UNL A   1      44.798  23.497  26.799  1.00  0.00     0.023 A 
ATOM     62  C   UNL A   1      44.380  22.203  26.415  1.00  0.00     0.031 A 
ATOM     63  C   UNL A   1      45.810  24.048  25.979  1.00  0.00     0.131 A 
ATOM     64  C   UNL A   1      44.966  21.518  25.330  1.00  0.00     0.055 A 
ATOM     65  C   UNL A   1      46.382  23.373  24.889  1.00  0.00     0.041 A 
ATOM     66  F   UNL A   1      46.319  25.265  26.165  1.00  0.00    -0.206 F 
ATOM     67  C   UNL A   1      45.969  22.099  24.562  1.00  0.00     0.022 A 
BRANCH  64  68
ATOM     68  S   UNL A   1      44.413  19.837  24.944  1.00  0.00     0.124 S 
ATOM     69  O   UNL A   1      43.035  19.851  25.421  1.00  0.00    -0.237 OA
ATOM     70  O   UNL A   1      44.600  19.772  23.499  1.00  0.00    -0.237 OA
ATOM     71  O   UNL A   1      45.324  18.994  25.719  1.00  0.00    -0.744 OA
ENDBRANCH  64  68
ENDBRANCH  47  61
BRANCH  48  72
ATOM     72  C   UNL A   1      41.461  29.951  33.552  1.00  0.00     0.023 A 
ATOM     73  C   UNL A   1      41.437  31.373  33.444  1.00  0.00     0.031 A 
ATOM     74  C   UNL A   1      40.230  29.283  33.455  1.00  0.00     0.131 A 
ATOM     75  C   UNL A   1      40.252  32.053  33.095  1.00  0.00     0.055 A 
ATOM     76  C   UNL A   1      39.048  29.969  33.128  1.00  0.00     0.041 A 
ATOM     77  F   UNL A   1      40.176  27.944  33.508  1.00  0.00    -0.206 F 
ATOM     78  C   UNL A   1      39.062  31.348  32.903  1.00  0.00     0.022 A 
BRANCH  75  79
ATOM     79  S   UNL A   1      40.338  33.806  32.558  1.00  0.00     0.124 S 
ATOM     80  O   UNL A   1      39.374  34.449  33.443  1.00  0.00    -0.237 OA
ATOM     81  O   UNL A   1      41.741  34.146  32.780  1.00  0.00    -0.237 OA
ATOM     82  O   UNL A   1      39.961  33.743  31.147  1.00  0.00    -0.744 OA
ENDBRANCH  75  79
ENDBRANCH  48  72
BRANCH  60  83
ATOM     83  C   UNL A   1      45.442  23.796  33.530  1.00  0.00     0.023 A 
ATOM     84  C   UNL A   1      46.723  23.678  34.076  1.00  0.00     0.031 A 
ATOM     85  C   UNL A   1      44.542  22.745  33.809  1.00  0.00     0.131 A 
ATOM     86  C   UNL A   1      47.112  22.520  34.755  1.00  0.00     0.055 A 
ATOM     87  C   UNL A   1      44.896  21.643  34.587  1.00  0.00     0.041 A 
ATOM     88  F   UNL A   1      43.279  22.750  33.358  1.00  0.00    -0.206 F 
ATOM     89  C   UNL A   1      46.199  21.512  35.047  1.00  0.00     0.022 A 
BRANCH  86  90
ATOM     90  S   UNL A   1      48.867  22.336  35.135  1.00  0.00     0.124 S 
ATOM     91  O   UNL A   1      49.053  23.349  36.172  1.00  0.00    -0.237 OA
ATOM     92  O   UNL A   1      48.953  20.950  35.582  1.00  0.00    -0.237 OA
ATOM     93  O   UNL A   1      49.524  22.624  33.862  1.00  0.00    -0.744 OA
ENDBRANCH  86  90
ENDBRANCH  60  83
ENDBRANCH  34  35
ENDBRANCH  27  29
ENDBRANCH  26  27
ENDBRANCH  25  26
ENDBRANCH  24  25
ENDBRANCH   1  24
TORSDOF 20
ENDMDL
MODEL 2
REMARK VINA RESULT:     -11.1      3.560      5.320
REMARK SMILES Cc1ccc(C(=O)OCCOCCOC(=O)c2ccc(-c3c4nc(c(-c5cc(S(=O)(=O)[O-])ccc5F)c5ccc([nH]5)c(-c5cc(S(=O)(=O)[O-])ccc5F)c5nc(c(-c6cc(S(=O)(=O)[O-])ccc6F)c6ccc3[nH]6)C=C5)C=C4)cc2)cc1S(=O)(=O)N(C)[C@H]1CCSC1
REMARK SMILES IDX 11 1 10 2 9 3 8 4 6 5 7 6 5 7 1 8 2 9 3 10 81 11 4 12 80 13
REMARK SMILES IDX 82 14 83 15 84 16 85 17 86 18 87 19 88 20 91 21 89 22 90 23
REMARK SMILES IDX 12 24 13 25 14 26 15 27 16 28 17 29 18 30 79 31 19 32 78 33
REMARK SMILES IDX 20 34 21 35 22 36 72 37 23 38 77 39 71 40 73 41 24 42 76 43
REMARK SMILES IDX 70 44 69 45 25 47 57 48 37 49 56 50 38 51 41 52 55 53 74 54
REMARK SMILES IDX 39 55 40 56 54 58 75 59 42 60 26 61 27 62 35 63 28 64 34 65
REMARK SMILES IDX 36 66 33 67 29 68 30 69 31 70 32 71 58 72 59 73 67 74 60 75
REMARK SMILES IDX 66 76 68 77 65 78 61 79 62 80 63 81 64 82 43 83 44 84 52 85
REMARK SMILES IDX 45 86 51 87 53 88 50 89 46 90 47 91 48 92 49 93
REMARK H PARENT 73 46 41 57
REMARK Flexibility Score: inf
ROOT
ATOM      1  O   UNL A   1      35.150  30.751  27.605  1.00  0.00    -0.374 OA
ENDROOT
BRANCH   1   2
ATOM      2  C   UNL A   1      35.183  29.332  27.493  1.00  0.00     0.202 C 
BRANCH   2   3
ATOM      3  C   UNL A   1      33.877  28.983  26.867  1.00  0.00     0.261 C 
BRANCH   3   4
ATOM      4  O   UNL A   1      34.054  28.428  25.560  1.00  0.00    -0.460 OA
BRANCH   4   5
ATOM      5  C   UNL A   1      32.993  27.991  24.839  1.00  0.00     0.338 C 
ATOM      6  O   UNL A   1      32.606  28.335  23.741  1.00  0.00    -0.246 OA
BRANCH   5   7
ATOM      7  C   UNL A   1      32.491  26.803  25.552  1.00  0.00     0.061 A 
ATOM      8  C   UNL A   1      30.725  23.013  26.500  1.00  0.00     0.046 C 
ATOM      9  C   UNL A   1      31.458  24.294  26.255  1.00  0.00    -0.031 A 
ATOM     10  C   UNL A   1      30.616  25.422  26.112  1.00  0.00     0.006 A 
ATOM     11  C   UNL A   1      32.846  24.467  26.072  1.00  0.00     0.086 A 
ATOM     12  C   UNL A   1      31.122  26.665  25.748  1.00  0.00     0.016 A 
ATOM     13  C   UNL A   1      33.350  25.733  25.794  1.00  0.00     0.037 A 
BRANCH  11  14
ATOM     14  S   UNL A   1      34.110  23.206  26.027  1.00  0.00     0.243 S 
ATOM     15  O   UNL A   1      35.360  23.867  25.736  1.00  0.00    -0.207 OA
ATOM     16  O   UNL A   1      33.929  22.345  27.182  1.00  0.00    -0.207 OA
BRANCH  14  17
ATOM     17  N   UNL A   1      33.678  22.254  24.716  1.00  0.00    -0.197 NA
ATOM     18  C   UNL A   1      33.703  22.885  23.401  1.00  0.00     0.125 C 
BRANCH  17  19
ATOM     19  C   UNL A   1      33.536  20.807  24.947  1.00  0.00     0.083 C 
ATOM     20  C   UNL A   1      32.491  20.159  24.051  1.00  0.00     0.032 C 
ATOM     21  C   UNL A   1      34.823  20.007  24.780  1.00  0.00     0.089 C 
ATOM     22  C   UNL A   1      32.486  18.701  24.466  1.00  0.00     0.071 C 
ATOM     23  S   UNL A   1      34.251  18.281  24.571  1.00  0.00    -0.160 SA
ENDBRANCH  17  19
ENDBRANCH  14  17
ENDBRANCH  11  14
ENDBRANCH   5   7
ENDBRANCH   4   5
ENDBRANCH   3   4
ENDBRANCH   2   3
ENDBRANCH   1   2
BRANCH   1  24
ATOM     24  C   UNL A   1      33.866  31.325  27.623  1.00  0.00     0.202 C 
BRANCH  24  25
ATOM     25  C   UNL A   1      33.884  32.777  28.113  1.00  0.00     0.261 C 
BRANCH  25  26
ATOM     26  O   UNL A   1      33.920  32.803  29.558  1.00  0.00    -0.460 OA
BRANCH  26  27
ATOM     27  C   UNL A   1      34.414  33.940  30.129  1.00  0.00     0.338 C 
ATOM     28  O   UNL A   1      33.841  35.015  30.154  1.00  0.00    -0.246 OA
BRANCH  27  29
ATOM     29  C   UNL A   1      35.808  33.707  30.614  1.00  0.00     0.060 A 
ATOM     30  C   UNL A   1      36.920  33.986  29.791  1.00  0.00     0.016 A 
ATOM     31  C   UNL A   1      35.984  32.965  31.776  1.00  0.00     0.016 A 
ATOM     32  C   UNL A   1      38.169  33.389  30.053  1.00  0.00     0.010 A 
ATOM     33  C   UNL A   1      37.182  32.313  31.975  1.00  0.00     0.010 A 
ATOM     34  C   UNL A   1      38.275  32.478  31.102  1.00  0.00    -0.014 A 
BRANCH  34  35
ATOM     35  C   UNL A   1      39.362  31.507  31.319  1.00  0.00     0.031 A 
ATOM     36  C   UNL A   1      39.394  30.292  30.474  1.00  0.00     0.074 A 
ATOM     37  C   UNL A   1      40.492  31.872  31.980  1.00  0.00     0.049 A 
ATOM     38  N   UNL A   1      40.225  29.323  30.627  1.00  0.00    -0.248 NA
ATOM     39  C   UNL A   1      38.450  30.037  29.388  1.00  0.00     0.031 C 
ATOM     40  C   UNL A   1      41.862  31.390  31.781  1.00  0.00     0.029 A 
ATOM     41  N   UNL A   1      40.651  32.819  32.989  1.00  0.00    -0.354 N 
ATOM     42  C   UNL A   1      40.218  28.587  29.465  1.00  0.00     0.074 A 
ATOM     43  C   UNL A   1      38.988  28.956  28.819  1.00  0.00     0.031 C 
ATOM     44  C   UNL A   1      42.651  31.827  32.780  1.00  0.00     0.029 A 
ATOM     45  C   UNL A   1      41.798  32.509  33.736  1.00  0.00     0.049 A 
ATOM     46  H   UNL A   1      40.055  33.585  33.152  1.00  0.00     0.167 HD
ATOM     47  C   UNL A   1      41.348  27.900  29.131  1.00  0.00     0.034 A 
ATOM     48  C   UNL A   1      41.697  32.316  35.077  1.00  0.00     0.034 A 
ATOM     49  C   UNL A   1      42.335  27.968  30.229  1.00  0.00     0.049 A 
ATOM     50  C   UNL A   1      41.968  30.852  35.312  1.00  0.00     0.074 A 
ATOM     51  C   UNL A   1      43.577  28.569  30.365  1.00  0.00     0.029 A 
ATOM     52  N   UNL A   1      41.947  27.598  31.521  1.00  0.00    -0.354 N 
ATOM     53  N   UNL A   1      41.863  29.964  34.357  1.00  0.00    -0.248 NA
ATOM     54  C   UNL A   1      42.513  30.283  36.539  1.00  0.00     0.031 C 
ATOM     55  C   UNL A   1      43.875  28.646  31.759  1.00  0.00     0.029 A 
ATOM     56  C   UNL A   1      42.836  28.063  32.470  1.00  0.00     0.049 A 
ATOM     57  H   UNL A   1      41.142  27.072  31.726  1.00  0.00     0.167 HD
ATOM     58  C   UNL A   1      42.438  28.799  34.746  1.00  0.00     0.074 A 
ATOM     59  C   UNL A   1      42.767  29.020  36.147  1.00  0.00     0.031 C 
ATOM     60  C   UNL A   1      42.641  27.758  33.885  1.00  0.00     0.034 A 
BRANCH  47  61
ATOM     61  C   UNL A   1      41.694  27.363  27.745  1.00  0.00     0.023 A 
ATOM     62  C   UNL A   1      41.930  25.977  27.603  1.00  0.00     0.031 A 
ATOM     63  C   UNL A   1      41.878  28.108  26.557  1.00  0.00     0.131 A 
ATOM     64  C   UNL A   1      42.356  25.412  26.383  1.00  0.00     0.055 A 
ATOM     65  C   UNL A   1      42.286  27.544  25.339  1.00  0.00     0.041 A 
ATOM     66  F   UNL A   1      41.681  29.424  26.483  1.00  0.00    -0.206 F 
ATOM     67  C   UNL A   1      42.536  26.191  25.246  1.00  0.00     0.022 A 
BRANCH  64  68
ATOM     68  S   UNL A   1      42.696  23.634  26.303  1.00  0.00     0.124 S 
ATOM     69  O   UNL A   1      43.488  23.420  27.509  1.00  0.00    -0.237 OA
ATOM     70  O   UNL A   1      41.355  23.060  26.295  1.00  0.00    -0.237 OA
ATOM     71  O   UNL A   1      43.434  23.486  25.048  1.00  0.00    -0.744 OA
ENDBRANCH  64  68
ENDBRANCH  47  61
BRANCH  48  72
ATOM     72  C   UNL A   1      40.672  33.245  35.666  1.00  0.00     0.023 A 
ATOM     73  C   UNL A   1      39.493  32.638  36.190  1.00  0.00     0.031 A 
ATOM     74  C   UNL A   1      41.034  34.496  36.193  1.00  0.00     0.131 A 
ATOM     75  C   UNL A   1      38.820  33.196  37.297  1.00  0.00     0.055 A 
ATOM     76  C   UNL A   1      40.346  35.058  37.282  1.00  0.00     0.041 A 
ATOM     77  F   UNL A   1      42.151  35.111  35.779  1.00  0.00    -0.206 F 
ATOM     78  C   UNL A   1      39.266  34.391  37.866  1.00  0.00     0.022 A 
BRANCH  75  79
ATOM     79  S   UNL A   1      37.578  32.194  38.202  1.00  0.00     0.124 S 
ATOM     80  O   UNL A   1      37.565  30.952  37.438  1.00  0.00    -0.237 OA
ATOM     81  O   UNL A   1      38.140  32.116  39.547  1.00  0.00    -0.237 OA
ATOM     82  O   UNL A   1      36.365  33.005  38.114  1.00  0.00    -0.744 OA
ENDBRANCH  75  79
ENDBRANCH  48  72
BRANCH  60  83
ATOM     83  C   UNL A   1      42.737  26.337  34.352  1.00  0.00     0.023 A 
ATOM     84  C   UNL A   1      43.822  25.528  33.999  1.00  0.00     0.031 A 
ATOM     85  C   UNL A   1      41.828  25.793  35.285  1.00  0.00     0.131 A 
ATOM     86  C   UNL A   1      43.920  24.212  34.460  1.00  0.00     0.055 A 
ATOM     87  C   UNL A   1      41.991  24.522  35.836  1.00  0.00     0.041 A 
ATOM     88  F   UNL A   1      40.759  26.476  35.718  1.00  0.00    -0.206 F 
ATOM     89  C   UNL A   1      43.030  23.710  35.404  1.00  0.00     0.022 A 
BRANCH  86  90
ATOM     90  S   UNL A   1      45.172  23.161  33.696  1.00  0.00     0.124 S 
ATOM     91  O   UNL A   1      44.910  21.875  34.335  1.00  0.00    -0.237 OA
ATOM     92  O   UNL A   1      44.835  23.243  32.279  1.00  0.00    -0.237 OA
ATOM     93  O   UNL A   1      46.431  23.797  34.076  1.00  0.00    -0.744 OA
ENDBRANCH  86  90
ENDBRANCH  60  83
ENDBRANCH  34  35
ENDBRANCH  27  29
ENDBRANCH  26  27
ENDBRANCH  25  26
ENDBRANCH  24  25
ENDBRANCH   1  24
TORSDOF 20
ENDMDL
MODEL 3
REMARK VINA RESULT:     -10.6      4.861     10.705
REMARK SMILES Cc1ccc(C(=O)OCCOCCOC(=O)c2ccc(-c3c4nc(c(-c5cc(S(=O)(=O)[O-])ccc5F)c5ccc([nH]5)c(-c5cc(S(=O)(=O)[O-])ccc5F)c5nc(c(-c6cc(S(=O)(=O)[O-])ccc6F)c6ccc3[nH]6)C=C5)C=C4)cc2)cc1S(=O)(=O)N(C)[C@H]1CCSC1
REMARK SMILES IDX 11 1 10 2 9 3 8 4 6 5 7 6 5 7 1 8 2 9 3 10 81 11 4 12 80 13
REMARK SMILES IDX 82 14 83 15 84 16 85 17 86 18 87 19 88 20 91 21 89 22 90 23
REMARK SMILES IDX 12 24 13 25 14 26 15 27 16 28 17 29 18 30 79 31 19 32 78 33
REMARK SMILES IDX 20 34 21 35 22 36 72 37 23 38 77 39 71 40 73 41 24 42 76 43
REMARK SMILES IDX 70 44 69 45 25 47 57 48 37 49 56 50 38 51 41 52 55 53 74 54
REMARK SMILES IDX 39 55 40 56 54 58 75 59 42 60 26 61 27 62 35 63 28 64 34 65
REMARK SMILES IDX 36 66 33 67 29 68 30 69 31 70 32 71 58 72 59 73 67 74 60 75
REMARK SMILES IDX 66 76 68 77 65 78 61 79 62 80 63 81 64 82 43 83 44 84 52 85
REMARK SMILES IDX 45 86 51 87 53 88 50 89 46 90 47 91 48 92 49 93
REMARK H PARENT 73 46 41 57
REMARK Flexibility Score: inf
ROOT
ATOM      1  O   UNL A   1      35.497  22.877  26.750  1.00  0.00    -0.374 OA
ENDROOT
BRANCH   1   2
ATOM      2  C   UNL A   1      34.911  21.729  26.145  1.00  0.00     0.202 C 
BRANCH   2   3
ATOM      3  C   UNL A   1      33.943  22.288  25.160  1.00  0.00     0.261 C 
BRANCH   3   4
ATOM      4  O   UNL A   1      32.596  22.193  25.635  1.00  0.00    -0.460 OA
BRANCH   4   5
ATOM      5  C   UNL A   1      32.072  23.148  26.440  1.00  0.00     0.338 C 
ATOM      6  O   UNL A   1      32.305  23.395  27.606  1.00  0.00    -0.246 OA
BRANCH   5   7
ATOM      7  C   UNL A   1      31.295  24.032  25.553  1.00  0.00     0.061 A 
ATOM      8  C   UNL A   1      29.567  27.460  23.643  1.00  0.00     0.046 C 
ATOM      9  C   UNL A   1      30.203  26.213  24.171  1.00  0.00    -0.031 A 
ATOM     10  C   UNL A   1      29.602  25.714  25.351  1.00  0.00     0.006 A 
ATOM     11  C   UNL A   1      31.353  25.561  23.679  1.00  0.00     0.086 A 
ATOM     12  C   UNL A   1      30.149  24.642  26.048  1.00  0.00     0.016 A 
ATOM     13  C   UNL A   1      31.840  24.436  24.336  1.00  0.00     0.037 A 
BRANCH  11  14
ATOM     14  S   UNL A   1      32.402  26.066  22.325  1.00  0.00     0.243 S 
ATOM     15  O   UNL A   1      33.349  24.999  22.099  1.00  0.00    -0.207 OA
ATOM     16  O   UNL A   1      31.556  26.599  21.272  1.00  0.00    -0.207 OA
BRANCH  14  17
ATOM     17  N   UNL A   1      33.219  27.400  22.929  1.00  0.00    -0.197 NA
ATOM     18  C   UNL A   1      33.980  28.200  21.975  1.00  0.00     0.125 C 
BRANCH  17  19
ATOM     19  C   UNL A   1      32.926  27.805  24.314  1.00  0.00     0.083 C 
ATOM     20  C   UNL A   1      33.910  27.236  25.324  1.00  0.00     0.032 C 
ATOM     21  C   UNL A   1      32.878  29.312  24.539  1.00  0.00     0.089 C 
ATOM     22  C   UNL A   1      33.416  27.744  26.665  1.00  0.00     0.071 C 
ATOM     23  S   UNL A   1      33.060  29.498  26.351  1.00  0.00    -0.160 SA
ENDBRANCH  17  19
ENDBRANCH  14  17
ENDBRANCH  11  14
ENDBRANCH   5   7
ENDBRANCH   4   5
ENDBRANCH   3   4
ENDBRANCH   2   3
ENDBRANCH   1   2
BRANCH   1  24
ATOM     24  C   UNL A   1      36.160  23.750  25.869  1.00  0.00     0.202 C 
BRANCH  24  25
ATOM     25  C   UNL A   1      37.683  23.578  25.915  1.00  0.00     0.261 C 
BRANCH  25  26
ATOM     26  O   UNL A   1      38.268  24.625  26.723  1.00  0.00    -0.460 OA
BRANCH  26  27
ATOM     27  C   UNL A   1      39.630  24.702  26.717  1.00  0.00     0.338 C 
ATOM     28  O   UNL A   1      40.366  23.998  26.049  1.00  0.00    -0.246 OA
BRANCH  27  29
ATOM     29  C   UNL A   1      40.093  25.692  27.737  1.00  0.00     0.060 A 
ATOM     30  C   UNL A   1      39.296  26.007  28.858  1.00  0.00     0.016 A 
ATOM     31  C   UNL A   1      41.188  26.491  27.426  1.00  0.00     0.016 A 
ATOM     32  C   UNL A   1      39.507  27.206  29.567  1.00  0.00     0.010 A 
ATOM     33  C   UNL A   1      41.330  27.703  28.067  1.00  0.00     0.010 A 
ATOM     34  C   UNL A   1      40.475  28.099  29.112  1.00  0.00    -0.014 A 
BRANCH  34  35
ATOM     35  C   UNL A   1      40.608  29.518  29.486  1.00  0.00     0.031 A 
ATOM     36  C   UNL A   1      39.446  30.410  29.271  1.00  0.00     0.074 A 
ATOM     37  C   UNL A   1      41.591  29.920  30.334  1.00  0.00     0.049 A 
ATOM     38  N   UNL A   1      39.463  31.682  29.459  1.00  0.00    -0.248 NA
ATOM     39  C   UNL A   1      38.150  29.947  28.778  1.00  0.00     0.031 C 
ATOM     40  C   UNL A   1      41.564  31.015  31.308  1.00  0.00     0.029 A 
ATOM     41  N   UNL A   1      42.860  29.380  30.525  1.00  0.00    -0.354 N 
ATOM     42  C   UNL A   1      38.155  32.103  29.542  1.00  0.00     0.074 A 
ATOM     43  C   UNL A   1      37.401  31.040  28.937  1.00  0.00     0.031 C 
ATOM     44  C   UNL A   1      42.803  31.232  31.788  1.00  0.00     0.029 A 
ATOM     45  C   UNL A   1      43.707  30.366  31.052  1.00  0.00     0.049 A 
ATOM     46  H   UNL A   1      43.121  28.453  30.323  1.00  0.00     0.167 HD
ATOM     47  C   UNL A   1      37.884  33.220  30.277  1.00  0.00     0.034 A 
ATOM     48  C   UNL A   1      44.853  30.690  30.398  1.00  0.00     0.034 A 
ATOM     49  C   UNL A   1      39.140  33.863  30.717  1.00  0.00     0.049 A 
ATOM     50  C   UNL A   1      44.657  32.091  29.875  1.00  0.00     0.074 A 
ATOM     51  C   UNL A   1      39.743  34.044  31.952  1.00  0.00     0.029 A 
ATOM     52  N   UNL A   1      40.118  34.175  29.767  1.00  0.00    -0.354 N 
ATOM     53  N   UNL A   1      43.468  32.620  29.736  1.00  0.00    -0.248 NA
ATOM     54  C   UNL A   1      45.724  33.051  29.622  1.00  0.00     0.031 C 
ATOM     55  C   UNL A   1      41.116  34.363  31.726  1.00  0.00     0.029 A 
ATOM     56  C   UNL A   1      41.343  34.412  30.358  1.00  0.00     0.049 A 
ATOM     57  H   UNL A   1      39.952  34.220  28.798  1.00  0.00     0.167 HD
ATOM     58  C   UNL A   1      43.580  33.958  29.542  1.00  0.00     0.074 A 
ATOM     59  C   UNL A   1      45.013  34.174  29.403  1.00  0.00     0.031 C 
ATOM     60  C   UNL A   1      42.499  34.792  29.551  1.00  0.00     0.034 A 
BRANCH  47  61
ATOM     61  C   UNL A   1      36.517  33.626  30.820  1.00  0.00     0.023 A 
ATOM     62  C   UNL A   1      35.607  34.257  29.941  1.00  0.00     0.031 A 
ATOM     63  C   UNL A   1      36.051  33.506  32.149  1.00  0.00     0.131 A 
ATOM     64  C   UNL A   1      34.365  34.758  30.383  1.00  0.00     0.055 A 
ATOM     65  C   UNL A   1      34.808  33.990  32.586  1.00  0.00     0.041 A 
ATOM     66  F   UNL A   1      36.753  32.921  33.119  1.00  0.00    -0.206 F 
ATOM     67  C   UNL A   1      33.959  34.628  31.706  1.00  0.00     0.022 A 
BRANCH  64  68
ATOM     68  S   UNL A   1      33.285  35.609  29.203  1.00  0.00     0.124 S 
ATOM     69  O   UNL A   1      34.248  36.280  28.336  1.00  0.00    -0.237 OA
ATOM     70  O   UNL A   1      32.537  34.505  28.613  1.00  0.00    -0.237 OA
ATOM     71  O   UNL A   1      32.494  36.502  30.051  1.00  0.00    -0.744 OA
ENDBRANCH  64  68
ENDBRANCH  47  61
BRANCH  48  72
ATOM     72  C   UNL A   1      45.461  29.468  29.766  1.00  0.00     0.023 A 
ATOM     73  C   UNL A   1      45.368  29.378  28.345  1.00  0.00     0.031 A 
ATOM     74  C   UNL A   1      46.511  28.770  30.382  1.00  0.00     0.131 A 
ATOM     75  C   UNL A   1      46.380  28.749  27.592  1.00  0.00     0.055 A 
ATOM     76  C   UNL A   1      47.505  28.126  29.626  1.00  0.00     0.041 A 
ATOM     77  F   UNL A   1      46.687  28.839  31.710  1.00  0.00    -0.206 F 
ATOM     78  C   UNL A   1      47.469  28.150  28.229  1.00  0.00     0.022 A 
BRANCH  75  79
ATOM     79  S   UNL A   1      46.451  29.007  25.776  1.00  0.00     0.124 S 
ATOM     80  O   UNL A   1      45.297  28.249  25.309  1.00  0.00    -0.237 OA
ATOM     81  O   UNL A   1      46.362  30.460  25.650  1.00  0.00    -0.237 OA
ATOM     82  O   UNL A   1      47.758  28.463  25.411  1.00  0.00    -0.744 OA
ENDBRANCH  75  79
ENDBRANCH  48  72
BRANCH  60  83
ATOM     83  C   UNL A   1      42.490  36.102  28.821  1.00  0.00     0.023 A 
ATOM     84  C   UNL A   1      43.012  37.262  29.404  1.00  0.00     0.031 A 
ATOM     85  C   UNL A   1      42.099  36.203  27.469  1.00  0.00     0.131 A 
ATOM     86  C   UNL A   1      43.025  38.473  28.709  1.00  0.00     0.055 A 
ATOM     87  C   UNL A   1      42.223  37.385  26.739  1.00  0.00     0.041 A 
ATOM     88  F   UNL A   1      41.602  35.157  26.792  1.00  0.00    -0.206 F 
ATOM     89  C   UNL A   1      42.666  38.540  27.367  1.00  0.00     0.022 A 
BRANCH  86  90
ATOM     90  S   UNL A   1      43.414  39.962  29.653  1.00  0.00     0.124 S 
ATOM     91  O   UNL A   1      42.269  40.815  29.346  1.00  0.00    -0.237 OA
ATOM     92  O   UNL A   1      43.482  39.462  31.022  1.00  0.00    -0.237 OA
ATOM     93  O   UNL A   1      44.686  40.403  29.085  1.00  0.00    -0.744 OA
ENDBRANCH  86  90
ENDBRANCH  60  83
ENDBRANCH  34  35
ENDBRANCH  27  29
ENDBRANCH  26  27
ENDBRANCH  25  26
ENDBRANCH  24  25
ENDBRANCH   1  24
TORSDOF 20
ENDMDL
