MODEL 1
REMARK VINA RESULT:     -11.2      0.000      0.000
REMARK SMILES C=CCn1nc(C(=O)OCCOCCOC(=O)c2ccc(-c3c4nc(c(-c5cc(S(=O)(=O)[O-])ccc5F)c5ccc([nH]5)c(-c5cc(S(=O)(=O)[O-])ccc5F)c5nc(c(-c6cc(S(=O)(=O)[O-])ccc6F)c6ccc3[nH]6)C=C5)C=C4)cc2)c2c1CC[C@@H]([NH2+]Cc1nc(C)cc(=O)[nH]1)C2
REMARK SMILES IDX 12 1 11 2 10 3 9 4 7 5 8 6 6 7 4 8 5 9 82 10 81 11 83 12
REMARK SMILES IDX 96 13 84 14 85 15 3 16 2 17 1 18 86 19 87 22 88 23 89 24
REMARK SMILES IDX 95 25 90 26 93 27 91 29 92 30 94 31 13 32 14 33 15 34 16 35
REMARK SMILES IDX 17 36 18 37 19 38 80 39 20 40 79 41 21 42 22 43 23 44 73 45
REMARK SMILES IDX 24 46 78 47 72 48 74 49 25 50 77 51 71 52 70 53 26 55 58 56
REMARK SMILES IDX 38 57 57 58 39 59 42 60 56 61 75 62 40 63 41 64 55 66 76 67
REMARK SMILES IDX 43 68 27 69 28 70 36 71 29 72 35 73 37 74 34 75 30 76 31 77
REMARK SMILES IDX 32 78 33 79 59 80 60 81 68 82 61 83 67 84 69 85 66 86 62 87
REMARK SMILES IDX 63 88 64 89 65 90 44 91 45 92 53 93 46 94 52 95 54 96 51 97
REMARK SMILES IDX 47 98 48 99 49 100 50 101
REMARK H PARENT 86 20 86 21 95 28 74 54 42 65
REMARK Flexibility Score: inf
ROOT
ATOM      1  O   UNL A   1      34.930  32.356  27.618  1.00  0.00    -0.374 OA
ENDROOT
BRANCH   1   2
ATOM      2  C   UNL A   1      34.116  31.259  28.030  1.00  0.00     0.202 C 
BRANCH   2   3
ATOM      3  C   UNL A   1      33.556  30.400  26.899  1.00  0.00     0.261 C 
BRANCH   3   4
ATOM      4  O   UNL A   1      32.162  30.119  27.106  1.00  0.00    -0.458 OA
BRANCH   4   5
ATOM      5  C   UNL A   1      31.799  28.801  27.077  1.00  0.00     0.359 C 
ATOM      6  O   UNL A   1      31.785  28.076  28.065  1.00  0.00    -0.244 OA
BRANCH   5   7
ATOM      7  C   UNL A   1      31.368  28.369  25.733  1.00  0.00     0.174 A 
ATOM      8  N   UNL A   1      30.718  28.554  23.688  1.00  0.00    -0.265 N 
ATOM      9  N   UNL A   1      30.952  29.265  24.815  1.00  0.00    -0.165 NA
ATOM     10  C   UNL A   1      30.761  27.207  23.923  1.00  0.00     0.043 A 
ATOM     11  C   UNL A   1      31.347  27.064  25.171  1.00  0.00     0.014 A 
ATOM     12  C   UNL A   1      30.458  26.097  22.971  1.00  0.00     0.062 C 
ATOM     13  C   UNL A   1      31.837  25.749  25.688  1.00  0.00     0.105 C 
ATOM     14  C   UNL A   1      30.686  24.740  23.658  1.00  0.00     0.072 C 
ATOM     15  C   UNL A   1      31.965  24.707  24.535  1.00  0.00     0.187 C 
BRANCH   8  16
ATOM     16  C   UNL A   1      30.511  29.319  22.453  1.00  0.00     0.171 C 
BRANCH  16  17
ATOM     17  C   UNL A   1      29.092  29.625  22.069  1.00  0.00    -0.011 C 
ATOM     18  C   UNL A   1      28.061  29.638  22.926  1.00  0.00     0.006 C 
ENDBRANCH  16  17
ENDBRANCH   8  16
BRANCH  15  19
ATOM     19  N   UNL A   1      33.204  24.759  23.718  1.00  0.00    -0.337 N 
ATOM     20  H   UNL A   1      33.998  24.825  24.355  1.00  0.00     0.346 HD
ATOM     21  H   UNL A   1      33.101  25.567  23.105  1.00  0.00     0.346 HD
BRANCH  19  22
ATOM     22  C   UNL A   1      33.427  23.600  22.829  1.00  0.00     0.337 C 
BRANCH  22  23
ATOM     23  C   UNL A   1      33.915  22.411  23.619  1.00  0.00     0.164 A 
ATOM     24  N   UNL A   1      33.134  21.416  23.887  1.00  0.00    -0.234 NA
ATOM     25  N   UNL A   1      35.209  22.481  24.005  1.00  0.00    -0.306 N 
ATOM     26  C   UNL A   1      33.684  20.369  24.592  1.00  0.00     0.045 A 
ATOM     27  C   UNL A   1      35.802  21.514  24.738  1.00  0.00     0.251 A 
ATOM     28  H   UNL A   1      35.740  23.267  23.741  1.00  0.00     0.171 HD
ATOM     29  C   UNL A   1      32.733  19.252  24.914  1.00  0.00     0.067 C 
ATOM     30  C   UNL A   1      34.964  20.332  25.002  1.00  0.00     0.095 A 
ATOM     31  O   UNL A   1      36.925  21.690  25.181  1.00  0.00    -0.270 OA
ENDBRANCH  22  23
ENDBRANCH  19  22
ENDBRANCH  15  19
ENDBRANCH   5   7
ENDBRANCH   4   5
ENDBRANCH   3   4
ENDBRANCH   2   3
ENDBRANCH   1   2
BRANCH   1  32
ATOM     32  C   UNL A   1      34.680  33.636  28.199  1.00  0.00     0.202 C 
BRANCH  32  33
ATOM     33  C   UNL A   1      35.401  33.942  29.505  1.00  0.00     0.261 C 
BRANCH  33  34
ATOM     34  O   UNL A   1      35.348  32.827  30.387  1.00  0.00    -0.460 OA
BRANCH  34  35
ATOM     35  C   UNL A   1      36.479  32.602  31.110  1.00  0.00     0.338 C 
ATOM     36  O   UNL A   1      36.724  32.973  32.230  1.00  0.00    -0.246 OA
BRANCH  35  37
ATOM     37  C   UNL A   1      37.433  31.928  30.211  1.00  0.00     0.060 A 
ATOM     38  C   UNL A   1      37.161  30.589  29.936  1.00  0.00     0.016 A 
ATOM     39  C   UNL A   1      38.700  32.483  30.010  1.00  0.00     0.016 A 
ATOM     40  C   UNL A   1      38.232  29.733  29.800  1.00  0.00     0.010 A 
ATOM     41  C   UNL A   1      39.759  31.623  29.906  1.00  0.00     0.010 A 
ATOM     42  C   UNL A   1      39.517  30.255  29.937  1.00  0.00    -0.014 A 
BRANCH  42  43
ATOM     43  C   UNL A   1      40.654  29.364  29.989  1.00  0.00     0.031 A 
ATOM     44  C   UNL A   1      40.976  28.998  31.382  1.00  0.00     0.074 A 
ATOM     45  C   UNL A   1      41.238  28.840  28.892  1.00  0.00     0.049 A 
ATOM     46  N   UNL A   1      41.905  29.509  32.119  1.00  0.00    -0.248 NA
ATOM     47  C   UNL A   1      39.988  28.202  32.136  1.00  0.00     0.031 C 
ATOM     48  C   UNL A   1      40.827  28.919  27.490  1.00  0.00     0.029 A 
ATOM     49  N   UNL A   1      42.322  28.025  28.832  1.00  0.00    -0.354 N 
ATOM     50  C   UNL A   1      41.772  28.882  33.348  1.00  0.00     0.074 A 
ATOM     51  C   UNL A   1      40.434  28.366  33.381  1.00  0.00     0.031 C 
ATOM     52  C   UNL A   1      41.507  27.989  26.770  1.00  0.00     0.029 A 
ATOM     53  C   UNL A   1      42.491  27.345  27.627  1.00  0.00     0.049 A 
ATOM     54  H   UNL A   1      42.946  27.921  29.587  1.00  0.00     0.167 HD
ATOM     55  C   UNL A   1      42.864  28.562  34.091  1.00  0.00     0.034 A 
ATOM     56  C   UNL A   1      43.339  26.295  27.405  1.00  0.00     0.034 A 
ATOM     57  C   UNL A   1      44.031  29.278  33.616  1.00  0.00     0.049 A 
ATOM     58  C   UNL A   1      44.361  26.359  28.490  1.00  0.00     0.074 A 
ATOM     59  C   UNL A   1      44.345  30.617  33.472  1.00  0.00     0.029 A 
ATOM     60  N   UNL A   1      44.913  28.602  32.799  1.00  0.00    -0.354 N 
ATOM     61  N   UNL A   1      45.217  27.340  28.600  1.00  0.00    -0.248 NA
ATOM     62  C   UNL A   1      44.085  25.645  29.732  1.00  0.00     0.031 C 
ATOM     63  C   UNL A   1      45.034  30.701  32.225  1.00  0.00     0.029 A 
ATOM     64  C   UNL A   1      45.191  29.408  31.720  1.00  0.00     0.049 A 
ATOM     65  H   UNL A   1      45.279  27.702  32.960  1.00  0.00     0.167 HD
ATOM     66  C   UNL A   1      45.251  27.646  29.953  1.00  0.00     0.074 A 
ATOM     67  C   UNL A   1      44.598  26.513  30.612  1.00  0.00     0.031 C 
ATOM     68  C   UNL A   1      45.519  28.914  30.392  1.00  0.00     0.034 A 
BRANCH  55  69
ATOM     69  C   UNL A   1      42.963  27.336  34.972  1.00  0.00     0.023 A 
ATOM     70  C   UNL A   1      43.742  26.272  34.488  1.00  0.00     0.031 A 
ATOM     71  C   UNL A   1      42.158  27.039  36.099  1.00  0.00     0.131 A 
ATOM     72  C   UNL A   1      43.629  24.984  35.039  1.00  0.00     0.055 A 
ATOM     73  C   UNL A   1      42.099  25.773  36.685  1.00  0.00     0.041 A 
ATOM     74  F   UNL A   1      41.312  27.914  36.654  1.00  0.00    -0.206 F 
ATOM     75  C   UNL A   1      42.812  24.727  36.135  1.00  0.00     0.022 A 
BRANCH  72  76
ATOM     76  S   UNL A   1      44.441  23.615  34.182  1.00  0.00     0.124 S 
ATOM     77  O   UNL A   1      45.115  22.935  35.282  1.00  0.00    -0.237 OA
ATOM     78  O   UNL A   1      43.302  22.918  33.592  1.00  0.00    -0.237 OA
ATOM     79  O   UNL A   1      45.322  24.289  33.230  1.00  0.00    -0.744 OA
ENDBRANCH  72  76
ENDBRANCH  55  69
BRANCH  56  80
ATOM     80  C   UNL A   1      43.087  25.060  26.590  1.00  0.00     0.023 A 
ATOM     81  C   UNL A   1      44.012  24.499  25.679  1.00  0.00     0.031 A 
ATOM     82  C   UNL A   1      41.972  24.253  26.901  1.00  0.00     0.131 A 
ATOM     83  C   UNL A   1      43.791  23.201  25.136  1.00  0.00     0.055 A 
ATOM     84  C   UNL A   1      41.767  22.972  26.383  1.00  0.00     0.041 A 
ATOM     85  F   UNL A   1      41.061  24.660  27.785  1.00  0.00    -0.206 F 
ATOM     86  C   UNL A   1      42.682  22.436  25.500  1.00  0.00     0.022 A 
BRANCH  83  87
ATOM     87  S   UNL A   1      44.979  22.449  23.971  1.00  0.00     0.124 S 
ATOM     88  O   UNL A   1      44.168  22.268  22.772  1.00  0.00    -0.237 OA
ATOM     89  O   UNL A   1      46.031  23.455  23.900  1.00  0.00    -0.237 OA
ATOM     90  O   UNL A   1      45.371  21.203  24.635  1.00  0.00    -0.744 OA
ENDBRANCH  83  87
ENDBRANCH  56  80
BRANCH  68  91
ATOM     91  C   UNL A   1      46.012  29.938  29.380  1.00  0.00     0.023 A 
ATOM     92  C   UNL A   1      45.185  30.708  28.527  1.00  0.00     0.031 A 
ATOM     93  C   UNL A   1      47.387  30.230  29.384  1.00  0.00     0.131 A 
ATOM     94  C   UNL A   1      45.748  31.718  27.716  1.00  0.00     0.055 A 
ATOM     95  C   UNL A   1      47.936  31.243  28.599  1.00  0.00     0.041 A 
ATOM     96  F   UNL A   1      48.224  29.554  30.188  1.00  0.00    -0.206 F 
ATOM     97  C   UNL A   1      47.120  31.988  27.758  1.00  0.00     0.022 A 
BRANCH  94  98
ATOM     98  S   UNL A   1      44.713  32.693  26.571  1.00  0.00     0.124 S 
ATOM     99  O   UNL A   1      45.687  33.389  25.739  1.00  0.00    -0.237 OA
ATOM    100  O   UNL A   1      43.923  31.660  25.904  1.00  0.00    -0.237 OA
ATOM    101  O   UNL A   1      43.944  33.562  27.464  1.00  0.00    -0.744 OA
ENDBRANCH  94  98
ENDBRANCH  68  91
ENDBRANCH  42  43
ENDBRANCH  35  37
ENDBRANCH  34  35
ENDBRANCH  33  34
ENDBRANCH  32  33
ENDBRANCH   1  32
TORSDOF 22
ENDMDL
MODEL 2
REMARK VINA RESULT:     -11.0      2.532      6.648
REMARK SMILES C=CCn1nc(C(=O)OCCOCCOC(=O)c2ccc(-c3c4nc(c(-c5cc(S(=O)(=O)[O-])ccc5F)c5ccc([nH]5)c(-c5cc(S(=O)(=O)[O-])ccc5F)c5nc(c(-c6cc(S(=O)(=O)[O-])ccc6F)c6ccc3[nH]6)C=C5)C=C4)cc2)c2c1CC[C@@H]([NH2+]Cc1nc(C)cc(=O)[nH]1)C2
REMARK SMILES IDX 12 1 11 2 10 3 9 4 7 5 8 6 6 7 4 8 5 9 82 10 81 11 83 12
REMARK SMILES IDX 96 13 84 14 85 15 3 16 2 17 1 18 86 19 87 22 88 23 89 24
REMARK SMILES IDX 95 25 90 26 93 27 91 29 92 30 94 31 13 32 14 33 15 34 16 35
REMARK SMILES IDX 17 36 18 37 19 38 80 39 20 40 79 41 21 42 22 43 23 44 73 45
REMARK SMILES IDX 24 46 78 47 72 48 74 49 25 50 77 51 71 52 70 53 26 55 58 56
REMARK SMILES IDX 38 57 57 58 39 59 42 60 56 61 75 62 40 63 41 64 55 66 76 67
REMARK SMILES IDX 43 68 27 69 28 70 36 71 29 72 35 73 37 74 34 75 30 76 31 77
REMARK SMILES IDX 32 78 33 79 59 80 60 81 68 82 61 83 67 84 69 85 66 86 62 87
REMARK SMILES IDX 63 88 64 89 65 90 44 91 45 92 53 93 46 94 52 95 54 96 51 97
REMARK SMILES IDX 47 98 48 99 49 100 50 101
REMARK H PARENT 86 20 86 21 95 28 74 54 42 65
REMARK Flexibility Score: inf
ROOT
ATOM      1  O   UNL A   1      35.730  31.015  29.019  1.00  0.00    -0.374 OA
ENDROOT
BRANCH   1   2
ATOM      2  C   UNL A   1      35.044  31.203  27.781  1.00  0.00     0.202 C 
BRANCH   2   3
ATOM      3  C   UNL A   1      33.896  30.232  27.517  1.00  0.00     0.261 C 
BRANCH   3   4
ATOM      4  O   UNL A   1      33.338  30.437  26.208  1.00  0.00    -0.458 OA
BRANCH   4   5
ATOM      5  C   UNL A   1      31.982  30.598  26.146  1.00  0.00     0.359 C 
ATOM      6  O   UNL A   1      31.376  31.508  26.702  1.00  0.00    -0.244 OA
BRANCH   5   7
ATOM      7  C   UNL A   1      31.338  29.586  25.286  1.00  0.00     0.174 A 
ATOM      8  N   UNL A   1      30.319  28.782  23.567  1.00  0.00    -0.265 N 
ATOM      9  N   UNL A   1      30.716  29.940  24.143  1.00  0.00    -0.165 NA
ATOM     10  C   UNL A   1      30.476  27.718  24.412  1.00  0.00     0.043 A 
ATOM     11  C   UNL A   1      31.284  28.174  25.441  1.00  0.00     0.014 A 
ATOM     12  C   UNL A   1      30.064  26.300  24.192  1.00  0.00     0.062 C 
ATOM     13  C   UNL A   1      31.929  27.256  26.431  1.00  0.00     0.105 C 
ATOM     14  C   UNL A   1      30.484  25.439  25.395  1.00  0.00     0.072 C 
ATOM     15  C   UNL A   1      31.901  25.782  25.926  1.00  0.00     0.187 C 
BRANCH   8  16
ATOM     16  C   UNL A   1      29.852  28.860  22.178  1.00  0.00     0.171 C 
BRANCH  16  17
ATOM     17  C   UNL A   1      29.349  30.192  21.701  1.00  0.00    -0.011 C 
ATOM     18  C   UNL A   1      28.126  30.403  21.195  1.00  0.00     0.006 C 
ENDBRANCH  16  17
ENDBRANCH   8  16
BRANCH  15  19
ATOM     19  N   UNL A   1      32.967  25.378  24.975  1.00  0.00    -0.337 N 
ATOM     20  H   UNL A   1      32.939  26.018  24.181  1.00  0.00     0.346 HD
ATOM     21  H   UNL A   1      32.769  24.408  24.728  1.00  0.00     0.346 HD
BRANCH  19  22
ATOM     22  C   UNL A   1      34.341  25.386  25.519  1.00  0.00     0.337 C 
BRANCH  22  23
ATOM     23  C   UNL A   1      34.947  24.007  25.452  1.00  0.00     0.164 A 
ATOM     24  N   UNL A   1      34.212  22.957  25.278  1.00  0.00    -0.234 NA
ATOM     25  N   UNL A   1      36.293  23.973  25.584  1.00  0.00    -0.306 N 
ATOM     26  C   UNL A   1      34.866  21.748  25.206  1.00  0.00     0.045 A 
ATOM     27  C   UNL A   1      36.996  22.819  25.572  1.00  0.00     0.251 A 
ATOM     28  H   UNL A   1      36.779  24.822  25.694  1.00  0.00     0.171 HD
ATOM     29  C   UNL A   1      33.972  20.552  25.041  1.00  0.00     0.067 C 
ATOM     30  C   UNL A   1      36.200  21.609  25.304  1.00  0.00     0.095 A 
ATOM     31  O   UNL A   1      38.186  22.831  25.837  1.00  0.00    -0.270 OA
ENDBRANCH  22  23
ENDBRANCH  19  22
ENDBRANCH  15  19
ENDBRANCH   5   7
ENDBRANCH   4   5
ENDBRANCH   3   4
ENDBRANCH   2   3
ENDBRANCH   1   2
BRANCH   1  32
ATOM     32  C   UNL A   1      35.852  32.133  29.898  1.00  0.00     0.202 C 
BRANCH  32  33
ATOM     33  C   UNL A   1      36.646  31.908  31.178  1.00  0.00     0.261 C 
BRANCH  33  34
ATOM     34  O   UNL A   1      37.696  30.972  30.965  1.00  0.00    -0.460 OA
BRANCH  34  35
ATOM     35  C   UNL A   1      37.356  29.665  31.138  1.00  0.00     0.338 C 
ATOM     36  O   UNL A   1      36.638  29.196  31.984  1.00  0.00    -0.246 OA
BRANCH  35  37
ATOM     37  C   UNL A   1      38.148  28.886  30.170  1.00  0.00     0.060 A 
ATOM     38  C   UNL A   1      38.661  27.679  30.642  1.00  0.00     0.016 A 
ATOM     39  C   UNL A   1      38.667  29.519  29.037  1.00  0.00     0.016 A 
ATOM     40  C   UNL A   1      39.905  27.293  30.194  1.00  0.00     0.010 A 
ATOM     41  C   UNL A   1      39.917  29.147  28.620  1.00  0.00     0.010 A 
ATOM     42  C   UNL A   1      40.571  28.123  29.295  1.00  0.00    -0.014 A 
BRANCH  42  43
ATOM     43  C   UNL A   1      41.948  27.852  28.948  1.00  0.00     0.031 A 
ATOM     44  C   UNL A   1      42.066  26.582  28.204  1.00  0.00     0.074 A 
ATOM     45  C   UNL A   1      42.954  28.723  29.164  1.00  0.00     0.049 A 
ATOM     46  N   UNL A   1      42.425  25.438  28.683  1.00  0.00    -0.248 NA
ATOM     47  C   UNL A   1      41.442  26.500  26.870  1.00  0.00     0.031 C 
ATOM     48  C   UNL A   1      42.902  30.107  29.638  1.00  0.00     0.029 A 
ATOM     49  N   UNL A   1      44.276  28.553  28.907  1.00  0.00    -0.354 N 
ATOM     50  C   UNL A   1      42.326  24.558  27.616  1.00  0.00     0.074 A 
ATOM     51  C   UNL A   1      41.443  25.182  26.675  1.00  0.00     0.031 C 
ATOM     52  C   UNL A   1      44.097  30.709  29.398  1.00  0.00     0.029 A 
ATOM     53  C   UNL A   1      45.034  29.723  28.881  1.00  0.00     0.049 A 
ATOM     54  H   UNL A   1      44.673  27.666  28.750  1.00  0.00     0.167 HD
ATOM     55  C   UNL A   1      43.224  23.550  27.457  1.00  0.00     0.034 A 
ATOM     56  C   UNL A   1      46.310  29.847  28.404  1.00  0.00     0.034 A 
ATOM     57  C   UNL A   1      43.971  23.334  28.679  1.00  0.00     0.049 A 
ATOM     58  C   UNL A   1      46.882  28.470  28.403  1.00  0.00     0.074 A 
ATOM     59  C   UNL A   1      43.620  23.007  29.976  1.00  0.00     0.029 A 
ATOM     60  N   UNL A   1      45.236  23.880  28.766  1.00  0.00    -0.354 N 
ATOM     61  N   UNL A   1      47.100  27.792  29.499  1.00  0.00    -0.248 NA
ATOM     62  C   UNL A   1      46.701  27.655  27.206  1.00  0.00     0.031 C 
ATOM     63  C   UNL A   1      44.454  23.819  30.800  1.00  0.00     0.029 A 
ATOM     64  C   UNL A   1      45.334  24.525  29.976  1.00  0.00     0.049 A 
ATOM     65  H   UNL A   1      45.942  23.817  28.083  1.00  0.00     0.167 HD
ATOM     66  C   UNL A   1      46.659  26.504  29.227  1.00  0.00     0.074 A 
ATOM     67  C   UNL A   1      46.503  26.459  27.773  1.00  0.00     0.031 C 
ATOM     68  C   UNL A   1      46.165  25.695  30.214  1.00  0.00     0.034 A 
BRANCH  55  69
ATOM     69  C   UNL A   1      43.694  23.036  26.113  1.00  0.00     0.023 A 
ATOM     70  C   UNL A   1      43.548  21.659  25.878  1.00  0.00     0.031 A 
ATOM     71  C   UNL A   1      44.492  23.735  25.174  1.00  0.00     0.131 A 
ATOM     72  C   UNL A   1      44.246  21.026  24.836  1.00  0.00     0.055 A 
ATOM     73  C   UNL A   1      45.132  23.111  24.101  1.00  0.00     0.041 A 
ATOM     74  F   UNL A   1      44.785  25.035  25.275  1.00  0.00    -0.206 F 
ATOM     75  C   UNL A   1      45.038  21.743  23.945  1.00  0.00     0.022 A 
BRANCH  72  76
ATOM     76  S   UNL A   1      44.236  19.219  24.776  1.00  0.00     0.124 S 
ATOM     77  O   UNL A   1      44.450  18.969  23.355  1.00  0.00    -0.237 OA
ATOM     78  O   UNL A   1      45.345  18.886  25.665  1.00  0.00    -0.237 OA
ATOM     79  O   UNL A   1      42.908  18.873  25.278  1.00  0.00    -0.744 OA
ENDBRANCH  72  76
ENDBRANCH  55  69
BRANCH  56  80
ATOM     80  C   UNL A   1      46.891  30.974  27.601  1.00  0.00     0.023 A 
ATOM     81  C   UNL A   1      46.142  32.049  27.068  1.00  0.00     0.031 A 
ATOM     82  C   UNL A   1      48.293  31.129  27.558  1.00  0.00     0.131 A 
ATOM     83  C   UNL A   1      46.801  33.192  26.535  1.00  0.00     0.055 A 
ATOM     84  C   UNL A   1      48.939  32.260  27.054  1.00  0.00     0.041 A 
ATOM     85  F   UNL A   1      49.098  30.201  28.077  1.00  0.00    -0.206 F 
ATOM     86  C   UNL A   1      48.192  33.303  26.543  1.00  0.00     0.022 A 
BRANCH  83  87
ATOM     87  S   UNL A   1      45.855  34.599  25.857  1.00  0.00     0.124 S 
ATOM     88  O   UNL A   1      45.241  34.018  24.668  1.00  0.00    -0.237 OA
ATOM     89  O   UNL A   1      44.958  34.935  26.956  1.00  0.00    -0.237 OA
ATOM     90  O   UNL A   1      46.884  35.605  25.580  1.00  0.00    -0.744 OA
ENDBRANCH  83  87
ENDBRANCH  56  80
BRANCH  68  91
ATOM     91  C   UNL A   1      46.323  26.143  31.660  1.00  0.00     0.023 A 
ATOM     92  C   UNL A   1      45.311  26.750  32.444  1.00  0.00     0.031 A 
ATOM     93  C   UNL A   1      47.529  25.814  32.304  1.00  0.00     0.131 A 
ATOM     94  C   UNL A   1      45.535  27.009  33.813  1.00  0.00     0.055 A 
ATOM     95  C   UNL A   1      47.737  26.051  33.661  1.00  0.00     0.041 A 
ATOM     96  F   UNL A   1      48.520  25.215  31.624  1.00  0.00    -0.206 F 
ATOM     97  C   UNL A   1      46.743  26.654  34.421  1.00  0.00     0.022 A 
BRANCH  94  98
ATOM     98  S   UNL A   1      44.267  27.834  34.835  1.00  0.00     0.124 S 
ATOM     99  O   UNL A   1      44.543  29.253  34.644  1.00  0.00    -0.237 OA
ATOM    100  O   UNL A   1      43.022  27.340  34.252  1.00  0.00    -0.237 OA
ATOM    101  O   UNL A   1      44.542  27.337  36.186  1.00  0.00    -0.744 OA
ENDBRANCH  94  98
ENDBRANCH  68  91
ENDBRANCH  42  43
ENDBRANCH  35  37
ENDBRANCH  34  35
ENDBRANCH  33  34
ENDBRANCH  32  33
ENDBRANCH   1  32
TORSDOF 22
ENDMDL
MODEL 3
REMARK VINA RESULT:     -10.9      1.513      2.637
REMARK SMILES C=CCn1nc(C(=O)OCCOCCOC(=O)c2ccc(-c3c4nc(c(-c5cc(S(=O)(=O)[O-])ccc5F)c5ccc([nH]5)c(-c5cc(S(=O)(=O)[O-])ccc5F)c5nc(c(-c6cc(S(=O)(=O)[O-])ccc6F)c6ccc3[nH]6)C=C5)C=C4)cc2)c2c1CC[C@@H]([NH2+]Cc1nc(C)cc(=O)[nH]1)C2
REMARK SMILES IDX 12 1 11 2 10 3 9 4 7 5 8 6 6 7 4 8 5 9 82 10 81 11 83 12
REMARK SMILES IDX 96 13 84 14 85 15 3 16 2 17 1 18 86 19 87 22 88 23 89 24
REMARK SMILES IDX 95 25 90 26 93 27 91 29 92 30 94 31 13 32 14 33 15 34 16 35
REMARK SMILES IDX 17 36 18 37 19 38 80 39 20 40 79 41 21 42 22 43 23 44 73 45
REMARK SMILES IDX 24 46 78 47 72 48 74 49 25 50 77 51 71 52 70 53 26 55 58 56
REMARK SMILES IDX 38 57 57 58 39 59 42 60 56 61 75 62 40 63 41 64 55 66 76 67
REMARK SMILES IDX 43 68 27 69 28 70 36 71 29 72 35 73 37 74 34 75 30 76 31 77
REMARK SMILES IDX 32 78 33 79 59 80 60 81 68 82 61 83 67 84 69 85 66 86 62 87
REMARK SMILES IDX 63 88 64 89 65 90 44 91 45 92 53 93 46 94 52 95 54 96 51 97
REMARK SMILES IDX 47 98 48 99 49 100 50 101
REMARK H PARENT 86 20 86 21 95 28 74 54 42 65
REMARK Flexibility Score: inf
ROOT
ATOM      1  O   UNL A   1      33.943  31.673  27.998  1.00  0.00    -0.374 OA
ENDROOT
BRANCH   1   2
ATOM      2  C   UNL A   1      32.723  31.757  27.264  1.00  0.00     0.202 C 
BRANCH   2   3
ATOM      3  C   UNL A   1      32.134  30.420  26.821  1.00  0.00     0.261 C 
BRANCH   3   4
ATOM      4  O   UNL A   1      32.847  29.321  27.412  1.00  0.00    -0.458 OA
BRANCH   4   5
ATOM      5  C   UNL A   1      32.319  28.076  27.207  1.00  0.00     0.359 C 
ATOM      6  O   UNL A   1      31.388  27.615  27.859  1.00  0.00    -0.244 OA
BRANCH   5   7
ATOM      7  C   UNL A   1      32.956  27.379  26.073  1.00  0.00     0.174 A 
ATOM      8  N   UNL A   1      34.090  25.868  25.040  1.00  0.00    -0.265 N 
ATOM      9  N   UNL A   1      33.749  26.307  26.273  1.00  0.00    -0.165 NA
ATOM     10  C   UNL A   1      33.719  26.755  24.067  1.00  0.00     0.043 A 
ATOM     11  C   UNL A   1      32.840  27.635  24.680  1.00  0.00     0.014 A 
ATOM     12  C   UNL A   1      34.003  26.687  22.603  1.00  0.00     0.062 C 
ATOM     13  C   UNL A   1      31.985  28.591  23.910  1.00  0.00     0.105 C 
ATOM     14  C   UNL A   1      33.349  27.880  21.885  1.00  0.00     0.072 C 
ATOM     15  C   UNL A   1      31.920  28.195  22.404  1.00  0.00     0.187 C 
BRANCH   8  16
ATOM     16  C   UNL A   1      34.733  24.551  24.960  1.00  0.00     0.171 C 
BRANCH  16  17
ATOM     17  C   UNL A   1      35.073  23.878  26.259  1.00  0.00    -0.011 C 
ATOM     18  C   UNL A   1      34.424  22.814  26.752  1.00  0.00     0.006 C 
ENDBRANCH  16  17
ENDBRANCH   8  16
BRANCH  15  19
ATOM     19  N   UNL A   1      30.945  27.140  22.028  1.00  0.00    -0.337 N 
ATOM     20  H   UNL A   1      31.469  26.341  21.671  1.00  0.00     0.346 HD
ATOM     21  H   UNL A   1      30.325  27.565  21.338  1.00  0.00     0.346 HD
BRANCH  19  22
ATOM     22  C   UNL A   1      30.072  26.664  23.121  1.00  0.00     0.337 C 
BRANCH  22  23
ATOM     23  C   UNL A   1      30.572  25.348  23.664  1.00  0.00     0.164 A 
ATOM     24  N   UNL A   1      30.390  25.020  24.901  1.00  0.00    -0.234 NA
ATOM     25  N   UNL A   1      31.205  24.567  22.760  1.00  0.00    -0.306 N 
ATOM     26  C   UNL A   1      30.862  23.786  25.290  1.00  0.00     0.045 A 
ATOM     27  C   UNL A   1      31.735  23.366  23.081  1.00  0.00     0.251 A 
ATOM     28  H   UNL A   1      31.283  24.885  21.831  1.00  0.00     0.171 HD
ATOM     29  C   UNL A   1      30.663  23.460  26.743  1.00  0.00     0.067 C 
ATOM     30  C   UNL A   1      31.485  22.927  24.464  1.00  0.00     0.095 A 
ATOM     31  O   UNL A   1      32.419  22.767  22.268  1.00  0.00    -0.270 OA
ENDBRANCH  22  23
ENDBRANCH  19  22
ENDBRANCH  15  19
ENDBRANCH   5   7
ENDBRANCH   4   5
ENDBRANCH   3   4
ENDBRANCH   2   3
ENDBRANCH   1   2
BRANCH   1  32
ATOM     32  C   UNL A   1      34.195  32.659  29.000  1.00  0.00     0.202 C 
BRANCH  32  33
ATOM     33  C   UNL A   1      35.523  33.398  28.907  1.00  0.00     0.261 C 
BRANCH  33  34
ATOM     34  O   UNL A   1      36.191  33.401  30.163  1.00  0.00    -0.460 OA
BRANCH  34  35
ATOM     35  C   UNL A   1      36.424  32.173  30.701  1.00  0.00     0.338 C 
ATOM     36  O   UNL A   1      35.969  31.714  31.719  1.00  0.00    -0.246 OA
BRANCH  35  37
ATOM     37  C   UNL A   1      37.466  31.537  29.876  1.00  0.00     0.060 A 
ATOM     38  C   UNL A   1      37.205  30.227  29.477  1.00  0.00     0.016 A 
ATOM     39  C   UNL A   1      38.757  32.071  29.864  1.00  0.00     0.016 A 
ATOM     40  C   UNL A   1      38.269  29.354  29.409  1.00  0.00     0.010 A 
ATOM     41  C   UNL A   1      39.806  31.192  29.825  1.00  0.00     0.010 A 
ATOM     42  C   UNL A   1      39.538  29.832  29.731  1.00  0.00    -0.014 A 
BRANCH  42  43
ATOM     43  C   UNL A   1      40.644  28.911  29.853  1.00  0.00     0.031 A 
ATOM     44  C   UNL A   1      40.953  28.639  31.272  1.00  0.00     0.074 A 
ATOM     45  C   UNL A   1      41.213  28.288  28.801  1.00  0.00     0.049 A 
ATOM     46  N   UNL A   1      41.897  29.173  31.972  1.00  0.00    -0.248 NA
ATOM     47  C   UNL A   1      39.938  27.934  32.078  1.00  0.00     0.031 C 
ATOM     48  C   UNL A   1      40.806  28.276  27.395  1.00  0.00     0.029 A 
ATOM     49  N   UNL A   1      42.270  27.436  28.805  1.00  0.00    -0.354 N 
ATOM     50  C   UNL A   1      41.742  28.643  33.243  1.00  0.00     0.074 A 
ATOM     51  C   UNL A   1      40.388  28.175  33.309  1.00  0.00     0.031 C 
ATOM     52  C   UNL A   1      41.456  27.273  26.748  1.00  0.00     0.029 A 
ATOM     53  C   UNL A   1      42.417  26.663  27.655  1.00  0.00     0.049 A 
ATOM     54  H   UNL A   1      42.889  27.368  29.568  1.00  0.00     0.167 HD
ATOM     55  C   UNL A   1      42.822  28.344  34.012  1.00  0.00     0.034 A 
ATOM     56  C   UNL A   1      43.230  25.572  27.515  1.00  0.00     0.034 A 
ATOM     57  C   UNL A   1      44.012  28.984  33.490  1.00  0.00     0.049 A 
ATOM     58  C   UNL A   1      44.253  25.682  28.595  1.00  0.00     0.074 A 
ATOM     59  C   UNL A   1      44.370  30.297  33.248  1.00  0.00     0.029 A 
ATOM     60  N   UNL A   1      44.873  28.220  32.729  1.00  0.00    -0.354 N 
ATOM     61  N   UNL A   1      45.141  26.640  28.636  1.00  0.00    -0.248 NA
ATOM     62  C   UNL A   1      43.951  25.072  29.886  1.00  0.00     0.031 C 
ATOM     63  C   UNL A   1      45.063  30.266  32.001  1.00  0.00     0.029 A 
ATOM     64  C   UNL A   1      45.179  28.935  31.594  1.00  0.00     0.049 A 
ATOM     65  H   UNL A   1      45.208  27.323  32.958  1.00  0.00     0.167 HD
ATOM     66  C   UNL A   1      45.183  27.045  29.963  1.00  0.00     0.074 A 
ATOM     67  C   UNL A   1      44.492  25.986  30.701  1.00  0.00     0.031 C 
ATOM     68  C   UNL A   1      45.492  28.332  30.308  1.00  0.00     0.034 A 
BRANCH  55  69
ATOM     69  C   UNL A   1      42.879  27.184  34.982  1.00  0.00     0.023 A 
ATOM     70  C   UNL A   1      43.607  26.054  34.573  1.00  0.00     0.031 A 
ATOM     71  C   UNL A   1      42.074  27.007  36.135  1.00  0.00     0.131 A 
ATOM     72  C   UNL A   1      43.447  24.817  35.220  1.00  0.00     0.055 A 
ATOM     73  C   UNL A   1      41.968  25.792  36.814  1.00  0.00     0.041 A 
ATOM     74  F   UNL A   1      41.272  27.956  36.629  1.00  0.00    -0.206 F 
ATOM     75  C   UNL A   1      42.631  24.678  36.339  1.00  0.00     0.022 A 
BRANCH  72  76
ATOM     76  S   UNL A   1      44.190  23.355  34.463  1.00  0.00     0.124 S 
ATOM     77  O   UNL A   1      45.411  23.907  33.888  1.00  0.00    -0.237 OA
ATOM     78  O   UNL A   1      44.358  22.476  35.616  1.00  0.00    -0.237 OA
ATOM     79  O   UNL A   1      43.182  22.928  33.495  1.00  0.00    -0.744 OA
ENDBRANCH  72  76
ENDBRANCH  55  69
BRANCH  56  80
ATOM     80  C   UNL A   1      42.939  24.289  26.793  1.00  0.00     0.023 A 
ATOM     81  C   UNL A   1      43.904  23.524  26.097  1.00  0.00     0.031 A 
ATOM     82  C   UNL A   1      41.695  23.656  26.999  1.00  0.00     0.131 A 
ATOM     83  C   UNL A   1      43.596  22.207  25.653  1.00  0.00     0.055 A 
ATOM     84  C   UNL A   1      41.400  22.357  26.582  1.00  0.00     0.041 A 
ATOM     85  F   UNL A   1      40.727  24.265  27.687  1.00  0.00    -0.206 F 
ATOM     86  C   UNL A   1      42.355  21.621  25.909  1.00  0.00     0.022 A 
BRANCH  83  87
ATOM     87  S   UNL A   1      44.831  21.194  24.767  1.00  0.00     0.124 S 
ATOM     88  O   UNL A   1      46.089  21.692  25.310  1.00  0.00    -0.237 OA
ATOM     89  O   UNL A   1      44.451  19.837  25.139  1.00  0.00    -0.237 OA
ATOM     90  O   UNL A   1      44.601  21.527  23.358  1.00  0.00    -0.744 OA
ENDBRANCH  83  87
ENDBRANCH  56  80
BRANCH  68  91
ATOM     91  C   UNL A   1      46.020  29.262  29.225  1.00  0.00     0.023 A 
ATOM     92  C   UNL A   1      45.242  30.197  28.498  1.00  0.00     0.031 A 
ATOM     93  C   UNL A   1      47.411  29.280  29.019  1.00  0.00     0.131 A 
ATOM     94  C   UNL A   1      45.865  31.094  27.604  1.00  0.00     0.055 A 
ATOM     95  C   UNL A   1      48.024  30.183  28.153  1.00  0.00     0.041 A 
ATOM     96  F   UNL A   1      48.208  28.436  29.695  1.00  0.00    -0.206 F 
ATOM     97  C   UNL A   1      47.254  31.090  27.437  1.00  0.00     0.022 A 
BRANCH  94  98
ATOM     98  S   UNL A   1      44.883  32.276  26.619  1.00  0.00     0.124 S 
ATOM     99  O   UNL A   1      43.901  31.430  25.951  1.00  0.00    -0.237 OA
ATOM    100  O   UNL A   1      44.361  33.180  27.640  1.00  0.00    -0.237 OA
ATOM    101  O   UNL A   1      45.874  32.880  25.725  1.00  0.00    -0.744 OA
ENDBRANCH  94  98
ENDBRANCH  68  91
ENDBRANCH  42  43
ENDBRANCH  35  37
ENDBRANCH  34  35
ENDBRANCH  33  34
ENDBRANCH  32  33
ENDBRANCH   1  32
TORSDOF 22
ENDMDL
