MODEL 1
REMARK VINA RESULT:     -10.9      0.000      0.000
REMARK SMILES Cc1ccc(S(=O)(=O)Nc2cc(C(=O)OCCOCCOC(=O)c3ccc(-c4c5nc(c(-c6cc(S(=O)(=O)[O-])ccc6F)c6ccc([nH]6)c(-c6cc(S(=O)(=O)[O-])ccc6F)c6nc(c(-c7cc(S(=O)(=O)[O-])ccc7F)c7ccc4[nH]7)C=C6)C=C5)cc3)cnc2N2CCCC2)c(C)c1
REMARK SMILES IDX 18 1 17 2 16 3 15 4 13 5 14 6 12 7 10 8 11 9 89 10 88 11
REMARK SMILES IDX 87 12 9 13 6 15 7 16 8 17 5 18 1 19 2 20 3 21 97 22 4 23
REMARK SMILES IDX 95 24 96 25 90 26 91 27 94 28 92 29 93 30 19 31 20 32 21 33
REMARK SMILES IDX 22 34 23 35 24 36 25 37 86 38 26 39 85 40 27 41 28 42 29 43
REMARK SMILES IDX 79 44 30 45 84 46 78 47 80 48 31 49 83 50 77 51 76 52 32 54
REMARK SMILES IDX 64 55 44 56 63 57 45 58 48 59 62 60 81 61 46 62 47 63 61 65
REMARK SMILES IDX 82 66 49 67 33 68 34 69 42 70 35 71 41 72 43 73 40 74 36 75
REMARK SMILES IDX 37 76 38 77 39 78 65 79 66 80 74 81 67 82 73 83 75 84 72 85
REMARK SMILES IDX 68 86 69 87 70 88 71 89 50 90 51 91 59 92 52 93 58 94 60 95
REMARK SMILES IDX 57 96 53 97 54 98 55 99 56 100
REMARK H PARENT 9 14 80 53 48 64
REMARK Flexibility Score: inf
ROOT
ATOM      1  O   UNL A   1      33.408  33.355  28.001  1.00  0.00    -0.374 OA
ENDROOT
BRANCH   1   2
ATOM      2  C   UNL A   1      34.469  32.399  27.961  1.00  0.00     0.202 C 
BRANCH   2   3
ATOM      3  C   UNL A   1      34.169  31.054  27.294  1.00  0.00     0.261 C 
BRANCH   3   4
ATOM      4  O   UNL A   1      32.852  30.587  27.626  1.00  0.00    -0.460 OA
BRANCH   4   5
ATOM      5  C   UNL A   1      32.009  30.427  26.585  1.00  0.00     0.339 C 
ATOM      6  O   UNL A   1      31.545  31.306  25.865  1.00  0.00    -0.246 OA
BRANCH   5   7
ATOM      7  C   UNL A   1      31.749  29.000  26.340  1.00  0.00     0.080 A 
ATOM      8  C   UNL A   1      31.737  27.057  24.952  1.00  0.00     0.092 A 
ATOM      9  C   UNL A   1      31.702  28.445  25.065  1.00  0.00     0.048 A 
ATOM     10  C   UNL A   1      31.628  26.252  26.113  1.00  0.00     0.153 A 
ATOM     11  N   UNL A   1      31.557  26.801  27.345  1.00  0.00    -0.236 NA
ATOM     12  C   UNL A   1      31.654  28.150  27.434  1.00  0.00     0.129 A 
BRANCH   8  13
ATOM     13  N   UNL A   1      31.886  26.459  23.654  1.00  0.00    -0.276 N 
ATOM     14  H   UNL A   1      31.080  26.268  23.121  1.00  0.00     0.180 HD
BRANCH  13  15
ATOM     15  S   UNL A   1      33.421  26.069  23.005  1.00  0.00     0.262 S 
ATOM     16  O   UNL A   1      34.233  27.211  23.374  1.00  0.00    -0.201 OA
ATOM     17  O   UNL A   1      33.230  25.749  21.606  1.00  0.00    -0.201 OA
BRANCH  15  18
ATOM     18  C   UNL A   1      34.116  24.598  23.758  1.00  0.00     0.090 A 
ATOM     19  C   UNL A   1      36.490  21.181  24.884  1.00  0.00     0.044 C 
ATOM     20  C   UNL A   1      35.622  22.362  24.565  1.00  0.00    -0.051 A 
ATOM     21  C   UNL A   1      35.892  23.619  25.102  1.00  0.00     0.005 A 
ATOM     22  C   UNL A   1      34.473  22.206  23.785  1.00  0.00     0.008 A 
ATOM     23  C   UNL A   1      35.118  24.724  24.729  1.00  0.00     0.023 A 
ATOM     24  C   UNL A   1      33.680  23.309  23.409  1.00  0.00    -0.030 A 
ATOM     25  C   UNL A   1      32.365  22.996  22.750  1.00  0.00     0.046 C 
ENDBRANCH  15  18
ENDBRANCH  13  15
ENDBRANCH   8  13
BRANCH  10  26
ATOM     26  N   UNL A   1      31.589  24.871  25.992  1.00  0.00    -0.355 N 
ATOM     27  C   UNL A   1      32.383  24.096  26.936  1.00  0.00     0.118 C 
ATOM     28  C   UNL A   1      30.282  24.222  25.866  1.00  0.00     0.118 C 
ATOM     29  C   UNL A   1      32.053  22.677  26.500  1.00  0.00     0.023 C 
ATOM     30  C   UNL A   1      30.558  22.749  26.211  1.00  0.00     0.023 C 
ENDBRANCH  10  26
ENDBRANCH   5   7
ENDBRANCH   4   5
ENDBRANCH   3   4
ENDBRANCH   2   3
ENDBRANCH   1   2
BRANCH   1  31
ATOM     31  C   UNL A   1      33.743  34.739  28.026  1.00  0.00     0.202 C 
BRANCH  31  32
ATOM     32  C   UNL A   1      33.208  35.608  29.173  1.00  0.00     0.261 C 
BRANCH  32  33
ATOM     33  O   UNL A   1      32.686  34.856  30.276  1.00  0.00    -0.460 OA
BRANCH  33  34
ATOM     34  C   UNL A   1      33.392  35.017  31.423  1.00  0.00     0.338 C 
ATOM     35  O   UNL A   1      33.033  35.624  32.423  1.00  0.00    -0.246 OA
BRANCH  34  36
ATOM     36  C   UNL A   1      34.620  34.202  31.398  1.00  0.00     0.060 A 
ATOM     37  C   UNL A   1      34.598  33.004  32.121  1.00  0.00     0.016 A 
ATOM     38  C   UNL A   1      35.791  34.628  30.763  1.00  0.00     0.016 A 
ATOM     39  C   UNL A   1      35.763  32.260  32.267  1.00  0.00     0.010 A 
ATOM     40  C   UNL A   1      36.963  33.877  30.913  1.00  0.00     0.010 A 
ATOM     41  C   UNL A   1      36.963  32.712  31.701  1.00  0.00    -0.014 A 
BRANCH  41  42
ATOM     42  C   UNL A   1      38.218  32.014  32.070  1.00  0.00     0.031 A 
ATOM     43  C   UNL A   1      38.891  32.345  33.375  1.00  0.00     0.074 A 
ATOM     44  C   UNL A   1      38.699  31.028  31.293  1.00  0.00     0.049 A 
ATOM     45  N   UNL A   1      39.917  31.772  33.951  1.00  0.00    -0.248 NA
ATOM     46  C   UNL A   1      38.330  33.476  34.127  1.00  0.00     0.031 C 
ATOM     47  C   UNL A   1      38.128  30.615  30.012  1.00  0.00     0.029 A 
ATOM     48  N   UNL A   1      39.768  30.189  31.473  1.00  0.00    -0.354 N 
ATOM     49  C   UNL A   1      40.115  32.461  35.143  1.00  0.00     0.074 A 
ATOM     50  C   UNL A   1      39.142  33.534  35.170  1.00  0.00     0.031 C 
ATOM     51  C   UNL A   1      38.852  29.594  29.522  1.00  0.00     0.029 A 
ATOM     52  C   UNL A   1      39.945  29.294  30.445  1.00  0.00     0.049 A 
ATOM     53  H   UNL A   1      40.354  30.223  32.265  1.00  0.00     0.167 HD
ATOM     54  C   UNL A   1      41.011  32.210  36.132  1.00  0.00     0.034 A 
ATOM     55  C   UNL A   1      40.882  28.343  30.267  1.00  0.00     0.034 A 
ATOM     56  C   UNL A   1      41.999  31.157  36.070  1.00  0.00     0.049 A 
ATOM     57  C   UNL A   1      41.902  28.108  31.352  1.00  0.00     0.074 A 
ATOM     58  C   UNL A   1      42.954  30.809  37.010  1.00  0.00     0.029 A 
ATOM     59  N   UNL A   1      42.172  30.291  34.996  1.00  0.00    -0.354 N 
ATOM     60  N   UNL A   1      42.057  28.739  32.493  1.00  0.00    -0.248 NA
ATOM     61  C   UNL A   1      42.854  27.013  31.134  1.00  0.00     0.031 C 
ATOM     62  C   UNL A   1      43.746  29.784  36.476  1.00  0.00     0.029 A 
ATOM     63  C   UNL A   1      43.236  29.431  35.236  1.00  0.00     0.049 A 
ATOM     64  H   UNL A   1      41.619  30.286  34.181  1.00  0.00     0.167 HD
ATOM     65  C   UNL A   1      43.113  28.103  33.140  1.00  0.00     0.074 A 
ATOM     66  C   UNL A   1      43.539  27.026  32.268  1.00  0.00     0.031 C 
ATOM     67  C   UNL A   1      43.675  28.379  34.347  1.00  0.00     0.034 A 
BRANCH  54  68
ATOM     68  C   UNL A   1      40.982  33.132  37.331  1.00  0.00     0.023 A 
ATOM     69  C   UNL A   1      40.269  32.803  38.499  1.00  0.00     0.031 A 
ATOM     70  C   UNL A   1      41.617  34.385  37.285  1.00  0.00     0.131 A 
ATOM     71  C   UNL A   1      40.128  33.748  39.527  1.00  0.00     0.055 A 
ATOM     72  C   UNL A   1      41.548  35.288  38.349  1.00  0.00     0.041 A 
ATOM     73  F   UNL A   1      42.294  34.769  36.192  1.00  0.00    -0.206 F 
ATOM     74  C   UNL A   1      40.783  34.980  39.471  1.00  0.00     0.022 A 
BRANCH  71  75
ATOM     75  S   UNL A   1      38.929  33.418  40.849  1.00  0.00     0.124 S 
ATOM     76  O   UNL A   1      37.662  33.500  40.128  1.00  0.00    -0.237 OA
ATOM     77  O   UNL A   1      39.322  32.090  41.305  1.00  0.00    -0.237 OA
ATOM     78  O   UNL A   1      39.164  34.501  41.803  1.00  0.00    -0.744 OA
ENDBRANCH  71  75
ENDBRANCH  54  68
BRANCH  55  79
ATOM     79  C   UNL A   1      40.906  27.558  29.002  1.00  0.00     0.023 A 
ATOM     80  C   UNL A   1      41.881  27.777  28.016  1.00  0.00     0.031 A 
ATOM     81  C   UNL A   1      39.935  26.568  28.764  1.00  0.00     0.131 A 
ATOM     82  C   UNL A   1      41.847  27.033  26.825  1.00  0.00     0.055 A 
ATOM     83  C   UNL A   1      39.931  25.803  27.599  1.00  0.00     0.041 A 
ATOM     84  F   UNL A   1      38.987  26.316  29.681  1.00  0.00    -0.206 F 
ATOM     85  C   UNL A   1      40.886  26.040  26.616  1.00  0.00     0.022 A 
BRANCH  82  86
ATOM     86  S   UNL A   1      43.057  27.408  25.528  1.00  0.00     0.124 S 
ATOM     87  O   UNL A   1      42.279  28.249  24.626  1.00  0.00    -0.237 OA
ATOM     88  O   UNL A   1      44.112  28.077  26.282  1.00  0.00    -0.237 OA
ATOM     89  O   UNL A   1      43.412  26.090  25.004  1.00  0.00    -0.744 OA
ENDBRANCH  82  86
ENDBRANCH  55  79
BRANCH  67  90
ATOM     90  C   UNL A   1      44.798  27.473  34.799  1.00  0.00     0.023 A 
ATOM     91  C   UNL A   1      44.565  26.351  35.613  1.00  0.00     0.031 A 
ATOM     92  C   UNL A   1      46.128  27.760  34.440  1.00  0.00     0.131 A 
ATOM     93  C   UNL A   1      45.647  25.601  36.101  1.00  0.00     0.055 A 
ATOM     94  C   UNL A   1      47.195  26.970  34.872  1.00  0.00     0.041 A 
ATOM     95  F   UNL A   1      46.413  28.820  33.666  1.00  0.00    -0.206 F 
ATOM     96  C   UNL A   1      46.959  25.895  35.723  1.00  0.00     0.022 A 
BRANCH  93  97
ATOM     97  S   UNL A   1      45.327  24.315  37.340  1.00  0.00     0.124 S 
ATOM     98  O   UNL A   1      45.060  23.148  36.505  1.00  0.00    -0.237 OA
ATOM     99  O   UNL A   1      46.578  24.288  38.091  1.00  0.00    -0.237 OA
ATOM    100  O   UNL A   1      44.173  24.827  38.076  1.00  0.00    -0.744 OA
ENDBRANCH  93  97
ENDBRANCH  67  90
ENDBRANCH  41  42
ENDBRANCH  34  36
ENDBRANCH  33  34
ENDBRANCH  32  33
ENDBRANCH  31  32
ENDBRANCH   1  31
TORSDOF 21
ENDMDL
MODEL 2
REMARK VINA RESULT:     -10.9      3.019      4.872
REMARK SMILES Cc1ccc(S(=O)(=O)Nc2cc(C(=O)OCCOCCOC(=O)c3ccc(-c4c5nc(c(-c6cc(S(=O)(=O)[O-])ccc6F)c6ccc([nH]6)c(-c6cc(S(=O)(=O)[O-])ccc6F)c6nc(c(-c7cc(S(=O)(=O)[O-])ccc7F)c7ccc4[nH]7)C=C6)C=C5)cc3)cnc2N2CCCC2)c(C)c1
REMARK SMILES IDX 18 1 17 2 16 3 15 4 13 5 14 6 12 7 10 8 11 9 89 10 88 11
REMARK SMILES IDX 87 12 9 13 6 15 7 16 8 17 5 18 1 19 2 20 3 21 97 22 4 23
REMARK SMILES IDX 95 24 96 25 90 26 91 27 94 28 92 29 93 30 19 31 20 32 21 33
REMARK SMILES IDX 22 34 23 35 24 36 25 37 86 38 26 39 85 40 27 41 28 42 29 43
REMARK SMILES IDX 79 44 30 45 84 46 78 47 80 48 31 49 83 50 77 51 76 52 32 54
REMARK SMILES IDX 64 55 44 56 63 57 45 58 48 59 62 60 81 61 46 62 47 63 61 65
REMARK SMILES IDX 82 66 49 67 33 68 34 69 42 70 35 71 41 72 43 73 40 74 36 75
REMARK SMILES IDX 37 76 38 77 39 78 65 79 66 80 74 81 67 82 73 83 75 84 72 85
REMARK SMILES IDX 68 86 69 87 70 88 71 89 50 90 51 91 59 92 52 93 58 94 60 95
REMARK SMILES IDX 57 96 53 97 54 98 55 99 56 100
REMARK H PARENT 9 14 80 53 48 64
REMARK Flexibility Score: inf
ROOT
ATOM      1  O   UNL A   1      30.652  28.059  24.783  1.00  0.00    -0.374 OA
ENDROOT
BRANCH   1   2
ATOM      2  C   UNL A   1      30.924  26.657  24.808  1.00  0.00     0.202 C 
BRANCH   2   3
ATOM      3  C   UNL A   1      31.000  25.938  23.459  1.00  0.00     0.261 C 
BRANCH   3   4
ATOM      4  O   UNL A   1      31.405  24.569  23.617  1.00  0.00    -0.460 OA
BRANCH   4   5
ATOM      5  C   UNL A   1      32.431  24.169  22.838  1.00  0.00     0.339 C 
ATOM      6  O   UNL A   1      32.972  24.807  21.939  1.00  0.00    -0.246 OA
BRANCH   5   7
ATOM      7  C   UNL A   1      32.912  22.842  23.251  1.00  0.00     0.080 A 
ATOM      8  C   UNL A   1      34.392  21.407  24.456  1.00  0.00     0.092 A 
ATOM      9  C   UNL A   1      34.152  22.637  23.848  1.00  0.00     0.048 A 
ATOM     10  C   UNL A   1      33.466  20.347  24.294  1.00  0.00     0.153 A 
ATOM     11  N   UNL A   1      32.312  20.520  23.612  1.00  0.00    -0.236 NA
ATOM     12  C   UNL A   1      32.046  21.763  23.140  1.00  0.00     0.129 A 
BRANCH   8  13
ATOM     13  N   UNL A   1      35.580  21.231  25.246  1.00  0.00    -0.276 N 
ATOM     14  H   UNL A   1      35.708  20.385  25.734  1.00  0.00     0.180 HD
BRANCH  13  15
ATOM     15  S   UNL A   1      36.780  22.446  25.363  1.00  0.00     0.262 S 
ATOM     16  O   UNL A   1      36.323  23.253  26.477  1.00  0.00    -0.201 OA
ATOM     17  O   UNL A   1      36.914  23.048  24.052  1.00  0.00    -0.201 OA
BRANCH  15  18
ATOM     18  C   UNL A   1      38.389  21.768  25.763  1.00  0.00     0.090 A 
ATOM     19  C   UNL A   1      41.775  19.733  27.488  1.00  0.00     0.044 C 
ATOM     20  C   UNL A   1      40.642  20.453  26.818  1.00  0.00    -0.051 A 
ATOM     21  C   UNL A   1      39.814  19.800  25.908  1.00  0.00     0.005 A 
ATOM     22  C   UNL A   1      40.448  21.820  27.033  1.00  0.00     0.008 A 
ATOM     23  C   UNL A   1      38.715  20.468  25.355  1.00  0.00     0.023 A 
ATOM     24  C   UNL A   1      39.350  22.506  26.476  1.00  0.00    -0.030 A 
ATOM     25  C   UNL A   1      39.360  24.004  26.603  1.00  0.00     0.046 C 
ENDBRANCH  15  18
ENDBRANCH  13  15
ENDBRANCH   8  13
BRANCH  10  26
ATOM     26  N   UNL A   1      33.741  19.102  24.839  1.00  0.00    -0.355 N 
ATOM     27  C   UNL A   1      32.606  18.283  25.240  1.00  0.00     0.118 C 
ATOM     28  C   UNL A   1      34.695  18.236  24.142  1.00  0.00     0.118 C 
ATOM     29  C   UNL A   1      33.309  17.032  25.741  1.00  0.00     0.023 C 
ATOM     30  C   UNL A   1      34.424  16.836  24.719  1.00  0.00     0.023 C 
ENDBRANCH  10  26
ENDBRANCH   5   7
ENDBRANCH   4   5
ENDBRANCH   3   4
ENDBRANCH   2   3
ENDBRANCH   1   2
BRANCH   1  31
ATOM     31  C   UNL A   1      31.752  28.964  24.779  1.00  0.00     0.202 C 
BRANCH  31  32
ATOM     32  C   UNL A   1      32.153  29.645  26.095  1.00  0.00     0.261 C 
BRANCH  32  33
ATOM     33  O   UNL A   1      33.470  30.213  26.076  1.00  0.00    -0.460 OA
BRANCH  33  34
ATOM     34  C   UNL A   1      33.720  31.032  27.128  1.00  0.00     0.338 C 
ATOM     35  O   UNL A   1      32.908  31.738  27.713  1.00  0.00    -0.246 OA
BRANCH  34  36
ATOM     36  C   UNL A   1      35.095  30.843  27.622  1.00  0.00     0.060 A 
ATOM     37  C   UNL A   1      35.533  29.524  27.782  1.00  0.00     0.016 A 
ATOM     38  C   UNL A   1      35.910  31.914  28.004  1.00  0.00     0.016 A 
ATOM     39  C   UNL A   1      36.760  29.267  28.383  1.00  0.00     0.010 A 
ATOM     40  C   UNL A   1      37.145  31.652  28.610  1.00  0.00     0.010 A 
ATOM     41  C   UNL A   1      37.555  30.327  28.840  1.00  0.00    -0.014 A 
BRANCH  41  42
ATOM     42  C   UNL A   1      38.739  30.005  29.674  1.00  0.00     0.031 A 
ATOM     43  C   UNL A   1      38.848  30.587  31.057  1.00  0.00     0.074 A 
ATOM     44  C   UNL A   1      39.659  29.129  29.234  1.00  0.00     0.049 A 
ATOM     45  N   UNL A   1      39.725  30.340  31.996  1.00  0.00    -0.248 NA
ATOM     46  C   UNL A   1      37.831  31.581  31.426  1.00  0.00     0.031 C 
ATOM     47  C   UNL A   1      39.653  28.496  27.916  1.00  0.00     0.029 A 
ATOM     48  N   UNL A   1      40.766  28.610  29.854  1.00  0.00    -0.354 N 
ATOM     49  C   UNL A   1      39.356  31.135  33.077  1.00  0.00     0.074 A 
ATOM     50  C   UNL A   1      38.216  31.918  32.647  1.00  0.00     0.031 C 
ATOM     51  C   UNL A   1      40.708  27.668  27.828  1.00  0.00     0.029 A 
ATOM     52  C   UNL A   1      41.470  27.724  29.073  1.00  0.00     0.049 A 
ATOM     53  H   UNL A   1      41.032  28.848  30.772  1.00  0.00     0.167 HD
ATOM     54  C   UNL A   1      39.905  31.193  34.317  1.00  0.00     0.034 A 
ATOM     55  C   UNL A   1      42.600  27.040  29.332  1.00  0.00     0.034 A 
ATOM     56  C   UNL A   1      41.066  30.431  34.716  1.00  0.00     0.049 A 
ATOM     57  C   UNL A   1      43.227  27.151  30.699  1.00  0.00     0.074 A 
ATOM     58  C   UNL A   1      41.707  30.407  35.943  1.00  0.00     0.029 A 
ATOM     59  N   UNL A   1      41.776  29.569  33.887  1.00  0.00    -0.354 N 
ATOM     60  N   UNL A   1      42.849  27.876  31.727  1.00  0.00    -0.248 NA
ATOM     61  C   UNL A   1      44.418  26.329  30.946  1.00  0.00     0.031 C 
ATOM     62  C   UNL A   1      42.839  29.590  35.834  1.00  0.00     0.029 A 
ATOM     63  C   UNL A   1      42.863  29.034  34.564  1.00  0.00     0.049 A 
ATOM     64  H   UNL A   1      41.541  29.367  32.952  1.00  0.00     0.167 HD
ATOM     65  C   UNL A   1      43.744  27.581  32.751  1.00  0.00     0.074 A 
ATOM     66  C   UNL A   1      44.666  26.596  32.220  1.00  0.00     0.031 C 
ATOM     67  C   UNL A   1      43.796  28.074  34.017  1.00  0.00     0.034 A 
BRANCH  54  68
ATOM     68  C   UNL A   1      39.274  32.154  35.300  1.00  0.00     0.023 A 
ATOM     69  C   UNL A   1      39.690  33.496  35.391  1.00  0.00     0.031 A 
ATOM     70  C   UNL A   1      38.293  31.712  36.205  1.00  0.00     0.131 A 
ATOM     71  C   UNL A   1      39.201  34.317  36.420  1.00  0.00     0.055 A 
ATOM     72  C   UNL A   1      37.744  32.559  37.171  1.00  0.00     0.041 A 
ATOM     73  F   UNL A   1      37.869  30.439  36.186  1.00  0.00    -0.206 F 
ATOM     74  C   UNL A   1      38.213  33.864  37.296  1.00  0.00     0.022 A 
BRANCH  71  75
ATOM     75  S   UNL A   1      40.008  35.916  36.711  1.00  0.00     0.124 S 
ATOM     76  O   UNL A   1      41.401  35.516  36.894  1.00  0.00    -0.237 OA
ATOM     77  O   UNL A   1      39.707  36.647  35.486  1.00  0.00    -0.237 OA
ATOM     78  O   UNL A   1      39.350  36.418  37.916  1.00  0.00    -0.744 OA
ENDBRANCH  71  75
ENDBRANCH  54  68
BRANCH  55  79
ATOM     79  C   UNL A   1      43.219  26.205  28.266  1.00  0.00     0.023 A 
ATOM     80  C   UNL A   1      44.251  26.695  27.450  1.00  0.00     0.031 A 
ATOM     81  C   UNL A   1      42.772  24.889  28.048  1.00  0.00     0.131 A 
ATOM     82  C   UNL A   1      44.784  25.881  26.436  1.00  0.00     0.055 A 
ATOM     83  C   UNL A   1      43.333  24.071  27.069  1.00  0.00     0.041 A 
ATOM     84  F   UNL A   1      41.793  24.372  28.809  1.00  0.00    -0.206 F 
ATOM     85  C   UNL A   1      44.340  24.569  26.249  1.00  0.00     0.022 A 
BRANCH  82  86
ATOM     86  S   UNL A   1      46.044  26.575  25.333  1.00  0.00     0.124 S 
ATOM     87  O   UNL A   1      46.399  25.419  24.518  1.00  0.00    -0.237 OA
ATOM     88  O   UNL A   1      45.303  27.635  24.655  1.00  0.00    -0.237 OA
ATOM     89  O   UNL A   1      47.083  27.037  26.251  1.00  0.00    -0.744 OA
ENDBRANCH  82  86
ENDBRANCH  55  79
BRANCH  67  90
ATOM     90  C   UNL A   1      44.878  27.524  34.919  1.00  0.00     0.023 A 
ATOM     91  C   UNL A   1      46.150  28.117  35.000  1.00  0.00     0.031 A 
ATOM     92  C   UNL A   1      44.643  26.366  35.682  1.00  0.00     0.131 A 
ATOM     93  C   UNL A   1      47.160  27.511  35.764  1.00  0.00     0.055 A 
ATOM     94  C   UNL A   1      45.631  25.806  36.495  1.00  0.00     0.041 A 
ATOM     95  F   UNL A   1      43.448  25.753  35.645  1.00  0.00    -0.206 F 
ATOM     96  C   UNL A   1      46.903  26.368  36.524  1.00  0.00     0.022 A 
BRANCH  93  97
ATOM     97  S   UNL A   1      48.849  28.163  35.650  1.00  0.00     0.124 S 
ATOM     98  O   UNL A   1      49.582  27.018  35.120  1.00  0.00    -0.237 OA
ATOM     99  O   UNL A   1      48.687  29.293  34.741  1.00  0.00    -0.237 OA
ATOM    100  O   UNL A   1      49.173  28.520  37.031  1.00  0.00    -0.744 OA
ENDBRANCH  93  97
ENDBRANCH  67  90
ENDBRANCH  41  42
ENDBRANCH  34  36
ENDBRANCH  33  34
ENDBRANCH  32  33
ENDBRANCH  31  32
ENDBRANCH   1  31
TORSDOF 21
ENDMDL
MODEL 3
REMARK VINA RESULT:      -9.8      5.717     11.803
REMARK SMILES Cc1ccc(S(=O)(=O)Nc2cc(C(=O)OCCOCCOC(=O)c3ccc(-c4c5nc(c(-c6cc(S(=O)(=O)[O-])ccc6F)c6ccc([nH]6)c(-c6cc(S(=O)(=O)[O-])ccc6F)c6nc(c(-c7cc(S(=O)(=O)[O-])ccc7F)c7ccc4[nH]7)C=C6)C=C5)cc3)cnc2N2CCCC2)c(C)c1
REMARK SMILES IDX 18 1 17 2 16 3 15 4 13 5 14 6 12 7 10 8 11 9 89 10 88 11
REMARK SMILES IDX 87 12 9 13 6 15 7 16 8 17 5 18 1 19 2 20 3 21 97 22 4 23
REMARK SMILES IDX 95 24 96 25 90 26 91 27 94 28 92 29 93 30 19 31 20 32 21 33
REMARK SMILES IDX 22 34 23 35 24 36 25 37 86 38 26 39 85 40 27 41 28 42 29 43
REMARK SMILES IDX 79 44 30 45 84 46 78 47 80 48 31 49 83 50 77 51 76 52 32 54
REMARK SMILES IDX 64 55 44 56 63 57 45 58 48 59 62 60 81 61 46 62 47 63 61 65
REMARK SMILES IDX 82 66 49 67 33 68 34 69 42 70 35 71 41 72 43 73 40 74 36 75
REMARK SMILES IDX 37 76 38 77 39 78 65 79 66 80 74 81 67 82 73 83 75 84 72 85
REMARK SMILES IDX 68 86 69 87 70 88 71 89 50 90 51 91 59 92 52 93 58 94 60 95
REMARK SMILES IDX 57 96 53 97 54 98 55 99 56 100
REMARK H PARENT 9 14 80 53 48 64
REMARK Flexibility Score: inf
ROOT
ATOM      1  O   UNL A   1      51.772  27.511  22.991  1.00  0.00    -0.374 OA
ENDROOT
BRANCH   1   2
ATOM      2  C   UNL A   1      50.535  26.814  22.838  1.00  0.00     0.202 C 
BRANCH   2   3
ATOM      3  C   UNL A   1      49.297  27.654  22.513  1.00  0.00     0.261 C 
BRANCH   3   4
ATOM      4  O   UNL A   1      48.094  27.013  22.965  1.00  0.00    -0.460 OA
BRANCH   4   5
ATOM      5  C   UNL A   1      47.161  27.828  23.497  1.00  0.00     0.339 C 
ATOM      6  O   UNL A   1      46.815  28.930  23.080  1.00  0.00    -0.246 OA
BRANCH   5   7
ATOM      7  C   UNL A   1      46.507  27.189  24.649  1.00  0.00     0.080 A 
ATOM      8  C   UNL A   1      44.747  27.006  26.252  1.00  0.00     0.092 A 
ATOM      9  C   UNL A   1      45.487  27.795  25.375  1.00  0.00     0.048 A 
ATOM     10  C   UNL A   1      45.161  25.679  26.527  1.00  0.00     0.153 A 
ATOM     11  N   UNL A   1      46.227  25.132  25.902  1.00  0.00    -0.236 NA
ATOM     12  C   UNL A   1      46.850  25.880  24.959  1.00  0.00     0.129 A 
BRANCH   8  13
ATOM     13  N   UNL A   1      43.569  27.552  26.869  1.00  0.00    -0.276 N 
ATOM     14  H   UNL A   1      43.614  27.846  27.808  1.00  0.00     0.180 HD
BRANCH  13  15
ATOM     15  S   UNL A   1      42.090  27.704  26.021  1.00  0.00     0.262 S 
ATOM     16  O   UNL A   1      41.791  26.340  25.634  1.00  0.00    -0.201 OA
ATOM     17  O   UNL A   1      42.280  28.712  24.999  1.00  0.00    -0.201 OA
BRANCH  15  18
ATOM     18  C   UNL A   1      40.770  28.309  27.072  1.00  0.00     0.090 A 
ATOM     19  C   UNL A   1      38.086  30.619  29.529  1.00  0.00     0.044 C 
ATOM     20  C   UNL A   1      38.961  29.754  28.670  1.00  0.00    -0.051 A 
ATOM     21  C   UNL A   1      38.789  29.705  27.288  1.00  0.00     0.005 A 
ATOM     22  C   UNL A   1      39.916  28.916  29.252  1.00  0.00     0.008 A 
ATOM     23  C   UNL A   1      39.667  28.954  26.498  1.00  0.00     0.023 A 
ATOM     24  C   UNL A   1      40.801  28.150  28.468  1.00  0.00    -0.030 A 
ATOM     25  C   UNL A   1      41.638  27.135  29.198  1.00  0.00     0.046 C 
ENDBRANCH  15  18
ENDBRANCH  13  15
ENDBRANCH   8  13
BRANCH  10  26
ATOM     26  N   UNL A   1      44.466  24.919  27.456  1.00  0.00    -0.355 N 
ATOM     27  C   UNL A   1      43.638  23.836  26.945  1.00  0.00     0.118 C 
ATOM     28  C   UNL A   1      45.193  24.416  28.623  1.00  0.00     0.118 C 
ATOM     29  C   UNL A   1      43.091  23.251  28.238  1.00  0.00     0.023 C 
ATOM     30  C   UNL A   1      44.300  23.288  29.167  1.00  0.00     0.023 C 
ENDBRANCH  10  26
ENDBRANCH   5   7
ENDBRANCH   4   5
ENDBRANCH   3   4
ENDBRANCH   2   3
ENDBRANCH   1   2
BRANCH   1  31
ATOM     31  C   UNL A   1      52.910  26.783  23.442  1.00  0.00     0.202 C 
BRANCH  31  32
ATOM     32  C   UNL A   1      53.280  26.837  24.930  1.00  0.00     0.261 C 
BRANCH  32  33
ATOM     33  O   UNL A   1      52.163  27.072  25.798  1.00  0.00    -0.460 OA
BRANCH  33  34
ATOM     34  C   UNL A   1      52.367  26.642  27.069  1.00  0.00     0.338 C 
ATOM     35  O   UNL A   1      53.433  26.298  27.561  1.00  0.00    -0.246 OA
BRANCH  34  36
ATOM     36  C   UNL A   1      51.145  26.806  27.877  1.00  0.00     0.060 A 
ATOM     37  C   UNL A   1      49.981  26.199  27.392  1.00  0.00     0.016 A 
ATOM     38  C   UNL A   1      51.107  27.597  29.029  1.00  0.00     0.016 A 
ATOM     39  C   UNL A   1      48.763  26.434  28.019  1.00  0.00     0.010 A 
ATOM     40  C   UNL A   1      49.879  27.833  29.658  1.00  0.00     0.010 A 
ATOM     41  C   UNL A   1      48.695  27.286  29.129  1.00  0.00    -0.014 A 
BRANCH  41  42
ATOM     42  C   UNL A   1      47.356  27.688  29.624  1.00  0.00     0.031 A 
ATOM     43  C   UNL A   1      46.708  26.896  30.728  1.00  0.00     0.074 A 
ATOM     44  C   UNL A   1      46.768  28.803  29.156  1.00  0.00     0.049 A 
ATOM     45  N   UNL A   1      45.608  27.142  31.392  1.00  0.00    -0.248 NA
ATOM     46  C   UNL A   1      47.394  25.661  31.130  1.00  0.00     0.031 C 
ATOM     47  C   UNL A   1      47.305  29.653  28.095  1.00  0.00     0.029 A 
ATOM     48  N   UNL A   1      45.599  29.418  29.524  1.00  0.00    -0.354 N 
ATOM     49  C   UNL A   1      45.478  26.102  32.307  1.00  0.00     0.074 A 
ATOM     50  C   UNL A   1      46.578  25.192  32.060  1.00  0.00     0.031 C 
ATOM     51  C   UNL A   1      46.466  30.685  27.899  1.00  0.00     0.029 A 
ATOM     52  C   UNL A   1      45.329  30.559  28.808  1.00  0.00     0.049 A 
ATOM     53  H   UNL A   1      45.009  29.074  30.234  1.00  0.00     0.167 HD
ATOM     54  C   UNL A   1      44.541  25.932  33.274  1.00  0.00     0.034 A 
ATOM     55  C   UNL A   1      44.283  31.404  28.876  1.00  0.00     0.034 A 
ATOM     56  C   UNL A   1      43.429  26.832  33.481  1.00  0.00     0.049 A 
ATOM     57  C   UNL A   1      43.223  31.176  29.923  1.00  0.00     0.074 A 
ATOM     58  C   UNL A   1      42.422  26.762  34.428  1.00  0.00     0.029 A 
ATOM     59  N   UNL A   1      43.167  27.961  32.712  1.00  0.00    -0.354 N 
ATOM     60  N   UNL A   1      43.129  30.210  30.809  1.00  0.00    -0.248 NA
ATOM     61  C   UNL A   1      42.144  32.168  29.995  1.00  0.00     0.031 C 
ATOM     62  C   UNL A   1      41.517  27.803  34.187  1.00  0.00     0.029 A 
ATOM     63  C   UNL A   1      41.999  28.577  33.143  1.00  0.00     0.049 A 
ATOM     64  H   UNL A   1      43.728  28.279  31.969  1.00  0.00     0.167 HD
ATOM     65  C   UNL A   1      41.990  30.491  31.559  1.00  0.00     0.074 A 
ATOM     66  C   UNL A   1      41.447  31.728  31.033  1.00  0.00     0.031 C 
ATOM     67  C   UNL A   1      41.447  29.794  32.592  1.00  0.00     0.034 A 
BRANCH  54  68
ATOM     68  C   UNL A   1      44.665  24.695  34.136  1.00  0.00     0.023 A 
ATOM     69  C   UNL A   1      45.225  24.747  35.427  1.00  0.00     0.031 A 
ATOM     70  C   UNL A   1      44.282  23.436  33.641  1.00  0.00     0.131 A 
ATOM     71  C   UNL A   1      45.475  23.560  36.134  1.00  0.00     0.055 A 
ATOM     72  C   UNL A   1      44.451  22.267  34.387  1.00  0.00     0.041 A 
ATOM     73  F   UNL A   1      43.762  23.315  32.410  1.00  0.00    -0.206 F 
ATOM     74  C   UNL A   1      45.069  22.322  35.633  1.00  0.00     0.022 A 
BRANCH  71  75
ATOM     75  S   UNL A   1      46.501  23.642  37.629  1.00  0.00     0.124 S 
ATOM     76  O   UNL A   1      45.692  22.894  38.586  1.00  0.00    -0.237 OA
ATOM     77  O   UNL A   1      47.737  23.001  37.196  1.00  0.00    -0.237 OA
ATOM     78  O   UNL A   1      46.602  25.075  37.897  1.00  0.00    -0.744 OA
ENDBRANCH  71  75
ENDBRANCH  54  68
BRANCH  55  79
ATOM     79  C   UNL A   1      44.181  32.532  27.909  1.00  0.00     0.023 A 
ATOM     80  C   UNL A   1      44.387  33.864  28.305  1.00  0.00     0.031 A 
ATOM     81  C   UNL A   1      43.869  32.283  26.560  1.00  0.00     0.131 A 
ATOM     82  C   UNL A   1      44.252  34.898  27.364  1.00  0.00     0.055 A 
ATOM     83  C   UNL A   1      43.777  33.310  25.622  1.00  0.00     0.041 A 
ATOM     84  F   UNL A   1      43.671  31.026  26.132  1.00  0.00    -0.206 F 
ATOM     85  C   UNL A   1      43.960  34.629  26.024  1.00  0.00     0.022 A 
BRANCH  82  86
ATOM     86  S   UNL A   1      44.424  36.615  27.925  1.00  0.00     0.124 S 
ATOM     87  O   UNL A   1      44.556  36.447  29.367  1.00  0.00    -0.237 OA
ATOM     88  O   UNL A   1      45.624  37.046  27.216  1.00  0.00    -0.237 OA
ATOM     89  O   UNL A   1      43.182  37.243  27.479  1.00  0.00    -0.744 OA
ENDBRANCH  82  86
ENDBRANCH  55  79
BRANCH  67  90
ATOM     90  C   UNL A   1      40.211  30.382  33.235  1.00  0.00     0.023 A 
ATOM     91  C   UNL A   1      40.286  31.437  34.162  1.00  0.00     0.031 A 
ATOM     92  C   UNL A   1      38.941  29.852  32.944  1.00  0.00     0.131 A 
ATOM     93  C   UNL A   1      39.126  31.878  34.818  1.00  0.00     0.055 A 
ATOM     94  C   UNL A   1      37.781  30.341  33.549  1.00  0.00     0.041 A 
ATOM     95  F   UNL A   1      38.805  28.842  32.069  1.00  0.00    -0.206 F 
ATOM     96  C   UNL A   1      37.872  31.348  34.506  1.00  0.00     0.022 A 
BRANCH  93  97
ATOM     97  S   UNL A   1      39.293  33.066  36.179  1.00  0.00     0.124 S 
ATOM     98  O   UNL A   1      37.902  33.407  36.458  1.00  0.00    -0.237 OA
ATOM     99  O   UNL A   1      39.974  32.277  37.200  1.00  0.00    -0.237 OA
ATOM    100  O   UNL A   1      40.090  34.145  35.596  1.00  0.00    -0.744 OA
ENDBRANCH  93  97
ENDBRANCH  67  90
ENDBRANCH  41  42
ENDBRANCH  34  36
ENDBRANCH  33  34
ENDBRANCH  32  33
ENDBRANCH  31  32
ENDBRANCH   1  31
TORSDOF 21
ENDMDL
