MODEL 1
REMARK VINA RESULT:     -12.5      0.000      0.000
REMARK SMILES NS(=O)(=O)c1ccc(-c2cc(Cl)cc3c2O[C@@H](C(F)(F)F)C(C(=O)OCCOCCOC(=O)c2ccc(-c4c5nc(c(-c6cc(S(=O)(=O)[O-])ccc6F)c6ccc([nH]6)c(-c6cc(S(=O)(=O)[O-])ccc6F)c6nc(c(-c7cc(S(=O)(=O)[O-])ccc7F)c7ccc4[nH]7)C=C6)C=C5)cc2)=C3)cc1
REMARK SMILES IDX 28 1 27 2 26 3 25 4 23 5 24 6 22 7 9 8 10 9 15 10 11 11
REMARK SMILES IDX 14 12 16 13 12 14 13 15 97 16 17 17 8 18 5 19 6 20 99 21
REMARK SMILES IDX 7 22 98 23 2 24 3 25 4 26 1 27 18 30 19 31 20 32 21 33 29 34
REMARK SMILES IDX 30 35 31 36 32 37 33 38 34 39 35 40 96 41 36 42 95 43 37 44
REMARK SMILES IDX 38 45 39 46 89 47 40 48 94 49 88 50 90 51 41 52 93 53 87 54
REMARK SMILES IDX 86 55 42 57 74 58 54 59 73 60 55 61 58 62 72 63 91 64 56 65
REMARK SMILES IDX 57 66 71 68 92 69 59 70 43 71 44 72 52 73 45 74 51 75 53 76
REMARK SMILES IDX 50 77 46 78 47 79 48 80 49 81 75 82 76 83 84 84 77 85 83 86
REMARK SMILES IDX 85 87 82 88 78 89 79 90 80 91 81 92 60 93 61 94 69 95 62 96
REMARK SMILES IDX 68 97 70 98 67 99 63 100 64 101 65 102 66 103
REMARK H PARENT 1 28 1 29 90 56 58 67
REMARK Flexibility Score: inf
ROOT
ATOM      1  O   UNL A   1      35.460  20.920  25.928  1.00  0.00    -0.374 OA
ENDROOT
BRANCH   1   2
ATOM      2  C   UNL A   1      34.076  20.616  26.030  1.00  0.00     0.202 C 
BRANCH   2   3
ATOM      3  C   UNL A   1      33.138  21.669  26.642  1.00  0.00     0.261 C 
BRANCH   3   4
ATOM      4  O   UNL A   1      33.821  22.858  27.076  1.00  0.00    -0.460 OA
BRANCH   4   5
ATOM      5  C   UNL A   1      34.181  23.714  26.101  1.00  0.00     0.338 C 
ATOM      6  O   UNL A   1      35.333  24.001  25.799  1.00  0.00    -0.246 OA
BRANCH   5   7
ATOM      7  C   UNL A   1      33.034  24.167  25.280  1.00  0.00     0.087 C 
ATOM      8  C   UNL A   1      32.945  28.164  24.137  1.00  0.00     0.026 A 
ATOM      9  C   UNL A   1      33.797  28.815  25.057  1.00  0.00     0.033 A 
ATOM     10  C   UNL A   1      32.743  26.790  24.389  1.00  0.00     0.135 A 
ATOM     11  C   UNL A   1      34.057  28.255  26.308  1.00  0.00     0.042 A 
ATOM     12  C   UNL A   1      32.759  26.339  25.718  1.00  0.00     0.019 A 
ATOM     13  O   UNL A   1      33.092  25.843  23.399  1.00  0.00    -0.475 OA
ATOM     14  Cl  UNL A   1      35.028  29.112  27.437  1.00  0.00    -0.084 Cl
ATOM     15  C   UNL A   1      33.453  27.062  26.680  1.00  0.00     0.032 A 
ATOM     16  C   UNL A   1      32.252  24.982  26.007  1.00  0.00     0.027 C 
ATOM     17  C   UNL A   1      32.980  24.409  23.787  1.00  0.00     0.316 C 
BRANCH   8  18
ATOM     18  C   UNL A   1      31.852  29.076  23.615  1.00  0.00    -0.015 A 
ATOM     19  C   UNL A   1      29.302  30.171  22.939  1.00  0.00     0.082 A 
ATOM     20  C   UNL A   1      29.905  30.496  24.153  1.00  0.00     0.022 A 
ATOM     21  C   UNL A   1      29.975  29.351  22.032  1.00  0.00     0.022 A 
ATOM     22  C   UNL A   1      31.171  29.971  24.474  1.00  0.00     0.010 A 
ATOM     23  C   UNL A   1      31.237  28.822  22.366  1.00  0.00     0.010 A 
BRANCH  19  24
ATOM     24  S   UNL A   1      27.631  30.671  22.610  1.00  0.00     0.238 S 
ATOM     25  O   UNL A   1      27.508  31.070  21.224  1.00  0.00    -0.207 OA
ATOM     26  O   UNL A   1      27.160  31.503  23.691  1.00  0.00    -0.207 OA
BRANCH  24  27
ATOM     27  N   UNL A   1      26.775  29.232  22.731  1.00  0.00    -0.225 NA
ATOM     28  H   UNL A   1      27.428  28.452  22.802  1.00  0.00     0.137 HD
ATOM     29  H   UNL A   1      26.192  29.113  21.903  1.00  0.00     0.137 HD
ENDBRANCH  24  27
ENDBRANCH  19  24
ENDBRANCH   8  18
BRANCH  17  30
ATOM     30  C   UNL A   1      33.753  23.385  22.925  1.00  0.00     0.430 C 
ATOM     31  F   UNL A   1      35.079  23.700  22.953  1.00  0.00    -0.167 F 
ATOM     32  F   UNL A   1      33.650  22.131  23.420  1.00  0.00    -0.167 F 
ATOM     33  F   UNL A   1      33.395  23.338  21.630  1.00  0.00    -0.167 F 
ENDBRANCH  17  30
ENDBRANCH   5   7
ENDBRANCH   4   5
ENDBRANCH   3   4
ENDBRANCH   2   3
ENDBRANCH   1   2
BRANCH   1  34
ATOM     34  C   UNL A   1      36.239  20.203  24.973  1.00  0.00     0.202 C 
BRANCH  34  35
ATOM     35  C   UNL A   1      37.738  20.500  24.864  1.00  0.00     0.261 C 
BRANCH  35  36
ATOM     36  O   UNL A   1      38.172  21.571  25.714  1.00  0.00    -0.460 OA
BRANCH  36  37
ATOM     37  C   UNL A   1      39.416  21.411  26.230  1.00  0.00     0.338 C 
ATOM     38  O   UNL A   1      40.161  20.458  26.082  1.00  0.00    -0.246 OA
BRANCH  37  39
ATOM     39  C   UNL A   1      39.829  22.656  26.895  1.00  0.00     0.060 A 
ATOM     40  C   UNL A   1      39.232  23.860  26.497  1.00  0.00     0.016 A 
ATOM     41  C   UNL A   1      40.866  22.643  27.827  1.00  0.00     0.016 A 
ATOM     42  C   UNL A   1      39.698  25.069  27.012  1.00  0.00     0.010 A 
ATOM     43  C   UNL A   1      41.337  23.855  28.333  1.00  0.00     0.010 A 
ATOM     44  C   UNL A   1      40.777  25.073  27.904  1.00  0.00    -0.014 A 
BRANCH  44  45
ATOM     45  C   UNL A   1      41.456  26.340  28.266  1.00  0.00     0.031 A 
ATOM     46  C   UNL A   1      40.648  27.413  28.942  1.00  0.00     0.074 A 
ATOM     47  C   UNL A   1      42.753  26.540  27.971  1.00  0.00     0.049 A 
ATOM     48  N   UNL A   1      40.958  28.657  29.188  1.00  0.00    -0.248 NA
ATOM     49  C   UNL A   1      39.299  27.026  29.384  1.00  0.00     0.031 C 
ATOM     50  C   UNL A   1      43.647  25.548  27.378  1.00  0.00     0.029 A 
ATOM     51  N   UNL A   1      43.534  27.659  28.111  1.00  0.00    -0.354 N 
ATOM     52  C   UNL A   1      39.839  29.210  29.800  1.00  0.00     0.074 A 
ATOM     53  C   UNL A   1      38.831  28.172  29.852  1.00  0.00     0.031 C 
ATOM     54  C   UNL A   1      44.853  26.109  27.186  1.00  0.00     0.029 A 
ATOM     55  C   UNL A   1      44.798  27.513  27.589  1.00  0.00     0.049 A 
ATOM     56  H   UNL A   1      43.220  28.485  28.543  1.00  0.00     0.167 HD
ATOM     57  C   UNL A   1      39.673  30.467  30.280  1.00  0.00     0.034 A 
ATOM     58  C   UNL A   1      45.779  28.424  27.418  1.00  0.00     0.034 A 
ATOM     59  C   UNL A   1      40.689  31.487  30.203  1.00  0.00     0.049 A 
ATOM     60  C   UNL A   1      45.534  29.850  27.858  1.00  0.00     0.074 A 
ATOM     61  C   UNL A   1      40.632  32.797  30.644  1.00  0.00     0.029 A 
ATOM     62  N   UNL A   1      41.948  31.312  29.640  1.00  0.00    -0.354 N 
ATOM     63  N   UNL A   1      44.462  30.373  28.413  1.00  0.00    -0.248 NA
ATOM     64  C   UNL A   1      46.629  30.807  27.654  1.00  0.00     0.031 C 
ATOM     65  C   UNL A   1      41.823  33.433  30.282  1.00  0.00     0.029 A 
ATOM     66  C   UNL A   1      42.664  32.497  29.701  1.00  0.00     0.049 A 
ATOM     67  H   UNL A   1      42.282  30.470  29.255  1.00  0.00     0.167 HD
ATOM     68  C   UNL A   1      44.780  31.705  28.671  1.00  0.00     0.074 A 
ATOM     69  C   UNL A   1      46.137  31.905  28.209  1.00  0.00     0.031 C 
ATOM     70  C   UNL A   1      44.024  32.673  29.249  1.00  0.00     0.034 A 
BRANCH  57  71
ATOM     71  C   UNL A   1      38.330  30.814  30.876  1.00  0.00     0.023 A 
ATOM     72  C   UNL A   1      37.338  31.474  30.130  1.00  0.00     0.031 A 
ATOM     73  C   UNL A   1      38.046  30.504  32.218  1.00  0.00     0.131 A 
ATOM     74  C   UNL A   1      36.141  31.865  30.750  1.00  0.00     0.055 A 
ATOM     75  C   UNL A   1      36.819  30.819  32.803  1.00  0.00     0.041 A 
ATOM     76  F   UNL A   1      38.964  29.898  32.989  1.00  0.00    -0.206 F 
ATOM     77  C   UNL A   1      35.863  31.518  32.073  1.00  0.00     0.022 A 
BRANCH  74  78
ATOM     78  S   UNL A   1      35.018  32.964  29.843  1.00  0.00     0.124 S 
ATOM     79  O   UNL A   1      35.937  33.990  29.358  1.00  0.00    -0.237 OA
ATOM     80  O   UNL A   1      34.458  32.078  28.830  1.00  0.00    -0.237 OA
ATOM     81  O   UNL A   1      34.078  33.414  30.868  1.00  0.00    -0.744 OA
ENDBRANCH  74  78
ENDBRANCH  57  71
BRANCH  58  82
ATOM     82  C   UNL A   1      47.068  28.043  26.770  1.00  0.00     0.023 A 
ATOM     83  C   UNL A   1      47.209  28.079  25.374  1.00  0.00     0.031 A 
ATOM     84  C   UNL A   1      48.153  27.568  27.528  1.00  0.00     0.131 A 
ATOM     85  C   UNL A   1      48.380  27.592  24.775  1.00  0.00     0.055 A 
ATOM     86  C   UNL A   1      49.344  27.147  26.931  1.00  0.00     0.041 A 
ATOM     87  F   UNL A   1      48.074  27.506  28.867  1.00  0.00    -0.206 F 
ATOM     88  C   UNL A   1      49.455  27.141  25.544  1.00  0.00     0.022 A 
BRANCH  85  89
ATOM     89  S   UNL A   1      48.431  27.443  22.969  1.00  0.00     0.124 S 
ATOM     90  O   UNL A   1      48.316  26.000  22.789  1.00  0.00    -0.237 OA
ATOM     91  O   UNL A   1      47.273  28.234  22.567  1.00  0.00    -0.237 OA
ATOM     92  O   UNL A   1      49.728  28.014  22.617  1.00  0.00    -0.744 OA
ENDBRANCH  85  89
ENDBRANCH  58  82
BRANCH  70  93
ATOM     93  C   UNL A   1      44.677  34.011  29.502  1.00  0.00     0.023 A 
ATOM     94  C   UNL A   1      44.735  35.018  28.524  1.00  0.00     0.031 A 
ATOM     95  C   UNL A   1      45.234  34.285  30.766  1.00  0.00     0.131 A 
ATOM     96  C   UNL A   1      45.374  36.235  28.811  1.00  0.00     0.055 A 
ATOM     97  C   UNL A   1      45.812  35.519  31.065  1.00  0.00     0.041 A 
ATOM     98  F   UNL A   1      45.210  33.358  31.737  1.00  0.00    -0.206 F 
ATOM     99  C   UNL A   1      45.894  36.498  30.081  1.00  0.00     0.022 A 
BRANCH  96 100
ATOM    100  S   UNL A   1      45.590  37.445  27.478  1.00  0.00     0.124 S 
ATOM    101  O   UNL A   1      46.173  38.579  28.189  1.00  0.00    -0.237 OA
ATOM    102  O   UNL A   1      46.482  36.743  26.560  1.00  0.00    -0.237 OA
ATOM    103  O   UNL A   1      44.232  37.656  26.980  1.00  0.00    -0.744 OA
ENDBRANCH  96 100
ENDBRANCH  70  93
ENDBRANCH  44  45
ENDBRANCH  37  39
ENDBRANCH  36  37
ENDBRANCH  35  36
ENDBRANCH  34  35
ENDBRANCH   1  34
TORSDOF 21
ENDMDL
MODEL 2
REMARK VINA RESULT:     -12.3      1.672      7.396
REMARK SMILES NS(=O)(=O)c1ccc(-c2cc(Cl)cc3c2O[C@@H](C(F)(F)F)C(C(=O)OCCOCCOC(=O)c2ccc(-c4c5nc(c(-c6cc(S(=O)(=O)[O-])ccc6F)c6ccc([nH]6)c(-c6cc(S(=O)(=O)[O-])ccc6F)c6nc(c(-c7cc(S(=O)(=O)[O-])ccc7F)c7ccc4[nH]7)C=C6)C=C5)cc2)=C3)cc1
REMARK SMILES IDX 28 1 27 2 26 3 25 4 23 5 24 6 22 7 9 8 10 9 15 10 11 11
REMARK SMILES IDX 14 12 16 13 12 14 13 15 97 16 17 17 8 18 5 19 6 20 99 21
REMARK SMILES IDX 7 22 98 23 2 24 3 25 4 26 1 27 18 30 19 31 20 32 21 33 29 34
REMARK SMILES IDX 30 35 31 36 32 37 33 38 34 39 35 40 96 41 36 42 95 43 37 44
REMARK SMILES IDX 38 45 39 46 89 47 40 48 94 49 88 50 90 51 41 52 93 53 87 54
REMARK SMILES IDX 86 55 42 57 74 58 54 59 73 60 55 61 58 62 72 63 91 64 56 65
REMARK SMILES IDX 57 66 71 68 92 69 59 70 43 71 44 72 52 73 45 74 51 75 53 76
REMARK SMILES IDX 50 77 46 78 47 79 48 80 49 81 75 82 76 83 84 84 77 85 83 86
REMARK SMILES IDX 85 87 82 88 78 89 79 90 80 91 81 92 60 93 61 94 69 95 62 96
REMARK SMILES IDX 68 97 70 98 67 99 63 100 64 101 65 102 66 103
REMARK H PARENT 1 28 1 29 90 56 58 67
REMARK Flexibility Score: inf
ROOT
ATOM      1  O   UNL A   1      37.246  21.123  25.237  1.00  0.00    -0.374 OA
ENDROOT
BRANCH   1   2
ATOM      2  C   UNL A   1      35.852  21.397  25.189  1.00  0.00     0.202 C 
BRANCH   2   3
ATOM      3  C   UNL A   1      35.171  21.949  26.451  1.00  0.00     0.261 C 
BRANCH   3   4
ATOM      4  O   UNL A   1      34.167  22.940  26.170  1.00  0.00    -0.460 OA
BRANCH   4   5
ATOM      5  C   UNL A   1      32.969  22.738  26.749  1.00  0.00     0.338 C 
ATOM      6  O   UNL A   1      32.789  22.434  27.922  1.00  0.00    -0.246 OA
BRANCH   5   7
ATOM      7  C   UNL A   1      31.835  23.094  25.864  1.00  0.00     0.087 C 
ATOM      8  C   UNL A   1      32.073  26.683  23.779  1.00  0.00     0.026 A 
ATOM      9  C   UNL A   1      33.021  27.448  24.495  1.00  0.00     0.033 A 
ATOM     10  C   UNL A   1      31.753  25.439  24.364  1.00  0.00     0.135 A 
ATOM     11  C   UNL A   1      33.281  27.183  25.840  1.00  0.00     0.042 A 
ATOM     12  C   UNL A   1      31.784  25.324  25.762  1.00  0.00     0.019 A 
ATOM     13  O   UNL A   1      31.969  24.251  23.630  1.00  0.00    -0.475 OA
ATOM     14  Cl  UNL A   1      34.376  28.184  26.706  1.00  0.00    -0.084 Cl
ATOM     15  C   UNL A   1      32.584  26.184  26.504  1.00  0.00     0.032 A 
ATOM     16  C   UNL A   1      31.165  24.136  26.384  1.00  0.00     0.027 C 
ATOM     17  C   UNL A   1      31.739  22.972  24.358  1.00  0.00     0.316 C 
BRANCH   8  18
ATOM     18  C   UNL A   1      31.048  27.549  23.071  1.00  0.00    -0.015 A 
ATOM     19  C   UNL A   1      29.226  29.655  22.435  1.00  0.00     0.082 A 
ATOM     20  C   UNL A   1      30.551  29.720  22.004  1.00  0.00     0.022 A 
ATOM     21  C   UNL A   1      28.782  28.530  23.131  1.00  0.00     0.022 A 
ATOM     22  C   UNL A   1      31.440  28.670  22.302  1.00  0.00     0.010 A 
ATOM     23  C   UNL A   1      29.682  27.489  23.433  1.00  0.00     0.010 A 
BRANCH  19  24
ATOM     24  S   UNL A   1      28.152  31.053  22.231  1.00  0.00     0.238 S 
ATOM     25  O   UNL A   1      27.274  31.160  23.377  1.00  0.00    -0.207 OA
ATOM     26  O   UNL A   1      27.653  31.077  20.878  1.00  0.00    -0.207 OA
BRANCH  24  27
ATOM     27  N   UNL A   1      29.202  32.357  22.358  1.00  0.00    -0.225 NA
ATOM     28  H   UNL A   1      30.098  32.115  21.935  1.00  0.00     0.137 HD
ATOM     29  H   UNL A   1      29.341  32.586  23.342  1.00  0.00     0.137 HD
ENDBRANCH  24  27
ENDBRANCH  19  24
ENDBRANCH   8  18
BRANCH  17  30
ATOM     30  C   UNL A   1      32.374  21.697  23.759  1.00  0.00     0.430 C 
ATOM     31  F   UNL A   1      31.635  21.302  22.684  1.00  0.00    -0.167 F 
ATOM     32  F   UNL A   1      33.624  21.927  23.296  1.00  0.00    -0.167 F 
ATOM     33  F   UNL A   1      32.440  20.643  24.590  1.00  0.00    -0.167 F 
ENDBRANCH  17  30
ENDBRANCH   5   7
ENDBRANCH   4   5
ENDBRANCH   3   4
ENDBRANCH   2   3
ENDBRANCH   1   2
BRANCH   1  34
ATOM     34  C   UNL A   1      37.693  19.830  24.835  1.00  0.00     0.202 C 
BRANCH  34  35
ATOM     35  C   UNL A   1      39.040  19.317  25.351  1.00  0.00     0.261 C 
BRANCH  35  36
ATOM     36  O   UNL A   1      39.386  19.822  26.648  1.00  0.00    -0.460 OA
BRANCH  36  37
ATOM     37  C   UNL A   1      40.700  20.116  26.806  1.00  0.00     0.338 C 
ATOM     38  O   UNL A   1      41.653  19.398  26.558  1.00  0.00    -0.246 OA
BRANCH  37  39
ATOM     39  C   UNL A   1      40.839  21.530  27.187  1.00  0.00     0.060 A 
ATOM     40  C   UNL A   1      40.156  22.497  26.438  1.00  0.00     0.016 A 
ATOM     41  C   UNL A   1      41.714  21.899  28.208  1.00  0.00     0.016 A 
ATOM     42  C   UNL A   1      40.374  23.851  26.690  1.00  0.00     0.010 A 
ATOM     43  C   UNL A   1      41.938  23.254  28.451  1.00  0.00     0.010 A 
ATOM     44  C   UNL A   1      41.294  24.235  27.673  1.00  0.00    -0.014 A 
BRANCH  44  45
ATOM     45  C   UNL A   1      41.736  25.644  27.788  1.00  0.00     0.031 A 
ATOM     46  C   UNL A   1      43.112  26.003  27.298  1.00  0.00     0.074 A 
ATOM     47  C   UNL A   1      40.942  26.575  28.347  1.00  0.00     0.049 A 
ATOM     48  N   UNL A   1      43.789  27.108  27.454  1.00  0.00    -0.248 NA
ATOM     49  C   UNL A   1      43.821  24.959  26.542  1.00  0.00     0.031 C 
ATOM     50  C   UNL A   1      39.569  26.355  28.795  1.00  0.00     0.029 A 
ATOM     51  N   UNL A   1      41.191  27.890  28.651  1.00  0.00    -0.354 N 
ATOM     52  C   UNL A   1      45.012  26.891  26.830  1.00  0.00     0.074 A 
ATOM     53  C   UNL A   1      44.994  25.534  26.327  1.00  0.00     0.031 C 
ATOM     54  C   UNL A   1      39.101  27.493  29.337  1.00  0.00     0.029 A 
ATOM     55  C   UNL A   1      40.159  28.501  29.325  1.00  0.00     0.049 A 
ATOM     56  H   UNL A   1      42.027  28.350  28.411  1.00  0.00     0.167 HD
ATOM     57  C   UNL A   1      46.051  27.750  26.687  1.00  0.00     0.034 A 
ATOM     58  C   UNL A   1      40.098  29.719  29.902  1.00  0.00     0.034 A 
ATOM     59  C   UNL A   1      46.049  29.094  27.211  1.00  0.00     0.049 A 
ATOM     60  C   UNL A   1      41.309  30.622  29.828  1.00  0.00     0.074 A 
ATOM     61  C   UNL A   1      47.045  30.050  27.136  1.00  0.00     0.029 A 
ATOM     62  N   UNL A   1      44.998  29.669  27.914  1.00  0.00    -0.354 N 
ATOM     63  N   UNL A   1      42.474  30.401  29.258  1.00  0.00    -0.248 NA
ATOM     64  C   UNL A   1      41.198  31.938  30.469  1.00  0.00     0.031 C 
ATOM     65  C   UNL A   1      46.629  31.173  27.857  1.00  0.00     0.029 A 
ATOM     66  C   UNL A   1      45.333  30.957  28.300  1.00  0.00     0.049 A 
ATOM     67  H   UNL A   1      44.140  29.227  28.109  1.00  0.00     0.167 HD
ATOM     68  C   UNL A   1      43.208  31.573  29.428  1.00  0.00     0.074 A 
ATOM     69  C   UNL A   1      42.360  32.493  30.154  1.00  0.00     0.031 C 
ATOM     70  C   UNL A   1      44.467  31.867  29.011  1.00  0.00     0.034 A 
BRANCH  57  71
ATOM     71  C   UNL A   1      47.285  27.240  25.983  1.00  0.00     0.023 A 
ATOM     72  C   UNL A   1      48.284  26.525  26.667  1.00  0.00     0.031 A 
ATOM     73  C   UNL A   1      47.480  27.494  24.614  1.00  0.00     0.131 A 
ATOM     74  C   UNL A   1      49.461  26.153  25.999  1.00  0.00     0.055 A 
ATOM     75  C   UNL A   1      48.615  27.045  23.936  1.00  0.00     0.041 A 
ATOM     76  F   UNL A   1      46.575  28.195  23.913  1.00  0.00    -0.206 F 
ATOM     77  C   UNL A   1      49.621  26.383  24.632  1.00  0.00     0.022 A 
BRANCH  74  78
ATOM     78  S   UNL A   1      50.840  25.498  26.978  1.00  0.00     0.124 S 
ATOM     79  O   UNL A   1      50.145  24.615  27.912  1.00  0.00    -0.237 OA
ATOM     80  O   UNL A   1      51.660  24.840  25.967  1.00  0.00    -0.237 OA
ATOM     81  O   UNL A   1      51.430  26.691  27.580  1.00  0.00    -0.744 OA
ENDBRANCH  74  78
ENDBRANCH  57  71
BRANCH  58  82
ATOM     82  C   UNL A   1      38.874  30.154  30.636  1.00  0.00     0.023 A 
ATOM     83  C   UNL A   1      37.880  30.907  29.992  1.00  0.00     0.031 A 
ATOM     84  C   UNL A   1      38.712  29.888  32.007  1.00  0.00     0.131 A 
ATOM     85  C   UNL A   1      36.802  31.420  30.729  1.00  0.00     0.055 A 
ATOM     86  C   UNL A   1      37.602  30.344  32.723  1.00  0.00     0.041 A 
ATOM     87  F   UNL A   1      39.633  29.177  32.677  1.00  0.00    -0.206 F 
ATOM     88  C   UNL A   1      36.647  31.130  32.087  1.00  0.00     0.022 A 
BRANCH  85  89
ATOM     89  S   UNL A   1      35.667  32.574  29.913  1.00  0.00     0.124 S 
ATOM     90  O   UNL A   1      35.598  32.016  28.567  1.00  0.00    -0.237 OA
ATOM     91  O   UNL A   1      34.462  32.440  30.725  1.00  0.00    -0.237 OA
ATOM     92  O   UNL A   1      36.351  33.859  30.021  1.00  0.00    -0.744 OA
ENDBRANCH  85  89
ENDBRANCH  58  82
BRANCH  70  93
ATOM     93  C   UNL A   1      44.969  33.272  29.245  1.00  0.00     0.023 A 
ATOM     94  C   UNL A   1      44.840  34.288  28.283  1.00  0.00     0.031 A 
ATOM     95  C   UNL A   1      45.570  33.599  30.476  1.00  0.00     0.131 A 
ATOM     96  C   UNL A   1      45.344  35.571  28.550  1.00  0.00     0.055 A 
ATOM     97  C   UNL A   1      46.013  34.891  30.759  1.00  0.00     0.041 A 
ATOM     98  F   UNL A   1      45.723  32.667  31.429  1.00  0.00    -0.206 F 
ATOM     99  C   UNL A   1      45.911  35.883  29.790  1.00  0.00     0.022 A 
BRANCH  96 100
ATOM    100  S   UNL A   1      45.325  36.812  27.228  1.00  0.00     0.124 S 
ATOM    101  O   UNL A   1      43.895  36.970  26.982  1.00  0.00    -0.237 OA
ATOM    102  O   UNL A   1      45.993  37.947  27.856  1.00  0.00    -0.237 OA
ATOM    103  O   UNL A   1      46.074  36.174  26.146  1.00  0.00    -0.744 OA
ENDBRANCH  96 100
ENDBRANCH  70  93
ENDBRANCH  44  45
ENDBRANCH  37  39
ENDBRANCH  36  37
ENDBRANCH  35  36
ENDBRANCH  34  35
ENDBRANCH   1  34
TORSDOF 21
ENDMDL
MODEL 3
REMARK VINA RESULT:     -12.3      5.379     10.413
REMARK SMILES NS(=O)(=O)c1ccc(-c2cc(Cl)cc3c2O[C@@H](C(F)(F)F)C(C(=O)OCCOCCOC(=O)c2ccc(-c4c5nc(c(-c6cc(S(=O)(=O)[O-])ccc6F)c6ccc([nH]6)c(-c6cc(S(=O)(=O)[O-])ccc6F)c6nc(c(-c7cc(S(=O)(=O)[O-])ccc7F)c7ccc4[nH]7)C=C6)C=C5)cc2)=C3)cc1
REMARK SMILES IDX 28 1 27 2 26 3 25 4 23 5 24 6 22 7 9 8 10 9 15 10 11 11
REMARK SMILES IDX 14 12 16 13 12 14 13 15 97 16 17 17 8 18 5 19 6 20 99 21
REMARK SMILES IDX 7 22 98 23 2 24 3 25 4 26 1 27 18 30 19 31 20 32 21 33 29 34
REMARK SMILES IDX 30 35 31 36 32 37 33 38 34 39 35 40 96 41 36 42 95 43 37 44
REMARK SMILES IDX 38 45 39 46 89 47 40 48 94 49 88 50 90 51 41 52 93 53 87 54
REMARK SMILES IDX 86 55 42 57 74 58 54 59 73 60 55 61 58 62 72 63 91 64 56 65
REMARK SMILES IDX 57 66 71 68 92 69 59 70 43 71 44 72 52 73 45 74 51 75 53 76
REMARK SMILES IDX 50 77 46 78 47 79 48 80 49 81 75 82 76 83 84 84 77 85 83 86
REMARK SMILES IDX 85 87 82 88 78 89 79 90 80 91 81 92 60 93 61 94 69 95 62 96
REMARK SMILES IDX 68 97 70 98 67 99 63 100 64 101 65 102 66 103
REMARK H PARENT 1 28 1 29 90 56 58 67
REMARK Flexibility Score: inf
ROOT
ATOM      1  O   UNL A   1      31.457  28.957  25.768  1.00  0.00    -0.374 OA
ENDROOT
BRANCH   1   2
ATOM      2  C   UNL A   1      32.151  29.223  24.556  1.00  0.00     0.202 C 
BRANCH   2   3
ATOM      3  C   UNL A   1      33.447  28.447  24.270  1.00  0.00     0.261 C 
BRANCH   3   4
ATOM      4  O   UNL A   1      33.225  27.061  23.961  1.00  0.00    -0.460 OA
BRANCH   4   5
ATOM      5  C   UNL A   1      33.053  26.772  22.658  1.00  0.00     0.338 C 
ATOM      6  O   UNL A   1      33.582  27.363  21.724  1.00  0.00    -0.246 OA
BRANCH   5   7
ATOM      7  C   UNL A   1      32.278  25.528  22.442  1.00  0.00     0.087 C 
ATOM      8  C   UNL A   1      33.051  22.315  24.966  1.00  0.00     0.026 A 
ATOM      9  C   UNL A   1      34.335  22.579  25.493  1.00  0.00     0.033 A 
ATOM     10  C   UNL A   1      32.609  23.239  23.995  1.00  0.00     0.135 A 
ATOM     11  C   UNL A   1      35.227  23.411  24.816  1.00  0.00     0.042 A 
ATOM     12  C   UNL A   1      33.560  23.848  23.161  1.00  0.00     0.019 A 
ATOM     13  O   UNL A   1      31.413  23.960  24.215  1.00  0.00    -0.475 OA
ATOM     14  Cl  UNL A   1      36.811  23.644  25.439  1.00  0.00    -0.084 Cl
ATOM     15  C   UNL A   1      34.876  23.964  23.593  1.00  0.00     0.032 A 
ATOM     16  C   UNL A   1      33.088  24.569  21.962  1.00  0.00     0.027 C 
ATOM     17  C   UNL A   1      31.082  25.014  23.216  1.00  0.00     0.316 C 
BRANCH   8  18
ATOM     18  C   UNL A   1      32.752  20.830  24.887  1.00  0.00    -0.015 A 
ATOM     19  C   UNL A   1      33.036  17.997  24.662  1.00  0.00     0.082 A 
ATOM     20  C   UNL A   1      33.026  18.603  25.917  1.00  0.00     0.022 A 
ATOM     21  C   UNL A   1      32.852  18.776  23.519  1.00  0.00     0.022 A 
ATOM     22  C   UNL A   1      32.866  19.998  26.025  1.00  0.00     0.010 A 
ATOM     23  C   UNL A   1      32.701  20.172  23.636  1.00  0.00     0.010 A 
BRANCH  19  24
ATOM     24  S   UNL A   1      33.428  16.274  24.506  1.00  0.00     0.238 S 
ATOM     25  O   UNL A   1      33.895  16.002  23.163  1.00  0.00    -0.207 OA
ATOM     26  O   UNL A   1      32.389  15.490  25.128  1.00  0.00    -0.207 OA
BRANCH  24  27
ATOM     27  N   UNL A   1      34.782  16.104  25.485  1.00  0.00    -0.225 NA
ATOM     28  H   UNL A   1      35.623  16.123  24.909  1.00  0.00     0.137 HD
ATOM     29  H   UNL A   1      34.731  15.215  25.983  1.00  0.00     0.137 HD
ENDBRANCH  24  27
ENDBRANCH  19  24
ENDBRANCH   8  18
BRANCH  17  30
ATOM     30  C   UNL A   1      30.062  26.092  23.643  1.00  0.00     0.430 C 
ATOM     31  F   UNL A   1      30.157  27.150  22.788  1.00  0.00    -0.167 F 
ATOM     32  F   UNL A   1      28.788  25.645  23.551  1.00  0.00    -0.167 F 
ATOM     33  F   UNL A   1      30.228  26.582  24.884  1.00  0.00    -0.167 F 
ENDBRANCH  17  30
ENDBRANCH   5   7
ENDBRANCH   4   5
ENDBRANCH   3   4
ENDBRANCH   2   3
ENDBRANCH   1   2
BRANCH   1  34
ATOM     34  C   UNL A   1      31.877  29.640  26.948  1.00  0.00     0.202 C 
BRANCH  34  35
ATOM     35  C   UNL A   1      32.127  31.149  26.883  1.00  0.00     0.261 C 
BRANCH  35  36
ATOM     36  O   UNL A   1      33.511  31.494  26.729  1.00  0.00    -0.460 OA
BRANCH  36  37
ATOM     37  C   UNL A   1      34.016  32.254  27.733  1.00  0.00     0.338 C 
ATOM     38  O   UNL A   1      33.448  33.138  28.350  1.00  0.00    -0.246 OA
BRANCH  37  39
ATOM     39  C   UNL A   1      35.347  31.748  28.101  1.00  0.00     0.060 A 
ATOM     40  C   UNL A   1      35.491  30.385  28.391  1.00  0.00     0.016 A 
ATOM     41  C   UNL A   1      36.416  32.631  28.255  1.00  0.00     0.016 A 
ATOM     42  C   UNL A   1      36.708  29.903  28.873  1.00  0.00     0.010 A 
ATOM     43  C   UNL A   1      37.628  32.147  28.746  1.00  0.00     0.010 A 
ATOM     44  C   UNL A   1      37.769  30.789  29.088  1.00  0.00    -0.014 A 
BRANCH  44  45
ATOM     45  C   UNL A   1      38.977  30.359  29.831  1.00  0.00     0.031 A 
ATOM     46  C   UNL A   1      39.850  29.298  29.221  1.00  0.00     0.074 A 
ATOM     47  C   UNL A   1      39.270  30.880  31.037  1.00  0.00     0.049 A 
ATOM     48  N   UNL A   1      40.842  28.632  29.748  1.00  0.00    -0.248 NA
ATOM     49  C   UNL A   1      39.546  28.933  27.828  1.00  0.00     0.031 C 
ATOM     50  C   UNL A   1      38.533  31.958  31.692  1.00  0.00     0.029 A 
ATOM     51  N   UNL A   1      40.256  30.551  31.932  1.00  0.00    -0.354 N 
ATOM     52  C   UNL A   1      41.273  27.755  28.759  1.00  0.00     0.074 A 
ATOM     53  C   UNL A   1      40.408  27.952  27.614  1.00  0.00     0.031 C 
ATOM     54  C   UNL A   1      39.081  32.189  32.898  1.00  0.00     0.029 A 
ATOM     55  C   UNL A   1      40.169  31.238  33.120  1.00  0.00     0.049 A 
ATOM     56  H   UNL A   1      40.957  29.887  31.742  1.00  0.00     0.167 HD
ATOM     57  C   UNL A   1      42.302  26.872  28.803  1.00  0.00     0.034 A 
ATOM     58  C   UNL A   1      40.863  31.083  34.267  1.00  0.00     0.034 A 
ATOM     59  C   UNL A   1      43.140  26.686  29.962  1.00  0.00     0.049 A 
ATOM     60  C   UNL A   1      41.932  30.016  34.333  1.00  0.00     0.074 A 
ATOM     61  C   UNL A   1      44.202  25.817  30.127  1.00  0.00     0.029 A 
ATOM     62  N   UNL A   1      43.004  27.380  31.159  1.00  0.00    -0.354 N 
ATOM     63  N   UNL A   1      42.319  29.171  33.402  1.00  0.00    -0.248 NA
ATOM     64  C   UNL A   1      42.662  29.883  35.601  1.00  0.00     0.031 C 
ATOM     65  C   UNL A   1      44.659  25.929  31.443  1.00  0.00     0.029 A 
ATOM     66  C   UNL A   1      43.947  26.938  32.073  1.00  0.00     0.049 A 
ATOM     67  H   UNL A   1      42.336  28.082  31.331  1.00  0.00     0.167 HD
ATOM     68  C   UNL A   1      43.372  28.448  33.959  1.00  0.00     0.074 A 
ATOM     69  C   UNL A   1      43.556  28.951  35.303  1.00  0.00     0.031 C 
ATOM     70  C   UNL A   1      44.127  27.464  33.405  1.00  0.00     0.034 A 
BRANCH  57  71
ATOM     71  C   UNL A   1      42.534  26.013  27.585  1.00  0.00     0.023 A 
ATOM     72  C   UNL A   1      41.994  24.719  27.478  1.00  0.00     0.031 A 
ATOM     73  C   UNL A   1      43.330  26.482  26.525  1.00  0.00     0.131 A 
ATOM     74  C   UNL A   1      42.314  23.916  26.373  1.00  0.00     0.055 A 
ATOM     75  C   UNL A   1      43.574  25.709  25.388  1.00  0.00     0.041 A 
ATOM     76  F   UNL A   1      43.897  27.698  26.581  1.00  0.00    -0.206 F 
ATOM     77  C   UNL A   1      43.077  24.411  25.314  1.00  0.00     0.022 A 
BRANCH  74  78
ATOM     78  S   UNL A   1      41.843  22.165  26.412  1.00  0.00     0.124 S 
ATOM     79  O   UNL A   1      40.396  22.245  26.223  1.00  0.00    -0.237 OA
ATOM     80  O   UNL A   1      42.602  21.608  25.298  1.00  0.00    -0.237 OA
ATOM     81  O   UNL A   1      42.269  21.725  27.739  1.00  0.00    -0.744 OA
ENDBRANCH  74  78
ENDBRANCH  57  71
BRANCH  58  82
ATOM     82  C   UNL A   1      40.554  31.920  35.462  1.00  0.00     0.023 A 
ATOM     83  C   UNL A   1      39.426  31.655  36.254  1.00  0.00     0.031 A 
ATOM     84  C   UNL A   1      41.339  33.040  35.791  1.00  0.00     0.131 A 
ATOM     85  C   UNL A   1      39.077  32.532  37.293  1.00  0.00     0.055 A 
ATOM     86  C   UNL A   1      41.026  33.872  36.869  1.00  0.00     0.041 A 
ATOM     87  F   UNL A   1      42.427  33.346  35.066  1.00  0.00    -0.206 F 
ATOM     88  C   UNL A   1      39.878  33.628  37.617  1.00  0.00     0.022 A 
BRANCH  85  89
ATOM     89  S   UNL A   1      37.493  32.283  38.140  1.00  0.00     0.124 S 
ATOM     90  O   UNL A   1      37.763  32.872  39.447  1.00  0.00    -0.237 OA
ATOM     91  O   UNL A   1      36.572  33.020  37.282  1.00  0.00    -0.237 OA
ATOM     92  O   UNL A   1      37.326  30.832  38.131  1.00  0.00    -0.744 OA
ENDBRANCH  85  89
ENDBRANCH  58  82
BRANCH  70  93
ATOM     93  C   UNL A   1      45.284  26.932  34.217  1.00  0.00     0.023 A 
ATOM     94  C   UNL A   1      45.155  25.829  35.079  1.00  0.00     0.031 A 
ATOM     95  C   UNL A   1      46.550  27.537  34.102  1.00  0.00     0.131 A 
ATOM     96  C   UNL A   1      46.261  25.392  35.824  1.00  0.00     0.055 A 
ATOM     97  C   UNL A   1      47.661  27.059  34.798  1.00  0.00     0.041 A 
ATOM     98  F   UNL A   1      46.729  28.596  33.297  1.00  0.00    -0.206 F 
ATOM     99  C   UNL A   1      47.517  25.988  35.673  1.00  0.00     0.022 A 
BRANCH  96 100
ATOM    100  S   UNL A   1      46.024  24.084  37.057  1.00  0.00     0.124 S 
ATOM    101  O   UNL A   1      45.587  22.964  36.231  1.00  0.00    -0.237 OA
ATOM    102  O   UNL A   1      47.356  23.963  37.643  1.00  0.00    -0.237 OA
ATOM    103  O   UNL A   1      45.004  24.633  37.949  1.00  0.00    -0.744 OA
ENDBRANCH  96 100
ENDBRANCH  70  93
ENDBRANCH  44  45
ENDBRANCH  37  39
ENDBRANCH  36  37
ENDBRANCH  35  36
ENDBRANCH  34  35
ENDBRANCH   1  34
TORSDOF 21
ENDMDL
