MODEL 1
REMARK VINA RESULT:     -11.7      0.000      0.000
REMARK SMILES C#Cc1cc(Cl)cc2c1O[C@H](C(F)(F)F)C(C(=O)OCCOCCOC(=O)c1ccc(-c3c4nc(c(-c5cc(S(=O)(=O)[O-])ccc5F)c5ccc([nH]5)c(-c5cc(S(=O)(=O)[O-])ccc5F)c5nc(c(-c6cc(S(=O)(=O)[O-])ccc6F)c6ccc3[nH]6)C=C5)C=C4)cc1)=C2
REMARK SMILES IDX 23 1 22 2 21 3 20 4 19 5 17 6 18 7 16 8 3 9 4 10 9 11 5 12
REMARK SMILES IDX 8 13 10 14 6 15 7 16 91 17 11 18 2 19 1 20 12 21 13 22 14 23
REMARK SMILES IDX 15 24 24 25 25 26 26 27 27 28 28 29 29 30 90 31 30 32 89 33
REMARK SMILES IDX 31 34 32 35 33 36 83 37 34 38 88 39 82 40 84 41 35 42 87 43
REMARK SMILES IDX 81 44 80 45 36 47 68 48 48 49 67 50 49 51 52 52 66 53 85 54
REMARK SMILES IDX 50 55 51 56 65 58 86 59 53 60 37 61 38 62 46 63 39 64 45 65
REMARK SMILES IDX 47 66 44 67 40 68 41 69 42 70 43 71 69 72 70 73 78 74 71 75
REMARK SMILES IDX 77 76 79 77 76 78 72 79 73 80 74 81 75 82 54 83 55 84 63 85
REMARK SMILES IDX 56 86 62 87 64 88 61 89 57 90 58 91 59 92 60 93
REMARK H PARENT 84 46 52 57
REMARK Flexibility Score: inf
ROOT
ATOM      1  C   UNL A   1      35.251  21.563  25.273  1.00  0.00     0.202 C 
ENDROOT
BRANCH   1   2
ATOM      2  O   UNL A   1      34.027  21.036  25.777  1.00  0.00    -0.374 OA
BRANCH   2   3
ATOM      3  C   UNL A   1      32.929  20.862  24.886  1.00  0.00     0.202 C 
BRANCH   3   4
ATOM      4  C   UNL A   1      31.606  21.573  25.187  1.00  0.00     0.261 C 
BRANCH   4   5
ATOM      5  O   UNL A   1      31.769  22.987  25.358  1.00  0.00    -0.460 OA
BRANCH   5   6
ATOM      6  C   UNL A   1      31.718  23.693  24.204  1.00  0.00     0.338 C 
ATOM      7  O   UNL A   1      31.760  23.249  23.068  1.00  0.00    -0.246 OA
BRANCH   6   8
ATOM      8  C   UNL A   1      31.446  25.111  24.503  1.00  0.00     0.087 C 
ATOM      9  C   UNL A   1      30.999  29.240  24.851  1.00  0.00     0.068 A 
ATOM     10  C   UNL A   1      30.204  29.920  23.922  1.00  0.00     0.041 A 
ATOM     11  C   UNL A   1      31.070  27.838  24.824  1.00  0.00     0.143 A 
ATOM     12  C   UNL A   1      29.468  29.203  22.983  1.00  0.00     0.043 A 
ATOM     13  C   UNL A   1      30.357  27.133  23.850  1.00  0.00     0.020 A 
ATOM     14  O   UNL A   1      31.837  27.216  25.771  1.00  0.00    -0.474 OA
ATOM     15  Cl  UNL A   1      28.498  30.040  21.834  1.00  0.00    -0.084 Cl
ATOM     16  C   UNL A   1      29.536  27.814  22.944  1.00  0.00     0.032 A 
ATOM     17  C   UNL A   1      30.541  25.701  23.714  1.00  0.00     0.027 C 
ATOM     18  C   UNL A   1      32.190  25.814  25.603  1.00  0.00     0.316 C 
BRANCH   9  19
ATOM     19  C   UNL A   1      31.776  30.006  25.780  1.00  0.00    -0.067 C 
ATOM     20  C   UNL A   1      32.455  30.634  26.549  1.00  0.00     0.010 C 
ENDBRANCH   9  19
BRANCH  18  21
ATOM     21  C   UNL A   1      33.713  25.712  25.441  1.00  0.00     0.430 C 
ATOM     22  F   UNL A   1      34.337  26.802  25.948  1.00  0.00    -0.167 F 
ATOM     23  F   UNL A   1      34.218  24.636  26.085  1.00  0.00    -0.167 F 
ATOM     24  F   UNL A   1      34.069  25.609  24.139  1.00  0.00    -0.167 F 
ENDBRANCH  18  21
ENDBRANCH   6   8
ENDBRANCH   5   6
ENDBRANCH   4   5
ENDBRANCH   3   4
ENDBRANCH   2   3
ENDBRANCH   1   2
BRANCH   1  25
ATOM     25  C   UNL A   1      36.530  20.715  25.293  1.00  0.00     0.261 C 
BRANCH  25  26
ATOM     26  O   UNL A   1      37.730  21.446  24.997  1.00  0.00    -0.460 OA
BRANCH  26  27
ATOM     27  C   UNL A   1      38.784  21.121  25.789  1.00  0.00     0.338 C 
ATOM     28  O   UNL A   1      39.321  20.031  25.886  1.00  0.00    -0.246 OA
BRANCH  27  29
ATOM     29  C   UNL A   1      39.340  22.341  26.400  1.00  0.00     0.060 A 
ATOM     30  C   UNL A   1      38.777  23.573  26.044  1.00  0.00     0.016 A 
ATOM     31  C   UNL A   1      40.454  22.278  27.235  1.00  0.00     0.016 A 
ATOM     32  C   UNL A   1      39.350  24.756  26.502  1.00  0.00     0.010 A 
ATOM     33  C   UNL A   1      41.037  23.468  27.680  1.00  0.00     0.010 A 
ATOM     34  C   UNL A   1      40.507  24.712  27.290  1.00  0.00    -0.014 A 
BRANCH  34  35
ATOM     35  C   UNL A   1      41.243  25.965  27.579  1.00  0.00     0.031 A 
ATOM     36  C   UNL A   1      40.566  27.036  28.391  1.00  0.00     0.074 A 
ATOM     37  C   UNL A   1      42.514  26.126  27.167  1.00  0.00     0.049 A 
ATOM     38  N   UNL A   1      40.998  28.226  28.713  1.00  0.00    -0.248 NA
ATOM     39  C   UNL A   1      39.222  26.724  28.910  1.00  0.00     0.031 C 
ATOM     40  C   UNL A   1      43.296  25.129  26.435  1.00  0.00     0.029 A 
ATOM     41  N   UNL A   1      43.374  27.185  27.311  1.00  0.00    -0.354 N 
ATOM     42  C   UNL A   1      39.987  28.803  29.473  1.00  0.00     0.074 A 
ATOM     43  C   UNL A   1      38.900  27.850  29.528  1.00  0.00     0.031 C 
ATOM     44  C   UNL A   1      44.523  25.622  26.201  1.00  0.00     0.029 A 
ATOM     45  C   UNL A   1      44.602  26.986  26.722  1.00  0.00     0.049 A 
ATOM     46  H   UNL A   1      43.136  28.012  27.790  1.00  0.00     0.167 HD
ATOM     47  C   UNL A   1      39.976  30.011  30.083  1.00  0.00     0.034 A 
ATOM     48  C   UNL A   1      45.658  27.815  26.600  1.00  0.00     0.034 A 
ATOM     49  C   UNL A   1      41.067  30.948  30.029  1.00  0.00     0.049 A 
ATOM     50  C   UNL A   1      45.572  29.202  27.191  1.00  0.00     0.074 A 
ATOM     51  C   UNL A   1      41.150  32.201  30.613  1.00  0.00     0.029 A 
ATOM     52  N   UNL A   1      42.263  30.742  29.357  1.00  0.00    -0.354 N 
ATOM     53  N   UNL A   1      44.598  29.745  27.882  1.00  0.00    -0.248 NA
ATOM     54  C   UNL A   1      46.727  30.088  26.984  1.00  0.00     0.031 C 
ATOM     55  C   UNL A   1      42.363  32.780  30.235  1.00  0.00     0.029 A 
ATOM     56  C   UNL A   1      43.074  31.857  29.484  1.00  0.00     0.049 A 
ATOM     57  H   UNL A   1      42.500  29.923  28.863  1.00  0.00     0.167 HD
ATOM     58  C   UNL A   1      45.036  31.024  28.217  1.00  0.00     0.074 A 
ATOM     59  C   UNL A   1      46.365  31.169  27.662  1.00  0.00     0.031 C 
ATOM     60  C   UNL A   1      44.397  31.989  28.924  1.00  0.00     0.034 A 
BRANCH  47  61
ATOM     61  C   UNL A   1      38.745  30.407  30.854  1.00  0.00     0.023 A 
ATOM     62  C   UNL A   1      37.710  31.140  30.252  1.00  0.00     0.031 A 
ATOM     63  C   UNL A   1      38.574  29.981  32.183  1.00  0.00     0.131 A 
ATOM     64  C   UNL A   1      36.552  31.439  30.985  1.00  0.00     0.055 A 
ATOM     65  C   UNL A   1      37.397  30.232  32.887  1.00  0.00     0.041 A 
ATOM     66  F   UNL A   1      39.542  29.292  32.809  1.00  0.00    -0.206 F 
ATOM     67  C   UNL A   1      36.377  30.967  32.289  1.00  0.00     0.022 A 
BRANCH  64  68
ATOM     68  S   UNL A   1      35.292  32.497  30.224  1.00  0.00     0.124 S 
ATOM     69  O   UNL A   1      34.789  31.635  29.157  1.00  0.00    -0.237 OA
ATOM     70  O   UNL A   1      34.376  32.743  31.330  1.00  0.00    -0.237 OA
ATOM     71  O   UNL A   1      36.050  33.661  29.772  1.00  0.00    -0.744 OA
ENDBRANCH  64  68
ENDBRANCH  47  61
BRANCH  48  72
ATOM     72  C   UNL A   1      46.881  27.376  25.871  1.00  0.00     0.023 A 
ATOM     73  C   UNL A   1      47.089  27.740  24.531  1.00  0.00     0.031 A 
ATOM     74  C   UNL A   1      47.843  26.556  26.488  1.00  0.00     0.131 A 
ATOM     75  C   UNL A   1      48.214  27.260  23.843  1.00  0.00     0.055 A 
ATOM     76  C   UNL A   1      48.985  26.123  25.814  1.00  0.00     0.041 A 
ATOM     77  F   UNL A   1      47.691  26.176  27.767  1.00  0.00    -0.206 F 
ATOM     78  C   UNL A   1      49.171  26.467  24.480  1.00  0.00     0.022 A 
BRANCH  75  79
ATOM     79  S   UNL A   1      48.378  27.641  22.077  1.00  0.00     0.124 S 
ATOM     80  O   UNL A   1      48.599  26.316  21.509  1.00  0.00    -0.237 OA
ATOM     81  O   UNL A   1      47.092  28.262  21.780  1.00  0.00    -0.237 OA
ATOM     82  O   UNL A   1      49.528  28.541  22.029  1.00  0.00    -0.744 OA
ENDBRANCH  75  79
ENDBRANCH  48  72
BRANCH  60  83
ATOM     83  C   UNL A   1      45.129  33.284  29.169  1.00  0.00     0.023 A 
ATOM     84  C   UNL A   1      45.109  34.325  28.228  1.00  0.00     0.031 A 
ATOM     85  C   UNL A   1      45.798  33.501  30.388  1.00  0.00     0.131 A 
ATOM     86  C   UNL A   1      45.771  35.530  28.508  1.00  0.00     0.055 A 
ATOM     87  C   UNL A   1      46.407  34.720  30.683  1.00  0.00     0.041 A 
ATOM     88  F   UNL A   1      45.840  32.539  31.324  1.00  0.00    -0.206 F 
ATOM     89  C   UNL A   1      46.401  35.741  29.738  1.00  0.00     0.022 A 
BRANCH  86  90
ATOM     90  S   UNL A   1      45.828  36.808  27.225  1.00  0.00     0.124 S 
ATOM     91  O   UNL A   1      46.935  37.644  27.679  1.00  0.00    -0.237 OA
ATOM     92  O   UNL A   1      46.073  36.030  26.015  1.00  0.00    -0.237 OA
ATOM     93  O   UNL A   1      44.508  37.432  27.303  1.00  0.00    -0.744 OA
ENDBRANCH  86  90
ENDBRANCH  60  83
ENDBRANCH  34  35
ENDBRANCH  27  29
ENDBRANCH  26  27
ENDBRANCH  25  26
ENDBRANCH   1  25
TORSDOF 19
ENDMDL
MODEL 2
REMARK VINA RESULT:     -11.4      5.215     10.203
REMARK SMILES C#Cc1cc(Cl)cc2c1O[C@H](C(F)(F)F)C(C(=O)OCCOCCOC(=O)c1ccc(-c3c4nc(c(-c5cc(S(=O)(=O)[O-])ccc5F)c5ccc([nH]5)c(-c5cc(S(=O)(=O)[O-])ccc5F)c5nc(c(-c6cc(S(=O)(=O)[O-])ccc6F)c6ccc3[nH]6)C=C5)C=C4)cc1)=C2
REMARK SMILES IDX 23 1 22 2 21 3 20 4 19 5 17 6 18 7 16 8 3 9 4 10 9 11 5 12
REMARK SMILES IDX 8 13 10 14 6 15 7 16 91 17 11 18 2 19 1 20 12 21 13 22 14 23
REMARK SMILES IDX 15 24 24 25 25 26 26 27 27 28 28 29 29 30 90 31 30 32 89 33
REMARK SMILES IDX 31 34 32 35 33 36 83 37 34 38 88 39 82 40 84 41 35 42 87 43
REMARK SMILES IDX 81 44 80 45 36 47 68 48 48 49 67 50 49 51 52 52 66 53 85 54
REMARK SMILES IDX 50 55 51 56 65 58 86 59 53 60 37 61 38 62 46 63 39 64 45 65
REMARK SMILES IDX 47 66 44 67 40 68 41 69 42 70 43 71 69 72 70 73 78 74 71 75
REMARK SMILES IDX 77 76 79 77 76 78 72 79 73 80 74 81 75 82 54 83 55 84 63 85
REMARK SMILES IDX 56 86 62 87 64 88 61 89 57 90 58 91 59 92 60 93
REMARK H PARENT 84 46 52 57
REMARK Flexibility Score: inf
ROOT
ATOM      1  C   UNL A   1      31.589  29.230  24.955  1.00  0.00     0.202 C 
ENDROOT
BRANCH   1   2
ATOM      2  O   UNL A   1      30.386  29.325  24.197  1.00  0.00    -0.374 OA
BRANCH   2   3
ATOM      3  C   UNL A   1      30.196  28.452  23.088  1.00  0.00     0.202 C 
BRANCH   3   4
ATOM      4  C   UNL A   1      29.744  27.011  23.345  1.00  0.00     0.261 C 
BRANCH   4   5
ATOM      5  O   UNL A   1      30.842  26.091  23.395  1.00  0.00    -0.460 OA
BRANCH   5   6
ATOM      6  C   UNL A   1      30.915  25.381  24.546  1.00  0.00     0.338 C 
ATOM      7  O   UNL A   1      30.184  25.478  25.518  1.00  0.00    -0.246 OA
BRANCH   6   8
ATOM      8  C   UNL A   1      31.941  24.330  24.414  1.00  0.00     0.087 C 
ATOM      9  C   UNL A   1      34.802  21.308  24.641  1.00  0.00     0.068 A 
ATOM     10  C   UNL A   1      34.400  20.013  24.986  1.00  0.00     0.041 A 
ATOM     11  C   UNL A   1      33.843  22.314  24.444  1.00  0.00     0.143 A 
ATOM     12  C   UNL A   1      33.046  19.719  25.114  1.00  0.00     0.043 A 
ATOM     13  C   UNL A   1      32.488  22.015  24.617  1.00  0.00     0.020 A 
ATOM     14  O   UNL A   1      34.283  23.557  24.079  1.00  0.00    -0.474 OA
ATOM     15  Cl  UNL A   1      32.550  18.129  25.549  1.00  0.00    -0.084 Cl
ATOM     16  C   UNL A   1      32.087  20.710  24.927  1.00  0.00     0.032 A 
ATOM     17  C   UNL A   1      31.501  23.075  24.567  1.00  0.00     0.027 C 
ATOM     18  C   UNL A   1      33.377  24.694  24.164  1.00  0.00     0.316 C 
BRANCH   9  19
ATOM     19  C   UNL A   1      36.204  21.590  24.555  1.00  0.00    -0.067 C 
ATOM     20  C   UNL A   1      37.387  21.795  24.477  1.00  0.00     0.010 C 
ENDBRANCH   9  19
BRANCH  18  21
ATOM     21  C   UNL A   1      33.926  25.674  25.211  1.00  0.00     0.430 C 
ATOM     22  F   UNL A   1      35.173  25.328  25.605  1.00  0.00    -0.167 F 
ATOM     23  F   UNL A   1      34.003  26.936  24.729  1.00  0.00    -0.167 F 
ATOM     24  F   UNL A   1      33.145  25.710  26.316  1.00  0.00    -0.167 F 
ENDBRANCH  18  21
ENDBRANCH   6   8
ENDBRANCH   5   6
ENDBRANCH   4   5
ENDBRANCH   3   4
ENDBRANCH   2   3
ENDBRANCH   1   2
BRANCH   1  25
ATOM     25  C   UNL A   1      32.007  30.368  25.898  1.00  0.00     0.261 C 
BRANCH  25  26
ATOM     26  O   UNL A   1      33.397  30.358  26.257  1.00  0.00    -0.460 OA
BRANCH  26  27
ATOM     27  C   UNL A   1      33.740  31.312  27.160  1.00  0.00     0.338 C 
ATOM     28  O   UNL A   1      33.043  32.228  27.562  1.00  0.00    -0.246 OA
BRANCH  27  29
ATOM     29  C   UNL A   1      35.046  30.983  27.759  1.00  0.00     0.060 A 
ATOM     30  C   UNL A   1      35.265  29.664  28.179  1.00  0.00     0.016 A 
ATOM     31  C   UNL A   1      35.998  31.973  27.987  1.00  0.00     0.016 A 
ATOM     32  C   UNL A   1      36.434  29.338  28.859  1.00  0.00     0.010 A 
ATOM     33  C   UNL A   1      37.165  31.646  28.684  1.00  0.00     0.010 A 
ATOM     34  C   UNL A   1      37.373  30.335  29.151  1.00  0.00    -0.014 A 
BRANCH  34  35
ATOM     35  C   UNL A   1      38.496  30.036  30.071  1.00  0.00     0.031 A 
ATOM     36  C   UNL A   1      39.586  29.107  29.610  1.00  0.00     0.074 A 
ATOM     37  C   UNL A   1      38.569  30.622  31.280  1.00  0.00     0.049 A 
ATOM     38  N   UNL A   1      40.626  28.664  30.265  1.00  0.00    -0.248 NA
ATOM     39  C   UNL A   1      39.492  28.611  28.225  1.00  0.00     0.031 C 
ATOM     40  C   UNL A   1      37.608  31.593  31.806  1.00  0.00     0.029 A 
ATOM     41  N   UNL A   1      39.496  30.492  32.283  1.00  0.00    -0.354 N 
ATOM     42  C   UNL A   1      41.312  27.843  29.376  1.00  0.00     0.074 A 
ATOM     43  C   UNL A   1      40.548  27.814  28.148  1.00  0.00     0.031 C 
ATOM     44  C   UNL A   1      38.001  31.976  33.032  1.00  0.00     0.029 A 
ATOM     45  C   UNL A   1      39.213  31.244  33.400  1.00  0.00     0.049 A 
ATOM     46  H   UNL A   1      40.289  29.914  32.211  1.00  0.00     0.167 HD
ATOM     47  C   UNL A   1      42.482  27.189  29.564  1.00  0.00     0.034 A 
ATOM     48  C   UNL A   1      39.846  31.319  34.588  1.00  0.00     0.034 A 
ATOM     49  C   UNL A   1      43.238  27.232  30.788  1.00  0.00     0.049 A 
ATOM     50  C   UNL A   1      41.086  30.486  34.810  1.00  0.00     0.074 A 
ATOM     51  C   UNL A   1      44.436  26.601  31.077  1.00  0.00     0.029 A 
ATOM     52  N   UNL A   1      42.878  27.943  31.923  1.00  0.00    -0.354 N 
ATOM     53  N   UNL A   1      41.707  29.692  33.970  1.00  0.00    -0.248 NA
ATOM     54  C   UNL A   1      41.709  30.559  36.140  1.00  0.00     0.031 C 
ATOM     55  C   UNL A   1      44.762  26.871  32.407  1.00  0.00     0.029 A 
ATOM     56  C   UNL A   1      43.813  27.738  32.924  1.00  0.00     0.049 A 
ATOM     57  H   UNL A   1      42.078  28.511  32.004  1.00  0.00     0.167 HD
ATOM     58  C   UNL A   1      42.810  29.196  34.660  1.00  0.00     0.074 A 
ATOM     59  C   UNL A   1      42.775  29.786  35.982  1.00  0.00     0.031 C 
ATOM     60  C   UNL A   1      43.766  28.332  34.238  1.00  0.00     0.034 A 
BRANCH  47  61
ATOM     61  C   UNL A   1      43.019  26.355  28.433  1.00  0.00     0.023 A 
ATOM     62  C   UNL A   1      44.055  26.823  27.607  1.00  0.00     0.031 A 
ATOM     63  C   UNL A   1      42.542  25.049  28.226  1.00  0.00     0.131 A 
ATOM     64  C   UNL A   1      44.570  25.994  26.600  1.00  0.00     0.055 A 
ATOM     65  C   UNL A   1      43.098  24.209  27.261  1.00  0.00     0.041 A 
ATOM     66  F   UNL A   1      41.542  24.561  28.977  1.00  0.00    -0.206 F 
ATOM     67  C   UNL A   1      44.117  24.681  26.439  1.00  0.00     0.022 A 
BRANCH  64  68
ATOM     68  S   UNL A   1      45.813  26.672  25.469  1.00  0.00     0.124 S 
ATOM     69  O   UNL A   1      46.900  27.001  26.388  1.00  0.00    -0.237 OA
ATOM     70  O   UNL A   1      46.059  25.557  24.563  1.00  0.00    -0.237 OA
ATOM     71  O   UNL A   1      45.140  27.823  24.871  1.00  0.00    -0.744 OA
ENDBRANCH  64  68
ENDBRANCH  47  61
BRANCH  48  72
ATOM     72  C   UNL A   1      39.314  32.191  35.673  1.00  0.00     0.023 A 
ATOM     73  C   UNL A   1      39.778  33.506  35.832  1.00  0.00     0.031 A 
ATOM     74  C   UNL A   1      38.359  31.712  36.588  1.00  0.00     0.131 A 
ATOM     75  C   UNL A   1      39.312  34.286  36.901  1.00  0.00     0.055 A 
ATOM     76  C   UNL A   1      37.861  32.510  37.620  1.00  0.00     0.041 A 
ATOM     77  F   UNL A   1      37.884  30.461  36.483  1.00  0.00    -0.206 F 
ATOM     78  C   UNL A   1      38.346  33.803  37.786  1.00  0.00     0.022 A 
BRANCH  75  79
ATOM     79  S   UNL A   1      40.035  35.931  37.154  1.00  0.00     0.124 S 
ATOM     80  O   UNL A   1      39.681  36.604  35.910  1.00  0.00    -0.237 OA
ATOM     81  O   UNL A   1      39.338  36.387  38.352  1.00  0.00    -0.237 OA
ATOM     82  O   UNL A   1      41.459  35.652  37.331  1.00  0.00    -0.744 OA
ENDBRANCH  75  79
ENDBRANCH  48  72
BRANCH  60  83
ATOM     83  C   UNL A   1      44.877  27.987  35.196  1.00  0.00     0.023 A 
ATOM     84  C   UNL A   1      44.791  26.874  36.047  1.00  0.00     0.031 A 
ATOM     85  C   UNL A   1      46.063  28.744  35.209  1.00  0.00     0.131 A 
ATOM     86  C   UNL A   1      45.862  26.563  36.898  1.00  0.00     0.055 A 
ATOM     87  C   UNL A   1      47.146  28.398  36.018  1.00  0.00     0.041 A 
ATOM     88  F   UNL A   1      46.198  29.814  34.409  1.00  0.00    -0.206 F 
ATOM     89  C   UNL A   1      47.046  27.305  36.873  1.00  0.00     0.022 A 
BRANCH  86  90
ATOM     90  S   UNL A   1      45.671  25.193  38.069  1.00  0.00     0.124 S 
ATOM     91  O   UNL A   1      45.231  25.885  39.276  1.00  0.00    -0.237 OA
ATOM     92  O   UNL A   1      44.672  24.355  37.414  1.00  0.00    -0.237 OA
ATOM     93  O   UNL A   1      47.012  24.614  38.141  1.00  0.00    -0.744 OA
ENDBRANCH  86  90
ENDBRANCH  60  83
ENDBRANCH  34  35
ENDBRANCH  27  29
ENDBRANCH  26  27
ENDBRANCH  25  26
ENDBRANCH   1  25
TORSDOF 19
ENDMDL
MODEL 3
REMARK VINA RESULT:     -11.3      4.786     10.025
REMARK SMILES C#Cc1cc(Cl)cc2c1O[C@H](C(F)(F)F)C(C(=O)OCCOCCOC(=O)c1ccc(-c3c4nc(c(-c5cc(S(=O)(=O)[O-])ccc5F)c5ccc([nH]5)c(-c5cc(S(=O)(=O)[O-])ccc5F)c5nc(c(-c6cc(S(=O)(=O)[O-])ccc6F)c6ccc3[nH]6)C=C5)C=C4)cc1)=C2
REMARK SMILES IDX 23 1 22 2 21 3 20 4 19 5 17 6 18 7 16 8 3 9 4 10 9 11 5 12
REMARK SMILES IDX 8 13 10 14 6 15 7 16 91 17 11 18 2 19 1 20 12 21 13 22 14 23
REMARK SMILES IDX 15 24 24 25 25 26 26 27 27 28 28 29 29 30 90 31 30 32 89 33
REMARK SMILES IDX 31 34 32 35 33 36 83 37 34 38 88 39 82 40 84 41 35 42 87 43
REMARK SMILES IDX 81 44 80 45 36 47 68 48 48 49 67 50 49 51 52 52 66 53 85 54
REMARK SMILES IDX 50 55 51 56 65 58 86 59 53 60 37 61 38 62 46 63 39 64 45 65
REMARK SMILES IDX 47 66 44 67 40 68 41 69 42 70 43 71 69 72 70 73 78 74 71 75
REMARK SMILES IDX 77 76 79 77 76 78 72 79 73 80 74 81 75 82 54 83 55 84 63 85
REMARK SMILES IDX 56 86 62 87 64 88 61 89 57 90 58 91 59 92 60 93
REMARK H PARENT 84 46 52 57
REMARK Flexibility Score: inf
ROOT
ATOM      1  C   UNL A   1      31.869  29.238  25.465  1.00  0.00     0.202 C 
ENDROOT
BRANCH   1   2
ATOM      2  O   UNL A   1      31.048  28.946  24.337  1.00  0.00    -0.374 OA
BRANCH   2   3
ATOM      3  C   UNL A   1      31.423  27.888  23.462  1.00  0.00     0.202 C 
BRANCH   3   4
ATOM      4  C   UNL A   1      30.485  26.687  23.301  1.00  0.00     0.261 C 
BRANCH   4   5
ATOM      5  O   UNL A   1      31.194  25.445  23.205  1.00  0.00    -0.460 OA
BRANCH   5   6
ATOM      6  C   UNL A   1      31.169  24.706  24.340  1.00  0.00     0.338 C 
ATOM      7  O   UNL A   1      30.348  24.768  25.240  1.00  0.00    -0.246 OA
BRANCH   6   8
ATOM      8  C   UNL A   1      32.220  23.674  24.281  1.00  0.00     0.087 C 
ATOM      9  C   UNL A   1      35.064  20.655  24.694  1.00  0.00     0.068 A 
ATOM     10  C   UNL A   1      34.635  19.334  24.871  1.00  0.00     0.041 A 
ATOM     11  C   UNL A   1      34.129  21.669  24.436  1.00  0.00     0.143 A 
ATOM     12  C   UNL A   1      33.282  19.026  24.770  1.00  0.00     0.043 A 
ATOM     13  C   UNL A   1      32.768  21.352  24.378  1.00  0.00     0.020 A 
ATOM     14  O   UNL A   1      34.598  22.940  24.242  1.00  0.00    -0.474 OA
ATOM     15  Cl  UNL A   1      32.753  17.404  24.996  1.00  0.00    -0.084 Cl
ATOM     16  C   UNL A   1      32.346  20.025  24.520  1.00  0.00     0.032 A 
ATOM     17  C   UNL A   1      31.783  22.409  24.265  1.00  0.00     0.027 C 
ATOM     18  C   UNL A   1      33.672  24.062  24.280  1.00  0.00     0.316 C 
BRANCH   9  19
ATOM     19  C   UNL A   1      36.458  20.948  24.843  1.00  0.00    -0.067 C 
ATOM     20  C   UNL A   1      37.636  21.170  24.948  1.00  0.00     0.010 C 
ENDBRANCH   9  19
BRANCH  18  21
ATOM     21  C   UNL A   1      34.041  24.957  25.472  1.00  0.00     0.430 C 
ATOM     22  F   UNL A   1      33.345  24.613  26.581  1.00  0.00    -0.167 F 
ATOM     23  F   UNL A   1      35.353  24.862  25.787  1.00  0.00    -0.167 F 
ATOM     24  F   UNL A   1      33.779  26.260  25.215  1.00  0.00    -0.167 F 
ENDBRANCH  18  21
ENDBRANCH   6   8
ENDBRANCH   5   6
ENDBRANCH   4   5
ENDBRANCH   3   4
ENDBRANCH   2   3
ENDBRANCH   1   2
BRANCH   1  25
ATOM     25  C   UNL A   1      32.187  30.692  25.841  1.00  0.00     0.261 C 
BRANCH  25  26
ATOM     26  O   UNL A   1      32.515  30.886  27.225  1.00  0.00    -0.460 OA
BRANCH  26  27
ATOM     27  C   UNL A   1      33.293  31.974  27.461  1.00  0.00     0.338 C 
ATOM     28  O   UNL A   1      32.941  33.142  27.464  1.00  0.00    -0.246 OA
BRANCH  27  29
ATOM     29  C   UNL A   1      34.627  31.542  27.913  1.00  0.00     0.060 A 
ATOM     30  C   UNL A   1      34.791  30.207  28.305  1.00  0.00     0.016 A 
ATOM     31  C   UNL A   1      35.671  32.457  28.038  1.00  0.00     0.016 A 
ATOM     32  C   UNL A   1      35.999  29.788  28.854  1.00  0.00     0.010 A 
ATOM     33  C   UNL A   1      36.878  32.037  28.603  1.00  0.00     0.010 A 
ATOM     34  C   UNL A   1      37.037  30.710  29.043  1.00  0.00    -0.014 A 
BRANCH  34  35
ATOM     35  C   UNL A   1      38.227  30.319  29.834  1.00  0.00     0.031 A 
ATOM     36  C   UNL A   1      39.225  29.370  29.227  1.00  0.00     0.074 A 
ATOM     37  C   UNL A   1      38.441  30.841  31.056  1.00  0.00     0.049 A 
ATOM     38  N   UNL A   1      40.300  28.852  29.757  1.00  0.00    -0.248 NA
ATOM     39  C   UNL A   1      38.976  28.948  27.837  1.00  0.00     0.031 C 
ATOM     40  C   UNL A   1      37.581  31.823  31.716  1.00  0.00     0.029 A 
ATOM     41  N   UNL A   1      39.452  30.622  31.957  1.00  0.00    -0.354 N 
ATOM     42  C   UNL A   1      40.860  28.049  28.769  1.00  0.00     0.074 A 
ATOM     43  C   UNL A   1      39.982  28.113  27.622  1.00  0.00     0.031 C 
ATOM     44  C   UNL A   1      38.106  32.128  32.914  1.00  0.00     0.029 A 
ATOM     45  C   UNL A   1      39.312  31.330  33.129  1.00  0.00     0.049 A 
ATOM     46  H   UNL A   1      40.208  30.016  31.782  1.00  0.00     0.167 HD
ATOM     47  C   UNL A   1      42.011  27.339  28.813  1.00  0.00     0.034 A 
ATOM     48  C   UNL A   1      40.059  31.319  34.252  1.00  0.00     0.034 A 
ATOM     49  C   UNL A   1      42.882  27.289  29.958  1.00  0.00     0.049 A 
ATOM     50  C   UNL A   1      41.275  30.425  34.315  1.00  0.00     0.074 A 
ATOM     51  C   UNL A   1      44.071  26.595  30.100  1.00  0.00     0.029 A 
ATOM     52  N   UNL A   1      42.665  27.957  31.154  1.00  0.00    -0.354 N 
ATOM     53  N   UNL A   1      41.776  29.649  33.382  1.00  0.00    -0.248 NA
ATOM     54  C   UNL A   1      42.023  30.406  35.579  1.00  0.00     0.031 C 
ATOM     55  C   UNL A   1      44.535  26.785  31.403  1.00  0.00     0.029 A 
ATOM     56  C   UNL A   1      43.680  27.664  32.049  1.00  0.00     0.049 A 
ATOM     57  H   UNL A   1      41.903  28.553  31.339  1.00  0.00     0.167 HD
ATOM     58  C   UNL A   1      42.915  29.073  33.939  1.00  0.00     0.074 A 
ATOM     59  C   UNL A   1      43.033  29.598  35.284  1.00  0.00     0.031 C 
ATOM     60  C   UNL A   1      43.785  28.193  33.387  1.00  0.00     0.034 A 
BRANCH  47  61
ATOM     61  C   UNL A   1      42.400  26.541  27.598  1.00  0.00     0.023 A 
ATOM     62  C   UNL A   1      42.085  25.177  27.487  1.00  0.00     0.031 A 
ATOM     63  C   UNL A   1      43.025  27.170  26.507  1.00  0.00     0.131 A 
ATOM     64  C   UNL A   1      42.411  24.480  26.314  1.00  0.00     0.055 A 
ATOM     65  C   UNL A   1      43.294  26.486  25.321  1.00  0.00     0.041 A 
ATOM     66  F   UNL A   1      43.362  28.468  26.569  1.00  0.00    -0.206 F 
ATOM     67  C   UNL A   1      42.989  25.131  25.221  1.00  0.00     0.022 A 
BRANCH  64  68
ATOM     68  S   UNL A   1      42.110  22.694  26.253  1.00  0.00     0.124 S 
ATOM     69  O   UNL A   1      42.746  22.331  24.989  1.00  0.00    -0.237 OA
ATOM     70  O   UNL A   1      42.775  22.219  27.460  1.00  0.00    -0.237 OA
ATOM     71  O   UNL A   1      40.653  22.591  26.263  1.00  0.00    -0.744 OA
ENDBRANCH  64  68
ENDBRANCH  47  61
BRANCH  48  72
ATOM     72  C   UNL A   1      39.672  32.156  35.422  1.00  0.00     0.023 A 
ATOM     73  C   UNL A   1      38.858  31.638  36.441  1.00  0.00     0.031 A 
ATOM     74  C   UNL A   1      40.081  33.498  35.524  1.00  0.00     0.131 A 
ATOM     75  C   UNL A   1      38.451  32.464  37.499  1.00  0.00     0.055 A 
ATOM     76  C   UNL A   1      39.715  34.302  36.605  1.00  0.00     0.041 A 
ATOM     77  F   UNL A   1      40.859  34.046  34.575  1.00  0.00    -0.206 F 
ATOM     78  C   UNL A   1      38.887  33.788  37.596  1.00  0.00     0.022 A 
BRANCH  75  79
ATOM     79  S   UNL A   1      37.290  31.798  38.723  1.00  0.00     0.124 S 
ATOM     80  O   UNL A   1      37.138  30.421  38.267  1.00  0.00    -0.237 OA
ATOM     81  O   UNL A   1      38.023  31.986  39.970  1.00  0.00    -0.237 OA
ATOM     82  O   UNL A   1      36.107  32.642  38.564  1.00  0.00    -0.744 OA
ENDBRANCH  75  79
ENDBRANCH  48  72
BRANCH  60  83
ATOM     83  C   UNL A   1      44.966  27.756  34.216  1.00  0.00     0.023 A 
ATOM     84  C   UNL A   1      46.174  28.471  34.204  1.00  0.00     0.031 A 
ATOM     85  C   UNL A   1      44.857  26.649  35.078  1.00  0.00     0.131 A 
ATOM     86  C   UNL A   1      47.238  28.056  35.019  1.00  0.00     0.055 A 
ATOM     87  C   UNL A   1      45.899  26.274  35.925  1.00  0.00     0.041 A 
ATOM     88  F   UNL A   1      43.721  25.935  35.131  1.00  0.00    -0.206 F 
ATOM     89  C   UNL A   1      47.100  26.975  35.894  1.00  0.00     0.022 A 
BRANCH  86  90
ATOM     90  S   UNL A   1      48.821  28.928  34.891  1.00  0.00     0.124 S 
ATOM     91  O   UNL A   1      48.409  30.323  35.010  1.00  0.00    -0.237 OA
ATOM     92  O   UNL A   1      49.571  28.387  36.020  1.00  0.00    -0.237 OA
ATOM     93  O   UNL A   1      49.322  28.540  33.573  1.00  0.00    -0.744 OA
ENDBRANCH  86  90
ENDBRANCH  60  83
ENDBRANCH  34  35
ENDBRANCH  27  29
ENDBRANCH  26  27
ENDBRANCH  25  26
ENDBRANCH   1  25
TORSDOF 19
ENDMDL
