MODEL 1
REMARK VINA RESULT:     -10.9      0.000      0.000
REMARK SMILES CC1(C)COCCN1C(=O)N1CCO[C@@H](CC(=O)OCCOCCOC(=O)c2ccc(-c3c4nc(c(-c5cc(S(=O)(=O)[O-])ccc5F)c5ccc([nH]5)c(-c5cc(S(=O)(=O)[O-])ccc5F)c5nc(c(-c6cc(S(=O)(=O)[O-])ccc6F)c6ccc3[nH]6)C=C5)C=C4)cc2)C1
REMARK SMILES IDX 22 1 21 2 20 3 19 4 17 5 18 6 16 7 15 8 11 9 12 10 91 11
REMARK SMILES IDX 13 12 14 13 9 14 10 15 8 16 1 17 2 18 3 19 4 20 5 21 7 22
REMARK SMILES IDX 6 23 23 24 24 25 25 26 26 27 27 28 28 29 29 30 90 31 30 32
REMARK SMILES IDX 89 33 31 34 32 35 33 36 83 37 34 38 88 39 82 40 84 41 35 42
REMARK SMILES IDX 87 43 81 44 80 45 36 47 68 48 48 49 67 50 49 51 52 52 66 53
REMARK SMILES IDX 85 54 50 55 51 56 65 58 86 59 53 60 37 61 38 62 46 63 39 64
REMARK SMILES IDX 45 65 47 66 44 67 40 68 41 69 42 70 43 71 69 72 70 73 78 74
REMARK SMILES IDX 71 75 77 76 79 77 76 78 72 79 73 80 74 81 75 82 54 83 55 84
REMARK SMILES IDX 63 85 56 86 62 87 64 88 61 89 57 90 58 91 59 92 60 93
REMARK H PARENT 84 46 52 57
REMARK Flexibility Score: inf
ROOT
ATOM      1  O   UNL A   1      42.075  21.170  27.020  1.00  0.00    -0.374 OA
ENDROOT
BRANCH   1   2
ATOM      2  C   UNL A   1      40.674  20.921  26.928  1.00  0.00     0.202 C 
BRANCH   2   3
ATOM      3  C   UNL A   1      39.843  21.946  26.155  1.00  0.00     0.261 C 
BRANCH   3   4
ATOM      4  O   UNL A   1      38.538  21.430  25.827  1.00  0.00    -0.463 OA
BRANCH   4   5
ATOM      5  C   UNL A   1      37.620  22.349  25.441  1.00  0.00     0.308 C 
ATOM      6  O   UNL A   1      37.771  23.563  25.508  1.00  0.00    -0.252 OA
BRANCH   5   7
ATOM      7  C   UNL A   1      36.405  21.730  24.798  1.00  0.00     0.156 C 
BRANCH   7   8
ATOM      8  C   UNL A   1      35.416  20.986  25.699  1.00  0.00     0.149 C 
ATOM      9  N   UNL A   1      33.399  22.462  25.982  1.00  0.00    -0.320 N 
ATOM     10  C   UNL A   1      32.632  21.523  25.173  1.00  0.00     0.150 C 
ATOM     11  C   UNL A   1      34.524  21.812  26.651  1.00  0.00     0.154 C 
ATOM     12  C   UNL A   1      33.537  20.779  24.197  1.00  0.00     0.182 C 
ATOM     13  O   UNL A   1      34.608  20.100  24.879  1.00  0.00    -0.374 OA
BRANCH   9  14
ATOM     14  C   UNL A   1      32.644  23.309  26.772  1.00  0.00     0.320 C 
ATOM     15  O   UNL A   1      32.247  22.921  27.870  1.00  0.00    -0.248 OA
BRANCH  14  16
ATOM     16  N   UNL A   1      32.401  24.585  26.287  1.00  0.00    -0.315 N 
ATOM     17  C   UNL A   1      30.973  26.652  26.227  1.00  0.00     0.037 C 
ATOM     18  C   UNL A   1      31.141  25.188  25.739  1.00  0.00     0.062 C 
ATOM     19  C   UNL A   1      29.836  24.504  26.164  1.00  0.00     0.037 C 
ATOM     20  C   UNL A   1      31.303  25.189  24.199  1.00  0.00     0.188 C 
ATOM     21  O   UNL A   1      32.455  25.957  23.797  1.00  0.00    -0.377 OA
ATOM     22  C   UNL A   1      33.604  25.343  25.906  1.00  0.00     0.150 C 
ATOM     23  C   UNL A   1      33.673  25.443  24.371  1.00  0.00     0.182 C 
ENDBRANCH  14  16
ENDBRANCH   9  14
ENDBRANCH   7   8
ENDBRANCH   5   7
ENDBRANCH   4   5
ENDBRANCH   3   4
ENDBRANCH   2   3
ENDBRANCH   1   2
BRANCH   1  24
ATOM     24  C   UNL A   1      42.887  20.894  25.884  1.00  0.00     0.202 C 
BRANCH  24  25
ATOM     25  C   UNL A   1      43.820  21.998  25.357  1.00  0.00     0.261 C 
BRANCH  25  26
ATOM     26  O   UNL A   1      43.160  23.147  24.786  1.00  0.00    -0.460 OA
BRANCH  26  27
ATOM     27  C   UNL A   1      43.807  24.321  25.014  1.00  0.00     0.338 C 
ATOM     28  O   UNL A   1      44.897  24.647  24.573  1.00  0.00    -0.246 OA
BRANCH  27  29
ATOM     29  C   UNL A   1      42.985  25.267  25.794  1.00  0.00     0.060 A 
ATOM     30  C   UNL A   1      43.510  26.544  26.030  1.00  0.00     0.016 A 
ATOM     31  C   UNL A   1      41.847  24.836  26.478  1.00  0.00     0.016 A 
ATOM     32  C   UNL A   1      42.942  27.367  27.005  1.00  0.00     0.010 A 
ATOM     33  C   UNL A   1      41.282  25.662  27.460  1.00  0.00     0.010 A 
ATOM     34  C   UNL A   1      41.858  26.909  27.766  1.00  0.00    -0.014 A 
BRANCH  34  35
ATOM     35  C   UNL A   1      41.457  27.655  28.990  1.00  0.00     0.031 A 
ATOM     36  C   UNL A   1      40.205  28.496  28.961  1.00  0.00     0.074 A 
ATOM     37  C   UNL A   1      42.167  27.551  30.129  1.00  0.00     0.049 A 
ATOM     38  N   UNL A   1      39.683  29.245  29.900  1.00  0.00    -0.248 NA
ATOM     39  C   UNL A   1      39.443  28.491  27.705  1.00  0.00     0.031 C 
ATOM     40  C   UNL A   1      43.366  26.736  30.304  1.00  0.00     0.029 A 
ATOM     41  N   UNL A   1      41.980  28.144  31.354  1.00  0.00    -0.354 N 
ATOM     42  C   UNL A   1      38.533  29.802  29.348  1.00  0.00     0.074 A 
ATOM     43  C   UNL A   1      38.455  29.329  27.982  1.00  0.00     0.031 C 
ATOM     44  C   UNL A   1      43.816  26.888  31.562  1.00  0.00     0.029 A 
ATOM     45  C   UNL A   1      42.958  27.838  32.271  1.00  0.00     0.049 A 
ATOM     46  H   UNL A   1      41.217  28.731  31.558  1.00  0.00     0.167 HD
ATOM     47  C   UNL A   1      37.622  30.624  29.927  1.00  0.00     0.034 A 
ATOM     48  C   UNL A   1      43.156  28.291  33.526  1.00  0.00     0.034 A 
ATOM     49  C   UNL A   1      37.708  31.097  31.288  1.00  0.00     0.049 A 
ATOM     50  C   UNL A   1      42.175  29.273  34.122  1.00  0.00     0.074 A 
ATOM     51  C   UNL A   1      36.828  31.918  31.974  1.00  0.00     0.029 A 
ATOM     52  N   UNL A   1      38.740  30.804  32.168  1.00  0.00    -0.354 N 
ATOM     53  N   UNL A   1      41.091  29.787  33.588  1.00  0.00    -0.248 NA
ATOM     54  C   UNL A   1      42.445  29.730  35.492  1.00  0.00     0.031 C 
ATOM     55  C   UNL A   1      37.360  32.172  33.242  1.00  0.00     0.029 A 
ATOM     56  C   UNL A   1      38.537  31.454  33.376  1.00  0.00     0.049 A 
ATOM     57  H   UNL A   1      39.506  30.221  31.964  1.00  0.00     0.167 HD
ATOM     58  C   UNL A   1      40.535  30.603  34.571  1.00  0.00     0.074 A 
ATOM     59  C   UNL A   1      41.397  30.506  35.730  1.00  0.00     0.031 C 
ATOM     60  C   UNL A   1      39.409  31.361  34.523  1.00  0.00     0.034 A 
BRANCH  47  61
ATOM     61  C   UNL A   1      36.477  31.105  29.067  1.00  0.00     0.023 A 
ATOM     62  C   UNL A   1      35.511  30.221  28.557  1.00  0.00     0.031 A 
ATOM     63  C   UNL A   1      36.363  32.469  28.741  1.00  0.00     0.131 A 
ATOM     64  C   UNL A   1      34.509  30.701  27.698  1.00  0.00     0.055 A 
ATOM     65  C   UNL A   1      35.323  32.950  27.943  1.00  0.00     0.041 A 
ATOM     66  F   UNL A   1      37.269  33.355  29.184  1.00  0.00    -0.206 F 
ATOM     67  C   UNL A   1      34.397  32.063  27.405  1.00  0.00     0.022 A 
BRANCH  64  68
ATOM     68  S   UNL A   1      33.429  29.504  26.868  1.00  0.00     0.124 S 
ATOM     69  O   UNL A   1      32.445  30.381  26.237  1.00  0.00    -0.237 OA
ATOM     70  O   UNL A   1      34.348  28.820  25.966  1.00  0.00    -0.237 OA
ATOM     71  O   UNL A   1      32.911  28.690  27.966  1.00  0.00    -0.744 OA
ENDBRANCH  64  68
ENDBRANCH  47  61
BRANCH  48  72
ATOM     72  C   UNL A   1      44.358  27.868  34.298  1.00  0.00     0.023 A 
ATOM     73  C   UNL A   1      44.357  26.694  35.066  1.00  0.00     0.031 A 
ATOM     74  C   UNL A   1      45.511  28.674  34.325  1.00  0.00     0.131 A 
ATOM     75  C   UNL A   1      45.468  26.379  35.864  1.00  0.00     0.055 A 
ATOM     76  C   UNL A   1      46.632  28.332  35.082  1.00  0.00     0.041 A 
ATOM     77  F   UNL A   1      45.563  29.808  33.609  1.00  0.00    -0.206 F 
ATOM     78  C   UNL A   1      46.610  27.185  35.867  1.00  0.00     0.022 A 
BRANCH  75  79
ATOM     79  S   UNL A   1      45.370  24.942  36.965  1.00  0.00     0.124 S 
ATOM     80  O   UNL A   1      43.929  24.782  37.118  1.00  0.00    -0.237 OA
ATOM     81  O   UNL A   1      46.051  23.916  36.183  1.00  0.00    -0.237 OA
ATOM     82  O   UNL A   1      46.080  25.381  38.164  1.00  0.00    -0.744 OA
ENDBRANCH  75  79
ENDBRANCH  48  72
BRANCH  60  83
ATOM     83  C   UNL A   1      39.024  32.104  35.779  1.00  0.00     0.023 A 
ATOM     84  C   UNL A   1      38.321  31.481  36.824  1.00  0.00     0.031 A 
ATOM     85  C   UNL A   1      39.359  33.463  35.924  1.00  0.00     0.131 A 
ATOM     86  C   UNL A   1      37.930  32.228  37.947  1.00  0.00     0.055 A 
ATOM     87  C   UNL A   1      39.014  34.186  37.066  1.00  0.00     0.041 A 
ATOM     88  F   UNL A   1      40.029  34.108  34.956  1.00  0.00    -0.206 F 
ATOM     89  C   UNL A   1      38.285  33.573  38.080  1.00  0.00     0.022 A 
BRANCH  86  90
ATOM     90  S   UNL A   1      36.880  31.439  39.199  1.00  0.00     0.124 S 
ATOM     91  O   UNL A   1      36.707  30.098  38.650  1.00  0.00    -0.237 OA
ATOM     92  O   UNL A   1      37.701  31.534  40.402  1.00  0.00    -0.237 OA
ATOM     93  O   UNL A   1      35.674  32.265  39.206  1.00  0.00    -0.744 OA
ENDBRANCH  86  90
ENDBRANCH  60  83
ENDBRANCH  34  35
ENDBRANCH  27  29
ENDBRANCH  26  27
ENDBRANCH  25  26
ENDBRANCH  24  25
ENDBRANCH   1  24
TORSDOF 20
ENDMDL
MODEL 2
REMARK VINA RESULT:     -10.8      4.739      8.995
REMARK SMILES CC1(C)COCCN1C(=O)N1CCO[C@@H](CC(=O)OCCOCCOC(=O)c2ccc(-c3c4nc(c(-c5cc(S(=O)(=O)[O-])ccc5F)c5ccc([nH]5)c(-c5cc(S(=O)(=O)[O-])ccc5F)c5nc(c(-c6cc(S(=O)(=O)[O-])ccc6F)c6ccc3[nH]6)C=C5)C=C4)cc2)C1
REMARK SMILES IDX 22 1 21 2 20 3 19 4 17 5 18 6 16 7 15 8 11 9 12 10 91 11
REMARK SMILES IDX 13 12 14 13 9 14 10 15 8 16 1 17 2 18 3 19 4 20 5 21 7 22
REMARK SMILES IDX 6 23 23 24 24 25 25 26 26 27 27 28 28 29 29 30 90 31 30 32
REMARK SMILES IDX 89 33 31 34 32 35 33 36 83 37 34 38 88 39 82 40 84 41 35 42
REMARK SMILES IDX 87 43 81 44 80 45 36 47 68 48 48 49 67 50 49 51 52 52 66 53
REMARK SMILES IDX 85 54 50 55 51 56 65 58 86 59 53 60 37 61 38 62 46 63 39 64
REMARK SMILES IDX 45 65 47 66 44 67 40 68 41 69 42 70 43 71 69 72 70 73 78 74
REMARK SMILES IDX 71 75 77 76 79 77 76 78 72 79 73 80 74 81 75 82 54 83 55 84
REMARK SMILES IDX 63 85 56 86 62 87 64 88 61 89 57 90 58 91 59 92 60 93
REMARK H PARENT 84 46 52 57
REMARK Flexibility Score: inf
ROOT
ATOM      1  O   UNL A   1      37.430  21.100  24.174  1.00  0.00    -0.374 OA
ENDROOT
BRANCH   1   2
ATOM      2  C   UNL A   1      36.621  22.216  24.538  1.00  0.00     0.202 C 
BRANCH   2   3
ATOM      3  C   UNL A   1      36.280  22.364  26.021  1.00  0.00     0.261 C 
BRANCH   3   4
ATOM      4  O   UNL A   1      34.972  22.939  26.209  1.00  0.00    -0.463 OA
BRANCH   4   5
ATOM      5  C   UNL A   1      34.128  22.239  27.005  1.00  0.00     0.308 C 
ATOM      6  O   UNL A   1      33.753  22.596  28.116  1.00  0.00    -0.252 OA
BRANCH   5   7
ATOM      7  C   UNL A   1      33.585  21.000  26.340  1.00  0.00     0.156 C 
BRANCH   7   8
ATOM      8  C   UNL A   1      32.170  21.059  25.759  1.00  0.00     0.149 C 
ATOM      9  N   UNL A   1      32.139  22.893  24.038  1.00  0.00    -0.320 N 
ATOM     10  C   UNL A   1      32.009  21.880  22.999  1.00  0.00     0.150 C 
ATOM     11  C   UNL A   1      31.612  22.431  25.320  1.00  0.00     0.154 C 
ATOM     12  C   UNL A   1      32.635  20.562  23.442  1.00  0.00     0.182 C 
ATOM     13  O   UNL A   1      32.065  20.093  24.679  1.00  0.00    -0.374 OA
BRANCH   9  14
ATOM     14  C   UNL A   1      31.761  24.169  23.663  1.00  0.00     0.320 C 
ATOM     15  O   UNL A   1      30.682  24.340  23.097  1.00  0.00    -0.248 OA
BRANCH  14  16
ATOM     16  N   UNL A   1      32.620  25.208  23.983  1.00  0.00    -0.315 N 
ATOM     17  C   UNL A   1      33.820  26.585  25.710  1.00  0.00     0.037 C 
ATOM     18  C   UNL A   1      32.472  26.312  24.990  1.00  0.00     0.062 C 
ATOM     19  C   UNL A   1      31.489  26.040  26.135  1.00  0.00     0.037 C 
ATOM     20  C   UNL A   1      32.070  27.572  24.187  1.00  0.00     0.188 C 
ATOM     21  O   UNL A   1      33.071  27.907  23.205  1.00  0.00    -0.377 OA
ATOM     22  C   UNL A   1      33.640  25.506  22.963  1.00  0.00     0.150 C 
ATOM     23  C   UNL A   1      33.287  26.833  22.268  1.00  0.00     0.182 C 
ENDBRANCH  14  16
ENDBRANCH   9  14
ENDBRANCH   7   8
ENDBRANCH   5   7
ENDBRANCH   4   5
ENDBRANCH   3   4
ENDBRANCH   2   3
ENDBRANCH   1   2
BRANCH   1  24
ATOM     24  C   UNL A   1      37.324  19.908  24.943  1.00  0.00     0.202 C 
BRANCH  24  25
ATOM     25  C   UNL A   1      38.607  19.279  25.513  1.00  0.00     0.261 C 
BRANCH  25  26
ATOM     26  O   UNL A   1      39.807  20.062  25.347  1.00  0.00    -0.460 OA
BRANCH  26  27
ATOM     27  C   UNL A   1      40.583  20.122  26.462  1.00  0.00     0.338 C 
ATOM     28  O   UNL A   1      41.287  19.230  26.905  1.00  0.00    -0.246 OA
BRANCH  27  29
ATOM     29  C   UNL A   1      40.586  21.469  27.066  1.00  0.00     0.060 A 
ATOM     30  C   UNL A   1      40.071  22.524  26.303  1.00  0.00     0.016 A 
ATOM     31  C   UNL A   1      41.295  21.728  28.240  1.00  0.00     0.016 A 
ATOM     32  C   UNL A   1      40.326  23.847  26.673  1.00  0.00     0.010 A 
ATOM     33  C   UNL A   1      41.554  23.057  28.608  1.00  0.00     0.010 A 
ATOM     34  C   UNL A   1      41.116  24.122  27.798  1.00  0.00    -0.014 A 
BRANCH  34  35
ATOM     35  C   UNL A   1      41.631  25.502  28.010  1.00  0.00     0.031 A 
ATOM     36  C   UNL A   1      43.013  25.855  27.517  1.00  0.00     0.074 A 
ATOM     37  C   UNL A   1      40.867  26.447  28.590  1.00  0.00     0.049 A 
ATOM     38  N   UNL A   1      43.669  26.984  27.615  1.00  0.00    -0.248 NA
ATOM     39  C   UNL A   1      43.750  24.790  26.821  1.00  0.00     0.031 C 
ATOM     40  C   UNL A   1      39.500  26.251  29.066  1.00  0.00     0.029 A 
ATOM     41  N   UNL A   1      41.140  27.761  28.880  1.00  0.00    -0.354 N 
ATOM     42  C   UNL A   1      44.898  26.765  26.997  1.00  0.00     0.074 A 
ATOM     43  C   UNL A   1      44.904  25.385  26.558  1.00  0.00     0.031 C 
ATOM     44  C   UNL A   1      39.057  27.402  29.601  1.00  0.00     0.029 A 
ATOM     45  C   UNL A   1      40.119  28.405  29.537  1.00  0.00     0.049 A 
ATOM     46  H   UNL A   1      41.987  28.201  28.639  1.00  0.00     0.167 HD
ATOM     47  C   UNL A   1      45.922  27.634  26.805  1.00  0.00     0.034 A 
ATOM     48  C   UNL A   1      40.056  29.651  30.052  1.00  0.00     0.034 A 
ATOM     49  C   UNL A   1      45.913  29.007  27.250  1.00  0.00     0.049 A 
ATOM     50  C   UNL A   1      41.241  30.575  29.902  1.00  0.00     0.074 A 
ATOM     51  C   UNL A   1      46.891  29.973  27.090  1.00  0.00     0.029 A 
ATOM     52  N   UNL A   1      44.879  29.607  27.956  1.00  0.00    -0.354 N 
ATOM     53  N   UNL A   1      42.392  30.355  29.311  1.00  0.00    -0.248 NA
ATOM     54  C   UNL A   1      41.111  31.918  30.485  1.00  0.00     0.031 C 
ATOM     55  C   UNL A   1      46.478  31.134  27.752  1.00  0.00     0.029 A 
ATOM     56  C   UNL A   1      45.210  30.918  28.266  1.00  0.00     0.049 A 
ATOM     57  H   UNL A   1      44.033  29.167  28.200  1.00  0.00     0.167 HD
ATOM     58  C   UNL A   1      43.111  31.544  29.426  1.00  0.00     0.074 A 
ATOM     59  C   UNL A   1      42.260  32.478  30.133  1.00  0.00     0.031 C 
ATOM     60  C   UNL A   1      44.360  31.839  28.982  1.00  0.00     0.034 A 
BRANCH  47  61
ATOM     61  C   UNL A   1      47.162  27.105  26.125  1.00  0.00     0.023 A 
ATOM     62  C   UNL A   1      48.160  26.416  26.834  1.00  0.00     0.031 A 
ATOM     63  C   UNL A   1      47.353  27.309  24.746  1.00  0.00     0.131 A 
ATOM     64  C   UNL A   1      49.332  26.010  26.176  1.00  0.00     0.055 A 
ATOM     65  C   UNL A   1      48.489  26.841  24.083  1.00  0.00     0.041 A 
ATOM     66  F   UNL A   1      46.442  27.978  24.022  1.00  0.00    -0.206 F 
ATOM     67  C   UNL A   1      49.493  26.200  24.801  1.00  0.00     0.022 A 
BRANCH  64  68
ATOM     68  S   UNL A   1      50.698  25.343  27.165  1.00  0.00     0.124 S 
ATOM     69  O   UNL A   1      51.094  26.511  27.949  1.00  0.00    -0.237 OA
ATOM     70  O   UNL A   1      50.055  24.264  27.905  1.00  0.00    -0.237 OA
ATOM     71  O   UNL A   1      51.672  24.917  26.161  1.00  0.00    -0.744 OA
ENDBRANCH  64  68
ENDBRANCH  47  61
BRANCH  48  72
ATOM     72  C   UNL A   1      38.849  30.092  30.807  1.00  0.00     0.023 A 
ATOM     73  C   UNL A   1      37.859  30.884  30.205  1.00  0.00     0.031 A 
ATOM     74  C   UNL A   1      38.703  29.776  32.170  1.00  0.00     0.131 A 
ATOM     75  C   UNL A   1      36.790  31.370  30.973  1.00  0.00     0.055 A 
ATOM     76  C   UNL A   1      37.612  30.221  32.918  1.00  0.00     0.041 A 
ATOM     77  F   UNL A   1      39.623  29.023  32.794  1.00  0.00    -0.206 F 
ATOM     78  C   UNL A   1      36.654  31.034  32.322  1.00  0.00     0.022 A 
BRANCH  75  79
ATOM     79  S   UNL A   1      35.618  32.520  30.202  1.00  0.00     0.124 S 
ATOM     80  O   UNL A   1      34.456  32.388  31.072  1.00  0.00    -0.237 OA
ATOM     81  O   UNL A   1      36.339  33.785  30.282  1.00  0.00    -0.237 OA
ATOM     82  O   UNL A   1      35.452  31.984  28.853  1.00  0.00    -0.744 OA
ENDBRANCH  75  79
ENDBRANCH  48  72
BRANCH  60  83
ATOM     83  C   UNL A   1      44.856  33.246  29.208  1.00  0.00     0.023 A 
ATOM     84  C   UNL A   1      44.608  34.277  28.285  1.00  0.00     0.031 A 
ATOM     85  C   UNL A   1      45.600  33.554  30.361  1.00  0.00     0.131 A 
ATOM     86  C   UNL A   1      45.143  35.557  28.507  1.00  0.00     0.055 A 
ATOM     87  C   UNL A   1      46.084  34.841  30.601  1.00  0.00     0.041 A 
ATOM     88  F   UNL A   1      45.868  32.607  31.274  1.00  0.00    -0.206 F 
ATOM     89  C   UNL A   1      45.866  35.848  29.666  1.00  0.00     0.022 A 
BRANCH  86  90
ATOM     90  S   UNL A   1      44.947  36.820  27.219  1.00  0.00     0.124 S 
ATOM     91  O   UNL A   1      45.247  38.048  27.949  1.00  0.00    -0.237 OA
ATOM     92  O   UNL A   1      45.935  36.411  26.226  1.00  0.00    -0.237 OA
ATOM     93  O   UNL A   1      43.554  36.673  26.802  1.00  0.00    -0.744 OA
ENDBRANCH  86  90
ENDBRANCH  60  83
ENDBRANCH  34  35
ENDBRANCH  27  29
ENDBRANCH  26  27
ENDBRANCH  25  26
ENDBRANCH  24  25
ENDBRANCH   1  24
TORSDOF 20
ENDMDL
MODEL 3
REMARK VINA RESULT:     -10.5      4.801      8.868
REMARK SMILES CC1(C)COCCN1C(=O)N1CCO[C@@H](CC(=O)OCCOCCOC(=O)c2ccc(-c3c4nc(c(-c5cc(S(=O)(=O)[O-])ccc5F)c5ccc([nH]5)c(-c5cc(S(=O)(=O)[O-])ccc5F)c5nc(c(-c6cc(S(=O)(=O)[O-])ccc6F)c6ccc3[nH]6)C=C5)C=C4)cc2)C1
REMARK SMILES IDX 22 1 21 2 20 3 19 4 17 5 18 6 16 7 15 8 11 9 12 10 91 11
REMARK SMILES IDX 13 12 14 13 9 14 10 15 8 16 1 17 2 18 3 19 4 20 5 21 7 22
REMARK SMILES IDX 6 23 23 24 24 25 25 26 26 27 27 28 28 29 29 30 90 31 30 32
REMARK SMILES IDX 89 33 31 34 32 35 33 36 83 37 34 38 88 39 82 40 84 41 35 42
REMARK SMILES IDX 87 43 81 44 80 45 36 47 68 48 48 49 67 50 49 51 52 52 66 53
REMARK SMILES IDX 85 54 50 55 51 56 65 58 86 59 53 60 37 61 38 62 46 63 39 64
REMARK SMILES IDX 45 65 47 66 44 67 40 68 41 69 42 70 43 71 69 72 70 73 78 74
REMARK SMILES IDX 71 75 77 76 79 77 76 78 72 79 73 80 74 81 75 82 54 83 55 84
REMARK SMILES IDX 63 85 56 86 62 87 64 88 61 89 57 90 58 91 59 92 60 93
REMARK H PARENT 84 46 52 57
REMARK Flexibility Score: inf
ROOT
ATOM      1  O   UNL A   1      37.118  21.168  25.455  1.00  0.00    -0.374 OA
ENDROOT
BRANCH   1   2
ATOM      2  C   UNL A   1      35.719  21.177  25.727  1.00  0.00     0.202 C 
BRANCH   2   3
ATOM      3  C   UNL A   1      34.800  21.627  24.590  1.00  0.00     0.261 C 
BRANCH   3   4
ATOM      4  O   UNL A   1      33.763  20.661  24.333  1.00  0.00    -0.463 OA
BRANCH   4   5
ATOM      5  C   UNL A   1      32.609  21.155  23.821  1.00  0.00     0.308 C 
ATOM      6  O   UNL A   1      32.041  20.721  22.826  1.00  0.00    -0.252 OA
BRANCH   5   7
ATOM      7  C   UNL A   1      32.009  22.245  24.672  1.00  0.00     0.156 C 
BRANCH   7   8
ATOM      8  C   UNL A   1      31.524  23.517  23.971  1.00  0.00     0.149 C 
ATOM      9  N   UNL A   1      33.056  25.388  24.664  1.00  0.00    -0.320 N 
ATOM     10  C   UNL A   1      33.590  25.417  23.309  1.00  0.00     0.150 C 
ATOM     11  C   UNL A   1      31.691  24.867  24.702  1.00  0.00     0.154 C 
ATOM     12  C   UNL A   1      33.473  24.048  22.647  1.00  0.00     0.182 C 
ATOM     13  O   UNL A   1      32.112  23.575  22.644  1.00  0.00    -0.374 OA
BRANCH   9  14
ATOM     14  C   UNL A   1      33.278  26.533  25.407  1.00  0.00     0.320 C 
ATOM     15  O   UNL A   1      34.331  26.655  26.033  1.00  0.00    -0.248 OA
BRANCH  14  16
ATOM     16  N   UNL A   1      32.299  27.512  25.377  1.00  0.00    -0.315 N 
ATOM     17  C   UNL A   1      30.826  29.075  24.072  1.00  0.00     0.037 C 
ATOM     18  C   UNL A   1      32.251  28.811  24.627  1.00  0.00     0.062 C 
ATOM     19  C   UNL A   1      33.152  28.897  23.389  1.00  0.00     0.037 C 
ATOM     20  C   UNL A   1      32.599  29.913  25.657  1.00  0.00     0.188 C 
ATOM     21  O   UNL A   1      31.659  29.919  26.751  1.00  0.00    -0.377 OA
ATOM     22  C   UNL A   1      31.348  27.472  26.501  1.00  0.00     0.150 C 
ATOM     23  C   UNL A   1      31.630  28.655  27.444  1.00  0.00     0.182 C 
ENDBRANCH  14  16
ENDBRANCH   9  14
ENDBRANCH   7   8
ENDBRANCH   5   7
ENDBRANCH   4   5
ENDBRANCH   3   4
ENDBRANCH   2   3
ENDBRANCH   1   2
BRANCH   1  24
ATOM     24  C   UNL A   1      37.696  19.983  24.917  1.00  0.00     0.202 C 
BRANCH  24  25
ATOM     25  C   UNL A   1      38.951  19.400  25.591  1.00  0.00     0.261 C 
BRANCH  25  26
ATOM     26  O   UNL A   1      40.145  20.201  25.474  1.00  0.00    -0.460 OA
BRANCH  26  27
ATOM     27  C   UNL A   1      40.880  20.262  26.617  1.00  0.00     0.338 C 
ATOM     28  O   UNL A   1      41.576  19.374  27.080  1.00  0.00    -0.246 OA
BRANCH  27  29
ATOM     29  C   UNL A   1      40.850  21.606  27.227  1.00  0.00     0.060 A 
ATOM     30  C   UNL A   1      40.177  22.619  26.534  1.00  0.00     0.016 A 
ATOM     31  C   UNL A   1      41.662  21.917  28.319  1.00  0.00     0.016 A 
ATOM     32  C   UNL A   1      40.372  23.958  26.885  1.00  0.00     0.010 A 
ATOM     33  C   UNL A   1      41.861  23.262  28.666  1.00  0.00     0.010 A 
ATOM     34  C   UNL A   1      41.259  24.291  27.917  1.00  0.00    -0.014 A 
BRANCH  34  35
ATOM     35  C   UNL A   1      41.690  25.706  28.083  1.00  0.00     0.031 A 
ATOM     36  C   UNL A   1      43.015  26.142  27.507  1.00  0.00     0.074 A 
ATOM     37  C   UNL A   1      40.898  26.606  28.693  1.00  0.00     0.049 A 
ATOM     38  N   UNL A   1      43.599  27.313  27.554  1.00  0.00    -0.248 NA
ATOM     39  C   UNL A   1      43.783  25.117  26.785  1.00  0.00     0.031 C 
ATOM     40  C   UNL A   1      39.576  26.327  29.249  1.00  0.00     0.029 A 
ATOM     41  N   UNL A   1      41.097  27.941  28.951  1.00  0.00    -0.354 N 
ATOM     42  C   UNL A   1      44.802  27.167  26.870  1.00  0.00     0.074 A 
ATOM     43  C   UNL A   1      44.878  25.784  26.449  1.00  0.00     0.031 C 
ATOM     44  C   UNL A   1      39.086  27.455  29.794  1.00  0.00     0.029 A 
ATOM     45  C   UNL A   1      40.072  28.526  29.657  1.00  0.00     0.049 A 
ATOM     46  H   UNL A   1      41.897  28.433  28.656  1.00  0.00     0.167 HD
ATOM     47  C   UNL A   1      45.753  28.099  26.609  1.00  0.00     0.034 A 
ATOM     48  C   UNL A   1      39.954  29.773  30.158  1.00  0.00     0.034 A 
ATOM     49  C   UNL A   1      45.676  29.476  27.037  1.00  0.00     0.049 A 
ATOM     50  C   UNL A   1      41.064  30.772  29.930  1.00  0.00     0.074 A 
ATOM     51  C   UNL A   1      46.576  30.503  26.809  1.00  0.00     0.029 A 
ATOM     52  N   UNL A   1      44.645  30.017  27.792  1.00  0.00    -0.354 N 
ATOM     53  N   UNL A   1      42.193  30.619  29.278  1.00  0.00    -0.248 NA
ATOM     54  C   UNL A   1      40.876  32.113  30.502  1.00  0.00     0.031 C 
ATOM     55  C   UNL A   1      46.123  31.644  27.479  1.00  0.00     0.029 A 
ATOM     56  C   UNL A   1      44.903  31.352  28.067  1.00  0.00     0.049 A 
ATOM     57  H   UNL A   1      43.846  29.526  28.090  1.00  0.00     0.167 HD
ATOM     58  C   UNL A   1      42.835  31.855  29.336  1.00  0.00     0.074 A 
ATOM     59  C   UNL A   1      41.964  32.742  30.079  1.00  0.00     0.031 C 
ATOM     60  C   UNL A   1      44.034  32.226  28.818  1.00  0.00     0.034 A 
BRANCH  47  61
ATOM     61  C   UNL A   1      46.986  27.643  25.866  1.00  0.00     0.023 A 
ATOM     62  C   UNL A   1      47.180  27.931  24.505  1.00  0.00     0.031 A 
ATOM     63  C   UNL A   1      47.975  26.895  26.531  1.00  0.00     0.131 A 
ATOM     64  C   UNL A   1      48.303  27.420  23.836  1.00  0.00     0.055 A 
ATOM     65  C   UNL A   1      49.125  26.450  25.876  1.00  0.00     0.041 A 
ATOM     66  F   UNL A   1      47.833  26.574  27.827  1.00  0.00    -0.206 F 
ATOM     67  C   UNL A   1      49.288  26.700  24.518  1.00  0.00     0.022 A 
BRANCH  64  68
ATOM     68  S   UNL A   1      48.400  27.603  22.033  1.00  0.00     0.124 S 
ATOM     69  O   UNL A   1      49.525  28.525  21.890  1.00  0.00    -0.237 OA
ATOM     70  O   UNL A   1      48.635  26.234  21.588  1.00  0.00    -0.237 OA
ATOM     71  O   UNL A   1      47.098  28.161  21.675  1.00  0.00    -0.744 OA
ENDBRANCH  64  68
ENDBRANCH  47  61
BRANCH  48  72
ATOM     72  C   UNL A   1      38.765  30.145  30.975  1.00  0.00     0.023 A 
ATOM     73  C   UNL A   1      37.691  30.857  30.419  1.00  0.00     0.031 A 
ATOM     74  C   UNL A   1      38.717  29.844  32.348  1.00  0.00     0.131 A 
ATOM     75  C   UNL A   1      36.635  31.283  31.240  1.00  0.00     0.055 A 
ATOM     76  C   UNL A   1      37.642  30.227  33.151  1.00  0.00     0.041 A 
ATOM     77  F   UNL A   1      39.720  29.167  32.930  1.00  0.00    -0.206 F 
ATOM     78  C   UNL A   1      36.599  30.963  32.600  1.00  0.00     0.022 A 
BRANCH  75  79
ATOM     79  S   UNL A   1      35.345  32.337  30.522  1.00  0.00     0.124 S 
ATOM     80  O   UNL A   1      34.351  32.359  31.589  1.00  0.00    -0.237 OA
ATOM     81  O   UNL A   1      36.067  33.583  30.291  1.00  0.00    -0.237 OA
ATOM     82  O   UNL A   1      34.950  31.615  29.315  1.00  0.00    -0.744 OA
ENDBRANCH  75  79
ENDBRANCH  48  72
BRANCH  60  83
ATOM     83  C   UNL A   1      44.446  33.667  28.998  1.00  0.00     0.023 A 
ATOM     84  C   UNL A   1      43.833  34.708  28.281  1.00  0.00     0.031 A 
ATOM     85  C   UNL A   1      45.478  33.998  29.894  1.00  0.00     0.131 A 
ATOM     86  C   UNL A   1      44.291  36.027  28.434  1.00  0.00     0.055 A 
ATOM     87  C   UNL A   1      45.894  35.317  30.081  1.00  0.00     0.041 A 
ATOM     88  F   UNL A   1      46.099  33.042  30.604  1.00  0.00    -0.206 F 
ATOM     89  C   UNL A   1      45.307  36.338  29.341  1.00  0.00     0.022 A 
BRANCH  86  90
ATOM     90  S   UNL A   1      43.594  37.323  27.373  1.00  0.00     0.124 S 
ATOM     91  O   UNL A   1      42.769  38.075  28.313  1.00  0.00    -0.237 OA
ATOM     92  O   UNL A   1      44.789  38.005  26.885  1.00  0.00    -0.237 OA
ATOM     93  O   UNL A   1      42.852  36.575  26.360  1.00  0.00    -0.744 OA
ENDBRANCH  86  90
ENDBRANCH  60  83
ENDBRANCH  34  35
ENDBRANCH  27  29
ENDBRANCH  26  27
ENDBRANCH  25  26
ENDBRANCH  24  25
ENDBRANCH   1  24
TORSDOF 20
ENDMDL
