MODEL 1
REMARK VINA RESULT:     -11.4      0.000      0.000
REMARK SMILES C[C@@H](C(=O)OCCOCCOC(=O)c1ccc(-c2c3nc(c(-c4cc(S(=O)(=O)[O-])ccc4F)c4ccc([nH]4)c(-c4cc(S(=O)(=O)[O-])ccc4F)c4nc(c(-c5cc(S(=O)(=O)[O-])ccc5F)c5ccc2[nH]5)C=C4)C=C3)cc1)c1ccc(C[C@H]2CCC[C@H]2O)cc1
REMARK SMILES IDX 7 1 6 2 5 3 3 4 4 5 2 6 1 7 77 8 78 9 89 10 79 11 88 12
REMARK SMILES IDX 80 13 81 14 82 15 83 16 86 17 84 18 85 19 87 20 8 22 9 23
REMARK SMILES IDX 10 24 11 25 12 26 13 27 14 28 15 29 76 30 16 31 75 32 17 33
REMARK SMILES IDX 18 34 19 35 69 36 20 37 74 38 68 39 70 40 21 41 73 42 67 43
REMARK SMILES IDX 66 44 22 46 54 47 34 48 53 49 35 50 38 51 52 52 71 53 36 54
REMARK SMILES IDX 37 55 51 57 72 58 39 59 23 60 24 61 32 62 25 63 31 64 33 65
REMARK SMILES IDX 30 66 26 67 27 68 28 69 29 70 55 71 56 72 64 73 57 74 63 75
REMARK SMILES IDX 65 76 62 77 58 78 59 79 60 80 61 81 40 82 41 83 49 84 42 85
REMARK SMILES IDX 48 86 50 87 47 88 43 89 44 90 45 91 46 92
REMARK H PARENT 87 21 70 45 38 56
REMARK Flexibility Score: inf
ROOT
ATOM      1  C   UNL A   1      30.664  28.102  24.362  1.00  0.00     0.202 C 
ENDROOT
BRANCH   1   2
ATOM      2  C   UNL A   1      30.378  26.652  24.765  1.00  0.00     0.261 C 
BRANCH   2   3
ATOM      3  O   UNL A   1      31.609  25.929  24.926  1.00  0.00    -0.463 OA
BRANCH   3   4
ATOM      4  C   UNL A   1      31.650  25.051  25.963  1.00  0.00     0.313 C 
ATOM      5  O   UNL A   1      30.688  24.768  26.670  1.00  0.00    -0.252 OA
BRANCH   4   6
ATOM      6  C   UNL A   1      33.003  24.342  26.068  1.00  0.00     0.126 C 
ATOM      7  C   UNL A   1      34.205  25.227  25.725  1.00  0.00     0.025 C 
BRANCH   6   8
ATOM      8  C   UNL A   1      33.045  23.014  25.312  1.00  0.00    -0.034 A 
ATOM      9  C   UNL A   1      32.126  22.690  24.304  1.00  0.00     0.005 A 
ATOM     10  C   UNL A   1      34.006  22.051  25.655  1.00  0.00     0.005 A 
ATOM     11  C   UNL A   1      32.111  21.423  23.720  1.00  0.00     0.004 A 
ATOM     12  C   UNL A   1      33.969  20.771  25.095  1.00  0.00     0.004 A 
ATOM     13  C   UNL A   1      32.969  20.424  24.178  1.00  0.00    -0.048 A 
BRANCH  13  14
ATOM     14  C   UNL A   1      32.749  18.988  23.772  1.00  0.00     0.041 C 
BRANCH  14  15
ATOM     15  C   UNL A   1      33.447  17.918  24.641  1.00  0.00     0.022 C 
ATOM     16  C   UNL A   1      32.523  16.970  25.430  1.00  0.00     0.007 C 
ATOM     17  C   UNL A   1      34.480  16.991  23.974  1.00  0.00     0.117 C 
ATOM     18  C   UNL A   1      33.254  15.629  25.523  1.00  0.00     0.003 C 
ATOM     19  C   UNL A   1      34.663  15.883  25.006  1.00  0.00     0.032 C 
BRANCH  17  20
ATOM     20  O   UNL A   1      34.068  16.408  22.754  1.00  0.00    -0.393 OA
ATOM     21  H   UNL A   1      34.647  16.713  22.038  1.00  0.00     0.210 HD
ENDBRANCH  17  20
ENDBRANCH  14  15
ENDBRANCH  13  14
ENDBRANCH   6   8
ENDBRANCH   4   6
ENDBRANCH   3   4
ENDBRANCH   2   3
ENDBRANCH   1   2
BRANCH   1  22
ATOM     22  O   UNL A   1      32.022  28.402  24.025  1.00  0.00    -0.374 OA
BRANCH  22  23
ATOM     23  C   UNL A   1      32.718  29.334  24.855  1.00  0.00     0.202 C 
BRANCH  23  24
ATOM     24  C   UNL A   1      31.877  30.268  25.730  1.00  0.00     0.261 C 
BRANCH  24  25
ATOM     25  O   UNL A   1      32.411  30.399  27.059  1.00  0.00    -0.460 OA
BRANCH  25  26
ATOM     26  C   UNL A   1      33.115  31.537  27.268  1.00  0.00     0.338 C 
ATOM     27  O   UNL A   1      32.681  32.681  27.252  1.00  0.00    -0.246 OA
BRANCH  26  28
ATOM     28  C   UNL A   1      34.482  31.218  27.716  1.00  0.00     0.060 A 
ATOM     29  C   UNL A   1      34.772  29.872  27.976  1.00  0.00     0.016 A 
ATOM     30  C   UNL A   1      35.434  32.210  27.960  1.00  0.00     0.016 A 
ATOM     31  C   UNL A   1      35.998  29.518  28.532  1.00  0.00     0.010 A 
ATOM     32  C   UNL A   1      36.663  31.851  28.529  1.00  0.00     0.010 A 
ATOM     33  C   UNL A   1      36.934  30.509  28.852  1.00  0.00    -0.014 A 
BRANCH  33  34
ATOM     34  C   UNL A   1      38.117  30.148  29.673  1.00  0.00     0.031 A 
ATOM     35  C   UNL A   1      39.102  29.150  29.126  1.00  0.00     0.074 A 
ATOM     36  C   UNL A   1      38.338  30.740  30.860  1.00  0.00     0.049 A 
ATOM     37  N   UNL A   1      40.190  28.671  29.670  1.00  0.00    -0.248 NA
ATOM     38  C   UNL A   1      38.817  28.623  27.782  1.00  0.00     0.031 C 
ATOM     39  C   UNL A   1      37.482  31.759  31.466  1.00  0.00     0.029 A 
ATOM     40  N   UNL A   1      39.351  30.567  31.770  1.00  0.00    -0.354 N 
ATOM     41  C   UNL A   1      40.722  27.786  28.738  1.00  0.00     0.074 A 
ATOM     42  C   UNL A   1      39.813  27.766  27.611  1.00  0.00     0.031 C 
ATOM     43  C   UNL A   1      38.001  32.113  32.653  1.00  0.00     0.029 A 
ATOM     44  C   UNL A   1      39.202  31.321  32.910  1.00  0.00     0.049 A 
ATOM     45  H   UNL A   1      40.111  29.960  31.620  1.00  0.00     0.167 HD
ATOM     46  C   UNL A   1      41.869  27.065  28.811  1.00  0.00     0.034 A 
ATOM     47  C   UNL A   1      39.939  31.349  34.039  1.00  0.00     0.034 A 
ATOM     48  C   UNL A   1      42.757  27.086  29.948  1.00  0.00     0.049 A 
ATOM     49  C   UNL A   1      41.162  30.469  34.137  1.00  0.00     0.074 A 
ATOM     50  C   UNL A   1      43.945  26.398  30.127  1.00  0.00     0.029 A 
ATOM     51  N   UNL A   1      42.550  27.825  31.106  1.00  0.00    -0.354 N 
ATOM     52  N   UNL A   1      41.656  29.636  33.248  1.00  0.00    -0.248 NA
ATOM     53  C   UNL A   1      41.933  30.540  35.386  1.00  0.00     0.031 C 
ATOM     54  C   UNL A   1      44.418  26.667  31.417  1.00  0.00     0.029 A 
ATOM     55  C   UNL A   1      43.569  27.585  32.016  1.00  0.00     0.049 A 
ATOM     56  H   UNL A   1      41.789  28.433  31.259  1.00  0.00     0.167 HD
ATOM     57  C   UNL A   1      42.811  29.109  33.821  1.00  0.00     0.074 A 
ATOM     58  C   UNL A   1      42.947  29.728  35.124  1.00  0.00     0.031 C 
ATOM     59  C   UNL A   1      43.684  28.201  33.316  1.00  0.00     0.034 A 
BRANCH  46  60
ATOM     60  C   UNL A   1      42.191  26.157  27.649  1.00  0.00     0.023 A 
ATOM     61  C   UNL A   1      41.752  24.822  27.607  1.00  0.00     0.031 A 
ATOM     62  C   UNL A   1      42.974  26.626  26.579  1.00  0.00     0.131 A 
ATOM     63  C   UNL A   1      42.155  23.985  26.554  1.00  0.00     0.055 A 
ATOM     64  C   UNL A   1      43.307  25.810  25.496  1.00  0.00     0.041 A 
ATOM     65  F   UNL A   1      43.442  27.885  26.575  1.00  0.00    -0.206 F 
ATOM     66  C   UNL A   1      42.909  24.477  25.487  1.00  0.00     0.022 A 
BRANCH  63  67
ATOM     67  S   UNL A   1      41.797  22.210  26.670  1.00  0.00     0.124 S 
ATOM     68  O   UNL A   1      42.281  21.727  25.379  1.00  0.00    -0.237 OA
ATOM     69  O   UNL A   1      42.575  21.808  27.836  1.00  0.00    -0.237 OA
ATOM     70  O   UNL A   1      40.347  22.164  26.841  1.00  0.00    -0.744 OA
ENDBRANCH  63  67
ENDBRANCH  46  60
BRANCH  47  71
ATOM     71  C   UNL A   1      39.521  32.198  35.192  1.00  0.00     0.023 A 
ATOM     72  C   UNL A   1      38.800  31.662  36.271  1.00  0.00     0.031 A 
ATOM     73  C   UNL A   1      39.789  33.579  35.201  1.00  0.00     0.131 A 
ATOM     74  C   UNL A   1      38.331  32.509  37.288  1.00  0.00     0.055 A 
ATOM     75  C   UNL A   1      39.368  34.408  36.241  1.00  0.00     0.041 A 
ATOM     76  F   UNL A   1      40.472  34.145  34.193  1.00  0.00    -0.206 F 
ATOM     77  C   UNL A   1      38.622  33.875  37.287  1.00  0.00     0.022 A 
BRANCH  74  78
ATOM     78  S   UNL A   1      37.255  31.813  38.573  1.00  0.00     0.124 S 
ATOM     79  O   UNL A   1      38.089  31.949  39.763  1.00  0.00    -0.237 OA
ATOM     80  O   UNL A   1      36.093  32.690  38.501  1.00  0.00    -0.237 OA
ATOM     81  O   UNL A   1      37.030  30.442  38.121  1.00  0.00    -0.744 OA
ENDBRANCH  74  78
ENDBRANCH  47  71
BRANCH  59  82
ATOM     82  C   UNL A   1      44.889  27.860  34.162  1.00  0.00     0.023 A 
ATOM     83  C   UNL A   1      44.888  26.772  35.051  1.00  0.00     0.031 A 
ATOM     84  C   UNL A   1      46.052  28.646  34.080  1.00  0.00     0.131 A 
ATOM     85  C   UNL A   1      46.007  26.531  35.863  1.00  0.00     0.055 A 
ATOM     86  C   UNL A   1      47.185  28.367  34.846  1.00  0.00     0.041 A 
ATOM     87  F   UNL A   1      46.109  29.699  33.248  1.00  0.00    -0.206 F 
ATOM     88  C   UNL A   1      47.161  27.312  35.754  1.00  0.00     0.022 A 
BRANCH  85  89
ATOM     89  S   UNL A   1      45.904  25.238  37.130  1.00  0.00     0.124 S 
ATOM     90  O   UNL A   1      44.695  25.617  37.853  1.00  0.00    -0.237 OA
ATOM     91  O   UNL A   1      45.813  24.022  36.330  1.00  0.00    -0.237 OA
ATOM     92  O   UNL A   1      47.149  25.393  37.881  1.00  0.00    -0.744 OA
ENDBRANCH  85  89
ENDBRANCH  59  82
ENDBRANCH  33  34
ENDBRANCH  26  28
ENDBRANCH  25  26
ENDBRANCH  24  25
ENDBRANCH  23  24
ENDBRANCH  22  23
ENDBRANCH   1  22
TORSDOF 21
ENDMDL
MODEL 2
REMARK VINA RESULT:     -11.3      4.873      7.177
REMARK SMILES C[C@@H](C(=O)OCCOCCOC(=O)c1ccc(-c2c3nc(c(-c4cc(S(=O)(=O)[O-])ccc4F)c4ccc([nH]4)c(-c4cc(S(=O)(=O)[O-])ccc4F)c4nc(c(-c5cc(S(=O)(=O)[O-])ccc5F)c5ccc2[nH]5)C=C4)C=C3)cc1)c1ccc(C[C@H]2CCC[C@H]2O)cc1
REMARK SMILES IDX 7 1 6 2 5 3 3 4 4 5 2 6 1 7 77 8 78 9 89 10 79 11 88 12
REMARK SMILES IDX 80 13 81 14 82 15 83 16 86 17 84 18 85 19 87 20 8 22 9 23
REMARK SMILES IDX 10 24 11 25 12 26 13 27 14 28 15 29 76 30 16 31 75 32 17 33
REMARK SMILES IDX 18 34 19 35 69 36 20 37 74 38 68 39 70 40 21 41 73 42 67 43
REMARK SMILES IDX 66 44 22 46 54 47 34 48 53 49 35 50 38 51 52 52 71 53 36 54
REMARK SMILES IDX 37 55 51 57 72 58 39 59 23 60 24 61 32 62 25 63 31 64 33 65
REMARK SMILES IDX 30 66 26 67 27 68 28 69 29 70 55 71 56 72 64 73 57 74 63 75
REMARK SMILES IDX 65 76 62 77 58 78 59 79 60 80 61 81 40 82 41 83 49 84 42 85
REMARK SMILES IDX 48 86 50 87 47 88 43 89 44 90 45 91 46 92
REMARK H PARENT 87 21 70 45 38 56
REMARK Flexibility Score: inf
ROOT
ATOM      1  C   UNL A   1      35.466  23.300  24.499  1.00  0.00     0.202 C 
ENDROOT
BRANCH   1   2
ATOM      2  C   UNL A   1      34.967  24.639  25.053  1.00  0.00     0.261 C 
BRANCH   2   3
ATOM      3  O   UNL A   1      33.700  24.463  25.707  1.00  0.00    -0.463 OA
BRANCH   3   4
ATOM      4  C   UNL A   1      32.602  24.584  24.916  1.00  0.00     0.313 C 
ATOM      5  O   UNL A   1      32.478  25.420  24.026  1.00  0.00    -0.252 OA
BRANCH   4   6
ATOM      6  C   UNL A   1      31.585  23.467  25.162  1.00  0.00     0.126 C 
ATOM      7  C   UNL A   1      31.158  23.316  26.625  1.00  0.00     0.025 C 
BRANCH   6   8
ATOM      8  C   UNL A   1      32.004  22.128  24.554  1.00  0.00    -0.034 A 
ATOM      9  C   UNL A   1      32.106  21.927  23.170  1.00  0.00     0.005 A 
ATOM     10  C   UNL A   1      32.258  21.035  25.395  1.00  0.00     0.005 A 
ATOM     11  C   UNL A   1      32.367  20.663  22.642  1.00  0.00     0.004 A 
ATOM     12  C   UNL A   1      32.486  19.761  24.864  1.00  0.00     0.004 A 
ATOM     13  C   UNL A   1      32.465  19.552  23.480  1.00  0.00    -0.048 A 
BRANCH  13  14
ATOM     14  C   UNL A   1      32.438  18.159  22.903  1.00  0.00     0.041 C 
BRANCH  14  15
ATOM     15  C   UNL A   1      33.511  17.180  23.432  1.00  0.00     0.022 C 
ATOM     16  C   UNL A   1      34.729  17.814  24.129  1.00  0.00     0.007 C 
ATOM     17  C   UNL A   1      33.067  16.046  24.374  1.00  0.00     0.117 C 
ATOM     18  C   UNL A   1      35.183  16.821  25.200  1.00  0.00     0.003 C 
ATOM     19  C   UNL A   1      34.387  15.546  24.954  1.00  0.00     0.032 C 
BRANCH  17  20
ATOM     20  O   UNL A   1      32.227  16.442  25.441  1.00  0.00    -0.393 OA
ATOM     21  H   UNL A   1      31.974  17.371  25.325  1.00  0.00     0.210 HD
ENDBRANCH  17  20
ENDBRANCH  14  15
ENDBRANCH  13  14
ENDBRANCH   6   8
ENDBRANCH   4   6
ENDBRANCH   3   4
ENDBRANCH   2   3
ENDBRANCH   1   2
BRANCH   1  22
ATOM     22  O   UNL A   1      35.752  22.288  25.467  1.00  0.00    -0.374 OA
BRANCH  22  23
ATOM     23  C   UNL A   1      36.142  21.002  24.982  1.00  0.00     0.202 C 
BRANCH  23  24
ATOM     24  C   UNL A   1      37.619  20.615  25.108  1.00  0.00     0.261 C 
BRANCH  24  25
ATOM     25  O   UNL A   1      38.467  21.759  25.307  1.00  0.00    -0.460 OA
BRANCH  25  26
ATOM     26  C   UNL A   1      39.490  21.551  26.171  1.00  0.00     0.338 C 
ATOM     27  O   UNL A   1      40.164  20.536  26.279  1.00  0.00    -0.246 OA
BRANCH  26  28
ATOM     28  C   UNL A   1      39.832  22.803  26.869  1.00  0.00     0.060 A 
ATOM     29  C   UNL A   1      39.102  23.949  26.523  1.00  0.00     0.016 A 
ATOM     30  C   UNL A   1      40.890  22.883  27.777  1.00  0.00     0.016 A 
ATOM     31  C   UNL A   1      39.464  25.189  27.041  1.00  0.00     0.010 A 
ATOM     32  C   UNL A   1      41.257  24.134  28.289  1.00  0.00     0.010 A 
ATOM     33  C   UNL A   1      40.570  25.296  27.893  1.00  0.00    -0.014 A 
BRANCH  33  34
ATOM     34  C   UNL A   1      41.096  26.643  28.230  1.00  0.00     0.031 A 
ATOM     35  C   UNL A   1      42.524  26.971  27.885  1.00  0.00     0.074 A 
ATOM     36  C   UNL A   1      40.300  27.574  28.784  1.00  0.00     0.049 A 
ATOM     37  N   UNL A   1      43.201  28.068  28.102  1.00  0.00    -0.248 NA
ATOM     38  C   UNL A   1      43.289  25.914  27.204  1.00  0.00     0.031 C 
ATOM     39  C   UNL A   1      38.887  27.387  29.112  1.00  0.00     0.029 A 
ATOM     40  N   UNL A   1      40.567  28.864  29.169  1.00  0.00    -0.354 N 
ATOM     41  C   UNL A   1      44.471  27.838  27.584  1.00  0.00     0.074 A 
ATOM     42  C   UNL A   1      44.480  26.480  27.081  1.00  0.00     0.031 C 
ATOM     43  C   UNL A   1      38.415  28.519  29.661  1.00  0.00     0.029 A 
ATOM     44  C   UNL A   1      39.497  29.496  29.757  1.00  0.00     0.049 A 
ATOM     45  H   UNL A   1      41.443  29.294  29.038  1.00  0.00     0.167 HD
ATOM     46  C   UNL A   1      45.530  28.685  27.525  1.00  0.00     0.034 A 
ATOM     47  C   UNL A   1      39.411  30.715  30.328  1.00  0.00     0.034 A 
ATOM     48  C   UNL A   1      45.508  30.031  28.045  1.00  0.00     0.049 A 
ATOM     49  C   UNL A   1      40.629  31.608  30.334  1.00  0.00     0.074 A 
ATOM     50  C   UNL A   1      46.521  30.974  28.036  1.00  0.00     0.029 A 
ATOM     51  N   UNL A   1      44.422  30.622  28.678  1.00  0.00    -0.354 N 
ATOM     52  N   UNL A   1      41.826  31.380  29.841  1.00  0.00    -0.248 NA
ATOM     53  C   UNL A   1      40.482  32.927  30.965  1.00  0.00     0.031 C 
ATOM     54  C   UNL A   1      46.071  32.108  28.724  1.00  0.00     0.029 A 
ATOM     55  C   UNL A   1      44.750  31.904  29.093  1.00  0.00     0.049 A 
ATOM     56  H   UNL A   1      43.545  30.193  28.812  1.00  0.00     0.167 HD
ATOM     57  C   UNL A   1      42.561  32.539  30.076  1.00  0.00     0.074 A 
ATOM     58  C   UNL A   1      41.671  33.467  30.741  1.00  0.00     0.031 C 
ATOM     59  C   UNL A   1      43.854  32.814  29.767  1.00  0.00     0.034 A 
BRANCH  46  60
ATOM     60  C   UNL A   1      46.808  28.154  26.924  1.00  0.00     0.023 A 
ATOM     61  C   UNL A   1      47.037  28.167  25.537  1.00  0.00     0.031 A 
ATOM     62  C   UNL A   1      47.802  27.598  27.750  1.00  0.00     0.131 A 
ATOM     63  C   UNL A   1      48.198  27.575  25.013  1.00  0.00     0.055 A 
ATOM     64  C   UNL A   1      48.989  27.080  27.228  1.00  0.00     0.041 A 
ATOM     65  F   UNL A   1      47.629  27.535  29.080  1.00  0.00    -0.206 F 
ATOM     66  C   UNL A   1      49.186  27.053  25.851  1.00  0.00     0.022 A 
BRANCH  63  67
ATOM     67  S   UNL A   1      48.332  27.370  23.215  1.00  0.00     0.124 S 
ATOM     68  O   UNL A   1      47.225  28.197  22.741  1.00  0.00    -0.237 OA
ATOM     69  O   UNL A   1      49.672  27.875  22.940  1.00  0.00    -0.237 OA
ATOM     70  O   UNL A   1      48.155  25.932  23.020  1.00  0.00    -0.744 OA
ENDBRANCH  63  67
ENDBRANCH  46  60
BRANCH  47  71
ATOM     71  C   UNL A   1      38.147  31.151  30.989  1.00  0.00     0.023 A 
ATOM     72  C   UNL A   1      37.130  31.795  30.267  1.00  0.00     0.031 A 
ATOM     73  C   UNL A   1      37.965  30.979  32.373  1.00  0.00     0.131 A 
ATOM     74  C   UNL A   1      35.999  32.286  30.940  1.00  0.00     0.055 A 
ATOM     75  C   UNL A   1      36.814  31.420  33.028  1.00  0.00     0.041 A 
ATOM     76  F   UNL A   1      38.907  30.372  33.112  1.00  0.00    -0.206 F 
ATOM     77  C   UNL A   1      35.828  32.091  32.312  1.00  0.00     0.022 A 
BRANCH  74  78
ATOM     78  S   UNL A   1      34.790  33.266  30.007  1.00  0.00     0.124 S 
ATOM     79  O   UNL A   1      34.133  32.240  29.203  1.00  0.00    -0.237 OA
ATOM     80  O   UNL A   1      33.989  33.853  31.075  1.00  0.00    -0.237 OA
ATOM     81  O   UNL A   1      35.620  34.209  29.261  1.00  0.00    -0.744 OA
ENDBRANCH  74  78
ENDBRANCH  47  71
BRANCH  59  82
ATOM     82  C   UNL A   1      44.363  34.196  30.104  1.00  0.00     0.023 A 
ATOM     83  C   UNL A   1      44.184  35.285  29.236  1.00  0.00     0.031 A 
ATOM     84  C   UNL A   1      45.047  34.419  31.313  1.00  0.00     0.131 A 
ATOM     85  C   UNL A   1      44.730  36.537  29.561  1.00  0.00     0.055 A 
ATOM     86  C   UNL A   1      45.535  35.680  31.660  1.00  0.00     0.041 A 
ATOM     87  F   UNL A   1      45.247  33.414  32.181  1.00  0.00    -0.206 F 
ATOM     88  C   UNL A   1      45.389  36.744  30.776  1.00  0.00     0.022 A 
BRANCH  85  89
ATOM     89  S   UNL A   1      44.645  37.872  28.337  1.00  0.00     0.124 S 
ATOM     90  O   UNL A   1      46.018  38.366  28.331  1.00  0.00    -0.237 OA
ATOM     91  O   UNL A   1      44.218  37.166  27.133  1.00  0.00    -0.237 OA
ATOM     92  O   UNL A   1      43.658  38.791  28.897  1.00  0.00    -0.744 OA
ENDBRANCH  85  89
ENDBRANCH  59  82
ENDBRANCH  33  34
ENDBRANCH  26  28
ENDBRANCH  25  26
ENDBRANCH  24  25
ENDBRANCH  23  24
ENDBRANCH  22  23
ENDBRANCH   1  22
TORSDOF 21
ENDMDL
MODEL 3
REMARK VINA RESULT:     -11.2      4.724      8.099
REMARK SMILES C[C@@H](C(=O)OCCOCCOC(=O)c1ccc(-c2c3nc(c(-c4cc(S(=O)(=O)[O-])ccc4F)c4ccc([nH]4)c(-c4cc(S(=O)(=O)[O-])ccc4F)c4nc(c(-c5cc(S(=O)(=O)[O-])ccc5F)c5ccc2[nH]5)C=C4)C=C3)cc1)c1ccc(C[C@H]2CCC[C@H]2O)cc1
REMARK SMILES IDX 7 1 6 2 5 3 3 4 4 5 2 6 1 7 77 8 78 9 89 10 79 11 88 12
REMARK SMILES IDX 80 13 81 14 82 15 83 16 86 17 84 18 85 19 87 20 8 22 9 23
REMARK SMILES IDX 10 24 11 25 12 26 13 27 14 28 15 29 76 30 16 31 75 32 17 33
REMARK SMILES IDX 18 34 19 35 69 36 20 37 74 38 68 39 70 40 21 41 73 42 67 43
REMARK SMILES IDX 66 44 22 46 54 47 34 48 53 49 35 50 38 51 52 52 71 53 36 54
REMARK SMILES IDX 37 55 51 57 72 58 39 59 23 60 24 61 32 62 25 63 31 64 33 65
REMARK SMILES IDX 30 66 26 67 27 68 28 69 29 70 55 71 56 72 64 73 57 74 63 75
REMARK SMILES IDX 65 76 62 77 58 78 59 79 60 80 61 81 40 82 41 83 49 84 42 85
REMARK SMILES IDX 48 86 50 87 47 88 43 89 44 90 45 91 46 92
REMARK H PARENT 87 21 70 45 38 56
REMARK Flexibility Score: inf
ROOT
ATOM      1  C   UNL A   1      35.893  23.525  24.656  1.00  0.00     0.202 C 
ENDROOT
BRANCH   1   2
ATOM      2  C   UNL A   1      35.240  23.167  23.316  1.00  0.00     0.261 C 
BRANCH   2   3
ATOM      3  O   UNL A   1      34.444  24.265  22.844  1.00  0.00    -0.463 OA
BRANCH   3   4
ATOM      4  C   UNL A   1      33.107  24.169  23.069  1.00  0.00     0.313 C 
ATOM      5  O   UNL A   1      32.381  23.311  22.576  1.00  0.00    -0.252 OA
BRANCH   4   6
ATOM      6  C   UNL A   1      32.624  25.169  24.123  1.00  0.00     0.126 C 
ATOM      7  C   UNL A   1      32.375  24.556  25.504  1.00  0.00     0.025 C 
BRANCH   6   8
ATOM      8  C   UNL A   1      31.436  26.010  23.654  1.00  0.00    -0.034 A 
ATOM      9  C   UNL A   1      31.569  27.051  22.725  1.00  0.00     0.005 A 
ATOM     10  C   UNL A   1      30.164  25.774  24.195  1.00  0.00     0.005 A 
ATOM     11  C   UNL A   1      30.493  27.881  22.412  1.00  0.00     0.004 A 
ATOM     12  C   UNL A   1      29.094  26.627  23.908  1.00  0.00     0.004 A 
ATOM     13  C   UNL A   1      29.273  27.736  23.071  1.00  0.00    -0.048 A 
BRANCH  13  14
ATOM     14  C   UNL A   1      28.218  28.809  22.965  1.00  0.00     0.041 C 
BRANCH  14  15
ATOM     15  C   UNL A   1      28.719  30.225  22.601  1.00  0.00     0.022 C 
ATOM     16  C   UNL A   1      28.381  30.726  21.184  1.00  0.00     0.007 C 
ATOM     17  C   UNL A   1      28.345  31.395  23.529  1.00  0.00     0.117 C 
ATOM     18  C   UNL A   1      28.212  32.243  21.288  1.00  0.00     0.003 C 
ATOM     19  C   UNL A   1      28.680  32.622  22.687  1.00  0.00     0.032 C 
BRANCH  17  20
ATOM     20  O   UNL A   1      26.981  31.460  23.898  1.00  0.00    -0.393 OA
ATOM     21  H   UNL A   1      26.809  32.298  24.356  1.00  0.00     0.210 HD
ENDBRANCH  17  20
ENDBRANCH  14  15
ENDBRANCH  13  14
ENDBRANCH   6   8
ENDBRANCH   4   6
ENDBRANCH   3   4
ENDBRANCH   2   3
ENDBRANCH   1   2
BRANCH   1  22
ATOM     22  O   UNL A   1      35.951  22.474  25.625  1.00  0.00    -0.374 OA
BRANCH  22  23
ATOM     23  C   UNL A   1      35.952  21.129  25.142  1.00  0.00     0.202 C 
BRANCH  23  24
ATOM     24  C   UNL A   1      37.307  20.428  25.003  1.00  0.00     0.261 C 
BRANCH  24  25
ATOM     25  O   UNL A   1      38.409  21.346  25.093  1.00  0.00    -0.460 OA
BRANCH  25  26
ATOM     26  C   UNL A   1      39.318  21.035  26.048  1.00  0.00     0.338 C 
ATOM     27  O   UNL A   1      39.849  19.947  26.229  1.00  0.00    -0.246 OA
BRANCH  26  28
ATOM     28  C   UNL A   1      39.749  22.251  26.760  1.00  0.00     0.060 A 
ATOM     29  C   UNL A   1      39.105  23.450  26.426  1.00  0.00     0.016 A 
ATOM     30  C   UNL A   1      40.811  22.244  27.667  1.00  0.00     0.016 A 
ATOM     31  C   UNL A   1      39.555  24.655  26.957  1.00  0.00     0.010 A 
ATOM     32  C   UNL A   1      41.268  23.460  28.192  1.00  0.00     0.010 A 
ATOM     33  C   UNL A   1      40.666  24.673  27.809  1.00  0.00    -0.014 A 
BRANCH  33  34
ATOM     34  C   UNL A   1      41.289  25.974  28.159  1.00  0.00     0.031 A 
ATOM     35  C   UNL A   1      42.694  26.254  27.700  1.00  0.00     0.074 A 
ATOM     36  C   UNL A   1      40.594  26.911  28.829  1.00  0.00     0.049 A 
ATOM     37  N   UNL A   1      43.443  27.306  27.905  1.00  0.00    -0.248 NA
ATOM     38  C   UNL A   1      43.340  25.200  26.901  1.00  0.00     0.031 C 
ATOM     39  C   UNL A   1      39.209  26.773  29.278  1.00  0.00     0.029 A 
ATOM     40  N   UNL A   1      40.961  28.165  29.249  1.00  0.00    -0.354 N 
ATOM     41  C   UNL A   1      44.648  27.044  27.262  1.00  0.00     0.074 A 
ATOM     42  C   UNL A   1      44.542  25.716  26.695  1.00  0.00     0.031 C 
ATOM     43  C   UNL A   1      38.847  27.895  29.922  1.00  0.00     0.029 A 
ATOM     44  C   UNL A   1      39.982  28.815  29.963  1.00  0.00     0.049 A 
ATOM     45  H   UNL A   1      41.841  28.561  29.058  1.00  0.00     0.167 HD
ATOM     46  C   UNL A   1      45.739  27.843  27.145  1.00  0.00     0.034 A 
ATOM     47  C   UNL A   1      40.010  30.005  30.598  1.00  0.00     0.034 A 
ATOM     48  C   UNL A   1      45.832  29.160  27.728  1.00  0.00     0.049 A 
ATOM     49  C   UNL A   1      41.267  30.839  30.534  1.00  0.00     0.074 A 
ATOM     50  C   UNL A   1      46.887  30.055  27.671  1.00  0.00     0.029 A 
ATOM     51  N   UNL A   1      44.840  29.766  28.487  1.00  0.00    -0.354 N 
ATOM     52  N   UNL A   1      42.401  30.581  29.922  1.00  0.00    -0.248 NA
ATOM     53  C   UNL A   1      41.245  32.128  31.238  1.00  0.00     0.031 C 
ATOM     54  C   UNL A   1      46.559  31.170  28.451  1.00  0.00     0.029 A 
ATOM     55  C   UNL A   1      45.269  31.008  28.931  1.00  0.00     0.049 A 
ATOM     56  H   UNL A   1      43.958  29.372  28.681  1.00  0.00     0.167 HD
ATOM     57  C   UNL A   1      43.213  31.691  30.143  1.00  0.00     0.074 A 
ATOM     58  C   UNL A   1      42.434  32.624  30.931  1.00  0.00     0.031 C 
ATOM     59  C   UNL A   1      44.485  31.922  29.728  1.00  0.00     0.034 A 
BRANCH  46  60
ATOM     60  C   UNL A   1      46.929  27.286  26.403  1.00  0.00     0.023 A 
ATOM     61  C   UNL A   1      47.907  26.509  27.047  1.00  0.00     0.031 A 
ATOM     62  C   UNL A   1      47.103  27.561  25.035  1.00  0.00     0.131 A 
ATOM     63  C   UNL A   1      49.047  26.092  26.341  1.00  0.00     0.055 A 
ATOM     64  C   UNL A   1      48.200  27.078  24.320  1.00  0.00     0.041 A 
ATOM     65  F   UNL A   1      46.214  28.318  24.371  1.00  0.00    -0.206 F 
ATOM     66  C   UNL A   1      49.188  26.350  24.977  1.00  0.00     0.022 A 
BRANCH  63  67
ATOM     67  S   UNL A   1      50.409  25.327  27.265  1.00  0.00     0.124 S 
ATOM     68  O   UNL A   1      50.813  26.416  28.151  1.00  0.00    -0.237 OA
ATOM     69  O   UNL A   1      49.756  24.190  27.905  1.00  0.00    -0.237 OA
ATOM     70  O   UNL A   1      51.378  24.986  26.226  1.00  0.00    -0.744 OA
ENDBRANCH  63  67
ENDBRANCH  46  60
BRANCH  47  71
ATOM     71  C   UNL A   1      38.834  30.463  31.394  1.00  0.00     0.023 A 
ATOM     72  C   UNL A   1      37.746  31.107  30.785  1.00  0.00     0.031 A 
ATOM     73  C   UNL A   1      38.812  30.313  32.792  1.00  0.00     0.131 A 
ATOM     74  C   UNL A   1      36.705  31.620  31.576  1.00  0.00     0.055 A 
ATOM     75  C   UNL A   1      37.749  30.775  33.569  1.00  0.00     0.041 A 
ATOM     76  F   UNL A   1      39.828  29.707  33.427  1.00  0.00    -0.206 F 
ATOM     77  C   UNL A   1      36.692  31.446  32.961  1.00  0.00     0.022 A 
BRANCH  74  78
ATOM     78  S   UNL A   1      35.405  32.599  30.774  1.00  0.00     0.124 S 
ATOM     79  O   UNL A   1      35.147  31.818  29.568  1.00  0.00    -0.237 OA
ATOM     80  O   UNL A   1      34.352  32.587  31.783  1.00  0.00    -0.237 OA
ATOM     81  O   UNL A   1      36.042  33.895  30.554  1.00  0.00    -0.744 OA
ENDBRANCH  74  78
ENDBRANCH  47  71
BRANCH  59  82
ATOM     82  C   UNL A   1      45.092  33.259  30.083  1.00  0.00     0.023 A 
ATOM     83  C   UNL A   1      45.841  33.446  31.257  1.00  0.00     0.031 A 
ATOM     84  C   UNL A   1      44.908  34.365  29.233  1.00  0.00     0.131 A 
ATOM     85  C   UNL A   1      46.333  34.721  31.578  1.00  0.00     0.055 A 
ATOM     86  C   UNL A   1      45.450  35.617  29.527  1.00  0.00     0.041 A 
ATOM     87  F   UNL A   1      44.200  34.245  28.098  1.00  0.00    -0.206 F 
ATOM     88  C   UNL A   1      46.156  35.803  30.712  1.00  0.00     0.022 A 
BRANCH  85  89
ATOM     89  S   UNL A   1      47.131  34.969  33.187  1.00  0.00     0.124 S 
ATOM     90  O   UNL A   1      46.082  35.640  33.947  1.00  0.00    -0.237 OA
ATOM     91  O   UNL A   1      47.439  33.602  33.598  1.00  0.00    -0.237 OA
ATOM     92  O   UNL A   1      48.293  35.796  32.871  1.00  0.00    -0.744 OA
ENDBRANCH  85  89
ENDBRANCH  59  82
ENDBRANCH  33  34
ENDBRANCH  26  28
ENDBRANCH  25  26
ENDBRANCH  24  25
ENDBRANCH  23  24
ENDBRANCH  22  23
ENDBRANCH   1  22
TORSDOF 21
ENDMDL
