MODEL 1
REMARK VINA RESULT:      -9.5      0.000      0.000
REMARK SMILES CCC[NH2+]C[C@H]1CCC[N@@H+](Cc2ccc(C(=O)OCCOCCOC(=O)c3ccc(-c4c5nc(c(-c6cc(S(=O)(=O)[O-])ccc6F)c6ccc([nH]6)c(-c6cc(S(=O)(=O)[O-])ccc6F)c6nc(c(-c7cc(S(=O)(=O)[O-])ccc7F)c7ccc4[nH]7)C=C6)C=C5)cc3)cc2)C1
REMARK SMILES IDX 19 1 18 2 16 3 17 4 15 5 12 6 13 7 91 8 14 9 90 10 11 11
REMARK SMILES IDX 10 12 6 13 7 14 92 15 8 16 9 17 5 19 4 20 3 23 2 24 1 25
REMARK SMILES IDX 20 26 21 27 22 28 23 29 24 30 25 31 26 32 27 33 28 34 89 35
REMARK SMILES IDX 29 36 88 37 30 38 31 39 32 40 82 41 33 42 87 43 81 44 83 45
REMARK SMILES IDX 34 46 86 47 80 48 79 49 35 51 67 52 47 53 66 54 48 55 51 56
REMARK SMILES IDX 65 57 84 58 49 59 50 60 64 62 85 63 52 64 36 65 37 66 45 67
REMARK SMILES IDX 38 68 44 69 46 70 43 71 39 72 40 73 41 74 42 75 68 76 69 77
REMARK SMILES IDX 77 78 70 79 76 80 78 81 75 82 71 83 72 84 73 85 74 86 53 87
REMARK SMILES IDX 54 88 62 89 55 90 61 91 63 92 60 93 56 94 57 95 58 96 59 97
REMARK H PARENT 10 18 4 21 4 22 83 50 51 61
REMARK Flexibility Score: inf
ROOT
ATOM      1  C   UNL A   1      30.518  27.835  22.445  1.00  0.00     0.261 C 
ENDROOT
BRANCH   1   2
ATOM      2  O   UNL A   1      30.572  26.443  22.781  1.00  0.00    -0.460 OA
BRANCH   2   3
ATOM      3  C   UNL A   1      31.708  25.812  22.407  1.00  0.00     0.338 C 
ATOM      4  O   UNL A   1      32.188  25.770  21.283  1.00  0.00    -0.246 OA
BRANCH   3   5
ATOM      5  C   UNL A   1      32.406  25.264  23.595  1.00  0.00     0.060 A 
ATOM      6  C   UNL A   1      33.950  24.140  25.636  1.00  0.00     0.006 A 
ATOM      7  C   UNL A   1      34.425  25.251  24.928  1.00  0.00     0.010 A 
ATOM      8  C   UNL A   1      32.625  23.721  25.438  1.00  0.00     0.010 A 
ATOM      9  C   UNL A   1      33.658  25.806  23.908  1.00  0.00     0.016 A 
ATOM     10  C   UNL A   1      31.862  24.258  24.400  1.00  0.00     0.016 A 
BRANCH   6  11
ATOM     11  C   UNL A   1      34.930  23.283  26.426  1.00  0.00     0.299 C 
BRANCH  11  12
ATOM     12  N   UNL A   1      35.771  22.377  25.595  1.00  0.00    -0.331 N 
ATOM     13  C   UNL A   1      38.113  21.464  25.240  1.00  0.00     0.099 C 
ATOM     14  C   UNL A   1      37.529  20.044  25.271  1.00  0.00     0.021 C 
ATOM     15  C   UNL A   1      37.178  22.408  26.019  1.00  0.00     0.271 C 
ATOM     16  C   UNL A   1      36.104  20.062  24.733  1.00  0.00     0.062 C 
ATOM     17  C   UNL A   1      35.235  21.007  25.556  1.00  0.00     0.262 C 
ATOM     18  H   UNL A   1      35.738  22.730  24.638  1.00  0.00     0.348 HD
BRANCH  13  19
ATOM     19  C   UNL A   1      39.529  21.579  25.859  1.00  0.00     0.269 C 
BRANCH  19  20
ATOM     20  N   UNL A   1      39.634  22.216  27.166  1.00  0.00    -0.346 N 
ATOM     21  H   UNL A   1      38.711  22.560  27.427  1.00  0.00     0.346 HD
ATOM     22  H   UNL A   1      39.993  21.506  27.806  1.00  0.00     0.346 HD
BRANCH  20  23
ATOM     23  C   UNL A   1      40.567  23.332  27.223  1.00  0.00     0.260 C 
BRANCH  23  24
ATOM     24  C   UNL A   1      39.842  24.666  27.003  1.00  0.00     0.058 C 
ATOM     25  C   UNL A   1      39.342  25.317  28.289  1.00  0.00     0.010 C 
ENDBRANCH  23  24
ENDBRANCH  20  23
ENDBRANCH  19  20
ENDBRANCH  13  19
ENDBRANCH  11  12
ENDBRANCH   6  11
ENDBRANCH   3   5
ENDBRANCH   2   3
ENDBRANCH   1   2
BRANCH   1  26
ATOM     26  C   UNL A   1      30.934  28.705  23.635  1.00  0.00     0.202 C 
BRANCH  26  27
ATOM     27  O   UNL A   1      32.295  29.135  23.690  1.00  0.00    -0.374 OA
BRANCH  27  28
ATOM     28  C   UNL A   1      32.871  29.365  24.976  1.00  0.00     0.202 C 
BRANCH  28  29
ATOM     29  C   UNL A   1      32.149  30.316  25.938  1.00  0.00     0.261 C 
BRANCH  29  30
ATOM     30  O   UNL A   1      32.778  30.400  27.228  1.00  0.00    -0.460 OA
BRANCH  30  31
ATOM     31  C   UNL A   1      33.449  31.556  27.452  1.00  0.00     0.338 C 
ATOM     32  O   UNL A   1      32.988  32.690  27.428  1.00  0.00    -0.246 OA
BRANCH  31  33
ATOM     33  C   UNL A   1      34.812  31.261  27.931  1.00  0.00     0.060 A 
ATOM     34  C   UNL A   1      35.078  29.960  28.374  1.00  0.00     0.016 A 
ATOM     35  C   UNL A   1      35.793  32.252  28.003  1.00  0.00     0.016 A 
ATOM     36  C   UNL A   1      36.324  29.649  28.915  1.00  0.00     0.010 A 
ATOM     37  C   UNL A   1      37.039  31.939  28.559  1.00  0.00     0.010 A 
ATOM     38  C   UNL A   1      37.304  30.642  29.037  1.00  0.00    -0.014 A 
BRANCH  38  39
ATOM     39  C   UNL A   1      38.570  30.345  29.752  1.00  0.00     0.031 A 
ATOM     40  C   UNL A   1      38.767  30.870  31.148  1.00  0.00     0.074 A 
ATOM     41  C   UNL A   1      39.523  29.596  29.168  1.00  0.00     0.049 A 
ATOM     42  N   UNL A   1      39.813  30.780  31.928  1.00  0.00    -0.248 NA
ATOM     43  C   UNL A   1      37.634  31.595  31.743  1.00  0.00     0.031 C 
ATOM     44  C   UNL A   1      39.421  28.993  27.838  1.00  0.00     0.029 A 
ATOM     45  N   UNL A   1      40.767  29.221  29.611  1.00  0.00    -0.354 N 
ATOM     46  C   UNL A   1      39.471  31.442  33.102  1.00  0.00     0.074 A 
ATOM     47  C   UNL A   1      38.129  31.954  32.919  1.00  0.00     0.031 C 
ATOM     48  C   UNL A   1      40.561  28.332  27.571  1.00  0.00     0.029 A 
ATOM     49  C   UNL A   1      41.491  28.505  28.686  1.00  0.00     0.049 A 
ATOM     50  H   UNL A   1      41.109  29.444  30.507  1.00  0.00     0.167 HD
ATOM     51  C   UNL A   1      40.208  31.601  34.229  1.00  0.00     0.034 A 
ATOM     52  C   UNL A   1      42.766  28.069  28.720  1.00  0.00     0.034 A 
ATOM     53  C   UNL A   1      41.548  31.089  34.391  1.00  0.00     0.049 A 
ATOM     54  C   UNL A   1      43.599  28.344  29.952  1.00  0.00     0.074 A 
ATOM     55  C   UNL A   1      42.372  31.172  35.501  1.00  0.00     0.029 A 
ATOM     56  N   UNL A   1      42.267  30.412  33.416  1.00  0.00    -0.354 N 
ATOM     57  N   UNL A   1      43.256  28.956  31.062  1.00  0.00    -0.248 NA
ATOM     58  C   UNL A   1      44.987  27.863  29.936  1.00  0.00     0.031 C 
ATOM     59  C   UNL A   1      43.614  30.623  35.169  1.00  0.00     0.029 A 
ATOM     60  C   UNL A   1      43.539  30.112  33.883  1.00  0.00     0.049 A 
ATOM     61  H   UNL A   1      41.925  30.178  32.523  1.00  0.00     0.167 HD
ATOM     62  C   UNL A   1      44.378  28.902  31.888  1.00  0.00     0.074 A 
ATOM     63  C   UNL A   1      45.396  28.181  31.155  1.00  0.00     0.031 C 
ATOM     64  C   UNL A   1      44.551  29.400  33.138  1.00  0.00     0.034 A 
BRANCH  51  65
ATOM     65  C   UNL A   1      39.607  32.407  35.355  1.00  0.00     0.023 A 
ATOM     66  C   UNL A   1      38.931  31.801  36.427  1.00  0.00     0.031 A 
ATOM     67  C   UNL A   1      39.723  33.810  35.358  1.00  0.00     0.131 A 
ATOM     68  C   UNL A   1      38.356  32.596  37.432  1.00  0.00     0.055 A 
ATOM     69  C   UNL A   1      39.213  34.588  36.397  1.00  0.00     0.041 A 
ATOM     70  F   UNL A   1      40.338  34.446  34.348  1.00  0.00    -0.206 F 
ATOM     71  C   UNL A   1      38.516  33.984  37.437  1.00  0.00     0.022 A 
BRANCH  68  72
ATOM     72  S   UNL A   1      37.295  31.801  38.671  1.00  0.00     0.124 S 
ATOM     73  O   UNL A   1      36.116  32.663  38.646  1.00  0.00    -0.237 OA
ATOM     74  O   UNL A   1      37.119  30.461  38.123  1.00  0.00    -0.237 OA
ATOM     75  O   UNL A   1      38.087  31.876  39.897  1.00  0.00    -0.744 OA
ENDBRANCH  68  72
ENDBRANCH  51  65
BRANCH  52  76
ATOM     76  C   UNL A   1      43.368  27.378  27.542  1.00  0.00     0.023 A 
ATOM     77  C   UNL A   1      43.507  25.981  27.511  1.00  0.00     0.031 A 
ATOM     78  C   UNL A   1      43.891  28.114  26.462  1.00  0.00     0.131 A 
ATOM     79  C   UNL A   1      44.207  25.370  26.457  1.00  0.00     0.055 A 
ATOM     80  C   UNL A   1      44.526  27.495  25.384  1.00  0.00     0.041 A 
ATOM     81  F   UNL A   1      43.792  29.453  26.440  1.00  0.00    -0.206 F 
ATOM     82  C   UNL A   1      44.703  26.116  25.386  1.00  0.00     0.022 A 
BRANCH  79  83
ATOM     83  S   UNL A   1      44.564  23.595  26.570  1.00  0.00     0.124 S 
ATOM     84  O   UNL A   1      44.027  23.104  25.307  1.00  0.00    -0.237 OA
ATOM     85  O   UNL A   1      46.017  23.587  26.698  1.00  0.00    -0.237 OA
ATOM     86  O   UNL A   1      43.833  23.178  27.765  1.00  0.00    -0.744 OA
ENDBRANCH  79  83
ENDBRANCH  52  76
BRANCH  64  87
ATOM     87  C   UNL A   1      45.880  29.138  33.807  1.00  0.00     0.023 A 
ATOM     88  C   UNL A   1      46.096  28.006  34.613  1.00  0.00     0.031 A 
ATOM     89  C   UNL A   1      46.944  30.045  33.647  1.00  0.00     0.131 A 
ATOM     90  C   UNL A   1      47.323  27.842  35.275  1.00  0.00     0.055 A 
ATOM     91  C   UNL A   1      48.185  29.841  34.253  1.00  0.00     0.041 A 
ATOM     92  F   UNL A   1      46.796  31.145  32.892  1.00  0.00    -0.206 F 
ATOM     93  C   UNL A   1      48.374  28.741  35.084  1.00  0.00     0.022 A 
BRANCH  90  94
ATOM     94  S   UNL A   1      47.492  26.490  36.472  1.00  0.00     0.124 S 
ATOM     95  O   UNL A   1      46.352  25.643  36.136  1.00  0.00    -0.237 OA
ATOM     96  O   UNL A   1      48.806  25.946  36.147  1.00  0.00    -0.237 OA
ATOM     97  O   UNL A   1      47.404  27.164  37.766  1.00  0.00    -0.744 OA
ENDBRANCH  90  94
ENDBRANCH  64  87
ENDBRANCH  38  39
ENDBRANCH  31  33
ENDBRANCH  30  31
ENDBRANCH  29  30
ENDBRANCH  28  29
ENDBRANCH  27  28
ENDBRANCH  26  27
ENDBRANCH   1  26
TORSDOF 23
ENDMDL
MODEL 2
REMARK VINA RESULT:      -9.2      2.144      7.897
REMARK SMILES CCC[NH2+]C[C@H]1CCC[N@@H+](Cc2ccc(C(=O)OCCOCCOC(=O)c3ccc(-c4c5nc(c(-c6cc(S(=O)(=O)[O-])ccc6F)c6ccc([nH]6)c(-c6cc(S(=O)(=O)[O-])ccc6F)c6nc(c(-c7cc(S(=O)(=O)[O-])ccc7F)c7ccc4[nH]7)C=C6)C=C5)cc3)cc2)C1
REMARK SMILES IDX 19 1 18 2 16 3 17 4 15 5 12 6 13 7 91 8 14 9 90 10 11 11
REMARK SMILES IDX 10 12 6 13 7 14 92 15 8 16 9 17 5 19 4 20 3 23 2 24 1 25
REMARK SMILES IDX 20 26 21 27 22 28 23 29 24 30 25 31 26 32 27 33 28 34 89 35
REMARK SMILES IDX 29 36 88 37 30 38 31 39 32 40 82 41 33 42 87 43 81 44 83 45
REMARK SMILES IDX 34 46 86 47 80 48 79 49 35 51 67 52 47 53 66 54 48 55 51 56
REMARK SMILES IDX 65 57 84 58 49 59 50 60 64 62 85 63 52 64 36 65 37 66 45 67
REMARK SMILES IDX 38 68 44 69 46 70 43 71 39 72 40 73 41 74 42 75 68 76 69 77
REMARK SMILES IDX 77 78 70 79 76 80 78 81 75 82 71 83 72 84 73 85 74 86 53 87
REMARK SMILES IDX 54 88 62 89 55 90 61 91 63 92 60 93 56 94 57 95 58 96 59 97
REMARK H PARENT 10 18 4 21 4 22 83 50 51 61
REMARK Flexibility Score: inf
ROOT
ATOM      1  C   UNL A   1      30.668  27.853  23.647  1.00  0.00     0.261 C 
ENDROOT
BRANCH   1   2
ATOM      2  O   UNL A   1      30.235  26.718  24.407  1.00  0.00    -0.460 OA
BRANCH   2   3
ATOM      3  C   UNL A   1      30.736  25.532  23.992  1.00  0.00     0.338 C 
ATOM      4  O   UNL A   1      30.826  25.138  22.837  1.00  0.00    -0.246 OA
BRANCH   3   5
ATOM      5  C   UNL A   1      31.310  24.786  25.138  1.00  0.00     0.060 A 
ATOM      6  C   UNL A   1      32.597  23.258  27.093  1.00  0.00     0.006 A 
ATOM      7  C   UNL A   1      33.284  24.295  26.447  1.00  0.00     0.010 A 
ATOM      8  C   UNL A   1      31.216  23.123  26.884  1.00  0.00     0.010 A 
ATOM      9  C   UNL A   1      32.644  25.051  25.470  1.00  0.00     0.016 A 
ATOM     10  C   UNL A   1      30.576  23.861  25.887  1.00  0.00     0.016 A 
BRANCH   6  11
ATOM     11  C   UNL A   1      33.387  22.179  27.821  1.00  0.00     0.299 C 
BRANCH  11  12
ATOM     12  N   UNL A   1      34.035  21.178  26.928  1.00  0.00    -0.331 N 
ATOM     13  C   UNL A   1      33.624  19.340  25.225  1.00  0.00     0.099 C 
ATOM     14  C   UNL A   1      34.594  20.051  24.272  1.00  0.00     0.021 C 
ATOM     15  C   UNL A   1      33.038  20.372  26.207  1.00  0.00     0.271 C 
ATOM     16  C   UNL A   1      35.657  20.789  25.075  1.00  0.00     0.062 C 
ATOM     17  C   UNL A   1      35.008  21.800  26.016  1.00  0.00     0.262 C 
ATOM     18  H   UNL A   1      34.562  20.540  27.525  1.00  0.00     0.348 HD
BRANCH  13  19
ATOM     19  C   UNL A   1      32.440  18.635  24.515  1.00  0.00     0.269 C 
BRANCH  19  20
ATOM     20  N   UNL A   1      32.765  17.547  23.601  1.00  0.00    -0.346 N 
ATOM     21  H   UNL A   1      31.902  17.053  23.375  1.00  0.00     0.346 HD
ATOM     22  H   UNL A   1      33.207  17.975  22.787  1.00  0.00     0.346 HD
BRANCH  20  23
ATOM     23  C   UNL A   1      33.717  16.579  24.126  1.00  0.00     0.260 C 
BRANCH  23  24
ATOM     24  C   UNL A   1      33.298  16.095  25.521  1.00  0.00     0.058 C 
ATOM     25  C   UNL A   1      32.422  14.846  25.503  1.00  0.00     0.010 C 
ENDBRANCH  23  24
ENDBRANCH  20  23
ENDBRANCH  19  20
ENDBRANCH  13  19
ENDBRANCH  11  12
ENDBRANCH   6  11
ENDBRANCH   3   5
ENDBRANCH   2   3
ENDBRANCH   1   2
BRANCH   1  26
ATOM     26  C   UNL A   1      31.249  28.936  24.560  1.00  0.00     0.202 C 
BRANCH  26  27
ATOM     27  O   UNL A   1      32.657  29.169  24.488  1.00  0.00    -0.374 OA
BRANCH  27  28
ATOM     28  C   UNL A   1      33.318  29.626  25.667  1.00  0.00     0.202 C 
BRANCH  28  29
ATOM     29  C   UNL A   1      32.706  30.803  26.437  1.00  0.00     0.261 C 
BRANCH  29  30
ATOM     30  O   UNL A   1      33.229  30.941  27.769  1.00  0.00    -0.460 OA
BRANCH  30  31
ATOM     31  C   UNL A   1      34.113  31.957  27.922  1.00  0.00     0.338 C 
ATOM     32  O   UNL A   1      33.870  33.156  27.881  1.00  0.00    -0.246 OA
BRANCH  31  33
ATOM     33  C   UNL A   1      35.421  31.425  28.348  1.00  0.00     0.060 A 
ATOM     34  C   UNL A   1      35.446  30.158  28.942  1.00  0.00     0.016 A 
ATOM     35  C   UNL A   1      36.592  32.175  28.224  1.00  0.00     0.016 A 
ATOM     36  C   UNL A   1      36.641  29.643  29.438  1.00  0.00     0.010 A 
ATOM     37  C   UNL A   1      37.789  31.660  28.734  1.00  0.00     0.010 A 
ATOM     38  C   UNL A   1      37.816  30.401  29.363  1.00  0.00    -0.014 A 
BRANCH  38  39
ATOM     39  C   UNL A   1      39.052  29.916  30.028  1.00  0.00     0.031 A 
ATOM     40  C   UNL A   1      39.836  28.797  29.399  1.00  0.00     0.074 A 
ATOM     41  C   UNL A   1      39.478  30.485  31.171  1.00  0.00     0.049 A 
ATOM     42  N   UNL A   1      40.904  28.183  29.839  1.00  0.00    -0.248 NA
ATOM     43  C   UNL A   1      39.349  28.302  28.102  1.00  0.00     0.031 C 
ATOM     44  C   UNL A   1      38.826  31.609  31.845  1.00  0.00     0.029 A 
ATOM     45  N   UNL A   1      40.553  30.193  31.971  1.00  0.00    -0.354 N 
ATOM     46  C   UNL A   1      41.215  27.225  28.880  1.00  0.00     0.074 A 
ATOM     47  C   UNL A   1      40.203  27.321  27.849  1.00  0.00     0.031 C 
ATOM     48  C   UNL A   1      39.511  31.903  32.963  1.00  0.00     0.029 A 
ATOM     49  C   UNL A   1      40.619  30.961  33.111  1.00  0.00     0.049 A 
ATOM     50  H   UNL A   1      41.217  29.499  31.751  1.00  0.00     0.167 HD
ATOM     51  C   UNL A   1      42.252  26.352  28.862  1.00  0.00     0.034 A 
ATOM     52  C   UNL A   1      41.454  30.890  34.167  1.00  0.00     0.034 A 
ATOM     53  C   UNL A   1      43.249  26.268  29.903  1.00  0.00     0.049 A 
ATOM     54  C   UNL A   1      42.544  29.842  34.166  1.00  0.00     0.074 A 
ATOM     55  C   UNL A   1      44.354  25.437  29.969  1.00  0.00     0.029 A 
ATOM     56  N   UNL A   1      43.255  27.026  31.066  1.00  0.00    -0.354 N 
ATOM     57  N   UNL A   1      42.838  28.955  33.244  1.00  0.00    -0.248 NA
ATOM     58  C   UNL A   1      43.420  29.794  35.345  1.00  0.00     0.031 C 
ATOM     59  C   UNL A   1      44.979  25.633  31.205  1.00  0.00     0.029 A 
ATOM     60  C   UNL A   1      44.319  26.651  31.874  1.00  0.00     0.049 A 
ATOM     61  H   UNL A   1      42.600  27.728  31.285  1.00  0.00     0.167 HD
ATOM     62  C   UNL A   1      43.953  28.266  33.721  1.00  0.00     0.074 A 
ATOM     63  C   UNL A   1      44.288  28.856  34.998  1.00  0.00     0.031 C 
ATOM     64  C   UNL A   1      44.638  27.242  33.153  1.00  0.00     0.034 A 
BRANCH  51  65
ATOM     65  C   UNL A   1      42.334  25.381  27.710  1.00  0.00     0.023 A 
ATOM     66  C   UNL A   1      41.662  24.147  27.726  1.00  0.00     0.031 A 
ATOM     67  C   UNL A   1      43.090  25.704  26.567  1.00  0.00     0.131 A 
ATOM     68  C   UNL A   1      41.799  23.261  26.646  1.00  0.00     0.055 A 
ATOM     69  C   UNL A   1      43.162  24.850  25.466  1.00  0.00     0.041 A 
ATOM     70  F   UNL A   1      43.772  26.858  26.505  1.00  0.00    -0.206 F 
ATOM     71  C   UNL A   1      42.523  23.616  25.505  1.00  0.00     0.022 A 
BRANCH  68  72
ATOM     72  S   UNL A   1      41.113  21.588  26.799  1.00  0.00     0.124 S 
ATOM     73  O   UNL A   1      42.233  20.767  26.345  1.00  0.00    -0.237 OA
ATOM     74  O   UNL A   1      40.796  21.506  28.220  1.00  0.00    -0.237 OA
ATOM     75  O   UNL A   1      39.960  21.608  25.901  1.00  0.00    -0.744 OA
ENDBRANCH  68  72
ENDBRANCH  51  65
BRANCH  52  76
ATOM     76  C   UNL A   1      41.272  31.789  35.345  1.00  0.00     0.023 A 
ATOM     77  C   UNL A   1      40.177  31.640  36.211  1.00  0.00     0.031 A 
ATOM     78  C   UNL A   1      42.148  32.867  35.574  1.00  0.00     0.131 A 
ATOM     79  C   UNL A   1      39.951  32.587  37.224  1.00  0.00     0.055 A 
ATOM     80  C   UNL A   1      41.956  33.766  36.624  1.00  0.00     0.041 A 
ATOM     81  F   UNL A   1      43.209  33.062  34.775  1.00  0.00    -0.206 F 
ATOM     82  C   UNL A   1      40.842  33.638  37.446  1.00  0.00     0.022 A 
BRANCH  79  83
ATOM     83  S   UNL A   1      38.406  32.489  38.170  1.00  0.00     0.124 S 
ATOM     84  O   UNL A   1      38.903  32.335  39.532  1.00  0.00    -0.237 OA
ATOM     85  O   UNL A   1      37.779  33.768  37.856  1.00  0.00    -0.237 OA
ATOM     86  O   UNL A   1      37.740  31.315  37.610  1.00  0.00    -0.744 OA
ENDBRANCH  79  83
ENDBRANCH  52  76
BRANCH  64  87
ATOM     87  C   UNL A   1      45.849  26.727  33.895  1.00  0.00     0.023 A 
ATOM     88  C   UNL A   1      45.760  25.678  34.827  1.00  0.00     0.031 A 
ATOM     89  C   UNL A   1      47.113  27.308  33.677  1.00  0.00     0.131 A 
ATOM     90  C   UNL A   1      46.897  25.283  35.548  1.00  0.00     0.055 A 
ATOM     91  C   UNL A   1      48.254  26.864  34.347  1.00  0.00     0.041 A 
ATOM     92  F   UNL A   1      47.260  28.315  32.802  1.00  0.00    -0.206 F 
ATOM     93  C   UNL A   1      48.147  25.856  35.300  1.00  0.00     0.022 A 
BRANCH  90  94
ATOM     94  S   UNL A   1      46.702  24.079  36.891  1.00  0.00     0.124 S 
ATOM     95  O   UNL A   1      47.971  24.209  37.601  1.00  0.00    -0.237 OA
ATOM     96  O   UNL A   1      45.525  24.581  37.592  1.00  0.00    -0.237 OA
ATOM     97  O   UNL A   1      46.511  22.811  36.190  1.00  0.00    -0.744 OA
ENDBRANCH  90  94
ENDBRANCH  64  87
ENDBRANCH  38  39
ENDBRANCH  31  33
ENDBRANCH  30  31
ENDBRANCH  29  30
ENDBRANCH  28  29
ENDBRANCH  27  28
ENDBRANCH  26  27
ENDBRANCH   1  26
TORSDOF 23
ENDMDL
MODEL 3
REMARK VINA RESULT:      -9.1      2.998      5.055
REMARK SMILES CCC[NH2+]C[C@H]1CCC[N@@H+](Cc2ccc(C(=O)OCCOCCOC(=O)c3ccc(-c4c5nc(c(-c6cc(S(=O)(=O)[O-])ccc6F)c6ccc([nH]6)c(-c6cc(S(=O)(=O)[O-])ccc6F)c6nc(c(-c7cc(S(=O)(=O)[O-])ccc7F)c7ccc4[nH]7)C=C6)C=C5)cc3)cc2)C1
REMARK SMILES IDX 19 1 18 2 16 3 17 4 15 5 12 6 13 7 91 8 14 9 90 10 11 11
REMARK SMILES IDX 10 12 6 13 7 14 92 15 8 16 9 17 5 19 4 20 3 23 2 24 1 25
REMARK SMILES IDX 20 26 21 27 22 28 23 29 24 30 25 31 26 32 27 33 28 34 89 35
REMARK SMILES IDX 29 36 88 37 30 38 31 39 32 40 82 41 33 42 87 43 81 44 83 45
REMARK SMILES IDX 34 46 86 47 80 48 79 49 35 51 67 52 47 53 66 54 48 55 51 56
REMARK SMILES IDX 65 57 84 58 49 59 50 60 64 62 85 63 52 64 36 65 37 66 45 67
REMARK SMILES IDX 38 68 44 69 46 70 43 71 39 72 40 73 41 74 42 75 68 76 69 77
REMARK SMILES IDX 77 78 70 79 76 80 78 81 75 82 71 83 72 84 73 85 74 86 53 87
REMARK SMILES IDX 54 88 62 89 55 90 61 91 63 92 60 93 56 94 57 95 58 96 59 97
REMARK H PARENT 10 18 4 21 4 22 83 50 51 61
REMARK Flexibility Score: inf
ROOT
ATOM      1  C   UNL A   1      34.489  31.642  27.641  1.00  0.00     0.261 C 
ENDROOT
BRANCH   1   2
ATOM      2  O   UNL A   1      33.604  30.517  27.575  1.00  0.00    -0.460 OA
BRANCH   2   3
ATOM      3  C   UNL A   1      32.416  30.763  26.977  1.00  0.00     0.338 C 
ATOM      4  O   UNL A   1      31.893  31.856  26.806  1.00  0.00    -0.246 OA
BRANCH   3   5
ATOM      5  C   UNL A   1      31.857  29.512  26.409  1.00  0.00     0.060 A 
ATOM      6  C   UNL A   1      31.079  27.021  25.408  1.00  0.00     0.006 A 
ATOM      7  C   UNL A   1      31.338  27.178  26.776  1.00  0.00     0.010 A 
ATOM      8  C   UNL A   1      31.031  28.160  24.589  1.00  0.00     0.010 A 
ATOM      9  C   UNL A   1      31.731  28.418  27.272  1.00  0.00     0.016 A 
ATOM     10  C   UNL A   1      31.449  29.399  25.076  1.00  0.00     0.016 A 
BRANCH   6  11
ATOM     11  C   UNL A   1      31.077  25.624  24.804  1.00  0.00     0.299 C 
BRANCH  11  12
ATOM     12  N   UNL A   1      32.365  24.888  24.939  1.00  0.00    -0.331 N 
ATOM     13  C   UNL A   1      33.448  22.593  25.008  1.00  0.00     0.099 C 
ATOM     14  C   UNL A   1      34.423  23.056  23.916  1.00  0.00     0.021 C 
ATOM     15  C   UNL A   1      32.159  23.432  24.919  1.00  0.00     0.271 C 
ATOM     16  C   UNL A   1      34.669  24.553  24.047  1.00  0.00     0.062 C 
ATOM     17  C   UNL A   1      33.355  25.321  23.940  1.00  0.00     0.262 C 
ATOM     18  H   UNL A   1      32.752  25.124  25.853  1.00  0.00     0.348 HD
BRANCH  13  19
ATOM     19  C   UNL A   1      33.049  21.098  24.908  1.00  0.00     0.269 C 
BRANCH  19  20
ATOM     20  N   UNL A   1      33.895  20.136  25.604  1.00  0.00    -0.346 N 
ATOM     21  H   UNL A   1      34.640  20.650  26.074  1.00  0.00     0.346 HD
ATOM     22  H   UNL A   1      33.288  19.630  26.249  1.00  0.00     0.346 HD
BRANCH  20  23
ATOM     23  C   UNL A   1      34.508  19.135  24.743  1.00  0.00     0.260 C 
BRANCH  23  24
ATOM     24  C   UNL A   1      33.459  18.150  24.210  1.00  0.00     0.058 C 
ATOM     25  C   UNL A   1      32.508  17.622  25.280  1.00  0.00     0.010 C 
ENDBRANCH  23  24
ENDBRANCH  20  23
ENDBRANCH  19  20
ENDBRANCH  13  19
ENDBRANCH  11  12
ENDBRANCH   6  11
ENDBRANCH   3   5
ENDBRANCH   2   3
ENDBRANCH   1   2
BRANCH   1  26
ATOM     26  C   UNL A   1      34.709  32.084  29.091  1.00  0.00     0.202 C 
BRANCH  26  27
ATOM     27  O   UNL A   1      34.542  33.471  29.386  1.00  0.00    -0.374 OA
BRANCH  27  28
ATOM     28  C   UNL A   1      33.602  34.211  28.607  1.00  0.00     0.202 C 
BRANCH  28  29
ATOM     29  C   UNL A   1      32.790  35.314  29.298  1.00  0.00     0.261 C 
BRANCH  29  30
ATOM     30  O   UNL A   1      33.490  35.931  30.391  1.00  0.00    -0.460 OA
BRANCH  30  31
ATOM     31  C   UNL A   1      33.133  35.475  31.616  1.00  0.00     0.338 C 
ATOM     32  O   UNL A   1      32.011  35.483  32.105  1.00  0.00    -0.246 OA
BRANCH  31  33
ATOM     33  C   UNL A   1      34.268  34.769  32.239  1.00  0.00     0.060 A 
ATOM     34  C   UNL A   1      35.551  35.289  32.033  1.00  0.00     0.016 A 
ATOM     35  C   UNL A   1      34.087  33.587  32.961  1.00  0.00     0.016 A 
ATOM     36  C   UNL A   1      36.665  34.615  32.528  1.00  0.00     0.010 A 
ATOM     37  C   UNL A   1      35.209  32.907  33.447  1.00  0.00     0.010 A 
ATOM     38  C   UNL A   1      36.505  33.405  33.215  1.00  0.00    -0.014 A 
BRANCH  38  39
ATOM     39  C   UNL A   1      37.700  32.614  33.605  1.00  0.00     0.031 A 
ATOM     40  C   UNL A   1      38.447  32.980  34.858  1.00  0.00     0.074 A 
ATOM     41  C   UNL A   1      38.097  31.568  32.858  1.00  0.00     0.049 A 
ATOM     42  N   UNL A   1      39.544  32.464  35.350  1.00  0.00    -0.248 NA
ATOM     43  C   UNL A   1      37.884  34.075  35.663  1.00  0.00     0.031 C 
ATOM     44  C   UNL A   1      37.421  31.092  31.651  1.00  0.00     0.029 A 
ATOM     45  N   UNL A   1      39.169  30.722  32.997  1.00  0.00    -0.354 N 
ATOM     46  C   UNL A   1      39.808  33.174  36.516  1.00  0.00     0.074 A 
ATOM     47  C   UNL A   1      38.772  34.176  36.641  1.00  0.00     0.031 C 
ATOM     48  C   UNL A   1      38.102  30.044  31.154  1.00  0.00     0.029 A 
ATOM     49  C   UNL A   1      39.286  29.806  31.978  1.00  0.00     0.049 A 
ATOM     50  H   UNL A   1      39.796  30.767  33.756  1.00  0.00     0.167 HD
ATOM     51  C   UNL A   1      40.821  32.998  37.402  1.00  0.00     0.034 A 
ATOM     52  C   UNL A   1      40.254  28.902  31.720  1.00  0.00     0.034 A 
ATOM     53  C   UNL A   1      41.849  31.996  37.257  1.00  0.00     0.049 A 
ATOM     54  C   UNL A   1      41.423  28.794  32.673  1.00  0.00     0.074 A 
ATOM     55  C   UNL A   1      42.904  31.717  38.110  1.00  0.00     0.029 A 
ATOM     56  N   UNL A   1      41.965  31.119  36.187  1.00  0.00    -0.354 N 
ATOM     57  N   UNL A   1      41.651  29.459  33.782  1.00  0.00    -0.248 NA
ATOM     58  C   UNL A   1      42.459  27.806  32.342  1.00  0.00     0.031 C 
ATOM     59  C   UNL A   1      43.701  30.733  37.516  1.00  0.00     0.029 A 
ATOM     60  C   UNL A   1      43.097  30.330  36.337  1.00  0.00     0.049 A 
ATOM     61  H   UNL A   1      41.335  31.064  35.432  1.00  0.00     0.167 HD
ATOM     62  C   UNL A   1      42.841  28.945  34.295  1.00  0.00     0.074 A 
ATOM     63  C   UNL A   1      43.267  27.903  33.387  1.00  0.00     0.031 C 
ATOM     64  C   UNL A   1      43.518  29.299  35.417  1.00  0.00     0.034 A 
BRANCH  51  65
ATOM     65  C   UNL A   1      40.899  33.943  38.576  1.00  0.00     0.023 A 
ATOM     66  C   UNL A   1      40.179  33.720  39.762  1.00  0.00     0.031 A 
ATOM     67  C   UNL A   1      41.721  35.084  38.509  1.00  0.00     0.131 A 
ATOM     68  C   UNL A   1      40.256  34.648  40.813  1.00  0.00     0.055 A 
ATOM     69  C   UNL A   1      41.850  35.963  39.585  1.00  0.00     0.041 A 
ATOM     70  F   UNL A   1      42.414  35.361  37.393  1.00  0.00    -0.206 F 
ATOM     71  C   UNL A   1      41.107  35.754  40.741  1.00  0.00     0.022 A 
BRANCH  68  72
ATOM     72  S   UNL A   1      39.140  34.454  42.229  1.00  0.00     0.124 S 
ATOM     73  O   UNL A   1      38.199  33.455  41.729  1.00  0.00    -0.237 OA
ATOM     74  O   UNL A   1      40.043  34.009  43.284  1.00  0.00    -0.237 OA
ATOM     75  O   UNL A   1      38.579  35.792  42.409  1.00  0.00    -0.744 OA
ENDBRANCH  68  72
ENDBRANCH  51  65
BRANCH  52  76
ATOM     76  C   UNL A   1      40.205  28.065  30.486  1.00  0.00     0.023 A 
ATOM     77  C   UNL A   1      41.002  28.368  29.370  1.00  0.00     0.031 A 
ATOM     78  C   UNL A   1      39.297  26.995  30.373  1.00  0.00     0.131 A 
ATOM     79  C   UNL A   1      40.831  27.652  28.173  1.00  0.00     0.055 A 
ATOM     80  C   UNL A   1      39.179  26.245  29.202  1.00  0.00     0.041 A 
ATOM     81  F   UNL A   1      38.505  26.664  31.406  1.00  0.00    -0.206 F 
ATOM     82  C   UNL A   1      39.937  26.584  28.087  1.00  0.00     0.022 A 
BRANCH  79  83
ATOM     83  S   UNL A   1      41.711  28.222  26.692  1.00  0.00     0.124 S 
ATOM     84  O   UNL A   1      41.849  26.984  25.936  1.00  0.00    -0.237 OA
ATOM     85  O   UNL A   1      40.782  29.207  26.149  1.00  0.00    -0.237 OA
ATOM     86  O   UNL A   1      42.956  28.770  27.228  1.00  0.00    -0.744 OA
ENDBRANCH  79  83
ENDBRANCH  52  76
BRANCH  64  87
ATOM     87  C   UNL A   1      44.768  28.517  35.744  1.00  0.00     0.023 A 
ATOM     88  C   UNL A   1      44.732  27.348  36.525  1.00  0.00     0.031 A 
ATOM     89  C   UNL A   1      46.021  28.958  35.276  1.00  0.00     0.131 A 
ATOM     90  C   UNL A   1      45.927  26.696  36.865  1.00  0.00     0.055 A 
ATOM     91  C   UNL A   1      47.199  28.266  35.561  1.00  0.00     0.041 A 
ATOM     92  F   UNL A   1      46.119  30.069  34.529  1.00  0.00    -0.206 F 
ATOM     93  C   UNL A   1      47.157  27.136  36.372  1.00  0.00     0.022 A 
BRANCH  90  94
ATOM     94  S   UNL A   1      45.862  25.322  38.047  1.00  0.00     0.124 S 
ATOM     95  O   UNL A   1      45.562  26.012  39.298  1.00  0.00    -0.237 OA
ATOM     96  O   UNL A   1      44.791  24.492  37.505  1.00  0.00    -0.237 OA
ATOM     97  O   UNL A   1      47.199  24.737  37.967  1.00  0.00    -0.744 OA
ENDBRANCH  90  94
ENDBRANCH  64  87
ENDBRANCH  38  39
ENDBRANCH  31  33
ENDBRANCH  30  31
ENDBRANCH  29  30
ENDBRANCH  28  29
ENDBRANCH  27  28
ENDBRANCH  26  27
ENDBRANCH   1  26
TORSDOF 23
ENDMDL
