MODEL 1
REMARK VINA RESULT:     -11.9      0.000      0.000
REMARK SMILES Cc1cccc(CN(C)c2ccc(C(=O)OCCOCCOC(=O)c3ccc(-c4c5nc(c(-c6cc(S(=O)(=O)[O-])ccc6F)c6ccc([nH]6)c(-c6cc(S(=O)(=O)[O-])ccc6F)c6nc(c(-c7cc(S(=O)(=O)[O-])ccc7F)c7ccc4[nH]7)C=C6)C=C5)cc3)cc2C)n1
REMARK SMILES IDX 19 1 18 2 17 3 16 4 14 5 15 6 13 7 10 8 11 9 89 10 12 11
REMARK SMILES IDX 88 12 90 13 8 14 9 15 7 16 6 17 1 18 2 19 3 20 91 21 4 22
REMARK SMILES IDX 5 23 20 24 21 25 22 26 23 27 24 28 25 29 26 30 87 31 27 32
REMARK SMILES IDX 86 33 28 34 29 35 30 36 80 37 31 38 85 39 79 40 81 41 32 42
REMARK SMILES IDX 84 43 78 44 77 45 33 47 65 48 45 49 64 50 46 51 49 52 63 53
REMARK SMILES IDX 82 54 47 55 48 56 62 58 83 59 50 60 34 61 35 62 43 63 36 64
REMARK SMILES IDX 42 65 44 66 41 67 37 68 38 69 39 70 40 71 66 72 67 73 75 74
REMARK SMILES IDX 68 75 74 76 76 77 73 78 69 79 70 80 71 81 72 82 51 83 52 84
REMARK SMILES IDX 60 85 53 86 59 87 61 88 58 89 54 90 55 91 56 92 57 93
REMARK H PARENT 81 46 49 57
REMARK Flexibility Score: inf
ROOT
ATOM      1  O   UNL A   1      42.258  18.655  25.792  1.00  0.00    -0.374 OA
ENDROOT
BRANCH   1   2
ATOM      2  C   UNL A   1      41.696  19.589  26.705  1.00  0.00     0.202 C 
BRANCH   2   3
ATOM      3  C   UNL A   1      40.365  19.916  26.131  1.00  0.00     0.261 C 
BRANCH   3   4
ATOM      4  O   UNL A   1      40.255  21.291  25.762  1.00  0.00    -0.460 OA
BRANCH   4   5
ATOM      5  C   UNL A   1      39.670  22.190  26.594  1.00  0.00     0.338 C 
ATOM      6  O   UNL A   1      40.146  22.789  27.533  1.00  0.00    -0.246 OA
BRANCH   5   7
ATOM      7  C   UNL A   1      38.334  22.428  26.017  1.00  0.00     0.060 A 
ATOM      8  C   UNL A   1      35.677  22.900  25.210  1.00  0.00     0.040 A 
ATOM      9  C   UNL A   1      36.482  23.896  25.762  1.00  0.00     0.027 A 
ATOM     10  C   UNL A   1      36.193  21.587  25.205  1.00  0.00    -0.027 A 
ATOM     11  C   UNL A   1      37.801  23.706  26.074  1.00  0.00     0.018 A 
ATOM     12  C   UNL A   1      37.530  21.362  25.612  1.00  0.00     0.021 A 
ATOM     13  C   UNL A   1      35.356  20.379  24.901  1.00  0.00     0.046 C 
BRANCH   8  14
ATOM     14  N   UNL A   1      34.424  23.259  24.715  1.00  0.00    -0.368 N 
ATOM     15  C   UNL A   1      33.416  23.583  25.706  1.00  0.00     0.144 C 
BRANCH  14  16
ATOM     16  C   UNL A   1      34.338  23.891  23.367  1.00  0.00     0.172 C 
BRANCH  16  17
ATOM     17  C   UNL A   1      33.415  25.109  23.207  1.00  0.00     0.060 A 
ATOM     18  C   UNL A   1      33.889  28.763  22.980  1.00  0.00     0.067 C 
ATOM     19  C   UNL A   1      33.209  27.424  22.971  1.00  0.00     0.038 A 
ATOM     20  C   UNL A   1      31.955  27.298  22.379  1.00  0.00     0.023 A 
ATOM     21  N   UNL A   1      33.928  26.356  23.425  1.00  0.00    -0.256 NA
ATOM     22  C   UNL A   1      31.401  26.032  22.250  1.00  0.00     0.004 A 
ATOM     23  C   UNL A   1      32.138  24.923  22.659  1.00  0.00     0.026 A 
ENDBRANCH  16  17
ENDBRANCH  14  16
ENDBRANCH   8  14
ENDBRANCH   5   7
ENDBRANCH   4   5
ENDBRANCH   3   4
ENDBRANCH   2   3
ENDBRANCH   1   2
BRANCH   1  24
ATOM     24  C   UNL A   1      43.646  18.465  25.912  1.00  0.00     0.202 C 
BRANCH  24  25
ATOM     25  C   UNL A   1      44.397  18.844  24.629  1.00  0.00     0.261 C 
BRANCH  25  26
ATOM     26  O   UNL A   1      44.196  20.248  24.340  1.00  0.00    -0.460 OA
BRANCH  26  27
ATOM     27  C   UNL A   1      44.951  21.133  25.054  1.00  0.00     0.338 C 
ATOM     28  O   UNL A   1      46.094  20.935  25.430  1.00  0.00    -0.246 OA
BRANCH  27  29
ATOM     29  C   UNL A   1      44.129  22.323  25.432  1.00  0.00     0.060 A 
ATOM     30  C   UNL A   1      43.972  23.410  24.544  1.00  0.00     0.016 A 
ATOM     31  C   UNL A   1      43.774  22.470  26.768  1.00  0.00     0.016 A 
ATOM     32  C   UNL A   1      43.620  24.683  25.032  1.00  0.00     0.010 A 
ATOM     33  C   UNL A   1      43.538  23.738  27.253  1.00  0.00     0.010 A 
ATOM     34  C   UNL A   1      43.491  24.863  26.407  1.00  0.00    -0.014 A 
BRANCH  34  35
ATOM     35  C   UNL A   1      43.465  26.143  27.130  1.00  0.00     0.031 A 
ATOM     36  C   UNL A   1      42.166  26.826  27.271  1.00  0.00     0.074 A 
ATOM     37  C   UNL A   1      44.490  26.532  27.931  1.00  0.00     0.049 A 
ATOM     38  N   UNL A   1      42.031  28.027  27.704  1.00  0.00    -0.248 NA
ATOM     39  C   UNL A   1      40.892  26.225  26.893  1.00  0.00     0.031 C 
ATOM     40  C   UNL A   1      44.457  27.387  29.122  1.00  0.00     0.029 A 
ATOM     41  N   UNL A   1      45.839  26.197  27.843  1.00  0.00    -0.354 N 
ATOM     42  C   UNL A   1      40.708  28.206  28.026  1.00  0.00     0.074 A 
ATOM     43  C   UNL A   1      40.028  27.121  27.371  1.00  0.00     0.031 C 
ATOM     44  C   UNL A   1      45.712  27.718  29.478  1.00  0.00     0.029 A 
ATOM     45  C   UNL A   1      46.603  27.195  28.459  1.00  0.00     0.049 A 
ATOM     46  H   UNL A   1      46.199  25.386  27.415  1.00  0.00     0.167 HD
ATOM     47  C   UNL A   1      40.394  29.174  28.932  1.00  0.00     0.034 A 
ATOM     48  C   UNL A   1      47.559  27.834  27.741  1.00  0.00     0.034 A 
ATOM     49  C   UNL A   1      41.613  29.905  29.351  1.00  0.00     0.049 A 
ATOM     50  C   UNL A   1      47.090  29.249  27.541  1.00  0.00     0.074 A 
ATOM     51  C   UNL A   1      42.359  29.956  30.518  1.00  0.00     0.029 A 
ATOM     52  N   UNL A   1      42.418  30.492  28.375  1.00  0.00    -0.354 N 
ATOM     53  N   UNL A   1      45.885  29.653  27.851  1.00  0.00    -0.248 NA
ATOM     54  C   UNL A   1      47.923  30.332  27.062  1.00  0.00     0.031 C 
ATOM     55  C   UNL A   1      43.622  30.560  30.213  1.00  0.00     0.029 A 
ATOM     56  C   UNL A   1      43.635  30.915  28.872  1.00  0.00     0.049 A 
ATOM     57  H   UNL A   1      42.147  30.595  27.434  1.00  0.00     0.167 HD
ATOM     58  C   UNL A   1      45.759  30.996  27.688  1.00  0.00     0.074 A 
ATOM     59  C   UNL A   1      47.069  31.368  27.155  1.00  0.00     0.031 C 
ATOM     60  C   UNL A   1      44.582  31.636  28.004  1.00  0.00     0.034 A 
BRANCH  47  61
ATOM     61  C   UNL A   1      39.044  29.343  29.614  1.00  0.00     0.023 A 
ATOM     62  C   UNL A   1      38.155  30.315  29.110  1.00  0.00     0.031 A 
ATOM     63  C   UNL A   1      38.555  28.637  30.738  1.00  0.00     0.131 A 
ATOM     64  C   UNL A   1      36.911  30.577  29.719  1.00  0.00     0.055 A 
ATOM     65  C   UNL A   1      37.329  28.911  31.360  1.00  0.00     0.041 A 
ATOM     66  F   UNL A   1      39.196  27.606  31.287  1.00  0.00    -0.206 F 
ATOM     67  C   UNL A   1      36.497  29.888  30.854  1.00  0.00     0.022 A 
BRANCH  64  68
ATOM     68  S   UNL A   1      35.822  31.827  28.994  1.00  0.00     0.124 S 
ATOM     69  O   UNL A   1      36.766  32.874  28.616  1.00  0.00    -0.237 OA
ATOM     70  O   UNL A   1      35.193  31.095  27.901  1.00  0.00    -0.237 OA
ATOM     71  O   UNL A   1      34.925  32.176  30.096  1.00  0.00    -0.744 OA
ENDBRANCH  64  68
ENDBRANCH  47  61
BRANCH  48  72
ATOM     72  C   UNL A   1      48.258  26.879  26.811  1.00  0.00     0.023 A 
ATOM     73  C   UNL A   1      47.950  27.009  25.426  1.00  0.00     0.031 A 
ATOM     74  C   UNL A   1      49.508  26.325  27.137  1.00  0.00     0.131 A 
ATOM     75  C   UNL A   1      48.923  26.749  24.438  1.00  0.00     0.055 A 
ATOM     76  C   UNL A   1      50.465  26.045  26.146  1.00  0.00     0.041 A 
ATOM     77  F   UNL A   1      49.888  26.211  28.418  1.00  0.00    -0.206 F 
ATOM     78  C   UNL A   1      50.194  26.296  24.799  1.00  0.00     0.022 A 
BRANCH  75  79
ATOM     79  S   UNL A   1      48.652  27.365  22.731  1.00  0.00     0.124 S 
ATOM     80  O   UNL A   1      47.360  28.031  22.840  1.00  0.00    -0.237 OA
ATOM     81  O   UNL A   1      49.799  28.240  22.510  1.00  0.00    -0.237 OA
ATOM     82  O   UNL A   1      48.670  26.144  21.925  1.00  0.00    -0.744 OA
ENDBRANCH  75  79
ENDBRANCH  48  72
BRANCH  60  83
ATOM     83  C   UNL A   1      44.204  33.022  27.522  1.00  0.00     0.023 A 
ATOM     84  C   UNL A   1      44.019  34.089  28.397  1.00  0.00     0.031 A 
ATOM     85  C   UNL A   1      44.077  33.355  26.150  1.00  0.00     0.131 A 
ATOM     86  C   UNL A   1      43.819  35.400  27.950  1.00  0.00     0.055 A 
ATOM     87  C   UNL A   1      43.844  34.658  25.695  1.00  0.00     0.041 A 
ATOM     88  F   UNL A   1      44.200  32.454  25.169  1.00  0.00    -0.206 F 
ATOM     89  C   UNL A   1      43.730  35.699  26.599  1.00  0.00     0.022 A 
BRANCH  86  90
ATOM     90  S   UNL A   1      43.714  36.683  29.217  1.00  0.00     0.124 S 
ATOM     91  O   UNL A   1      45.120  36.933  29.522  1.00  0.00    -0.237 OA
ATOM     92  O   UNL A   1      43.028  37.756  28.502  1.00  0.00    -0.237 OA
ATOM     93  O   UNL A   1      42.944  36.049  30.283  1.00  0.00    -0.744 OA
ENDBRANCH  86  90
ENDBRANCH  60  83
ENDBRANCH  34  35
ENDBRANCH  27  29
ENDBRANCH  26  27
ENDBRANCH  25  26
ENDBRANCH  24  25
ENDBRANCH   1  24
TORSDOF 20
ENDMDL
MODEL 2
REMARK VINA RESULT:     -11.9      1.235      2.643
REMARK SMILES Cc1cccc(CN(C)c2ccc(C(=O)OCCOCCOC(=O)c3ccc(-c4c5nc(c(-c6cc(S(=O)(=O)[O-])ccc6F)c6ccc([nH]6)c(-c6cc(S(=O)(=O)[O-])ccc6F)c6nc(c(-c7cc(S(=O)(=O)[O-])ccc7F)c7ccc4[nH]7)C=C6)C=C5)cc3)cc2C)n1
REMARK SMILES IDX 19 1 18 2 17 3 16 4 14 5 15 6 13 7 10 8 11 9 89 10 12 11
REMARK SMILES IDX 88 12 90 13 8 14 9 15 7 16 6 17 1 18 2 19 3 20 91 21 4 22
REMARK SMILES IDX 5 23 20 24 21 25 22 26 23 27 24 28 25 29 26 30 87 31 27 32
REMARK SMILES IDX 86 33 28 34 29 35 30 36 80 37 31 38 85 39 79 40 81 41 32 42
REMARK SMILES IDX 84 43 78 44 77 45 33 47 65 48 45 49 64 50 46 51 49 52 63 53
REMARK SMILES IDX 82 54 47 55 48 56 62 58 83 59 50 60 34 61 35 62 43 63 36 64
REMARK SMILES IDX 42 65 44 66 41 67 37 68 38 69 39 70 40 71 66 72 67 73 75 74
REMARK SMILES IDX 68 75 74 76 76 77 73 78 69 79 70 80 71 81 72 82 51 83 52 84
REMARK SMILES IDX 60 85 53 86 59 87 61 88 58 89 54 90 55 91 56 92 57 93
REMARK H PARENT 81 46 49 57
REMARK Flexibility Score: inf
ROOT
ATOM      1  O   UNL A   1      42.249  18.630  25.876  1.00  0.00    -0.374 OA
ENDROOT
BRANCH   1   2
ATOM      2  C   UNL A   1      41.737  19.693  26.670  1.00  0.00     0.202 C 
BRANCH   2   3
ATOM      3  C   UNL A   1      40.364  19.919  26.147  1.00  0.00     0.261 C 
BRANCH   3   4
ATOM      4  O   UNL A   1      40.175  21.254  25.675  1.00  0.00    -0.460 OA
BRANCH   4   5
ATOM      5  C   UNL A   1      39.573  22.188  26.453  1.00  0.00     0.338 C 
ATOM      6  O   UNL A   1      40.063  22.953  27.253  1.00  0.00    -0.246 OA
BRANCH   5   7
ATOM      7  C   UNL A   1      38.168  22.206  26.004  1.00  0.00     0.060 A 
ATOM      8  C   UNL A   1      35.595  22.318  24.862  1.00  0.00     0.040 A 
ATOM      9  C   UNL A   1      36.495  21.290  24.584  1.00  0.00     0.027 A 
ATOM     10  C   UNL A   1      36.074  23.400  25.631  1.00  0.00    -0.027 A 
ATOM     11  C   UNL A   1      37.712  21.173  25.201  1.00  0.00     0.018 A 
ATOM     12  C   UNL A   1      37.368  23.332  26.200  1.00  0.00     0.021 A 
ATOM     13  C   UNL A   1      35.325  24.692  25.784  1.00  0.00     0.046 C 
BRANCH   8  14
ATOM     14  N   UNL A   1      34.299  22.218  24.360  1.00  0.00    -0.368 N 
ATOM     15  C   UNL A   1      34.099  22.708  23.010  1.00  0.00     0.144 C 
BRANCH  14  16
ATOM     16  C   UNL A   1      33.411  21.134  24.871  1.00  0.00     0.172 C 
BRANCH  16  17
ATOM     17  C   UNL A   1      33.428  19.787  24.131  1.00  0.00     0.060 A 
ATOM     18  C   UNL A   1      34.760  16.416  24.825  1.00  0.00     0.067 C 
ATOM     19  C   UNL A   1      34.026  17.530  24.135  1.00  0.00     0.038 A 
ATOM     20  C   UNL A   1      33.056  17.224  23.185  1.00  0.00     0.023 A 
ATOM     21  N   UNL A   1      34.254  18.798  24.585  1.00  0.00    -0.256 NA
ATOM     22  C   UNL A   1      32.286  18.253  22.661  1.00  0.00     0.004 A 
ATOM     23  C   UNL A   1      32.465  19.548  23.141  1.00  0.00     0.026 A 
ENDBRANCH  16  17
ENDBRANCH  14  16
ENDBRANCH   8  14
ENDBRANCH   5   7
ENDBRANCH   4   5
ENDBRANCH   3   4
ENDBRANCH   2   3
ENDBRANCH   1   2
BRANCH   1  24
ATOM     24  C   UNL A   1      43.641  18.442  25.960  1.00  0.00     0.202 C 
BRANCH  24  25
ATOM     25  C   UNL A   1      44.360  18.843  24.665  1.00  0.00     0.261 C 
BRANCH  25  26
ATOM     26  O   UNL A   1      44.132  20.247  24.393  1.00  0.00    -0.460 OA
BRANCH  26  27
ATOM     27  C   UNL A   1      44.890  21.137  25.099  1.00  0.00     0.338 C 
ATOM     28  O   UNL A   1      46.027  20.933  25.488  1.00  0.00    -0.246 OA
BRANCH  27  29
ATOM     29  C   UNL A   1      44.077  22.341  25.449  1.00  0.00     0.060 A 
ATOM     30  C   UNL A   1      43.956  23.424  24.549  1.00  0.00     0.016 A 
ATOM     31  C   UNL A   1      43.694  22.504  26.775  1.00  0.00     0.016 A 
ATOM     32  C   UNL A   1      43.612  24.705  25.020  1.00  0.00     0.010 A 
ATOM     33  C   UNL A   1      43.466  23.779  27.245  1.00  0.00     0.010 A 
ATOM     34  C   UNL A   1      43.454  24.898  26.390  1.00  0.00    -0.014 A 
BRANCH  34  35
ATOM     35  C   UNL A   1      43.431  26.185  27.102  1.00  0.00     0.031 A 
ATOM     36  C   UNL A   1      42.132  26.865  27.249  1.00  0.00     0.074 A 
ATOM     37  C   UNL A   1      44.462  26.582  27.891  1.00  0.00     0.049 A 
ATOM     38  N   UNL A   1      41.997  28.069  27.673  1.00  0.00    -0.248 NA
ATOM     39  C   UNL A   1      40.857  26.258  26.887  1.00  0.00     0.031 C 
ATOM     40  C   UNL A   1      44.436  27.447  29.076  1.00  0.00     0.029 A 
ATOM     41  N   UNL A   1      45.811  26.250  27.795  1.00  0.00    -0.354 N 
ATOM     42  C   UNL A   1      40.677  28.248  28.004  1.00  0.00     0.074 A 
ATOM     43  C   UNL A   1      39.994  27.155  27.364  1.00  0.00     0.031 C 
ATOM     44  C   UNL A   1      45.693  27.785  29.419  1.00  0.00     0.029 A 
ATOM     45  C   UNL A   1      46.577  27.255  28.396  1.00  0.00     0.049 A 
ATOM     46  H   UNL A   1      46.170  25.437  27.371  1.00  0.00     0.167 HD
ATOM     47  C   UNL A   1      40.368  29.222  28.904  1.00  0.00     0.034 A 
ATOM     48  C   UNL A   1      47.525  27.891  27.666  1.00  0.00     0.034 A 
ATOM     49  C   UNL A   1      41.587  29.959  29.308  1.00  0.00     0.049 A 
ATOM     50  C   UNL A   1      47.051  29.303  27.458  1.00  0.00     0.074 A 
ATOM     51  C   UNL A   1      42.343  30.022  30.468  1.00  0.00     0.029 A 
ATOM     52  N   UNL A   1      42.383  30.541  28.319  1.00  0.00    -0.354 N 
ATOM     53  N   UNL A   1      45.848  29.707  27.774  1.00  0.00    -0.248 NA
ATOM     54  C   UNL A   1      47.878  30.384  26.962  1.00  0.00     0.031 C 
ATOM     55  C   UNL A   1      43.602  30.627  30.147  1.00  0.00     0.029 A 
ATOM     56  C   UNL A   1      43.603  30.971  28.803  1.00  0.00     0.049 A 
ATOM     57  H   UNL A   1      42.104  30.635  27.380  1.00  0.00     0.167 HD
ATOM     58  C   UNL A   1      45.717  31.048  27.600  1.00  0.00     0.074 A 
ATOM     59  C   UNL A   1      47.022  31.419  27.054  1.00  0.00     0.031 C 
ATOM     60  C   UNL A   1      44.541  31.687  27.922  1.00  0.00     0.034 A 
BRANCH  47  61
ATOM     61  C   UNL A   1      39.022  29.393  29.597  1.00  0.00     0.023 A 
ATOM     62  C   UNL A   1      38.126  30.357  29.090  1.00  0.00     0.031 A 
ATOM     63  C   UNL A   1      38.546  28.696  30.732  1.00  0.00     0.131 A 
ATOM     64  C   UNL A   1      36.887  30.621  29.708  1.00  0.00     0.055 A 
ATOM     65  C   UNL A   1      37.323  28.973  31.361  1.00  0.00     0.041 A 
ATOM     66  F   UNL A   1      39.194  27.673  31.285  1.00  0.00    -0.206 F 
ATOM     67  C   UNL A   1      36.484  29.942  30.852  1.00  0.00     0.022 A 
BRANCH  64  68
ATOM     68  S   UNL A   1      35.787  31.861  28.979  1.00  0.00     0.124 S 
ATOM     69  O   UNL A   1      35.162  31.115  27.892  1.00  0.00    -0.237 OA
ATOM     70  O   UNL A   1      34.928  32.213  30.104  1.00  0.00    -0.237 OA
ATOM     71  O   UNL A   1      36.704  32.918  28.553  1.00  0.00    -0.744 OA
ENDBRANCH  64  68
ENDBRANCH  47  61
BRANCH  48  72
ATOM     72  C   UNL A   1      48.220  26.930  26.737  1.00  0.00     0.023 A 
ATOM     73  C   UNL A   1      47.922  27.066  25.351  1.00  0.00     0.031 A 
ATOM     74  C   UNL A   1      49.461  26.361  27.070  1.00  0.00     0.131 A 
ATOM     75  C   UNL A   1      48.898  26.798  24.369  1.00  0.00     0.055 A 
ATOM     76  C   UNL A   1      50.421  26.073  26.085  1.00  0.00     0.041 A 
ATOM     77  F   UNL A   1      49.831  26.240  28.353  1.00  0.00    -0.206 F 
ATOM     78  C   UNL A   1      50.161  26.329  24.737  1.00  0.00     0.022 A 
BRANCH  75  79
ATOM     79  S   UNL A   1      48.645  27.421  22.661  1.00  0.00     0.124 S 
ATOM     80  O   UNL A   1      47.357  28.094  22.761  1.00  0.00    -0.237 OA
ATOM     81  O   UNL A   1      49.799  28.289  22.452  1.00  0.00    -0.237 OA
ATOM     82  O   UNL A   1      48.663  26.202  21.851  1.00  0.00    -0.744 OA
ENDBRANCH  75  79
ENDBRANCH  48  72
BRANCH  60  83
ATOM     83  C   UNL A   1      44.155  33.068  27.431  1.00  0.00     0.023 A 
ATOM     84  C   UNL A   1      43.849  34.109  28.303  1.00  0.00     0.031 A 
ATOM     85  C   UNL A   1      44.142  33.426  26.059  1.00  0.00     0.131 A 
ATOM     86  C   UNL A   1      43.640  35.421  27.863  1.00  0.00     0.055 A 
ATOM     87  C   UNL A   1      43.901  34.728  25.607  1.00  0.00     0.041 A 
ATOM     88  F   UNL A   1      44.391  32.550  25.077  1.00  0.00    -0.206 F 
ATOM     89  C   UNL A   1      43.664  35.745  26.515  1.00  0.00     0.022 A 
BRANCH  86  90
ATOM     90  S   UNL A   1      43.368  36.672  29.137  1.00  0.00     0.124 S 
ATOM     91  O   UNL A   1      43.060  35.858  30.309  1.00  0.00    -0.237 OA
ATOM     92  O   UNL A   1      44.660  37.353  29.170  1.00  0.00    -0.237 OA
ATOM     93  O   UNL A   1      42.257  37.460  28.612  1.00  0.00    -0.744 OA
ENDBRANCH  86  90
ENDBRANCH  60  83
ENDBRANCH  34  35
ENDBRANCH  27  29
ENDBRANCH  26  27
ENDBRANCH  25  26
ENDBRANCH  24  25
ENDBRANCH   1  24
TORSDOF 20
ENDMDL
MODEL 3
REMARK VINA RESULT:     -11.3      1.773      2.309
REMARK SMILES Cc1cccc(CN(C)c2ccc(C(=O)OCCOCCOC(=O)c3ccc(-c4c5nc(c(-c6cc(S(=O)(=O)[O-])ccc6F)c6ccc([nH]6)c(-c6cc(S(=O)(=O)[O-])ccc6F)c6nc(c(-c7cc(S(=O)(=O)[O-])ccc7F)c7ccc4[nH]7)C=C6)C=C5)cc3)cc2C)n1
REMARK SMILES IDX 19 1 18 2 17 3 16 4 14 5 15 6 13 7 10 8 11 9 89 10 12 11
REMARK SMILES IDX 88 12 90 13 8 14 9 15 7 16 6 17 1 18 2 19 3 20 91 21 4 22
REMARK SMILES IDX 5 23 20 24 21 25 22 26 23 27 24 28 25 29 26 30 87 31 27 32
REMARK SMILES IDX 86 33 28 34 29 35 30 36 80 37 31 38 85 39 79 40 81 41 32 42
REMARK SMILES IDX 84 43 78 44 77 45 33 47 65 48 45 49 64 50 46 51 49 52 63 53
REMARK SMILES IDX 82 54 47 55 48 56 62 58 83 59 50 60 34 61 35 62 43 63 36 64
REMARK SMILES IDX 42 65 44 66 41 67 37 68 38 69 39 70 40 71 66 72 67 73 75 74
REMARK SMILES IDX 68 75 74 76 76 77 73 78 69 79 70 80 71 81 72 82 51 83 52 84
REMARK SMILES IDX 60 85 53 86 59 87 61 88 58 89 54 90 55 91 56 92 57 93
REMARK H PARENT 81 46 49 57
REMARK Flexibility Score: inf
ROOT
ATOM      1  O   UNL A   1      43.017  18.112  25.761  1.00  0.00    -0.374 OA
ENDROOT
BRANCH   1   2
ATOM      2  C   UNL A   1      42.322  18.861  26.751  1.00  0.00     0.202 C 
BRANCH   2   3
ATOM      3  C   UNL A   1      41.143  19.417  26.038  1.00  0.00     0.261 C 
BRANCH   3   4
ATOM      4  O   UNL A   1      41.109  20.845  26.075  1.00  0.00    -0.460 OA
BRANCH   4   5
ATOM      5  C   UNL A   1      40.438  21.499  27.055  1.00  0.00     0.338 C 
ATOM      6  O   UNL A   1      40.756  21.691  28.207  1.00  0.00    -0.246 OA
BRANCH   5   7
ATOM      7  C   UNL A   1      39.269  22.096  26.381  1.00  0.00     0.060 A 
ATOM      8  C   UNL A   1      36.906  23.255  25.378  1.00  0.00     0.040 A 
ATOM      9  C   UNL A   1      37.846  23.980  26.109  1.00  0.00     0.027 A 
ATOM     10  C   UNL A   1      37.106  21.862  25.281  1.00  0.00    -0.027 A 
ATOM     11  C   UNL A   1      39.040  23.455  26.524  1.00  0.00     0.018 A 
ATOM     12  C   UNL A   1      38.297  21.291  25.787  1.00  0.00     0.021 A 
ATOM     13  C   UNL A   1      36.057  20.917  24.768  1.00  0.00     0.046 C 
BRANCH   8  14
ATOM     14  N   UNL A   1      35.837  23.942  24.806  1.00  0.00    -0.368 N 
ATOM     15  C   UNL A   1      35.513  23.592  23.437  1.00  0.00     0.144 C 
BRANCH  14  16
ATOM     16  C   UNL A   1      34.753  24.453  25.694  1.00  0.00     0.172 C 
BRANCH  16  17
ATOM     17  C   UNL A   1      33.372  23.785  25.594  1.00  0.00     0.060 A 
ATOM     18  C   UNL A   1      32.139  20.371  24.927  1.00  0.00     0.067 C 
ATOM     19  C   UNL A   1      32.134  21.830  25.279  1.00  0.00     0.038 A 
ATOM     20  C   UNL A   1      31.028  22.373  25.929  1.00  0.00     0.023 A 
ATOM     21  N   UNL A   1      33.287  22.527  25.067  1.00  0.00    -0.256 NA
ATOM     22  C   UNL A   1      31.093  23.684  26.377  1.00  0.00     0.004 A 
ATOM     23  C   UNL A   1      32.277  24.399  26.216  1.00  0.00     0.026 A 
ENDBRANCH  16  17
ENDBRANCH  14  16
ENDBRANCH   8  14
ENDBRANCH   5   7
ENDBRANCH   4   5
ENDBRANCH   3   4
ENDBRANCH   2   3
ENDBRANCH   1   2
BRANCH   1  24
ATOM     24  C   UNL A   1      44.409  18.311  25.731  1.00  0.00     0.202 C 
BRANCH  24  25
ATOM     25  C   UNL A   1      44.880  18.920  24.404  1.00  0.00     0.261 C 
BRANCH  25  26
ATOM     26  O   UNL A   1      44.446  20.299  24.317  1.00  0.00    -0.460 OA
BRANCH  26  27
ATOM     27  C   UNL A   1      45.243  21.230  24.917  1.00  0.00     0.338 C 
ATOM     28  O   UNL A   1      46.395  21.041  25.271  1.00  0.00    -0.246 OA
BRANCH  27  29
ATOM     29  C   UNL A   1      44.460  22.469  25.207  1.00  0.00     0.060 A 
ATOM     30  C   UNL A   1      44.524  23.588  24.347  1.00  0.00     0.016 A 
ATOM     31  C   UNL A   1      43.909  22.609  26.475  1.00  0.00     0.016 A 
ATOM     32  C   UNL A   1      44.191  24.871  24.822  1.00  0.00     0.010 A 
ATOM     33  C   UNL A   1      43.692  23.878  26.965  1.00  0.00     0.010 A 
ATOM     34  C   UNL A   1      43.860  25.025  26.165  1.00  0.00    -0.014 A 
BRANCH  34  35
ATOM     35  C   UNL A   1      43.812  26.284  26.923  1.00  0.00     0.031 A 
ATOM     36  C   UNL A   1      42.510  26.965  27.043  1.00  0.00     0.074 A 
ATOM     37  C   UNL A   1      44.812  26.648  27.766  1.00  0.00     0.049 A 
ATOM     38  N   UNL A   1      42.363  28.153  27.505  1.00  0.00    -0.248 NA
ATOM     39  C   UNL A   1      41.249  26.377  26.608  1.00  0.00     0.031 C 
ATOM     40  C   UNL A   1      44.742  27.469  28.980  1.00  0.00     0.029 A 
ATOM     41  N   UNL A   1      46.163  26.314  27.712  1.00  0.00    -0.354 N 
ATOM     42  C   UNL A   1      41.031  28.326  27.790  1.00  0.00     0.074 A 
ATOM     43  C   UNL A   1      40.370  27.261  27.083  1.00  0.00     0.031 C 
ATOM     44  C   UNL A   1      45.986  27.788  29.385  1.00  0.00     0.029 A 
ATOM     45  C   UNL A   1      46.907  27.293  28.379  1.00  0.00     0.049 A 
ATOM     46  H   UNL A   1      46.536  25.515  27.272  1.00  0.00     0.167 HD
ATOM     47  C   UNL A   1      40.689  29.268  28.713  1.00  0.00     0.034 A 
ATOM     48  C   UNL A   1      47.886  27.950  27.711  1.00  0.00     0.034 A 
ATOM     49  C   UNL A   1      41.894  29.984  29.191  1.00  0.00     0.049 A 
ATOM     50  C   UNL A   1      47.425  29.371  27.536  1.00  0.00     0.074 A 
ATOM     51  C   UNL A   1      42.604  30.001  30.381  1.00  0.00     0.029 A 
ATOM     52  N   UNL A   1      42.730  30.598  28.257  1.00  0.00    -0.354 N 
ATOM     53  N   UNL A   1      46.211  29.768  27.819  1.00  0.00    -0.248 NA
ATOM     54  C   UNL A   1      48.274  30.465  27.114  1.00  0.00     0.031 C 
ATOM     55  C   UNL A   1      43.875  30.612  30.133  1.00  0.00     0.029 A 
ATOM     56  C   UNL A   1      43.931  31.005  28.804  1.00  0.00     0.049 A 
ATOM     57  H   UNL A   1      42.489  30.727  27.312  1.00  0.00     0.167 HD
ATOM     58  C   UNL A   1      46.092  31.116  27.690  1.00  0.00     0.074 A 
ATOM     59  C   UNL A   1      47.418  31.500  27.209  1.00  0.00     0.031 C 
ATOM     60  C   UNL A   1      44.906  31.748  27.987  1.00  0.00     0.034 A 
BRANCH  47  61
ATOM     61  C   UNL A   1      39.318  29.420  29.357  1.00  0.00     0.023 A 
ATOM     62  C   UNL A   1      39.238  29.445  30.764  1.00  0.00     0.031 A 
ATOM     63  C   UNL A   1      38.069  29.528  28.702  1.00  0.00     0.131 A 
ATOM     64  C   UNL A   1      38.003  29.521  31.441  1.00  0.00     0.055 A 
ATOM     65  C   UNL A   1      36.838  29.581  29.372  1.00  0.00     0.041 A 
ATOM     66  F   UNL A   1      37.945  29.638  27.380  1.00  0.00    -0.206 F 
ATOM     67  C   UNL A   1      36.797  29.576  30.750  1.00  0.00     0.022 A 
BRANCH  64  68
ATOM     68  S   UNL A   1      37.993  29.569  33.250  1.00  0.00     0.124 S 
ATOM     69  O   UNL A   1      36.957  28.594  33.576  1.00  0.00    -0.237 OA
ATOM     70  O   UNL A   1      39.363  29.195  33.579  1.00  0.00    -0.237 OA
ATOM     71  O   UNL A   1      37.647  30.959  33.551  1.00  0.00    -0.744 OA
ENDBRANCH  64  68
ENDBRANCH  47  61
BRANCH  48  72
ATOM     72  C   UNL A   1      48.614  27.021  26.776  1.00  0.00     0.023 A 
ATOM     73  C   UNL A   1      48.211  27.057  25.410  1.00  0.00     0.031 A 
ATOM     74  C   UNL A   1      49.928  26.599  27.041  1.00  0.00     0.131 A 
ATOM     75  C   UNL A   1      49.141  26.842  24.372  1.00  0.00     0.055 A 
ATOM     76  C   UNL A   1      50.845  26.362  26.003  1.00  0.00     0.041 A 
ATOM     77  F   UNL A   1      50.395  26.580  28.299  1.00  0.00    -0.206 F 
ATOM     78  C   UNL A   1      50.469  26.524  24.667  1.00  0.00     0.022 A 
BRANCH  75  79
ATOM     79  S   UNL A   1      48.710  27.350  22.663  1.00  0.00     0.124 S 
ATOM     80  O   UNL A   1      48.664  26.075  21.958  1.00  0.00    -0.237 OA
ATOM     81  O   UNL A   1      47.427  28.026  22.833  1.00  0.00    -0.237 OA
ATOM     82  O   UNL A   1      49.807  28.243  22.288  1.00  0.00    -0.744 OA
ENDBRANCH  75  79
ENDBRANCH  48  72
BRANCH  60  83
ATOM     83  C   UNL A   1      44.544  33.148  27.533  1.00  0.00     0.023 A 
ATOM     84  C   UNL A   1      44.569  34.240  28.396  1.00  0.00     0.031 A 
ATOM     85  C   UNL A   1      44.222  33.466  26.189  1.00  0.00     0.131 A 
ATOM     86  C   UNL A   1      44.383  35.554  27.951  1.00  0.00     0.055 A 
ATOM     87  C   UNL A   1      44.002  34.773  25.741  1.00  0.00     0.041 A 
ATOM     88  F   UNL A   1      44.131  32.541  25.226  1.00  0.00    -0.206 F 
ATOM     89  C   UNL A   1      44.099  35.835  26.623  1.00  0.00     0.022 A 
BRANCH  86  90
ATOM     90  S   UNL A   1      44.561  36.862  29.183  1.00  0.00     0.124 S 
ATOM     91  O   UNL A   1      43.369  36.677  30.005  1.00  0.00    -0.237 OA
ATOM     92  O   UNL A   1      45.825  36.504  29.822  1.00  0.00    -0.237 OA
ATOM     93  O   UNL A   1      44.588  38.083  28.383  1.00  0.00    -0.744 OA
ENDBRANCH  86  90
ENDBRANCH  60  83
ENDBRANCH  34  35
ENDBRANCH  27  29
ENDBRANCH  26  27
ENDBRANCH  25  26
ENDBRANCH  24  25
ENDBRANCH   1  24
TORSDOF 20
ENDMDL
