MODEL 1
REMARK VINA RESULT:     -12.4      0.000      0.000
REMARK SMILES O=C(OCCOCCOC(=O)c1ccc(-n2cc(CSc3nc4ccccc4c(=O)n3-c3ccc(Br)cc3)nn2)cc1)c1ccc(-c2c3nc(c(-c4cc(S(=O)(=O)[O-])ccc4F)c4ccc([nH]4)c(-c4cc(S(=O)(=O)[O-])ccc4F)c4nc(c(-c5cc(S(=O)(=O)[O-])ccc5F)c5ccc2[nH]5)C=C4)C=C3)cc1
REMARK SMILES IDX 7 1 6 2 5 3 4 4 3 5 2 6 1 7 43 8 44 9 105 10 45 11 104 12
REMARK SMILES IDX 46 13 47 14 48 15 98 16 49 17 103 18 97 19 99 20 50 21
REMARK SMILES IDX 102 22 96 23 95 24 51 26 83 27 63 28 82 29 64 30 67 31 81 32
REMARK SMILES IDX 100 33 65 34 66 35 80 37 101 38 68 39 52 40 53 41 61 42
REMARK SMILES IDX 54 43 60 44 62 45 59 46 55 47 56 48 57 49 58 50 84 51 85 52
REMARK SMILES IDX 93 53 86 54 92 55 94 56 91 57 87 58 88 59 89 60 90 61 69 62
REMARK SMILES IDX 70 63 78 64 71 65 77 66 79 67 76 68 72 69 73 70 74 71 75 72
REMARK SMILES IDX 8 73 9 74 10 75 11 76 12 77 13 78 42 79 14 80 41 81 15 82
REMARK SMILES IDX 16 83 17 84 40 85 18 86 39 87 19 88 20 89 21 90 22 91 31 92
REMARK SMILES IDX 23 93 29 94 24 95 28 96 30 97 25 98 27 99 26 100 32 101
REMARK SMILES IDX 33 102 38 103 34 104 37 105 35 106 36 107
REMARK H PARENT 99 25 67 36
REMARK Flexibility Score: inf
ROOT
ATOM      1  C   UNL A   1      41.476  19.175  26.316  1.00  0.00     0.202 C 
ENDROOT
BRANCH   1   2
ATOM      2  O   UNL A   1      42.851  18.854  26.564  1.00  0.00    -0.374 OA
BRANCH   2   3
ATOM      3  C   UNL A   1      43.631  18.372  25.477  1.00  0.00     0.202 C 
BRANCH   3   4
ATOM      4  C   UNL A   1      44.677  19.277  24.827  1.00  0.00     0.261 C 
BRANCH   4   5
ATOM      5  O   UNL A   1      44.560  20.642  25.251  1.00  0.00    -0.460 OA
BRANCH   5   6
ATOM      6  C   UNL A   1      44.767  21.732  24.483  1.00  0.00     0.338 C 
ATOM      7  O   UNL A   1      44.628  21.645  23.263  1.00  0.00    -0.246 OA
BRANCH   6   8
ATOM      8  C   UNL A   1      44.955  23.072  25.095  1.00  0.00     0.060 A 
ATOM      9  C   UNL A   1      45.869  23.396  26.098  1.00  0.00     0.016 A 
ATOM     10  C   UNL A   1      44.029  24.041  24.678  1.00  0.00     0.016 A 
ATOM     11  C   UNL A   1      45.650  24.506  26.888  1.00  0.00     0.010 A 
ATOM     12  C   UNL A   1      43.857  25.194  25.412  1.00  0.00     0.010 A 
ATOM     13  C   UNL A   1      44.591  25.355  26.580  1.00  0.00    -0.014 A 
BRANCH  13  14
ATOM     14  C   UNL A   1      44.370  26.511  27.427  1.00  0.00     0.031 A 
ATOM     15  C   UNL A   1      45.425  27.542  27.268  1.00  0.00     0.074 A 
ATOM     16  C   UNL A   1      43.254  26.646  28.171  1.00  0.00     0.049 A 
ATOM     17  N   UNL A   1      46.313  27.900  28.132  1.00  0.00    -0.248 NA
ATOM     18  C   UNL A   1      45.666  28.078  25.916  1.00  0.00     0.031 C 
ATOM     19  C   UNL A   1      42.076  25.775  28.204  1.00  0.00     0.029 A 
ATOM     20  N   UNL A   1      42.889  27.663  28.993  1.00  0.00    -0.354 N 
ATOM     21  C   UNL A   1      47.053  28.903  27.516  1.00  0.00     0.074 A 
ATOM     22  C   UNL A   1      46.770  28.799  26.112  1.00  0.00     0.031 C 
ATOM     23  C   UNL A   1      41.049  26.431  28.791  1.00  0.00     0.029 A 
ATOM     24  C   UNL A   1      41.528  27.710  29.290  1.00  0.00     0.049 A 
ATOM     25  H   UNL A   1      43.533  28.315  29.350  1.00  0.00     0.167 HD
ATOM     26  C   UNL A   1      47.611  29.907  28.247  1.00  0.00     0.034 A 
ATOM     27  C   UNL A   1      40.847  28.759  29.833  1.00  0.00     0.034 A 
ATOM     28  C   UNL A   1      47.685  29.544  29.644  1.00  0.00     0.049 A 
ATOM     29  C   UNL A   1      41.862  29.612  30.509  1.00  0.00     0.074 A 
ATOM     30  C   UNL A   1      48.306  28.527  30.344  1.00  0.00     0.029 A 
ATOM     31  N   UNL A   1      46.722  30.046  30.490  1.00  0.00    -0.354 N 
ATOM     32  N   UNL A   1      42.547  29.210  31.547  1.00  0.00    -0.248 NA
ATOM     33  C   UNL A   1      42.499  30.664  29.724  1.00  0.00     0.031 C 
ATOM     34  C   UNL A   1      47.362  28.143  31.342  1.00  0.00     0.029 A 
ATOM     35  C   UNL A   1      46.266  29.007  31.266  1.00  0.00     0.049 A 
ATOM     36  H   UNL A   1      46.415  30.980  30.533  1.00  0.00     0.167 HD
ATOM     37  C   UNL A   1      43.851  29.617  31.302  1.00  0.00     0.074 A 
ATOM     38  C   UNL A   1      43.746  30.576  30.200  1.00  0.00     0.031 C 
ATOM     39  C   UNL A   1      44.917  28.919  31.796  1.00  0.00     0.034 A 
BRANCH  26  40
ATOM     40  C   UNL A   1      47.705  31.344  27.787  1.00  0.00     0.023 A 
ATOM     41  C   UNL A   1      46.495  31.993  27.479  1.00  0.00     0.031 A 
ATOM     42  C   UNL A   1      48.881  31.995  27.345  1.00  0.00     0.131 A 
ATOM     43  C   UNL A   1      46.479  33.143  26.673  1.00  0.00     0.055 A 
ATOM     44  C   UNL A   1      48.862  33.177  26.602  1.00  0.00     0.041 A 
ATOM     45  F   UNL A   1      50.105  31.484  27.516  1.00  0.00    -0.206 F 
ATOM     46  C   UNL A   1      47.656  33.740  26.231  1.00  0.00     0.022 A 
BRANCH  43  47
ATOM     47  S   UNL A   1      44.883  33.732  26.059  1.00  0.00     0.124 S 
ATOM     48  O   UNL A   1      44.002  33.411  27.176  1.00  0.00    -0.237 OA
ATOM     49  O   UNL A   1      45.151  35.150  25.837  1.00  0.00    -0.237 OA
ATOM     50  O   UNL A   1      44.673  32.941  24.848  1.00  0.00    -0.744 OA
ENDBRANCH  43  47
ENDBRANCH  26  40
BRANCH  27  51
ATOM     51  C   UNL A   1      39.484  29.242  29.442  1.00  0.00     0.023 A 
ATOM     52  C   UNL A   1      38.579  29.849  30.344  1.00  0.00     0.031 A 
ATOM     53  C   UNL A   1      39.142  29.317  28.072  1.00  0.00     0.131 A 
ATOM     54  C   UNL A   1      37.402  30.482  29.864  1.00  0.00     0.055 A 
ATOM     55  C   UNL A   1      37.983  29.942  27.605  1.00  0.00     0.041 A 
ATOM     56  F   UNL A   1      39.970  28.857  27.122  1.00  0.00    -0.206 F 
ATOM     57  C   UNL A   1      37.110  30.535  28.499  1.00  0.00     0.022 A 
BRANCH  54  58
ATOM     58  S   UNL A   1      36.250  31.324  31.006  1.00  0.00     0.124 S 
ATOM     59  O   UNL A   1      35.947  30.277  31.973  1.00  0.00    -0.237 OA
ATOM     60  O   UNL A   1      37.047  32.445  31.488  1.00  0.00    -0.237 OA
ATOM     61  O   UNL A   1      35.127  31.702  30.143  1.00  0.00    -0.744 OA
ENDBRANCH  54  58
ENDBRANCH  27  51
BRANCH  39  62
ATOM     62  C   UNL A   1      44.664  27.845  32.839  1.00  0.00     0.023 A 
ATOM     63  C   UNL A   1      44.619  26.453  32.590  1.00  0.00     0.031 A 
ATOM     64  C   UNL A   1      44.597  28.268  34.178  1.00  0.00     0.131 A 
ATOM     65  C   UNL A   1      44.502  25.548  33.666  1.00  0.00     0.055 A 
ATOM     66  C   UNL A   1      44.506  27.370  35.239  1.00  0.00     0.041 A 
ATOM     67  F   UNL A   1      44.661  29.575  34.483  1.00  0.00    -0.206 F 
ATOM     68  C   UNL A   1      44.452  26.006  34.987  1.00  0.00     0.022 A 
BRANCH  65  69
ATOM     69  S   UNL A   1      44.391  23.751  33.375  1.00  0.00     0.124 S 
ATOM     70  O   UNL A   1      44.183  23.650  31.935  1.00  0.00    -0.237 OA
ATOM     71  O   UNL A   1      45.679  23.271  33.871  1.00  0.00    -0.237 OA
ATOM     72  O   UNL A   1      43.241  23.346  34.187  1.00  0.00    -0.744 OA
ENDBRANCH  65  69
ENDBRANCH  39  62
ENDBRANCH  13  14
ENDBRANCH   6   8
ENDBRANCH   5   6
ENDBRANCH   4   5
ENDBRANCH   3   4
ENDBRANCH   2   3
ENDBRANCH   1   2
BRANCH   1  73
ATOM     73  C   UNL A   1      40.859  20.466  26.888  1.00  0.00     0.261 C 
BRANCH  73  74
ATOM     74  O   UNL A   1      39.758  20.970  26.111  1.00  0.00    -0.460 OA
BRANCH  74  75
ATOM     75  C   UNL A   1      39.274  22.174  26.521  1.00  0.00     0.338 C 
ATOM     76  O   UNL A   1      39.786  22.953  27.290  1.00  0.00    -0.246 OA
BRANCH  75  77
ATOM     77  C   UNL A   1      38.097  22.518  25.692  1.00  0.00     0.060 A 
ATOM     78  C   UNL A   1      37.407  23.704  25.999  1.00  0.00     0.018 A 
ATOM     79  C   UNL A   1      37.654  21.681  24.670  1.00  0.00     0.018 A 
ATOM     80  C   UNL A   1      36.274  24.072  25.283  1.00  0.00     0.029 A 
ATOM     81  C   UNL A   1      36.455  21.990  24.023  1.00  0.00     0.029 A 
ATOM     82  C   UNL A   1      35.765  23.176  24.348  1.00  0.00     0.066 A 
BRANCH  82  83
ATOM     83  N   UNL A   1      34.427  23.345  23.951  1.00  0.00    -0.220 N 
ATOM     84  C   UNL A   1      33.990  24.395  23.189  1.00  0.00     0.141 A 
ATOM     85  N   UNL A   1      33.471  22.395  23.997  1.00  0.00    -0.062 NA
ATOM     86  C   UNL A   1      32.735  24.044  22.752  1.00  0.00     0.093 A 
ATOM     87  N   UNL A   1      32.408  22.845  23.332  1.00  0.00    -0.134 NA
BRANCH  86  88
ATOM     88  C   UNL A   1      31.751  24.864  22.015  1.00  0.00     0.138 C 
BRANCH  88  89
ATOM     89  S   UNL A   1      31.976  26.598  21.621  1.00  0.00    -0.081 SA
BRANCH  89  90
ATOM     90  C   UNL A   1      31.005  27.697  22.564  1.00  0.00     0.176 A 
ATOM     91  N   UNL A   1      30.190  28.393  21.822  1.00  0.00    -0.223 NA
ATOM     92  N   UNL A   1      31.031  27.858  23.939  1.00  0.00    -0.255 N 
ATOM     93  C   UNL A   1      29.444  29.415  22.424  1.00  0.00     0.079 A 
ATOM     94  C   UNL A   1      30.876  29.186  24.358  1.00  0.00     0.266 A 
ATOM     95  C   UNL A   1      28.330  29.972  21.794  1.00  0.00     0.029 A 
ATOM     96  C   UNL A   1      29.876  29.969  23.619  1.00  0.00     0.066 A 
ATOM     97  O   UNL A   1      31.485  29.729  25.277  1.00  0.00    -0.268 OA
ATOM     98  C   UNL A   1      27.713  31.110  22.330  1.00  0.00     0.002 A 
ATOM     99  C   UNL A   1      29.314  31.139  24.136  1.00  0.00     0.016 A 
ATOM    100  C   UNL A   1      28.231  31.717  23.477  1.00  0.00     0.001 A 
BRANCH  92 101
ATOM    101  C   UNL A   1      31.195  26.836  24.950  1.00  0.00     0.051 A 
ATOM    102  C   UNL A   1      32.456  26.648  25.557  1.00  0.00     0.028 A 
ATOM    103  C   UNL A   1      30.174  25.995  25.404  1.00  0.00     0.028 A 
ATOM    104  C   UNL A   1      32.747  25.531  26.344  1.00  0.00     0.018 A 
ATOM    105  C   UNL A   1      30.467  24.829  26.130  1.00  0.00     0.018 A 
ATOM    106  C   UNL A   1      31.766  24.579  26.554  1.00  0.00     0.018 A 
ATOM    107  Br  UNL A   1      32.206  22.936  27.366  1.00  0.00    -0.051 Br
ENDBRANCH  92 101
ENDBRANCH  89  90
ENDBRANCH  88  89
ENDBRANCH  86  88
ENDBRANCH  82  83
ENDBRANCH  75  77
ENDBRANCH  74  75
ENDBRANCH  73  74
ENDBRANCH   1  73
TORSDOF 22
ENDMDL
MODEL 2
REMARK VINA RESULT:     -12.1      3.031      4.365
REMARK SMILES O=C(OCCOCCOC(=O)c1ccc(-n2cc(CSc3nc4ccccc4c(=O)n3-c3ccc(Br)cc3)nn2)cc1)c1ccc(-c2c3nc(c(-c4cc(S(=O)(=O)[O-])ccc4F)c4ccc([nH]4)c(-c4cc(S(=O)(=O)[O-])ccc4F)c4nc(c(-c5cc(S(=O)(=O)[O-])ccc5F)c5ccc2[nH]5)C=C4)C=C3)cc1
REMARK SMILES IDX 7 1 6 2 5 3 4 4 3 5 2 6 1 7 43 8 44 9 105 10 45 11 104 12
REMARK SMILES IDX 46 13 47 14 48 15 98 16 49 17 103 18 97 19 99 20 50 21
REMARK SMILES IDX 102 22 96 23 95 24 51 26 83 27 63 28 82 29 64 30 67 31 81 32
REMARK SMILES IDX 100 33 65 34 66 35 80 37 101 38 68 39 52 40 53 41 61 42
REMARK SMILES IDX 54 43 60 44 62 45 59 46 55 47 56 48 57 49 58 50 84 51 85 52
REMARK SMILES IDX 93 53 86 54 92 55 94 56 91 57 87 58 88 59 89 60 90 61 69 62
REMARK SMILES IDX 70 63 78 64 71 65 77 66 79 67 76 68 72 69 73 70 74 71 75 72
REMARK SMILES IDX 8 73 9 74 10 75 11 76 12 77 13 78 42 79 14 80 41 81 15 82
REMARK SMILES IDX 16 83 17 84 40 85 18 86 39 87 19 88 20 89 21 90 22 91 31 92
REMARK SMILES IDX 23 93 29 94 24 95 28 96 30 97 25 98 27 99 26 100 32 101
REMARK SMILES IDX 33 102 38 103 34 104 37 105 35 106 36 107
REMARK H PARENT 99 25 67 36
REMARK Flexibility Score: inf
ROOT
ATOM      1  C   UNL A   1      37.607  20.396  24.741  1.00  0.00     0.202 C 
ENDROOT
BRANCH   1   2
ATOM      2  O   UNL A   1      38.858  19.896  25.231  1.00  0.00    -0.374 OA
BRANCH   2   3
ATOM      3  C   UNL A   1      39.634  20.745  26.067  1.00  0.00     0.202 C 
BRANCH   3   4
ATOM      4  C   UNL A   1      39.187  22.184  26.321  1.00  0.00     0.261 C 
BRANCH   4   5
ATOM      5  O   UNL A   1      40.290  23.096  26.398  1.00  0.00    -0.460 OA
BRANCH   5   6
ATOM      6  C   UNL A   1      40.914  23.493  27.527  1.00  0.00     0.338 C 
ATOM      7  O   UNL A   1      41.312  22.646  28.326  1.00  0.00    -0.246 OA
BRANCH   6   8
ATOM      8  C   UNL A   1      41.308  24.912  27.723  1.00  0.00     0.060 A 
ATOM      9  C   UNL A   1      42.455  25.363  28.377  1.00  0.00     0.016 A 
ATOM     10  C   UNL A   1      40.353  25.848  27.298  1.00  0.00     0.016 A 
ATOM     11  C   UNL A   1      42.488  26.644  28.890  1.00  0.00     0.010 A 
ATOM     12  C   UNL A   1      40.419  27.152  27.737  1.00  0.00     0.010 A 
ATOM     13  C   UNL A   1      41.426  27.503  28.628  1.00  0.00    -0.014 A 
BRANCH  13  14
ATOM     14  C   UNL A   1      41.473  28.842  29.183  1.00  0.00     0.031 A 
ATOM     15  C   UNL A   1      42.619  29.631  28.669  1.00  0.00     0.074 A 
ATOM     16  C   UNL A   1      40.496  29.316  29.982  1.00  0.00     0.049 A 
ATOM     17  N   UNL A   1      43.657  30.032  29.324  1.00  0.00    -0.248 NA
ATOM     18  C   UNL A   1      42.739  29.800  27.209  1.00  0.00     0.031 C 
ATOM     19  C   UNL A   1      39.232  28.672  30.348  1.00  0.00     0.029 A 
ATOM     20  N   UNL A   1      40.381  30.538  30.563  1.00  0.00    -0.354 N 
ATOM     21  C   UNL A   1      44.427  30.739  28.408  1.00  0.00     0.074 A 
ATOM     22  C   UNL A   1      43.944  30.363  27.109  1.00  0.00     0.031 C 
ATOM     23  C   UNL A   1      38.388  29.597  30.858  1.00  0.00     0.029 A 
ATOM     24  C   UNL A   1      39.091  30.865  30.978  1.00  0.00     0.049 A 
ATOM     25  H   UNL A   1      41.146  31.145  30.681  1.00  0.00     0.167 HD
ATOM     26  C   UNL A   1      45.204  31.782  28.809  1.00  0.00     0.034 A 
ATOM     27  C   UNL A   1      38.631  32.104  31.313  1.00  0.00     0.034 A 
ATOM     28  C   UNL A   1      45.423  31.739  30.237  1.00  0.00     0.049 A 
ATOM     29  C   UNL A   1      39.831  32.918  31.651  1.00  0.00     0.074 A 
ATOM     30  C   UNL A   1      45.998  30.824  31.098  1.00  0.00     0.029 A 
ATOM     31  N   UNL A   1      44.657  32.566  31.029  1.00  0.00    -0.354 N 
ATOM     32  N   UNL A   1      40.594  32.660  32.681  1.00  0.00    -0.248 NA
ATOM     33  C   UNL A   1      40.483  33.650  30.572  1.00  0.00     0.031 C 
ATOM     34  C   UNL A   1      45.158  30.830  32.250  1.00  0.00     0.029 A 
ATOM     35  C   UNL A   1      44.182  31.816  32.078  1.00  0.00     0.049 A 
ATOM     36  H   UNL A   1      44.481  33.521  30.873  1.00  0.00     0.167 HD
ATOM     37  C   UNL A   1      41.893  32.790  32.211  1.00  0.00     0.074 A 
ATOM     38  C   UNL A   1      41.762  33.478  30.925  1.00  0.00     0.031 C 
ATOM     39  C   UNL A   1      42.919  32.064  32.749  1.00  0.00     0.034 A 
BRANCH  26  40
ATOM     40  C   UNL A   1      45.418  33.044  28.004  1.00  0.00     0.023 A 
ATOM     41  C   UNL A   1      44.584  34.137  28.303  1.00  0.00     0.031 A 
ATOM     42  C   UNL A   1      46.146  33.138  26.794  1.00  0.00     0.131 A 
ATOM     43  C   UNL A   1      44.406  35.181  27.380  1.00  0.00     0.055 A 
ATOM     44  C   UNL A   1      46.018  34.213  25.912  1.00  0.00     0.041 A 
ATOM     45  F   UNL A   1      46.944  32.164  26.345  1.00  0.00    -0.206 F 
ATOM     46  C   UNL A   1      45.117  35.226  26.185  1.00  0.00     0.022 A 
BRANCH  43  47
ATOM     47  S   UNL A   1      43.087  36.379  27.691  1.00  0.00     0.124 S 
ATOM     48  O   UNL A   1      41.937  35.503  27.890  1.00  0.00    -0.237 OA
ATOM     49  O   UNL A   1      43.583  37.072  28.876  1.00  0.00    -0.237 OA
ATOM     50  O   UNL A   1      43.061  37.178  26.468  1.00  0.00    -0.744 OA
ENDBRANCH  43  47
ENDBRANCH  26  40
BRANCH  27  51
ATOM     51  C   UNL A   1      37.301  32.693  30.958  1.00  0.00     0.023 A 
ATOM     52  C   UNL A   1      36.313  33.033  31.914  1.00  0.00     0.031 A 
ATOM     53  C   UNL A   1      37.077  33.155  29.641  1.00  0.00     0.131 A 
ATOM     54  C   UNL A   1      35.174  33.789  31.531  1.00  0.00     0.055 A 
ATOM     55  C   UNL A   1      35.954  33.900  29.270  1.00  0.00     0.041 A 
ATOM     56  F   UNL A   1      37.990  32.972  28.674  1.00  0.00    -0.206 F 
ATOM     57  C   UNL A   1      35.000  34.228  30.217  1.00  0.00     0.022 A 
BRANCH  54  58
ATOM     58  S   UNL A   1      33.917  34.289  32.760  1.00  0.00     0.124 S 
ATOM     59  O   UNL A   1      33.078  35.202  31.994  1.00  0.00    -0.237 OA
ATOM     60  O   UNL A   1      33.318  33.015  33.136  1.00  0.00    -0.237 OA
ATOM     61  O   UNL A   1      34.707  34.927  33.817  1.00  0.00    -0.744 OA
ENDBRANCH  54  58
ENDBRANCH  27  51
BRANCH  39  62
ATOM     62  C   UNL A   1      42.675  31.309  34.043  1.00  0.00     0.023 A 
ATOM     63  C   UNL A   1      42.368  29.932  34.146  1.00  0.00     0.031 A 
ATOM     64  C   UNL A   1      42.901  32.015  35.239  1.00  0.00     0.131 A 
ATOM     65  C   UNL A   1      42.290  29.319  35.415  1.00  0.00     0.055 A 
ATOM     66  C   UNL A   1      42.846  31.401  36.488  1.00  0.00     0.041 A 
ATOM     67  F   UNL A   1      43.222  33.319  35.208  1.00  0.00    -0.206 F 
ATOM     68  C   UNL A   1      42.534  30.051  36.581  1.00  0.00     0.022 A 
BRANCH  65  69
ATOM     69  S   UNL A   1      41.847  27.558  35.582  1.00  0.00     0.124 S 
ATOM     70  O   UNL A   1      43.121  26.868  35.421  1.00  0.00    -0.237 OA
ATOM     71  O   UNL A   1      41.255  27.507  36.917  1.00  0.00    -0.237 OA
ATOM     72  O   UNL A   1      40.895  27.342  34.490  1.00  0.00    -0.744 OA
ENDBRANCH  65  69
ENDBRANCH  39  62
ENDBRANCH  13  14
ENDBRANCH   6   8
ENDBRANCH   5   6
ENDBRANCH   4   5
ENDBRANCH   3   4
ENDBRANCH   2   3
ENDBRANCH   1   2
BRANCH   1  73
ATOM     73  C   UNL A   1      36.312  19.582  24.929  1.00  0.00     0.261 C 
BRANCH  73  74
ATOM     74  O   UNL A   1      35.247  20.330  25.544  1.00  0.00    -0.460 OA
BRANCH  74  75
ATOM     75  C   UNL A   1      34.026  20.165  24.966  1.00  0.00     0.338 C 
ATOM     76  O   UNL A   1      33.184  19.341  25.239  1.00  0.00    -0.246 OA
BRANCH  75  77
ATOM     77  C   UNL A   1      33.764  21.319  24.077  1.00  0.00     0.060 A 
ATOM     78  C   UNL A   1      34.710  22.358  24.061  1.00  0.00     0.018 A 
ATOM     79  C   UNL A   1      32.602  21.402  23.313  1.00  0.00     0.018 A 
ATOM     80  C   UNL A   1      34.512  23.487  23.275  1.00  0.00     0.029 A 
ATOM     81  C   UNL A   1      32.345  22.581  22.609  1.00  0.00     0.029 A 
ATOM     82  C   UNL A   1      33.296  23.622  22.610  1.00  0.00     0.066 A 
BRANCH  82  83
ATOM     83  N   UNL A   1      32.932  24.912  22.184  1.00  0.00    -0.220 N 
ATOM     84  C   UNL A   1      31.743  25.509  22.508  1.00  0.00     0.141 A 
ATOM     85  N   UNL A   1      33.773  25.835  21.675  1.00  0.00    -0.062 NA
ATOM     86  C   UNL A   1      31.894  26.838  22.195  1.00  0.00     0.093 A 
ATOM     87  N   UNL A   1      33.123  26.995  21.608  1.00  0.00    -0.134 NA
BRANCH  86  88
ATOM     88  C   UNL A   1      30.877  27.911  22.209  1.00  0.00     0.138 C 
BRANCH  88  89
ATOM     89  S   UNL A   1      30.474  28.900  23.650  1.00  0.00    -0.081 SA
BRANCH  89  90
ATOM     90  C   UNL A   1      31.622  28.795  24.957  1.00  0.00     0.176 A 
ATOM     91  N   UNL A   1      31.921  29.967  25.443  1.00  0.00    -0.223 NA
ATOM     92  N   UNL A   1      32.183  27.641  25.480  1.00  0.00    -0.255 N 
ATOM     93  C   UNL A   1      32.935  30.053  26.407  1.00  0.00     0.079 A 
ATOM     94  C   UNL A   1      33.529  27.779  25.842  1.00  0.00     0.266 A 
ATOM     95  C   UNL A   1      33.086  31.187  27.205  1.00  0.00     0.029 A 
ATOM     96  C   UNL A   1      33.880  29.043  26.502  1.00  0.00     0.066 A 
ATOM     97  O   UNL A   1      34.413  26.943  25.665  1.00  0.00    -0.268 OA
ATOM     98  C   UNL A   1      34.211  31.324  28.029  1.00  0.00     0.002 A 
ATOM     99  C   UNL A   1      35.039  29.188  27.269  1.00  0.00     0.016 A 
ATOM    100  C   UNL A   1      35.207  30.343  28.029  1.00  0.00     0.001 A 
BRANCH  92 101
ATOM    101  C   UNL A   1      31.546  26.359  25.685  1.00  0.00     0.051 A 
ATOM    102  C   UNL A   1      30.138  26.265  25.660  1.00  0.00     0.028 A 
ATOM    103  C   UNL A   1      32.229  25.157  25.900  1.00  0.00     0.028 A 
ATOM    104  C   UNL A   1      29.457  25.124  26.094  1.00  0.00     0.018 A 
ATOM    105  C   UNL A   1      31.564  24.029  26.409  1.00  0.00     0.018 A 
ATOM    106  C   UNL A   1      30.182  24.038  26.551  1.00  0.00     0.018 A 
ATOM    107  Br  UNL A   1      29.300  22.606  27.402  1.00  0.00    -0.051 Br
ENDBRANCH  92 101
ENDBRANCH  89  90
ENDBRANCH  88  89
ENDBRANCH  86  88
ENDBRANCH  82  83
ENDBRANCH  75  77
ENDBRANCH  74  75
ENDBRANCH  73  74
ENDBRANCH   1  73
TORSDOF 22
ENDMDL
MODEL 3
REMARK VINA RESULT:     -11.7      3.684      7.895
REMARK SMILES O=C(OCCOCCOC(=O)c1ccc(-n2cc(CSc3nc4ccccc4c(=O)n3-c3ccc(Br)cc3)nn2)cc1)c1ccc(-c2c3nc(c(-c4cc(S(=O)(=O)[O-])ccc4F)c4ccc([nH]4)c(-c4cc(S(=O)(=O)[O-])ccc4F)c4nc(c(-c5cc(S(=O)(=O)[O-])ccc5F)c5ccc2[nH]5)C=C4)C=C3)cc1
REMARK SMILES IDX 7 1 6 2 5 3 4 4 3 5 2 6 1 7 43 8 44 9 105 10 45 11 104 12
REMARK SMILES IDX 46 13 47 14 48 15 98 16 49 17 103 18 97 19 99 20 50 21
REMARK SMILES IDX 102 22 96 23 95 24 51 26 83 27 63 28 82 29 64 30 67 31 81 32
REMARK SMILES IDX 100 33 65 34 66 35 80 37 101 38 68 39 52 40 53 41 61 42
REMARK SMILES IDX 54 43 60 44 62 45 59 46 55 47 56 48 57 49 58 50 84 51 85 52
REMARK SMILES IDX 93 53 86 54 92 55 94 56 91 57 87 58 88 59 89 60 90 61 69 62
REMARK SMILES IDX 70 63 78 64 71 65 77 66 79 67 76 68 72 69 73 70 74 71 75 72
REMARK SMILES IDX 8 73 9 74 10 75 11 76 12 77 13 78 42 79 14 80 41 81 15 82
REMARK SMILES IDX 16 83 17 84 40 85 18 86 39 87 19 88 20 89 21 90 22 91 31 92
REMARK SMILES IDX 23 93 29 94 24 95 28 96 30 97 25 98 27 99 26 100 32 101
REMARK SMILES IDX 33 102 38 103 34 104 37 105 35 106 36 107
REMARK H PARENT 99 25 67 36
REMARK Flexibility Score: inf
ROOT
ATOM      1  C   UNL A   1      35.865  20.232  24.667  1.00  0.00     0.202 C 
ENDROOT
BRANCH   1   2
ATOM      2  O   UNL A   1      37.161  20.559  25.184  1.00  0.00    -0.374 OA
BRANCH   2   3
ATOM      3  C   UNL A   1      37.561  21.924  25.166  1.00  0.00     0.202 C 
BRANCH   3   4
ATOM      4  C   UNL A   1      38.459  22.471  26.274  1.00  0.00     0.261 C 
BRANCH   4   5
ATOM      5  O   UNL A   1      38.777  23.858  26.088  1.00  0.00    -0.460 OA
BRANCH   5   6
ATOM      6  C   UNL A   1      39.783  24.528  26.687  1.00  0.00     0.338 C 
ATOM      7  O   UNL A   1      40.943  24.163  26.505  1.00  0.00    -0.246 OA
BRANCH   6   8
ATOM      8  C   UNL A   1      39.531  25.812  27.391  1.00  0.00     0.060 A 
ATOM      9  C   UNL A   1      39.863  27.083  26.923  1.00  0.00     0.016 A 
ATOM     10  C   UNL A   1      39.019  25.676  28.690  1.00  0.00     0.016 A 
ATOM     11  C   UNL A   1      40.004  28.125  27.817  1.00  0.00     0.010 A 
ATOM     12  C   UNL A   1      39.078  26.734  29.571  1.00  0.00     0.010 A 
ATOM     13  C   UNL A   1      39.683  27.913  29.155  1.00  0.00    -0.014 A 
BRANCH  13  14
ATOM     14  C   UNL A   1      39.848  29.015  30.083  1.00  0.00     0.031 A 
ATOM     15  C   UNL A   1      38.614  29.827  30.225  1.00  0.00     0.074 A 
ATOM     16  C   UNL A   1      40.974  29.176  30.804  1.00  0.00     0.049 A 
ATOM     17  N   UNL A   1      38.422  31.043  29.838  1.00  0.00    -0.248 NA
ATOM     18  C   UNL A   1      37.380  29.137  30.640  1.00  0.00     0.031 C 
ATOM     19  C   UNL A   1      42.139  28.289  30.877  1.00  0.00     0.029 A 
ATOM     20  N   UNL A   1      41.278  30.132  31.720  1.00  0.00    -0.354 N 
ATOM     21  C   UNL A   1      37.120  31.353  30.211  1.00  0.00     0.074 A 
ATOM     22  C   UNL A   1      36.472  30.099  30.472  1.00  0.00     0.031 C 
ATOM     23  C   UNL A   1      42.882  28.611  31.961  1.00  0.00     0.029 A 
ATOM     24  C   UNL A   1      42.323  29.802  32.581  1.00  0.00     0.049 A 
ATOM     25  H   UNL A   1      40.798  30.990  31.772  1.00  0.00     0.167 HD
ATOM     26  C   UNL A   1      36.775  32.628  30.543  1.00  0.00     0.034 A 
ATOM     27  C   UNL A   1      42.641  30.422  33.753  1.00  0.00     0.034 A 
ATOM     28  C   UNL A   1      37.758  33.569  30.056  1.00  0.00     0.049 A 
ATOM     29  C   UNL A   1      42.033  31.779  33.687  1.00  0.00     0.074 A 
ATOM     30  C   UNL A   1      38.240  33.898  28.804  1.00  0.00     0.029 A 
ATOM     31  N   UNL A   1      38.689  34.046  30.952  1.00  0.00    -0.354 N 
ATOM     32  N   UNL A   1      42.415  32.685  32.826  1.00  0.00    -0.248 NA
ATOM     33  C   UNL A   1      40.670  31.938  34.182  1.00  0.00     0.031 C 
ATOM     34  C   UNL A   1      39.641  34.085  28.990  1.00  0.00     0.029 A 
ATOM     35  C   UNL A   1      39.923  33.963  30.353  1.00  0.00     0.049 A 
ATOM     36  H   UNL A   1      38.504  34.386  31.856  1.00  0.00     0.167 HD
ATOM     37  C   UNL A   1      41.240  33.244  32.342  1.00  0.00     0.074 A 
ATOM     38  C   UNL A   1      40.200  32.798  33.272  1.00  0.00     0.031 C 
ATOM     39  C   UNL A   1      41.165  33.754  31.076  1.00  0.00     0.034 A 
BRANCH  26  40
ATOM     40  C   UNL A   1      35.796  32.987  31.639  1.00  0.00     0.023 A 
ATOM     41  C   UNL A   1      34.736  33.843  31.287  1.00  0.00     0.031 A 
ATOM     42  C   UNL A   1      36.006  32.806  33.026  1.00  0.00     0.131 A 
ATOM     43  C   UNL A   1      34.032  34.559  32.269  1.00  0.00     0.055 A 
ATOM     44  C   UNL A   1      35.256  33.467  34.000  1.00  0.00     0.041 A 
ATOM     45  F   UNL A   1      37.001  32.064  33.522  1.00  0.00    -0.206 F 
ATOM     46  C   UNL A   1      34.285  34.377  33.626  1.00  0.00     0.022 A 
BRANCH  43  47
ATOM     47  S   UNL A   1      32.908  35.870  31.729  1.00  0.00     0.124 S 
ATOM     48  O   UNL A   1      33.004  35.757  30.278  1.00  0.00    -0.237 OA
ATOM     49  O   UNL A   1      31.645  35.448  32.327  1.00  0.00    -0.237 OA
ATOM     50  O   UNL A   1      33.496  37.077  32.304  1.00  0.00    -0.744 OA
ENDBRANCH  43  47
ENDBRANCH  26  40
BRANCH  27  51
ATOM     51  C   UNL A   1      43.067  29.764  35.029  1.00  0.00     0.023 A 
ATOM     52  C   UNL A   1      42.487  28.573  35.528  1.00  0.00     0.031 A 
ATOM     53  C   UNL A   1      44.250  30.196  35.670  1.00  0.00     0.131 A 
ATOM     54  C   UNL A   1      43.084  27.885  36.618  1.00  0.00     0.055 A 
ATOM     55  C   UNL A   1      44.834  29.515  36.741  1.00  0.00     0.041 A 
ATOM     56  F   UNL A   1      44.936  31.259  35.222  1.00  0.00    -0.206 F 
ATOM     57  C   UNL A   1      44.258  28.350  37.215  1.00  0.00     0.022 A 
BRANCH  54  58
ATOM     58  S   UNL A   1      42.386  26.315  37.240  1.00  0.00     0.124 S 
ATOM     59  O   UNL A   1      42.670  25.393  36.148  1.00  0.00    -0.237 OA
ATOM     60  O   UNL A   1      43.128  26.107  38.477  1.00  0.00    -0.237 OA
ATOM     61  O   UNL A   1      40.965  26.622  37.426  1.00  0.00    -0.744 OA
ENDBRANCH  54  58
ENDBRANCH  27  51
BRANCH  39  62
ATOM     62  C   UNL A   1      42.451  33.948  30.293  1.00  0.00     0.023 A 
ATOM     63  C   UNL A   1      42.947  33.071  29.300  1.00  0.00     0.031 A 
ATOM     64  C   UNL A   1      43.130  35.165  30.484  1.00  0.00     0.131 A 
ATOM     65  C   UNL A   1      44.090  33.427  28.552  1.00  0.00     0.055 A 
ATOM     66  C   UNL A   1      44.243  35.522  29.727  1.00  0.00     0.041 A 
ATOM     67  F   UNL A   1      42.693  36.052  31.392  1.00  0.00    -0.206 F 
ATOM     68  C   UNL A   1      44.731  34.652  28.762  1.00  0.00     0.022 A 
BRANCH  65  69
ATOM     69  S   UNL A   1      44.784  32.295  27.301  1.00  0.00     0.124 S 
ATOM     70  O   UNL A   1      44.229  32.791  26.047  1.00  0.00    -0.237 OA
ATOM     71  O   UNL A   1      46.223  32.473  27.480  1.00  0.00    -0.237 OA
ATOM     72  O   UNL A   1      44.280  30.983  27.713  1.00  0.00    -0.744 OA
ENDBRANCH  65  69
ENDBRANCH  39  62
ENDBRANCH  13  14
ENDBRANCH   6   8
ENDBRANCH   5   6
ENDBRANCH   4   5
ENDBRANCH   3   4
ENDBRANCH   2   3
ENDBRANCH   1   2
BRANCH   1  73
ATOM     73  C   UNL A   1      35.130  18.963  25.141  1.00  0.00     0.261 C 
BRANCH  73  74
ATOM     74  O   UNL A   1      34.150  18.482  24.205  1.00  0.00    -0.460 OA
BRANCH  74  75
ATOM     75  C   UNL A   1      32.857  18.669  24.584  1.00  0.00     0.338 C 
ATOM     76  O   UNL A   1      32.178  17.947  25.277  1.00  0.00    -0.246 OA
BRANCH  75  77
ATOM     77  C   UNL A   1      32.447  20.042  24.209  1.00  0.00     0.060 A 
ATOM     78  C   UNL A   1      32.491  20.385  22.846  1.00  0.00     0.018 A 
ATOM     79  C   UNL A   1      32.074  20.980  25.169  1.00  0.00     0.018 A 
ATOM     80  C   UNL A   1      32.152  21.666  22.426  1.00  0.00     0.029 A 
ATOM     81  C   UNL A   1      31.841  22.296  24.764  1.00  0.00     0.029 A 
ATOM     82  C   UNL A   1      31.899  22.633  23.395  1.00  0.00     0.066 A 
BRANCH  82  83
ATOM     83  N   UNL A   1      31.983  23.980  23.002  1.00  0.00    -0.220 N 
ATOM     84  C   UNL A   1      33.129  24.562  22.533  1.00  0.00     0.141 A 
ATOM     85  N   UNL A   1      30.933  24.788  22.750  1.00  0.00    -0.062 NA
ATOM     86  C   UNL A   1      32.741  25.751  21.964  1.00  0.00     0.093 A 
ATOM     87  N   UNL A   1      31.396  25.903  22.186  1.00  0.00    -0.134 NA
BRANCH  86  88
ATOM     88  C   UNL A   1      33.586  26.841  21.433  1.00  0.00     0.138 C 
BRANCH  88  89
ATOM     89  S   UNL A   1      33.518  28.539  22.004  1.00  0.00    -0.081 SA
BRANCH  89  90
ATOM     90  C   UNL A   1      32.026  28.992  22.785  1.00  0.00     0.176 A 
ATOM     91  N   UNL A   1      31.159  29.480  21.942  1.00  0.00    -0.223 NA
ATOM     92  N   UNL A   1      31.721  28.865  24.130  1.00  0.00    -0.255 N 
ATOM     93  C   UNL A   1      29.966  30.014  22.446  1.00  0.00     0.079 A 
ATOM     94  C   UNL A   1      30.969  29.929  24.643  1.00  0.00     0.266 A 
ATOM     95  C   UNL A   1      28.865  30.245  21.619  1.00  0.00     0.029 A 
ATOM     96  C   UNL A   1      29.901  30.429  23.767  1.00  0.00     0.066 A 
ATOM     97  O   UNL A   1      31.120  30.455  25.744  1.00  0.00    -0.268 OA
ATOM     98  C   UNL A   1      27.753  30.945  22.105  1.00  0.00     0.002 A 
ATOM     99  C   UNL A   1      28.829  31.183  24.252  1.00  0.00     0.016 A 
ATOM    100  C   UNL A   1      27.753  31.450  23.408  1.00  0.00     0.001 A 
BRANCH  92 101
ATOM    101  C   UNL A   1      32.084  27.788  25.025  1.00  0.00     0.051 A 
ATOM    102  C   UNL A   1      33.444  27.555  25.323  1.00  0.00     0.028 A 
ATOM    103  C   UNL A   1      31.172  26.935  25.654  1.00  0.00     0.028 A 
ATOM    104  C   UNL A   1      33.879  26.393  25.968  1.00  0.00     0.018 A 
ATOM    105  C   UNL A   1      31.594  25.728  26.237  1.00  0.00     0.018 A 
ATOM    106  C   UNL A   1      32.949  25.442  26.344  1.00  0.00     0.018 A 
ATOM    107  Br  UNL A   1      33.523  23.753  26.954  1.00  0.00    -0.051 Br
ENDBRANCH  92 101
ENDBRANCH  89  90
ENDBRANCH  88  89
ENDBRANCH  86  88
ENDBRANCH  82  83
ENDBRANCH  75  77
ENDBRANCH  74  75
ENDBRANCH  73  74
ENDBRANCH   1  73
TORSDOF 22
ENDMDL
