MODEL 1
REMARK VINA RESULT:     -11.2      0.000      0.000
REMARK SMILES COc1ccc2c(c1)C=C(C(=O)OCCOCCOC(=O)c1ccc(-c3c4nc(c(-c5cc(S(=O)(=O)[O-])ccc5F)c5ccc([nH]5)c(-c5cc(S(=O)(=O)[O-])ccc5F)c5nc(c(-c6cc(S(=O)(=O)[O-])ccc6F)c6ccc3[nH]6)C=C5)C=C4)cc1)[C@H](C(F)(F)F)O2
REMARK SMILES IDX 17 1 16 2 15 3 14 4 13 5 11 6 12 7 10 8 3 9 4 10 8 11 5 12
REMARK SMILES IDX 7 13 6 14 9 15 90 16 85 17 2 18 1 19 86 20 87 21 88 22 89 23
REMARK SMILES IDX 18 24 19 25 20 26 21 27 22 28 23 29 84 30 24 31 83 32 25 33
REMARK SMILES IDX 26 34 27 35 77 36 28 37 82 38 76 39 78 40 29 41 81 42 75 43
REMARK SMILES IDX 74 44 30 46 62 47 42 48 61 49 43 50 46 51 60 52 79 53 44 54
REMARK SMILES IDX 45 55 59 57 80 58 47 59 31 60 32 61 40 62 33 63 39 64 41 65
REMARK SMILES IDX 38 66 34 67 35 68 36 69 37 70 63 71 64 72 72 73 65 74 71 75
REMARK SMILES IDX 73 76 70 77 66 78 67 79 68 80 69 81 48 82 49 83 57 84 50 85
REMARK SMILES IDX 56 86 58 87 55 88 51 89 52 90 53 91 54 92
REMARK H PARENT 78 45 46 56
REMARK Flexibility Score: inf
ROOT
ATOM      1  C   UNL A   1      36.022  20.236  25.013  1.00  0.00     0.202 C 
ENDROOT
BRANCH   1   2
ATOM      2  O   UNL A   1      35.476  21.252  25.851  1.00  0.00    -0.374 OA
BRANCH   2   3
ATOM      3  C   UNL A   1      34.064  21.289  26.041  1.00  0.00     0.202 C 
BRANCH   3   4
ATOM      4  C   UNL A   1      33.522  22.140  27.194  1.00  0.00     0.261 C 
BRANCH   4   5
ATOM      5  O   UNL A   1      33.146  23.457  26.765  1.00  0.00    -0.460 OA
BRANCH   5   6
ATOM      6  C   UNL A   1      31.842  23.766  26.956  1.00  0.00     0.338 C 
ATOM      7  O   UNL A   1      31.028  23.124  27.602  1.00  0.00    -0.246 OA
BRANCH   6   8
ATOM      8  C   UNL A   1      31.524  25.081  26.376  1.00  0.00     0.087 C 
ATOM      9  C   UNL A   1      31.707  29.895  26.245  1.00  0.00     0.119 A 
ATOM     10  C   UNL A   1      31.597  29.849  24.853  1.00  0.00     0.050 A 
ATOM     11  C   UNL A   1      31.742  28.705  26.982  1.00  0.00     0.058 A 
ATOM     12  C   UNL A   1      31.478  28.620  24.202  1.00  0.00     0.051 A 
ATOM     13  C   UNL A   1      31.631  27.471  26.337  1.00  0.00     0.021 A 
ATOM     14  C   UNL A   1      31.474  27.443  24.945  1.00  0.00     0.128 A 
ATOM     15  C   UNL A   1      31.808  26.207  27.053  1.00  0.00     0.027 C 
ATOM     16  O   UNL A   1      31.391  26.273  24.236  1.00  0.00    -0.475 OA
ATOM     17  C   UNL A   1      30.884  25.151  25.007  1.00  0.00     0.316 C 
BRANCH   9  18
ATOM     18  O   UNL A   1      31.862  31.042  26.974  1.00  0.00    -0.497 OA
ATOM     19  C   UNL A   1      31.306  32.217  26.394  1.00  0.00     0.278 C 
ENDBRANCH   9  18
BRANCH  17  20
ATOM     20  C   UNL A   1      30.900  23.900  24.112  1.00  0.00     0.430 C 
ATOM     21  F   UNL A   1      30.258  24.120  22.941  1.00  0.00    -0.167 F 
ATOM     22  F   UNL A   1      32.184  23.593  23.772  1.00  0.00    -0.167 F 
ATOM     23  F   UNL A   1      30.384  22.806  24.704  1.00  0.00    -0.167 F 
ENDBRANCH  17  20
ENDBRANCH   6   8
ENDBRANCH   5   6
ENDBRANCH   4   5
ENDBRANCH   3   4
ENDBRANCH   2   3
ENDBRANCH   1   2
BRANCH   1  24
ATOM     24  C   UNL A   1      37.544  20.045  24.978  1.00  0.00     0.261 C 
BRANCH  24  25
ATOM     25  O   UNL A   1      38.277  21.240  25.290  1.00  0.00    -0.460 OA
BRANCH  25  26
ATOM     26  C   UNL A   1      39.387  21.033  26.043  1.00  0.00     0.338 C 
ATOM     27  O   UNL A   1      40.054  20.010  26.099  1.00  0.00    -0.246 OA
BRANCH  26  28
ATOM     28  C   UNL A   1      39.819  22.298  26.662  1.00  0.00     0.060 A 
ATOM     29  C   UNL A   1      39.291  23.489  26.147  1.00  0.00     0.016 A 
ATOM     30  C   UNL A   1      40.786  22.325  27.669  1.00  0.00     0.016 A 
ATOM     31  C   UNL A   1      39.760  24.717  26.607  1.00  0.00     0.010 A 
ATOM     32  C   UNL A   1      41.262  23.560  28.122  1.00  0.00     0.010 A 
ATOM     33  C   UNL A   1      40.777  24.760  27.569  1.00  0.00    -0.014 A 
BRANCH  33  34
ATOM     34  C   UNL A   1      41.440  26.051  27.877  1.00  0.00     0.031 A 
ATOM     35  C   UNL A   1      40.659  27.114  28.602  1.00  0.00     0.074 A 
ATOM     36  C   UNL A   1      42.727  26.260  27.546  1.00  0.00     0.049 A 
ATOM     37  N   UNL A   1      41.013  28.330  28.928  1.00  0.00    -0.248 NA
ATOM     38  C   UNL A   1      39.292  26.754  29.007  1.00  0.00     0.031 C 
ATOM     39  C   UNL A   1      43.598  25.283  26.893  1.00  0.00     0.029 A 
ATOM     40  N   UNL A   1      43.524  27.364  27.712  1.00  0.00    -0.354 N 
ATOM     41  C   UNL A   1      39.911  28.884  29.571  1.00  0.00     0.074 A 
ATOM     42  C   UNL A   1      38.865  27.884  29.549  1.00  0.00     0.031 C 
ATOM     43  C   UNL A   1      44.809  25.835  26.710  1.00  0.00     0.029 A 
ATOM     44  C   UNL A   1      44.787  27.215  27.190  1.00  0.00     0.049 A 
ATOM     45  H   UNL A   1      43.220  28.184  28.163  1.00  0.00     0.167 HD
ATOM     46  C   UNL A   1      39.790  30.111  30.138  1.00  0.00     0.034 A 
ATOM     47  C   UNL A   1      45.799  28.102  27.087  1.00  0.00     0.034 A 
ATOM     48  C   UNL A   1      40.842  31.099  30.140  1.00  0.00     0.049 A 
ATOM     49  C   UNL A   1      45.606  29.496  27.636  1.00  0.00     0.074 A 
ATOM     50  C   UNL A   1      40.831  32.369  30.689  1.00  0.00     0.029 A 
ATOM     51  N   UNL A   1      42.090  30.933  29.553  1.00  0.00    -0.354 N 
ATOM     52  N   UNL A   1      44.560  30.011  28.242  1.00  0.00    -0.248 NA
ATOM     53  C   UNL A   1      46.734  30.425  27.493  1.00  0.00     0.031 C 
ATOM     54  C   UNL A   1      42.038  32.998  30.366  1.00  0.00     0.029 A 
ATOM     55  C   UNL A   1      42.842  32.090  29.696  1.00  0.00     0.049 A 
ATOM     56  H   UNL A   1      42.397  30.114  29.102  1.00  0.00     0.167 HD
ATOM     57  C   UNL A   1      44.921  31.312  28.585  1.00  0.00     0.074 A 
ATOM     58  C   UNL A   1      46.284  31.497  28.130  1.00  0.00     0.031 C 
ATOM     59  C   UNL A   1      44.198  32.265  29.228  1.00  0.00     0.034 A 
BRANCH  46  60
ATOM     60  C   UNL A   1      38.454  30.463  30.750  1.00  0.00     0.023 A 
ATOM     61  C   UNL A   1      37.455  31.130  30.020  1.00  0.00     0.031 A 
ATOM     62  C   UNL A   1      38.189  30.159  32.097  1.00  0.00     0.131 A 
ATOM     63  C   UNL A   1      36.273  31.536  30.658  1.00  0.00     0.055 A 
ATOM     64  C   UNL A   1      36.975  30.489  32.703  1.00  0.00     0.041 A 
ATOM     65  F   UNL A   1      39.113  29.546  32.854  1.00  0.00    -0.206 F 
ATOM     66  C   UNL A   1      36.015  31.197  31.988  1.00  0.00     0.022 A 
BRANCH  63  67
ATOM     67  S   UNL A   1      35.147  32.649  29.772  1.00  0.00     0.124 S 
ATOM     68  O   UNL A   1      34.298  33.135  30.859  1.00  0.00    -0.237 OA
ATOM     69  O   UNL A   1      36.062  33.626  29.191  1.00  0.00    -0.237 OA
ATOM     70  O   UNL A   1      34.479  31.771  28.815  1.00  0.00    -0.744 OA
ENDBRANCH  63  67
ENDBRANCH  46  60
BRANCH  47  71
ATOM     71  C   UNL A   1      47.072  27.721  26.410  1.00  0.00     0.023 A 
ATOM     72  C   UNL A   1      47.246  27.913  25.031  1.00  0.00     0.031 A 
ATOM     73  C   UNL A   1      48.114  27.102  27.125  1.00  0.00     0.131 A 
ATOM     74  C   UNL A   1      48.411  27.446  24.400  1.00  0.00     0.055 A 
ATOM     75  C   UNL A   1      49.294  26.693  26.504  1.00  0.00     0.041 A 
ATOM     76  F   UNL A   1      47.999  26.889  28.447  1.00  0.00    -0.206 F 
ATOM     77  C   UNL A   1      49.442  26.852  25.129  1.00  0.00     0.022 A 
BRANCH  74  78
ATOM     78  S   UNL A   1      48.516  27.543  22.593  1.00  0.00     0.124 S 
ATOM     79  O   UNL A   1      47.306  28.289  22.265  1.00  0.00    -0.237 OA
ATOM     80  O   UNL A   1      49.777  28.249  22.400  1.00  0.00    -0.237 OA
ATOM     81  O   UNL A   1      48.517  26.141  22.177  1.00  0.00    -0.744 OA
ENDBRANCH  74  78
ENDBRANCH  47  71
BRANCH  59  82
ATOM     82  C   UNL A   1      44.891  33.575  29.525  1.00  0.00     0.023 A 
ATOM     83  C   UNL A   1      44.986  34.602  28.570  1.00  0.00     0.031 A 
ATOM     84  C   UNL A   1      45.473  33.792  30.788  1.00  0.00     0.131 A 
ATOM     85  C   UNL A   1      45.697  35.774  28.871  1.00  0.00     0.055 A 
ATOM     86  C   UNL A   1      46.121  34.987  31.104  1.00  0.00     0.041 A 
ATOM     87  F   UNL A   1      45.417  32.846  31.739  1.00  0.00    -0.206 F 
ATOM     88  C   UNL A   1      46.249  35.981  30.138  1.00  0.00     0.022 A 
BRANCH  85  89
ATOM     89  S   UNL A   1      45.980  36.986  27.551  1.00  0.00     0.124 S 
ATOM     90  O   UNL A   1      46.712  38.035  28.254  1.00  0.00    -0.237 OA
ATOM     91  O   UNL A   1      46.747  36.215  26.579  1.00  0.00    -0.237 OA
ATOM     92  O   UNL A   1      44.630  37.350  27.126  1.00  0.00    -0.744 OA
ENDBRANCH  85  89
ENDBRANCH  59  82
ENDBRANCH  33  34
ENDBRANCH  26  28
ENDBRANCH  25  26
ENDBRANCH  24  25
ENDBRANCH   1  24
TORSDOF 19
ENDMDL
MODEL 2
REMARK VINA RESULT:     -11.0      5.016      8.514
REMARK SMILES COc1ccc2c(c1)C=C(C(=O)OCCOCCOC(=O)c1ccc(-c3c4nc(c(-c5cc(S(=O)(=O)[O-])ccc5F)c5ccc([nH]5)c(-c5cc(S(=O)(=O)[O-])ccc5F)c5nc(c(-c6cc(S(=O)(=O)[O-])ccc6F)c6ccc3[nH]6)C=C5)C=C4)cc1)[C@H](C(F)(F)F)O2
REMARK SMILES IDX 17 1 16 2 15 3 14 4 13 5 11 6 12 7 10 8 3 9 4 10 8 11 5 12
REMARK SMILES IDX 7 13 6 14 9 15 90 16 85 17 2 18 1 19 86 20 87 21 88 22 89 23
REMARK SMILES IDX 18 24 19 25 20 26 21 27 22 28 23 29 84 30 24 31 83 32 25 33
REMARK SMILES IDX 26 34 27 35 77 36 28 37 82 38 76 39 78 40 29 41 81 42 75 43
REMARK SMILES IDX 74 44 30 46 62 47 42 48 61 49 43 50 46 51 60 52 79 53 44 54
REMARK SMILES IDX 45 55 59 57 80 58 47 59 31 60 32 61 40 62 33 63 39 64 41 65
REMARK SMILES IDX 38 66 34 67 35 68 36 69 37 70 63 71 64 72 72 73 65 74 71 75
REMARK SMILES IDX 73 76 70 77 66 78 67 79 68 80 69 81 48 82 49 83 57 84 50 85
REMARK SMILES IDX 56 86 58 87 55 88 51 89 52 90 53 91 54 92
REMARK H PARENT 78 45 46 56
REMARK Flexibility Score: inf
ROOT
ATOM      1  C   UNL A   1      31.376  32.027  26.644  1.00  0.00     0.202 C 
ENDROOT
BRANCH   1   2
ATOM      2  O   UNL A   1      31.721  30.655  26.826  1.00  0.00    -0.374 OA
BRANCH   2   3
ATOM      3  C   UNL A   1      33.100  30.312  26.937  1.00  0.00     0.202 C 
BRANCH   3   4
ATOM      4  C   UNL A   1      33.449  28.847  27.215  1.00  0.00     0.261 C 
BRANCH   4   5
ATOM      5  O   UNL A   1      34.092  28.221  26.095  1.00  0.00    -0.460 OA
BRANCH   5   6
ATOM      6  C   UNL A   1      33.249  27.669  25.191  1.00  0.00     0.338 C 
ATOM      7  O   UNL A   1      32.678  28.248  24.279  1.00  0.00    -0.246 OA
BRANCH   6   8
ATOM      8  C   UNL A   1      33.184  26.209  25.358  1.00  0.00     0.087 C 
ATOM      9  C   UNL A   1      35.137  21.852  26.013  1.00  0.00     0.119 A 
ATOM     10  C   UNL A   1      33.974  21.443  26.671  1.00  0.00     0.050 A 
ATOM     11  C   UNL A   1      35.245  23.163  25.536  1.00  0.00     0.058 A 
ATOM     12  C   UNL A   1      32.905  22.328  26.813  1.00  0.00     0.051 A 
ATOM     13  C   UNL A   1      34.182  24.058  25.682  1.00  0.00     0.021 A 
ATOM     14  C   UNL A   1      33.004  23.619  26.303  1.00  0.00     0.128 A 
ATOM     15  C   UNL A   1      34.309  25.473  25.329  1.00  0.00     0.027 C 
ATOM     16  O   UNL A   1      31.930  24.444  26.512  1.00  0.00    -0.475 OA
ATOM     17  C   UNL A   1      31.841  25.546  25.570  1.00  0.00     0.316 C 
BRANCH   9  18
ATOM     18  O   UNL A   1      36.251  21.074  25.851  1.00  0.00    -0.497 OA
ATOM     19  C   UNL A   1      37.402  21.748  25.356  1.00  0.00     0.278 C 
ENDBRANCH   9  18
BRANCH  17  20
ATOM     20  C   UNL A   1      30.633  26.417  25.955  1.00  0.00     0.430 C 
ATOM     21  F   UNL A   1      30.091  27.020  24.873  1.00  0.00    -0.167 F 
ATOM     22  F   UNL A   1      29.644  25.632  26.470  1.00  0.00    -0.167 F 
ATOM     23  F   UNL A   1      30.914  27.347  26.889  1.00  0.00    -0.167 F 
ENDBRANCH  17  20
ENDBRANCH   6   8
ENDBRANCH   5   6
ENDBRANCH   4   5
ENDBRANCH   3   4
ENDBRANCH   2   3
ENDBRANCH   1   2
BRANCH   1  24
ATOM     24  C   UNL A   1      32.447  33.098  26.889  1.00  0.00     0.261 C 
BRANCH  24  25
ATOM     25  O   UNL A   1      32.196  33.901  28.053  1.00  0.00    -0.460 OA
BRANCH  25  26
ATOM     26  C   UNL A   1      33.257  34.644  28.458  1.00  0.00     0.338 C 
ATOM     27  O   UNL A   1      33.260  35.841  28.708  1.00  0.00    -0.246 OA
BRANCH  26  28
ATOM     28  C   UNL A   1      34.403  33.767  28.755  1.00  0.00     0.060 A 
ATOM     29  C   UNL A   1      34.158  32.606  29.498  1.00  0.00     0.016 A 
ATOM     30  C   UNL A   1      35.703  34.117  28.388  1.00  0.00     0.016 A 
ATOM     31  C   UNL A   1      35.220  31.809  29.918  1.00  0.00     0.010 A 
ATOM     32  C   UNL A   1      36.769  33.320  28.818  1.00  0.00     0.010 A 
ATOM     33  C   UNL A   1      36.535  32.182  29.613  1.00  0.00    -0.014 A 
BRANCH  33  34
ATOM     34  C   UNL A   1      37.666  31.472  30.261  1.00  0.00     0.031 A 
ATOM     35  C   UNL A   1      37.995  31.787  31.695  1.00  0.00     0.074 A 
ATOM     36  C   UNL A   1      38.366  30.539  29.591  1.00  0.00     0.049 A 
ATOM     37  N   UNL A   1      38.966  31.334  32.444  1.00  0.00    -0.248 NA
ATOM     38  C   UNL A   1      37.111  32.749  32.369  1.00  0.00     0.031 C 
ATOM     39  C   UNL A   1      38.102  30.111  28.218  1.00  0.00     0.029 A 
ATOM     40  N   UNL A   1      39.445  29.784  29.977  1.00  0.00    -0.354 N 
ATOM     41  C   UNL A   1      38.815  31.959  33.678  1.00  0.00     0.074 A 
ATOM     42  C   UNL A   1      37.685  32.856  33.558  1.00  0.00     0.031 C 
ATOM     43  C   UNL A   1      38.999  29.171  27.875  1.00  0.00     0.029 A 
ATOM     44  C   UNL A   1      39.928  28.964  28.985  1.00  0.00     0.049 A 
ATOM     45  H   UNL A   1      39.835  29.826  30.879  1.00  0.00     0.167 HD
ATOM     46  C   UNL A   1      39.546  31.790  34.809  1.00  0.00     0.034 A 
ATOM     47  C   UNL A   1      41.010  28.160  28.967  1.00  0.00     0.034 A 
ATOM     48  C   UNL A   1      40.677  30.899  34.904  1.00  0.00     0.049 A 
ATOM     49  C   UNL A   1      41.869  28.064  30.206  1.00  0.00     0.074 A 
ATOM     50  C   UNL A   1      41.484  30.646  35.999  1.00  0.00     0.029 A 
ATOM     51  N   UNL A   1      41.170  30.125  33.862  1.00  0.00    -0.354 N 
ATOM     52  N   UNL A   1      41.718  28.660  31.367  1.00  0.00    -0.248 NA
ATOM     53  C   UNL A   1      43.040  27.181  30.132  1.00  0.00     0.031 C 
ATOM     54  C   UNL A   1      42.509  29.782  35.599  1.00  0.00     0.029 A 
ATOM     55  C   UNL A   1      42.291  29.421  34.279  1.00  0.00     0.049 A 
ATOM     56  H   UNL A   1      40.781  30.080  32.959  1.00  0.00     0.167 HD
ATOM     57  C   UNL A   1      42.753  28.192  32.172  1.00  0.00     0.074 A 
ATOM     58  C   UNL A   1      43.513  27.257  31.368  1.00  0.00     0.031 C 
ATOM     59  C   UNL A   1      43.046  28.498  33.463  1.00  0.00     0.034 A 
BRANCH  46  60
ATOM     60  C   UNL A   1      39.172  32.630  36.008  1.00  0.00     0.023 A 
ATOM     61  C   UNL A   1      39.649  33.942  36.175  1.00  0.00     0.031 A 
ATOM     62  C   UNL A   1      38.352  32.097  37.019  1.00  0.00     0.131 A 
ATOM     63  C   UNL A   1      39.368  34.645  37.356  1.00  0.00     0.055 A 
ATOM     64  C   UNL A   1      38.004  32.835  38.152  1.00  0.00     0.041 A 
ATOM     65  F   UNL A   1      37.885  30.841  36.930  1.00  0.00    -0.206 F 
ATOM     66  C   UNL A   1      38.526  34.111  38.334  1.00  0.00     0.022 A 
BRANCH  63  67
ATOM     67  S   UNL A   1      40.243  36.204  37.666  1.00  0.00     0.124 S 
ATOM     68  O   UNL A   1      39.470  36.759  38.776  1.00  0.00    -0.237 OA
ATOM     69  O   UNL A   1      41.591  35.749  37.990  1.00  0.00    -0.237 OA
ATOM     70  O   UNL A   1      40.114  36.927  36.404  1.00  0.00    -0.744 OA
ENDBRANCH  63  67
ENDBRANCH  46  60
BRANCH  47  71
ATOM     71  C   UNL A   1      41.372  27.406  27.732  1.00  0.00     0.023 A 
ATOM     72  C   UNL A   1      41.236  26.011  27.667  1.00  0.00     0.031 A 
ATOM     73  C   UNL A   1      41.919  28.067  26.616  1.00  0.00     0.131 A 
ATOM     74  C   UNL A   1      41.687  25.315  26.533  1.00  0.00     0.055 A 
ATOM     75  C   UNL A   1      42.311  27.377  25.468  1.00  0.00     0.041 A 
ATOM     76  F   UNL A   1      42.076  29.401  26.625  1.00  0.00    -0.206 F 
ATOM     77  C   UNL A   1      42.208  25.990  25.428  1.00  0.00     0.022 A 
BRANCH  74  78
ATOM     78  S   UNL A   1      41.668  23.503  26.564  1.00  0.00     0.124 S 
ATOM     79  O   UNL A   1      40.249  23.218  26.385  1.00  0.00    -0.237 OA
ATOM     80  O   UNL A   1      42.536  23.172  25.440  1.00  0.00    -0.237 OA
ATOM     81  O   UNL A   1      42.208  23.180  27.884  1.00  0.00    -0.744 OA
ENDBRANCH  74  78
ENDBRANCH  47  71
BRANCH  59  82
ATOM     82  C   UNL A   1      44.207  27.769  34.101  1.00  0.00     0.023 A 
ATOM     83  C   UNL A   1      44.026  26.604  34.867  1.00  0.00     0.031 A 
ATOM     84  C   UNL A   1      45.517  28.258  33.941  1.00  0.00     0.131 A 
ATOM     85  C   UNL A   1      45.128  26.002  35.493  1.00  0.00     0.055 A 
ATOM     86  C   UNL A   1      46.617  27.615  34.511  1.00  0.00     0.041 A 
ATOM     87  F   UNL A   1      45.750  29.368  33.223  1.00  0.00    -0.206 F 
ATOM     88  C   UNL A   1      46.424  26.489  35.305  1.00  0.00     0.022 A 
BRANCH  85  89
ATOM     89  S   UNL A   1      44.834  24.629  36.642  1.00  0.00     0.124 S 
ATOM     90  O   UNL A   1      45.011  23.466  35.777  1.00  0.00    -0.237 OA
ATOM     91  O   UNL A   1      45.869  24.837  37.649  1.00  0.00    -0.237 OA
ATOM     92  O   UNL A   1      43.466  24.855  37.103  1.00  0.00    -0.744 OA
ENDBRANCH  85  89
ENDBRANCH  59  82
ENDBRANCH  33  34
ENDBRANCH  26  28
ENDBRANCH  25  26
ENDBRANCH  24  25
ENDBRANCH   1  24
TORSDOF 19
ENDMDL
MODEL 3
REMARK VINA RESULT:     -10.9      5.444      9.696
REMARK SMILES COc1ccc2c(c1)C=C(C(=O)OCCOCCOC(=O)c1ccc(-c3c4nc(c(-c5cc(S(=O)(=O)[O-])ccc5F)c5ccc([nH]5)c(-c5cc(S(=O)(=O)[O-])ccc5F)c5nc(c(-c6cc(S(=O)(=O)[O-])ccc6F)c6ccc3[nH]6)C=C5)C=C4)cc1)[C@H](C(F)(F)F)O2
REMARK SMILES IDX 17 1 16 2 15 3 14 4 13 5 11 6 12 7 10 8 3 9 4 10 8 11 5 12
REMARK SMILES IDX 7 13 6 14 9 15 90 16 85 17 2 18 1 19 86 20 87 21 88 22 89 23
REMARK SMILES IDX 18 24 19 25 20 26 21 27 22 28 23 29 84 30 24 31 83 32 25 33
REMARK SMILES IDX 26 34 27 35 77 36 28 37 82 38 76 39 78 40 29 41 81 42 75 43
REMARK SMILES IDX 74 44 30 46 62 47 42 48 61 49 43 50 46 51 60 52 79 53 44 54
REMARK SMILES IDX 45 55 59 57 80 58 47 59 31 60 32 61 40 62 33 63 39 64 41 65
REMARK SMILES IDX 38 66 34 67 35 68 36 69 37 70 63 71 64 72 72 73 65 74 71 75
REMARK SMILES IDX 73 76 70 77 66 78 67 79 68 80 69 81 48 82 49 83 57 84 50 85
REMARK SMILES IDX 56 86 58 87 55 88 51 89 52 90 53 91 54 92
REMARK H PARENT 78 45 46 56
REMARK Flexibility Score: inf
ROOT
ATOM      1  C   UNL A   1      33.451  34.009  28.205  1.00  0.00     0.202 C 
ENDROOT
BRANCH   1   2
ATOM      2  O   UNL A   1      32.792  34.631  29.305  1.00  0.00    -0.374 OA
BRANCH   2   3
ATOM      3  C   UNL A   1      33.247  35.914  29.731  1.00  0.00     0.202 C 
BRANCH   3   4
ATOM      4  C   UNL A   1      33.101  36.265  31.215  1.00  0.00     0.261 C 
BRANCH   4   5
ATOM      5  O   UNL A   1      34.201  35.778  31.997  1.00  0.00    -0.460 OA
BRANCH   5   6
ATOM      6  C   UNL A   1      33.936  34.666  32.721  1.00  0.00     0.338 C 
ATOM      7  O   UNL A   1      32.877  34.057  32.761  1.00  0.00    -0.246 OA
BRANCH   6   8
ATOM      8  C   UNL A   1      35.150  34.175  33.393  1.00  0.00     0.087 C 
ATOM      9  C   UNL A   1      37.775  33.049  37.274  1.00  0.00     0.119 A 
ATOM     10  C   UNL A   1      38.436  32.071  36.528  1.00  0.00     0.050 A 
ATOM     11  C   UNL A   1      36.761  33.812  36.683  1.00  0.00     0.058 A 
ATOM     12  C   UNL A   1      38.117  31.884  35.183  1.00  0.00     0.051 A 
ATOM     13  C   UNL A   1      36.431  33.626  35.338  1.00  0.00     0.021 A 
ATOM     14  C   UNL A   1      37.135  32.673  34.590  1.00  0.00     0.128 A 
ATOM     15  C   UNL A   1      35.285  34.299  34.724  1.00  0.00     0.027 C 
ATOM     16  O   UNL A   1      36.849  32.409  33.276  1.00  0.00    -0.475 OA
ATOM     17  C   UNL A   1      36.239  33.522  32.570  1.00  0.00     0.316 C 
BRANCH   9  18
ATOM     18  O   UNL A   1      37.989  33.288  38.605  1.00  0.00    -0.497 OA
ATOM     19  C   UNL A   1      37.474  32.304  39.494  1.00  0.00     0.278 C 
ENDBRANCH   9  18
BRANCH  17  20
ATOM     20  C   UNL A   1      35.920  33.071  31.135  1.00  0.00     0.430 C 
ATOM     21  F   UNL A   1      35.867  34.121  30.285  1.00  0.00    -0.167 F 
ATOM     22  F   UNL A   1      36.923  32.274  30.669  1.00  0.00    -0.167 F 
ATOM     23  F   UNL A   1      34.782  32.358  31.033  1.00  0.00    -0.167 F 
ENDBRANCH  17  20
ENDBRANCH   6   8
ENDBRANCH   5   6
ENDBRANCH   4   5
ENDBRANCH   3   4
ENDBRANCH   2   3
ENDBRANCH   1   2
BRANCH   1  24
ATOM     24  C   UNL A   1      33.361  32.484  28.055  1.00  0.00     0.261 C 
BRANCH  24  25
ATOM     25  O   UNL A   1      34.483  31.911  27.367  1.00  0.00    -0.460 OA
BRANCH  25  26
ATOM     26  C   UNL A   1      34.606  30.568  27.520  1.00  0.00     0.338 C 
ATOM     27  O   UNL A   1      33.900  29.706  27.017  1.00  0.00    -0.246 OA
BRANCH  26  28
ATOM     28  C   UNL A   1      35.853  30.254  28.239  1.00  0.00     0.060 A 
ATOM     29  C   UNL A   1      37.061  30.640  27.645  1.00  0.00     0.016 A 
ATOM     30  C   UNL A   1      35.846  29.521  29.427  1.00  0.00     0.016 A 
ATOM     31  C   UNL A   1      38.273  30.257  28.215  1.00  0.00     0.010 A 
ATOM     32  C   UNL A   1      37.064  29.129  29.992  1.00  0.00     0.010 A 
ATOM     33  C   UNL A   1      38.281  29.466  29.370  1.00  0.00    -0.014 A 
BRANCH  33  34
ATOM     34  C   UNL A   1      39.554  28.860  29.834  1.00  0.00     0.031 A 
ATOM     35  C   UNL A   1      40.219  29.418  31.063  1.00  0.00     0.074 A 
ATOM     36  C   UNL A   1      40.090  27.807  29.189  1.00  0.00     0.049 A 
ATOM     37  N   UNL A   1      41.355  29.085  31.618  1.00  0.00    -0.248 NA
ATOM     38  C   UNL A   1      39.505  30.503  31.752  1.00  0.00     0.031 C 
ATOM     39  C   UNL A   1      39.505  27.147  28.023  1.00  0.00     0.029 A 
ATOM     40  N   UNL A   1      41.248  27.111  29.425  1.00  0.00    -0.354 N 
ATOM     41  C   UNL A   1      41.497  29.923  32.719  1.00  0.00     0.074 A 
ATOM     42  C   UNL A   1      40.351  30.807  32.725  1.00  0.00     0.031 C 
ATOM     43  C   UNL A   1      40.312  26.143  27.641  1.00  0.00     0.029 A 
ATOM     44  C   UNL A   1      41.491  26.117  28.506  1.00  0.00     0.049 A 
ATOM     45  H   UNL A   1      41.848  27.305  30.180  1.00  0.00     0.167 HD
ATOM     46  C   UNL A   1      42.488  29.943  33.646  1.00  0.00     0.034 A 
ATOM     47  C   UNL A   1      42.554  25.300  28.365  1.00  0.00     0.034 A 
ATOM     48  C   UNL A   1      43.629  29.060  33.616  1.00  0.00     0.049 A 
ATOM     49  C   UNL A   1      43.694  25.409  29.350  1.00  0.00     0.074 A 
ATOM     50  C   UNL A   1      44.687  28.989  34.505  1.00  0.00     0.029 A 
ATOM     51  N   UNL A   1      43.869  28.102  32.639  1.00  0.00    -0.354 N 
ATOM     52  N   UNL A   1      43.820  26.205  30.387  1.00  0.00    -0.248 NA
ATOM     53  C   UNL A   1      44.832  24.502  29.148  1.00  0.00     0.031 C 
ATOM     54  C   UNL A   1      45.603  28.047  34.024  1.00  0.00     0.029 A 
ATOM     55  C   UNL A   1      45.075  27.461  32.885  1.00  0.00     0.049 A 
ATOM     56  H   UNL A   1      43.270  27.905  31.884  1.00  0.00     0.167 HD
ATOM     57  C   UNL A   1      45.033  25.867  30.983  1.00  0.00     0.074 A 
ATOM     58  C   UNL A   1      45.593  24.788  30.195  1.00  0.00     0.031 C 
ATOM     59  C   UNL A   1      45.627  26.392  32.086  1.00  0.00     0.034 A 
BRANCH  46  60
ATOM     60  C   UNL A   1      42.401  30.990  34.731  1.00  0.00     0.023 A 
ATOM     61  C   UNL A   1      42.857  32.306  34.533  1.00  0.00     0.031 A 
ATOM     62  C   UNL A   1      41.886  30.659  35.997  1.00  0.00     0.131 A 
ATOM     63  C   UNL A   1      42.860  33.215  35.602  1.00  0.00     0.055 A 
ATOM     64  C   UNL A   1      41.811  31.594  37.032  1.00  0.00     0.041 A 
ATOM     65  F   UNL A   1      41.459  29.413  36.257  1.00  0.00    -0.206 F 
ATOM     66  C   UNL A   1      42.315  32.877  36.842  1.00  0.00     0.022 A 
BRANCH  63  67
ATOM     67  S   UNL A   1      43.727  34.795  35.394  1.00  0.00     0.124 S 
ATOM     68  O   UNL A   1      45.092  34.434  35.774  1.00  0.00    -0.237 OA
ATOM     69  O   UNL A   1      43.514  35.088  33.981  1.00  0.00    -0.237 OA
ATOM     70  O   UNL A   1      43.044  35.686  36.328  1.00  0.00    -0.744 OA
ENDBRANCH  63  67
ENDBRANCH  46  60
BRANCH  47  71
ATOM     71  C   UNL A   1      42.619  24.331  27.232  1.00  0.00     0.023 A 
ATOM     72  C   UNL A   1      42.049  23.053  27.338  1.00  0.00     0.031 A 
ATOM     73  C   UNL A   1      43.308  24.650  26.047  1.00  0.00     0.131 A 
ATOM     74  C   UNL A   1      42.219  22.123  26.300  1.00  0.00     0.055 A 
ATOM     75  C   UNL A   1      43.423  23.741  24.994  1.00  0.00     0.041 A 
ATOM     76  F   UNL A   1      43.876  25.857  25.894  1.00  0.00    -0.206 F 
ATOM     77  C   UNL A   1      42.888  22.463  25.123  1.00  0.00     0.022 A 
BRANCH  74  78
ATOM     78  S   UNL A   1      41.632  20.426  26.552  1.00  0.00     0.124 S 
ATOM     79  O   UNL A   1      40.240  20.528  26.129  1.00  0.00    -0.237 OA
ATOM     80  O   UNL A   1      42.516  19.667  25.675  1.00  0.00    -0.237 OA
ATOM     81  O   UNL A   1      41.836  20.205  27.983  1.00  0.00    -0.744 OA
ENDBRANCH  74  78
ENDBRANCH  47  71
BRANCH  59  82
ATOM     82  C   UNL A   1      46.926  25.764  32.536  1.00  0.00     0.023 A 
ATOM     83  C   UNL A   1      48.163  26.121  31.970  1.00  0.00     0.031 A 
ATOM     84  C   UNL A   1      46.921  24.783  33.545  1.00  0.00     0.131 A 
ATOM     85  C   UNL A   1      49.334  25.462  32.375  1.00  0.00     0.055 A 
ATOM     86  C   UNL A   1      48.097  24.179  33.991  1.00  0.00     0.041 A 
ATOM     87  F   UNL A   1      45.770  24.399  34.120  1.00  0.00    -0.206 F 
ATOM     88  C   UNL A   1      49.312  24.507  33.395  1.00  0.00     0.022 A 
BRANCH  85  89
ATOM     89  S   UNL A   1      50.876  25.796  31.480  1.00  0.00     0.124 S 
ATOM     90  O   UNL A   1      50.762  24.899  30.334  1.00  0.00    -0.237 OA
ATOM     91  O   UNL A   1      50.766  27.220  31.188  1.00  0.00    -0.237 OA
ATOM     92  O   UNL A   1      51.915  25.440  32.444  1.00  0.00    -0.744 OA
ENDBRANCH  85  89
ENDBRANCH  59  82
ENDBRANCH  33  34
ENDBRANCH  26  28
ENDBRANCH  25  26
ENDBRANCH  24  25
ENDBRANCH   1  24
TORSDOF 19
ENDMDL
