MODEL 1
REMARK VINA RESULT:     -11.8      0.000      0.000
REMARK SMILES CCc1ccc2c(c1)C=C(C(=O)OCCOCCOC(=O)c1ccc(-c3c4nc(c(-c5cc(S(=O)(=O)[O-])ccc5F)c5ccc([nH]5)c(-c5cc(S(=O)(=O)[O-])ccc5F)c5nc(c(-c6cc(S(=O)(=O)[O-])ccc6F)c6ccc3[nH]6)C=C5)C=C4)cc1)[C@H](C(F)(F)F)O2
REMARK SMILES IDX 17 1 16 2 15 3 14 4 13 5 11 6 12 7 10 8 3 9 4 10 8 11 5 12
REMARK SMILES IDX 7 13 6 14 9 15 90 16 85 17 2 18 1 19 86 20 87 21 88 22 89 23
REMARK SMILES IDX 18 24 19 25 20 26 21 27 22 28 23 29 84 30 24 31 83 32 25 33
REMARK SMILES IDX 26 34 27 35 77 36 28 37 82 38 76 39 78 40 29 41 81 42 75 43
REMARK SMILES IDX 74 44 30 46 62 47 42 48 61 49 43 50 46 51 60 52 79 53 44 54
REMARK SMILES IDX 45 55 59 57 80 58 47 59 31 60 32 61 40 62 33 63 39 64 41 65
REMARK SMILES IDX 38 66 34 67 35 68 36 69 37 70 63 71 64 72 72 73 65 74 71 75
REMARK SMILES IDX 73 76 70 77 66 78 67 79 68 80 69 81 48 82 49 83 57 84 50 85
REMARK SMILES IDX 56 86 58 87 55 88 51 89 52 90 53 91 54 92
REMARK H PARENT 78 45 46 56
REMARK Flexibility Score: inf
ROOT
ATOM      1  C   UNL A   1      35.166  21.066  24.998  1.00  0.00     0.202 C 
ENDROOT
BRANCH   1   2
ATOM      2  O   UNL A   1      34.074  20.223  24.637  1.00  0.00    -0.374 OA
BRANCH   2   3
ATOM      3  C   UNL A   1      32.892  20.833  24.125  1.00  0.00     0.202 C 
BRANCH   3   4
ATOM      4  C   UNL A   1      33.011  22.271  23.614  1.00  0.00     0.261 C 
BRANCH   4   5
ATOM      5  O   UNL A   1      31.730  22.912  23.511  1.00  0.00    -0.460 OA
BRANCH   5   6
ATOM      6  C   UNL A   1      31.371  23.642  24.592  1.00  0.00     0.338 C 
ATOM      7  O   UNL A   1      31.177  23.222  25.724  1.00  0.00    -0.246 OA
BRANCH   6   8
ATOM      8  C   UNL A   1      31.343  25.078  24.273  1.00  0.00     0.087 C 
ATOM      9  C   UNL A   1      29.058  29.185  23.136  1.00  0.00    -0.047 A 
ATOM     10  C   UNL A   1      30.035  29.889  23.855  1.00  0.00     0.007 A 
ATOM     11  C   UNL A   1      29.152  27.781  23.060  1.00  0.00     0.015 A 
ATOM     12  C   UNL A   1      31.101  29.218  24.451  1.00  0.00     0.047 A 
ATOM     13  C   UNL A   1      30.206  27.099  23.679  1.00  0.00     0.018 A 
ATOM     14  C   UNL A   1      31.190  27.834  24.352  1.00  0.00     0.128 A 
ATOM     15  C   UNL A   1      30.228  25.639  23.775  1.00  0.00     0.027 C 
ATOM     16  O   UNL A   1      32.231  27.242  25.018  1.00  0.00    -0.475 OA
ATOM     17  C   UNL A   1      32.574  25.917  24.533  1.00  0.00     0.316 C 
BRANCH   9  18
ATOM     18  C   UNL A   1      27.848  29.877  22.549  1.00  0.00     0.032 C 
ATOM     19  C   UNL A   1      28.061  30.519  21.182  1.00  0.00     0.009 C 
ENDBRANCH   9  18
BRANCH  17  20
ATOM     20  C   UNL A   1      33.684  25.348  25.433  1.00  0.00     0.430 C 
ATOM     21  F   UNL A   1      34.503  24.518  24.745  1.00  0.00    -0.167 F 
ATOM     22  F   UNL A   1      34.481  26.359  25.879  1.00  0.00    -0.167 F 
ATOM     23  F   UNL A   1      33.220  24.710  26.525  1.00  0.00    -0.167 F 
ENDBRANCH  17  20
ENDBRANCH   6   8
ENDBRANCH   5   6
ENDBRANCH   4   5
ENDBRANCH   3   4
ENDBRANCH   2   3
ENDBRANCH   1   2
BRANCH   1  24
ATOM     24  C   UNL A   1      36.578  20.467  24.995  1.00  0.00     0.261 C 
BRANCH  24  25
ATOM     25  O   UNL A   1      37.610  21.464  25.060  1.00  0.00    -0.460 OA
BRANCH  25  26
ATOM     26  C   UNL A   1      38.717  21.087  25.746  1.00  0.00     0.338 C 
ATOM     27  O   UNL A   1      39.284  20.004  25.689  1.00  0.00    -0.246 OA
BRANCH  26  28
ATOM     28  C   UNL A   1      39.286  22.247  26.455  1.00  0.00     0.060 A 
ATOM     29  C   UNL A   1      38.762  23.516  26.170  1.00  0.00     0.016 A 
ATOM     30  C   UNL A   1      40.368  22.101  27.323  1.00  0.00     0.016 A 
ATOM     31  C   UNL A   1      39.350  24.653  26.719  1.00  0.00     0.010 A 
ATOM     32  C   UNL A   1      40.964  23.243  27.862  1.00  0.00     0.010 A 
ATOM     33  C   UNL A   1      40.480  24.524  27.535  1.00  0.00    -0.014 A 
BRANCH  33  34
ATOM     34  C   UNL A   1      41.280  25.717  27.905  1.00  0.00     0.031 A 
ATOM     35  C   UNL A   1      40.599  26.826  28.659  1.00  0.00     0.074 A 
ATOM     36  C   UNL A   1      42.574  25.823  27.557  1.00  0.00     0.049 A 
ATOM     37  N   UNL A   1      41.028  28.027  28.940  1.00  0.00    -0.248 NA
ATOM     38  C   UNL A   1      39.243  26.536  29.149  1.00  0.00     0.031 C 
ATOM     39  C   UNL A   1      43.355  24.784  26.888  1.00  0.00     0.029 A 
ATOM     40  N   UNL A   1      43.453  26.867  27.700  1.00  0.00    -0.354 N 
ATOM     41  C   UNL A   1      39.988  28.648  29.624  1.00  0.00     0.074 A 
ATOM     42  C   UNL A   1      38.898  27.697  29.688  1.00  0.00     0.031 C 
ATOM     43  C   UNL A   1      44.593  25.255  26.654  1.00  0.00     0.029 A 
ATOM     44  C   UNL A   1      44.673  26.642  27.108  1.00  0.00     0.049 A 
ATOM     45  H   UNL A   1      43.231  27.697  28.181  1.00  0.00     0.167 HD
ATOM     46  C   UNL A   1      39.949  29.898  30.147  1.00  0.00     0.034 A 
ATOM     47  C   UNL A   1      45.715  27.478  26.914  1.00  0.00     0.034 A 
ATOM     48  C   UNL A   1      41.044  30.831  30.063  1.00  0.00     0.049 A 
ATOM     49  C   UNL A   1      45.616  28.899  27.419  1.00  0.00     0.074 A 
ATOM     50  C   UNL A   1      41.119  32.121  30.557  1.00  0.00     0.029 A 
ATOM     51  N   UNL A   1      42.256  30.577  29.431  1.00  0.00    -0.354 N 
ATOM     52  N   UNL A   1      44.621  29.488  28.043  1.00  0.00    -0.248 NA
ATOM     53  C   UNL A   1      46.779  29.769  27.194  1.00  0.00     0.031 C 
ATOM     54  C   UNL A   1      42.342  32.670  30.162  1.00  0.00     0.029 A 
ATOM     55  C   UNL A   1      43.070  31.695  29.499  1.00  0.00     0.049 A 
ATOM     56  H   UNL A   1      42.500  29.726  29.000  1.00  0.00     0.167 HD
ATOM     57  C   UNL A   1      45.059  30.779  28.327  1.00  0.00     0.074 A 
ATOM     58  C   UNL A   1      46.404  30.887  27.799  1.00  0.00     0.031 C 
ATOM     59  C   UNL A   1      44.414  31.781  28.977  1.00  0.00     0.034 A 
BRANCH  46  60
ATOM     60  C   UNL A   1      38.659  30.340  30.797  1.00  0.00     0.023 A 
ATOM     61  C   UNL A   1      37.632  30.958  30.063  1.00  0.00     0.031 A 
ATOM     62  C   UNL A   1      38.469  30.170  32.179  1.00  0.00     0.131 A 
ATOM     63  C   UNL A   1      36.496  31.448  30.726  1.00  0.00     0.055 A 
ATOM     64  C   UNL A   1      37.300  30.583  32.820  1.00  0.00     0.041 A 
ATOM     65  F   UNL A   1      39.426  29.609  32.936  1.00  0.00    -0.206 F 
ATOM     66  C   UNL A   1      36.310  31.240  32.095  1.00  0.00     0.022 A 
BRANCH  63  67
ATOM     67  S   UNL A   1      35.335  32.491  29.801  1.00  0.00     0.124 S 
ATOM     68  O   UNL A   1      34.935  31.594  28.718  1.00  0.00    -0.237 OA
ATOM     69  O   UNL A   1      34.313  32.785  30.797  1.00  0.00    -0.237 OA
ATOM     70  O   UNL A   1      36.152  33.629  29.387  1.00  0.00    -0.744 OA
ENDBRANCH  63  67
ENDBRANCH  46  60
BRANCH  47  71
ATOM     71  C   UNL A   1      46.923  27.018  26.169  1.00  0.00     0.023 A 
ATOM     72  C   UNL A   1      47.979  26.372  26.830  1.00  0.00     0.031 A 
ATOM     73  C   UNL A   1      47.061  27.264  24.791  1.00  0.00     0.131 A 
ATOM     74  C   UNL A   1      49.146  26.038  26.123  1.00  0.00     0.055 A 
ATOM     75  C   UNL A   1      48.199  26.878  24.081  1.00  0.00     0.041 A 
ATOM     76  F   UNL A   1      46.082  27.880  24.109  1.00  0.00    -0.206 F 
ATOM     77  C   UNL A   1      49.257  26.272  24.752  1.00  0.00     0.022 A 
BRANCH  74  78
ATOM     78  S   UNL A   1      50.558  25.373  27.048  1.00  0.00     0.124 S 
ATOM     79  O   UNL A   1      51.000  26.545  27.795  1.00  0.00    -0.237 OA
ATOM     80  O   UNL A   1      49.935  24.310  27.828  1.00  0.00    -0.237 OA
ATOM     81  O   UNL A   1      51.468  24.922  25.998  1.00  0.00    -0.744 OA
ENDBRANCH  74  78
ENDBRANCH  47  71
BRANCH  59  82
ATOM     82  C   UNL A   1      45.182  33.055  29.235  1.00  0.00     0.023 A 
ATOM     83  C   UNL A   1      45.135  34.151  28.357  1.00  0.00     0.031 A 
ATOM     84  C   UNL A   1      45.947  33.178  30.410  1.00  0.00     0.131 A 
ATOM     85  C   UNL A   1      45.868  35.312  28.653  1.00  0.00     0.055 A 
ATOM     86  C   UNL A   1      46.627  34.354  30.725  1.00  0.00     0.041 A 
ATOM     87  F   UNL A   1      46.026  32.161  31.283  1.00  0.00    -0.206 F 
ATOM     88  C   UNL A   1      46.597  35.427  29.840  1.00  0.00     0.022 A 
BRANCH  85  89
ATOM     89  S   UNL A   1      45.904  36.657  27.437  1.00  0.00     0.124 S 
ATOM     90  O   UNL A   1      44.516  37.103  27.435  1.00  0.00    -0.237 OA
ATOM     91  O   UNL A   1      46.870  37.582  28.022  1.00  0.00    -0.237 OA
ATOM     92  O   UNL A   1      46.346  35.999  26.208  1.00  0.00    -0.744 OA
ENDBRANCH  85  89
ENDBRANCH  59  82
ENDBRANCH  33  34
ENDBRANCH  26  28
ENDBRANCH  25  26
ENDBRANCH  24  25
ENDBRANCH   1  24
TORSDOF 19
ENDMDL
MODEL 2
REMARK VINA RESULT:     -11.7      1.918      8.100
REMARK SMILES CCc1ccc2c(c1)C=C(C(=O)OCCOCCOC(=O)c1ccc(-c3c4nc(c(-c5cc(S(=O)(=O)[O-])ccc5F)c5ccc([nH]5)c(-c5cc(S(=O)(=O)[O-])ccc5F)c5nc(c(-c6cc(S(=O)(=O)[O-])ccc6F)c6ccc3[nH]6)C=C5)C=C4)cc1)[C@H](C(F)(F)F)O2
REMARK SMILES IDX 17 1 16 2 15 3 14 4 13 5 11 6 12 7 10 8 3 9 4 10 8 11 5 12
REMARK SMILES IDX 7 13 6 14 9 15 90 16 85 17 2 18 1 19 86 20 87 21 88 22 89 23
REMARK SMILES IDX 18 24 19 25 20 26 21 27 22 28 23 29 84 30 24 31 83 32 25 33
REMARK SMILES IDX 26 34 27 35 77 36 28 37 82 38 76 39 78 40 29 41 81 42 75 43
REMARK SMILES IDX 74 44 30 46 62 47 42 48 61 49 43 50 46 51 60 52 79 53 44 54
REMARK SMILES IDX 45 55 59 57 80 58 47 59 31 60 32 61 40 62 33 63 39 64 41 65
REMARK SMILES IDX 38 66 34 67 35 68 36 69 37 70 63 71 64 72 72 73 65 74 71 75
REMARK SMILES IDX 73 76 70 77 66 78 67 79 68 80 69 81 48 82 49 83 57 84 50 85
REMARK SMILES IDX 56 86 58 87 55 88 51 89 52 90 53 91 54 92
REMARK H PARENT 78 45 46 56
REMARK Flexibility Score: inf
ROOT
ATOM      1  C   UNL A   1      37.706  20.077  24.952  1.00  0.00     0.202 C 
ENDROOT
BRANCH   1   2
ATOM      2  O   UNL A   1      37.732  21.453  24.577  1.00  0.00    -0.374 OA
BRANCH   2   3
ATOM      3  C   UNL A   1      36.544  22.222  24.746  1.00  0.00     0.202 C 
BRANCH   3   4
ATOM      4  C   UNL A   1      35.912  22.821  23.487  1.00  0.00     0.261 C 
BRANCH   4   5
ATOM      5  O   UNL A   1      34.483  22.671  23.481  1.00  0.00    -0.460 OA
BRANCH   5   6
ATOM      6  C   UNL A   1      33.798  23.779  23.113  1.00  0.00     0.338 C 
ATOM      7  O   UNL A   1      33.437  24.070  21.982  1.00  0.00    -0.246 OA
BRANCH   6   8
ATOM      8  C   UNL A   1      33.421  24.579  24.288  1.00  0.00     0.087 C 
ATOM      9  C   UNL A   1      33.574  28.588  26.987  1.00  0.00    -0.047 A 
ATOM     10  C   UNL A   1      32.248  28.340  27.372  1.00  0.00     0.007 A 
ATOM     11  C   UNL A   1      34.204  27.686  26.107  1.00  0.00     0.015 A 
ATOM     12  C   UNL A   1      31.578  27.204  26.924  1.00  0.00     0.047 A 
ATOM     13  C   UNL A   1      33.528  26.556  25.634  1.00  0.00     0.018 A 
ATOM     14  C   UNL A   1      32.220  26.313  26.071  1.00  0.00     0.128 A 
ATOM     15  C   UNL A   1      34.088  25.709  24.581  1.00  0.00     0.027 C 
ATOM     16  O   UNL A   1      31.474  25.254  25.623  1.00  0.00    -0.475 OA
ATOM     17  C   UNL A   1      32.260  24.129  25.147  1.00  0.00     0.316 C 
BRANCH   9  18
ATOM     18  C   UNL A   1      34.298  29.854  27.392  1.00  0.00     0.032 C 
ATOM     19  C   UNL A   1      35.649  29.647  28.067  1.00  0.00     0.009 C 
ENDBRANCH   9  18
BRANCH  17  20
ATOM     20  C   UNL A   1      31.293  23.069  24.593  1.00  0.00     0.430 C 
ATOM     21  F   UNL A   1      30.745  23.464  23.420  1.00  0.00    -0.167 F 
ATOM     22  F   UNL A   1      31.975  21.924  24.311  1.00  0.00    -0.167 F 
ATOM     23  F   UNL A   1      30.310  22.734  25.452  1.00  0.00    -0.167 F 
ENDBRANCH  17  20
ENDBRANCH   6   8
ENDBRANCH   5   6
ENDBRANCH   4   5
ENDBRANCH   3   4
ENDBRANCH   2   3
ENDBRANCH   1   2
BRANCH   1  24
ATOM     24  C   UNL A   1      38.975  19.463  25.554  1.00  0.00     0.261 C 
BRANCH  24  25
ATOM     25  O   UNL A   1      40.024  20.425  25.750  1.00  0.00    -0.460 OA
BRANCH  25  26
ATOM     26  C   UNL A   1      40.499  20.491  27.019  1.00  0.00     0.338 C 
ATOM     27  O   UNL A   1      40.867  19.554  27.716  1.00  0.00    -0.246 OA
BRANCH  26  28
ATOM     28  C   UNL A   1      40.704  21.898  27.404  1.00  0.00     0.060 A 
ATOM     29  C   UNL A   1      39.997  22.884  26.702  1.00  0.00     0.016 A 
ATOM     30  C   UNL A   1      41.634  22.249  28.382  1.00  0.00     0.016 A 
ATOM     31  C   UNL A   1      40.250  24.232  26.944  1.00  0.00     0.010 A 
ATOM     32  C   UNL A   1      41.896  23.601  28.615  1.00  0.00     0.010 A 
ATOM     33  C   UNL A   1      41.232  24.597  27.874  1.00  0.00    -0.014 A 
BRANCH  33  34
ATOM     34  C   UNL A   1      41.710  25.998  27.952  1.00  0.00     0.031 A 
ATOM     35  C   UNL A   1      43.074  26.317  27.407  1.00  0.00     0.074 A 
ATOM     36  C   UNL A   1      40.959  26.959  28.516  1.00  0.00     0.049 A 
ATOM     37  N   UNL A   1      43.778  27.413  27.512  1.00  0.00    -0.248 NA
ATOM     38  C   UNL A   1      43.736  25.243  26.650  1.00  0.00     0.031 C 
ATOM     39  C   UNL A   1      39.596  26.782  29.014  1.00  0.00     0.029 A 
ATOM     40  N   UNL A   1      41.247  28.274  28.784  1.00  0.00    -0.354 N 
ATOM     41  C   UNL A   1      44.975  27.156  26.853  1.00  0.00     0.074 A 
ATOM     42  C   UNL A   1      44.911  25.791  26.377  1.00  0.00     0.031 C 
ATOM     43  C   UNL A   1      39.175  27.940  29.553  1.00  0.00     0.029 A 
ATOM     44  C   UNL A   1      40.258  28.921  29.486  1.00  0.00     0.049 A 
ATOM     45  H   UNL A   1      42.083  28.712  28.502  1.00  0.00     0.167 HD
ATOM     46  C   UNL A   1      46.031  27.987  26.665  1.00  0.00     0.034 A 
ATOM     47  C   UNL A   1      40.247  30.148  30.048  1.00  0.00     0.034 A 
ATOM     48  C   UNL A   1      46.075  29.341  27.157  1.00  0.00     0.049 A 
ATOM     49  C   UNL A   1      41.471  31.025  29.913  1.00  0.00     0.074 A 
ATOM     50  C   UNL A   1      47.088  30.274  27.026  1.00  0.00     0.029 A 
ATOM     51  N   UNL A   1      45.063  29.954  27.887  1.00  0.00    -0.354 N 
ATOM     52  N   UNL A   1      42.609  30.768  29.310  1.00  0.00    -0.248 NA
ATOM     53  C   UNL A   1      41.410  32.355  30.533  1.00  0.00     0.031 C 
ATOM     54  C   UNL A   1      46.722  31.420  27.736  1.00  0.00     0.029 A 
ATOM     55  C   UNL A   1      45.442  31.239  28.236  1.00  0.00     0.049 A 
ATOM     56  H   UNL A   1      44.204  29.535  28.121  1.00  0.00     0.167 HD
ATOM     57  C   UNL A   1      43.378  31.923  29.437  1.00  0.00     0.074 A 
ATOM     58  C   UNL A   1      42.579  32.874  30.181  1.00  0.00     0.031 C 
ATOM     59  C   UNL A   1      44.626  32.179  28.970  1.00  0.00     0.034 A 
BRANCH  46  60
ATOM     60  C   UNL A   1      47.238  27.426  25.954  1.00  0.00     0.023 A 
ATOM     61  C   UNL A   1      48.215  26.673  26.629  1.00  0.00     0.031 A 
ATOM     62  C   UNL A   1      47.432  27.678  24.584  1.00  0.00     0.131 A 
ATOM     63  C   UNL A   1      49.374  26.263  25.951  1.00  0.00     0.055 A 
ATOM     64  C   UNL A   1      48.546  27.194  23.895  1.00  0.00     0.041 A 
ATOM     65  F   UNL A   1      46.547  28.413  23.893  1.00  0.00    -0.206 F 
ATOM     66  C   UNL A   1      49.533  26.494  24.583  1.00  0.00     0.022 A 
BRANCH  63  67
ATOM     67  S   UNL A   1      50.736  25.553  26.916  1.00  0.00     0.124 S 
ATOM     68  O   UNL A   1      51.681  25.187  25.863  1.00  0.00    -0.237 OA
ATOM     69  O   UNL A   1      51.131  26.667  27.770  1.00  0.00    -0.237 OA
ATOM     70  O   UNL A   1      50.116  24.424  27.606  1.00  0.00    -0.744 OA
ENDBRANCH  63  67
ENDBRANCH  46  60
BRANCH  47  71
ATOM     71  C   UNL A   1      39.065  30.608  30.834  1.00  0.00     0.023 A 
ATOM     72  C   UNL A   1      38.084  31.426  30.253  1.00  0.00     0.031 A 
ATOM     73  C   UNL A   1      38.927  30.278  32.195  1.00  0.00     0.131 A 
ATOM     74  C   UNL A   1      37.034  31.926  31.041  1.00  0.00     0.055 A 
ATOM     75  C   UNL A   1      37.850  30.730  32.959  1.00  0.00     0.041 A 
ATOM     76  F   UNL A   1      39.838  29.500  32.801  1.00  0.00    -0.206 F 
ATOM     77  C   UNL A   1      36.902  31.571  32.385  1.00  0.00     0.022 A 
BRANCH  74  78
ATOM     78  S   UNL A   1      35.892  33.124  30.302  1.00  0.00     0.124 S 
ATOM     79  O   UNL A   1      35.764  34.108  31.372  1.00  0.00    -0.237 OA
ATOM     80  O   UNL A   1      36.627  33.554  29.118  1.00  0.00    -0.237 OA
ATOM     81  O   UNL A   1      34.693  32.332  30.036  1.00  0.00    -0.744 OA
ENDBRANCH  74  78
ENDBRANCH  47  71
BRANCH  59  82
ATOM     82  C   UNL A   1      45.175  33.571  29.169  1.00  0.00     0.023 A 
ATOM     83  C   UNL A   1      44.934  34.611  28.256  1.00  0.00     0.031 A 
ATOM     84  C   UNL A   1      45.927  33.862  30.323  1.00  0.00     0.131 A 
ATOM     85  C   UNL A   1      45.468  35.888  28.498  1.00  0.00     0.055 A 
ATOM     86  C   UNL A   1      46.407  35.144  30.584  1.00  0.00     0.041 A 
ATOM     87  F   UNL A   1      46.188  32.904  31.227  1.00  0.00    -0.206 F 
ATOM     88  C   UNL A   1      46.185  36.165  29.665  1.00  0.00     0.022 A 
BRANCH  85  89
ATOM     89  S   UNL A   1      45.261  37.176  27.237  1.00  0.00     0.124 S 
ATOM     90  O   UNL A   1      46.261  36.794  26.246  1.00  0.00    -0.237 OA
ATOM     91  O   UNL A   1      43.868  37.002  26.837  1.00  0.00    -0.237 OA
ATOM     92  O   UNL A   1      45.545  38.414  27.961  1.00  0.00    -0.744 OA
ENDBRANCH  85  89
ENDBRANCH  59  82
ENDBRANCH  33  34
ENDBRANCH  26  28
ENDBRANCH  25  26
ENDBRANCH  24  25
ENDBRANCH   1  24
TORSDOF 19
ENDMDL
MODEL 3
REMARK VINA RESULT:     -11.6      4.529     10.181
REMARK SMILES CCc1ccc2c(c1)C=C(C(=O)OCCOCCOC(=O)c1ccc(-c3c4nc(c(-c5cc(S(=O)(=O)[O-])ccc5F)c5ccc([nH]5)c(-c5cc(S(=O)(=O)[O-])ccc5F)c5nc(c(-c6cc(S(=O)(=O)[O-])ccc6F)c6ccc3[nH]6)C=C5)C=C4)cc1)[C@H](C(F)(F)F)O2
REMARK SMILES IDX 17 1 16 2 15 3 14 4 13 5 11 6 12 7 10 8 3 9 4 10 8 11 5 12
REMARK SMILES IDX 7 13 6 14 9 15 90 16 85 17 2 18 1 19 86 20 87 21 88 22 89 23
REMARK SMILES IDX 18 24 19 25 20 26 21 27 22 28 23 29 84 30 24 31 83 32 25 33
REMARK SMILES IDX 26 34 27 35 77 36 28 37 82 38 76 39 78 40 29 41 81 42 75 43
REMARK SMILES IDX 74 44 30 46 62 47 42 48 61 49 43 50 46 51 60 52 79 53 44 54
REMARK SMILES IDX 45 55 59 57 80 58 47 59 31 60 32 61 40 62 33 63 39 64 41 65
REMARK SMILES IDX 38 66 34 67 35 68 36 69 37 70 63 71 64 72 72 73 65 74 71 75
REMARK SMILES IDX 73 76 70 77 66 78 67 79 68 80 69 81 48 82 49 83 57 84 50 85
REMARK SMILES IDX 56 86 58 87 55 88 51 89 52 90 53 91 54 92
REMARK H PARENT 78 45 46 56
REMARK Flexibility Score: inf
ROOT
ATOM      1  C   UNL A   1      31.437  28.849  25.539  1.00  0.00     0.202 C 
ENDROOT
BRANCH   1   2
ATOM      2  O   UNL A   1      32.313  27.731  25.661  1.00  0.00    -0.374 OA
BRANCH   2   3
ATOM      3  C   UNL A   1      31.739  26.443  25.872  1.00  0.00     0.202 C 
BRANCH   3   4
ATOM      4  C   UNL A   1      31.321  25.652  24.630  1.00  0.00     0.261 C 
BRANCH   4   5
ATOM      5  O   UNL A   1      31.692  24.267  24.726  1.00  0.00    -0.460 OA
BRANCH   5   6
ATOM      6  C   UNL A   1      32.727  23.900  23.936  1.00  0.00     0.338 C 
ATOM      7  O   UNL A   1      33.195  24.539  23.005  1.00  0.00    -0.246 OA
BRANCH   6   8
ATOM      8  C   UNL A   1      33.326  22.640  24.403  1.00  0.00     0.087 C 
ATOM      9  C   UNL A   1      33.851  17.835  24.308  1.00  0.00    -0.047 A 
ATOM     10  C   UNL A   1      35.198  18.008  24.662  1.00  0.00     0.007 A 
ATOM     11  C   UNL A   1      33.038  18.975  24.159  1.00  0.00     0.015 A 
ATOM     12  C   UNL A   1      35.713  19.281  24.899  1.00  0.00     0.047 A 
ATOM     13  C   UNL A   1      33.556  20.258  24.371  1.00  0.00     0.018 A 
ATOM     14  C   UNL A   1      34.892  20.396  24.766  1.00  0.00     0.128 A 
ATOM     15  C   UNL A   1      32.790  21.461  24.043  1.00  0.00     0.027 C 
ATOM     16  O   UNL A   1      35.488  21.616  24.953  1.00  0.00    -0.475 OA
ATOM     17  C   UNL A   1      34.563  22.689  25.272  1.00  0.00     0.316 C 
BRANCH   9  18
ATOM     18  C   UNL A   1      33.287  16.473  23.966  1.00  0.00     0.032 C 
ATOM     19  C   UNL A   1      33.172  15.501  25.134  1.00  0.00     0.009 C 
ENDBRANCH   9  18
BRANCH  17  20
ATOM     20  C   UNL A   1      35.361  24.001  25.356  1.00  0.00     0.430 C 
ATOM     21  F   UNL A   1      34.611  25.004  25.871  1.00  0.00    -0.167 F 
ATOM     22  F   UNL A   1      36.408  23.850  26.214  1.00  0.00    -0.167 F 
ATOM     23  F   UNL A   1      35.879  24.394  24.177  1.00  0.00    -0.167 F 
ENDBRANCH  17  20
ENDBRANCH   6   8
ENDBRANCH   5   6
ENDBRANCH   4   5
ENDBRANCH   3   4
ENDBRANCH   2   3
ENDBRANCH   1   2
BRANCH   1  24
ATOM     24  C   UNL A   1      32.017  30.254  25.747  1.00  0.00     0.261 C 
BRANCH  24  25
ATOM     25  O   UNL A   1      32.382  30.512  27.112  1.00  0.00    -0.460 OA
BRANCH  25  26
ATOM     26  C   UNL A   1      33.072  31.664  27.302  1.00  0.00     0.338 C 
ATOM     27  O   UNL A   1      32.619  32.802  27.296  1.00  0.00    -0.246 OA
BRANCH  26  28
ATOM     28  C   UNL A   1      34.451  31.359  27.720  1.00  0.00     0.060 A 
ATOM     29  C   UNL A   1      34.768  30.028  28.029  1.00  0.00     0.016 A 
ATOM     30  C   UNL A   1      35.396  32.372  27.884  1.00  0.00     0.016 A 
ATOM     31  C   UNL A   1      36.021  29.710  28.548  1.00  0.00     0.010 A 
ATOM     32  C   UNL A   1      36.647  32.054  28.416  1.00  0.00     0.010 A 
ATOM     33  C   UNL A   1      36.952  30.729  28.783  1.00  0.00    -0.014 A 
BRANCH  33  34
ATOM     34  C   UNL A   1      38.174  30.461  29.579  1.00  0.00     0.031 A 
ATOM     35  C   UNL A   1      39.203  29.523  29.010  1.00  0.00     0.074 A 
ATOM     36  C   UNL A   1      38.353  31.018  30.789  1.00  0.00     0.049 A 
ATOM     37  N   UNL A   1      40.257  28.999  29.578  1.00  0.00    -0.248 NA
ATOM     38  C   UNL A   1      39.002  29.113  27.612  1.00  0.00     0.031 C 
ATOM     39  C   UNL A   1      37.459  31.994  31.409  1.00  0.00     0.029 A 
ATOM     40  N   UNL A   1      39.340  30.824  31.722  1.00  0.00    -0.354 N 
ATOM     41  C   UNL A   1      40.836  28.181  28.615  1.00  0.00     0.074 A 
ATOM     42  C   UNL A   1      39.999  28.258  27.436  1.00  0.00     0.031 C 
ATOM     43  C   UNL A   1      37.926  32.294  32.634  1.00  0.00     0.029 A 
ATOM     44  C   UNL A   1      39.118  31.491  32.903  1.00  0.00     0.049 A 
ATOM     45  H   UNL A   1      40.132  30.260  31.562  1.00  0.00     0.167 HD
ATOM     46  C   UNL A   1      41.964  27.434  28.709  1.00  0.00     0.034 A 
ATOM     47  C   UNL A   1      39.776  31.425  34.079  1.00  0.00     0.034 A 
ATOM     48  C   UNL A   1      42.777  27.367  29.897  1.00  0.00     0.049 A 
ATOM     49  C   UNL A   1      40.975  30.511  34.196  1.00  0.00     0.074 A 
ATOM     50  C   UNL A   1      43.940  26.647  30.107  1.00  0.00     0.029 A 
ATOM     51  N   UNL A   1      42.506  28.037  31.084  1.00  0.00    -0.354 N 
ATOM     52  N   UNL A   1      41.504  29.722  33.290  1.00  0.00    -0.248 NA
ATOM     53  C   UNL A   1      41.665  30.480  35.493  1.00  0.00     0.031 C 
ATOM     54  C   UNL A   1      44.329  26.823  31.438  1.00  0.00     0.029 A 
ATOM     55  C   UNL A   1      43.462  27.724  32.035  1.00  0.00     0.049 A 
ATOM     56  H   UNL A   1      41.745  28.645  31.226  1.00  0.00     0.167 HD
ATOM     57  C   UNL A   1      42.616  29.139  33.893  1.00  0.00     0.074 A 
ATOM     58  C   UNL A   1      42.677  29.660  35.243  1.00  0.00     0.031 C 
ATOM     59  C   UNL A   1      43.513  28.263  33.374  1.00  0.00     0.034 A 
BRANCH  46  60
ATOM     60  C   UNL A   1      42.339  26.588  27.516  1.00  0.00     0.023 A 
ATOM     61  C   UNL A   1      41.908  25.256  27.385  1.00  0.00     0.031 A 
ATOM     62  C   UNL A   1      43.169  27.113  26.509  1.00  0.00     0.131 A 
ATOM     63  C   UNL A   1      42.368  24.475  26.314  1.00  0.00     0.055 A 
ATOM     64  C   UNL A   1      43.554  26.356  25.401  1.00  0.00     0.041 A 
ATOM     65  F   UNL A   1      43.633  28.369  26.593  1.00  0.00    -0.206 F 
ATOM     66  C   UNL A   1      43.165  25.022  25.306  1.00  0.00     0.022 A 
BRANCH  63  67
ATOM     67  S   UNL A   1      42.031  22.692  26.335  1.00  0.00     0.124 S 
ATOM     68  O   UNL A   1      42.620  22.267  25.066  1.00  0.00    -0.237 OA
ATOM     69  O   UNL A   1      42.724  22.254  27.540  1.00  0.00    -0.237 OA
ATOM     70  O   UNL A   1      40.572  22.620  26.390  1.00  0.00    -0.744 OA
ENDBRANCH  63  67
ENDBRANCH  46  60
BRANCH  47  71
ATOM     71  C   UNL A   1      39.295  32.202  35.258  1.00  0.00     0.023 A 
ATOM     72  C   UNL A   1      39.735  33.515  35.489  1.00  0.00     0.031 A 
ATOM     73  C   UNL A   1      38.425  31.624  36.202  1.00  0.00     0.131 A 
ATOM     74  C   UNL A   1      39.344  34.189  36.657  1.00  0.00     0.055 A 
ATOM     75  C   UNL A   1      37.994  32.319  37.333  1.00  0.00     0.041 A 
ATOM     76  F   UNL A   1      37.975  30.370  36.032  1.00  0.00    -0.206 F 
ATOM     77  C   UNL A   1      38.465  33.606  37.572  1.00  0.00     0.022 A 
BRANCH  74  78
ATOM     78  S   UNL A   1      40.078  35.809  37.010  1.00  0.00     0.124 S 
ATOM     79  O   UNL A   1      39.379  36.190  38.232  1.00  0.00    -0.237 OA
ATOM     80  O   UNL A   1      41.491  35.476  37.154  1.00  0.00    -0.237 OA
ATOM     81  O   UNL A   1      39.743  36.598  35.826  1.00  0.00    -0.744 OA
ENDBRANCH  74  78
ENDBRANCH  47  71
BRANCH  59  82
ATOM     82  C   UNL A   1      44.691  27.877  34.236  1.00  0.00     0.023 A 
ATOM     83  C   UNL A   1      44.650  26.784  35.118  1.00  0.00     0.031 A 
ATOM     84  C   UNL A   1      45.892  28.605  34.137  1.00  0.00     0.131 A 
ATOM     85  C   UNL A   1      45.780  26.470  35.891  1.00  0.00     0.055 A 
ATOM     86  C   UNL A   1      47.027  28.255  34.867  1.00  0.00     0.041 A 
ATOM     87  F   UNL A   1      45.984  29.660  33.310  1.00  0.00    -0.206 F 
ATOM     88  C   UNL A   1      46.973  27.186  35.756  1.00  0.00     0.022 A 
BRANCH  85  89
ATOM     89  S   UNL A   1      45.658  25.144  37.122  1.00  0.00     0.124 S 
ATOM     90  O   UNL A   1      46.601  24.160  36.604  1.00  0.00    -0.237 OA
ATOM     91  O   UNL A   1      46.055  25.821  38.353  1.00  0.00    -0.237 OA
ATOM     92  O   UNL A   1      44.252  24.748  37.062  1.00  0.00    -0.744 OA
ENDBRANCH  85  89
ENDBRANCH  59  82
ENDBRANCH  33  34
ENDBRANCH  26  28
ENDBRANCH  25  26
ENDBRANCH  24  25
ENDBRANCH   1  24
TORSDOF 19
ENDMDL
