MODEL 1
REMARK VINA RESULT:     -12.3      0.000      0.000
REMARK SMILES Cc1ccccc1/C=C1\SC(=O)N(CC(=O)Nc2ccccc2C(=O)OCCOCCOC(=O)c2ccc(-c3c4nc(c(-c5cc(S(=O)(=O)[O-])ccc5F)c5ccc([nH]5)c(-c5cc(S(=O)(=O)[O-])ccc5F)c5nc(c(-c6cc(S(=O)(=O)[O-])ccc6F)c6ccc3[nH]6)C=C5)C=C4)cc2)C1=O
REMARK SMILES IDX 28 1 27 2 26 3 24 4 25 5 23 6 18 7 19 8 20 9 22 10 21 11
REMARK SMILES IDX 17 12 15 13 16 14 14 16 13 17 8 18 9 19 10 20 98 21 11 22
REMARK SMILES IDX 99 23 12 24 7 25 1 26 2 27 3 28 4 29 6 30 5 31 29 32 30 33
REMARK SMILES IDX 31 34 32 35 33 36 34 37 35 38 36 39 97 40 37 41 96 42 38 43
REMARK SMILES IDX 39 44 40 45 90 46 41 47 95 48 89 49 91 50 42 51 94 52 88 53
REMARK SMILES IDX 87 54 43 56 75 57 55 58 74 59 56 60 59 61 73 62 92 63 57 64
REMARK SMILES IDX 58 65 72 67 93 68 60 69 44 70 45 71 53 72 46 73 52 74 54 75
REMARK SMILES IDX 51 76 47 77 48 78 49 79 50 80 76 81 77 82 85 83 78 84 84 85
REMARK SMILES IDX 86 86 83 87 79 88 80 89 81 90 82 91 61 92 62 93 70 94 63 95
REMARK SMILES IDX 69 96 71 97 68 98 64 99 65 100 66 101 67 102
REMARK H PARENT 17 15 91 55 59 66
REMARK Flexibility Score: inf
ROOT
ATOM      1  C   UNL A   1      36.132  23.778  25.787  1.00  0.00     0.202 C 
ENDROOT
BRANCH   1   2
ATOM      2  C   UNL A   1      35.224  24.274  24.568  1.00  0.00     0.261 C 
BRANCH   2   3
ATOM      3  O   UNL A   1      34.144  25.997  24.312  1.00  0.00    -0.460 OA
BRANCH   3   4
ATOM      4  C   UNL A   1      34.061  27.470  24.151  1.00  0.00     0.340 C 
ATOM      5  O   UNL A   1      34.331  28.032  23.100  1.00  0.00    -0.246 OA
BRANCH   4   6
ATOM      6  C   UNL A   1      33.367  28.325  25.115  1.00  0.00     0.083 A 
ATOM      7  C   UNL A   1      32.347  29.195  24.659  1.00  0.00     0.055 A 
ATOM      8  C   UNL A   1      31.802  30.137  25.527  1.00  0.00     0.027 A 
ATOM      9  C   UNL A   1      32.220  30.158  26.854  1.00  0.00     0.002 A 
ATOM     10  C   UNL A   1      33.856  28.421  26.409  1.00  0.00     0.018 A 
ATOM     11  C   UNL A   1      33.249  29.313  27.287  1.00  0.00     0.001 A 
BRANCH   7  12
ATOM     12  N   UNL A   1      31.792  29.155  23.369  1.00  0.00    -0.324 N 
ATOM     13  C   UNL A   1      30.713  28.412  22.971  1.00  0.00     0.244 C 
ATOM     14  O   UNL A   1      30.276  28.563  21.824  1.00  0.00    -0.273 OA
ATOM     15  H   UNL A   1      32.221  29.717  22.683  1.00  0.00     0.170 HD
BRANCH  13  16
ATOM     16  C   UNL A   1      29.894  27.655  24.027  1.00  0.00     0.230 C 
BRANCH  16  17
ATOM     17  N   UNL A   1      30.394  26.383  24.535  1.00  0.00    -0.259 N 
ATOM     18  C   UNL A   1      31.960  22.262  23.868  1.00  0.00     0.029 C 
ATOM     19  C   UNL A   1      31.567  23.497  24.325  1.00  0.00     0.083 C 
ATOM     20  S   UNL A   1      31.947  24.101  26.449  1.00  0.00    -0.022 SA
ATOM     21  C   UNL A   1      30.714  25.055  23.365  1.00  0.00     0.268 C 
ATOM     22  C   UNL A   1      30.911  26.151  26.209  1.00  0.00     0.294 C 
ATOM     23  O   UNL A   1      30.645  25.360  22.183  1.00  0.00    -0.268 OA
ATOM     24  O   UNL A   1      30.725  26.883  27.167  1.00  0.00    -0.261 OA
BRANCH  18  25
ATOM     25  C   UNL A   1      32.588  20.888  23.907  1.00  0.00    -0.021 A 
ATOM     26  C   UNL A   1      33.557  21.117  26.226  1.00  0.00     0.045 C 
ATOM     27  C   UNL A   1      33.338  20.359  24.958  1.00  0.00    -0.044 A 
ATOM     28  C   UNL A   1      33.829  19.024  24.888  1.00  0.00     0.004 A 
ATOM     29  C   UNL A   1      33.489  18.157  23.849  1.00  0.00     0.000 A 
ATOM     30  C   UNL A   1      32.134  19.919  22.950  1.00  0.00     0.008 A 
ATOM     31  C   UNL A   1      32.578  18.585  22.908  1.00  0.00     0.001 A 
ENDBRANCH  18  25
ENDBRANCH  16  17
ENDBRANCH  13  16
ENDBRANCH   7  12
ENDBRANCH   4   6
ENDBRANCH   3   4
ENDBRANCH   2   3
ENDBRANCH   1   2
BRANCH   1  32
ATOM     32  O   UNL A   1      37.444  23.542  25.286  1.00  0.00    -0.374 OA
BRANCH  32  33
ATOM     33  C   UNL A   1      38.487  23.811  26.199  1.00  0.00     0.202 C 
BRANCH  33  34
ATOM     34  C   UNL A   1      39.084  22.497  26.703  1.00  0.00     0.261 C 
BRANCH  34  35
ATOM     35  O   UNL A   1      39.996  21.997  25.687  1.00  0.00    -0.460 OA
BRANCH  35  36
ATOM     36  C   UNL A   1      41.089  21.276  26.088  1.00  0.00     0.338 C 
ATOM     37  O   UNL A   1      41.161  20.058  26.059  1.00  0.00    -0.246 OA
BRANCH  36  38
ATOM     38  C   UNL A   1      42.147  22.178  26.681  1.00  0.00     0.060 A 
ATOM     39  C   UNL A   1      42.664  22.027  27.972  1.00  0.00     0.016 A 
ATOM     40  C   UNL A   1      42.494  23.338  26.022  1.00  0.00     0.016 A 
ATOM     41  C   UNL A   1      43.316  23.115  28.647  1.00  0.00     0.010 A 
ATOM     42  C   UNL A   1      42.987  24.430  26.754  1.00  0.00     0.010 A 
ATOM     43  C   UNL A   1      43.237  24.426  28.149  1.00  0.00    -0.014 A 
BRANCH  43  44
ATOM     44  C   UNL A   1      43.312  25.844  28.974  1.00  0.00     0.031 A 
ATOM     45  C   UNL A   1      42.099  26.615  28.658  1.00  0.00     0.074 A 
ATOM     46  C   UNL A   1      44.182  26.570  29.833  1.00  0.00     0.049 A 
ATOM     47  N   UNL A   1      42.108  27.696  27.935  1.00  0.00    -0.248 NA
ATOM     48  C   UNL A   1      40.760  26.058  28.898  1.00  0.00     0.031 C 
ATOM     49  C   UNL A   1      43.826  27.700  30.719  1.00  0.00     0.029 A 
ATOM     50  N   UNL A   1      45.542  26.419  30.281  1.00  0.00    -0.354 N 
ATOM     51  C   UNL A   1      40.791  28.086  27.973  1.00  0.00     0.074 A 
ATOM     52  C   UNL A   1      40.065  26.851  28.092  1.00  0.00     0.031 C 
ATOM     53  C   UNL A   1      44.904  28.180  31.397  1.00  0.00     0.029 A 
ATOM     54  C   UNL A   1      46.121  27.474  30.987  1.00  0.00     0.049 A 
ATOM     55  H   UNL A   1      46.049  25.596  30.093  1.00  0.00     0.167 HD
ATOM     56  C   UNL A   1      40.424  29.250  28.593  1.00  0.00     0.034 A 
ATOM     57  C   UNL A   1      47.422  27.937  30.901  1.00  0.00     0.034 A 
ATOM     58  C   UNL A   1      41.570  29.956  29.194  1.00  0.00     0.049 A 
ATOM     59  C   UNL A   1      47.244  29.264  30.155  1.00  0.00     0.074 A 
ATOM     60  C   UNL A   1      41.866  30.334  30.498  1.00  0.00     0.029 A 
ATOM     61  N   UNL A   1      42.738  30.177  28.469  1.00  0.00    -0.354 N 
ATOM     62  N   UNL A   1      46.069  29.612  29.715  1.00  0.00    -0.248 NA
ATOM     63  C   UNL A   1      48.247  30.265  29.797  1.00  0.00     0.031 C 
ATOM     64  C   UNL A   1      43.179  30.867  30.526  1.00  0.00     0.029 A 
ATOM     65  C   UNL A   1      43.699  30.790  29.247  1.00  0.00     0.049 A 
ATOM     66  H   UNL A   1      42.862  29.928  27.525  1.00  0.00     0.167 HD
ATOM     67  C   UNL A   1      46.089  30.812  29.105  1.00  0.00     0.074 A 
ATOM     68  C   UNL A   1      47.496  31.174  29.132  1.00  0.00     0.031 C 
ATOM     69  C   UNL A   1      44.912  31.333  28.651  1.00  0.00     0.034 A 
BRANCH  56  70
ATOM     70  C   UNL A   1      38.984  29.552  29.009  1.00  0.00     0.023 A 
ATOM     71  C   UNL A   1      38.711  29.728  30.375  1.00  0.00     0.031 A 
ATOM     72  C   UNL A   1      37.857  29.701  28.167  1.00  0.00     0.131 A 
ATOM     73  C   UNL A   1      37.407  29.917  30.860  1.00  0.00     0.055 A 
ATOM     74  C   UNL A   1      36.547  29.843  28.646  1.00  0.00     0.041 A 
ATOM     75  F   UNL A   1      37.957  29.804  26.836  1.00  0.00    -0.206 F 
ATOM     76  C   UNL A   1      36.315  29.948  30.003  1.00  0.00     0.022 A 
BRANCH  73  77
ATOM     77  S   UNL A   1      37.180  30.170  32.635  1.00  0.00     0.124 S 
ATOM     78  O   UNL A   1      38.409  30.868  33.000  1.00  0.00    -0.237 OA
ATOM     79  O   UNL A   1      35.951  30.954  32.685  1.00  0.00    -0.237 OA
ATOM     80  O   UNL A   1      37.061  28.809  33.155  1.00  0.00    -0.744 OA
ENDBRANCH  73  77
ENDBRANCH  56  70
BRANCH  57  81
ATOM     81  C   UNL A   1      48.662  27.027  30.743  1.00  0.00     0.023 A 
ATOM     82  C   UNL A   1      49.361  26.392  31.818  1.00  0.00     0.031 A 
ATOM     83  C   UNL A   1      49.141  26.668  29.478  1.00  0.00     0.131 A 
ATOM     84  C   UNL A   1      50.288  25.315  31.583  1.00  0.00     0.055 A 
ATOM     85  C   UNL A   1      49.962  25.545  29.248  1.00  0.00     0.041 A 
ATOM     86  F   UNL A   1      48.826  27.414  28.415  1.00  0.00    -0.206 F 
ATOM     87  C   UNL A   1      50.489  24.819  30.300  1.00  0.00     0.022 A 
BRANCH  84  88
ATOM     88  S   UNL A   1      51.112  24.361  32.938  1.00  0.00     0.124 S 
ATOM     89  O   UNL A   1      51.047  22.991  32.437  1.00  0.00    -0.237 OA
ATOM     90  O   UNL A   1      52.447  24.952  32.995  1.00  0.00    -0.237 OA
ATOM     91  O   UNL A   1      50.268  24.605  34.109  1.00  0.00    -0.744 OA
ENDBRANCH  84  88
ENDBRANCH  57  81
BRANCH  69  92
ATOM     92  C   UNL A   1      44.768  32.497  27.728  1.00  0.00     0.023 A 
ATOM     93  C   UNL A   1      44.264  33.718  28.163  1.00  0.00     0.031 A 
ATOM     94  C   UNL A   1      45.192  32.433  26.376  1.00  0.00     0.131 A 
ATOM     95  C   UNL A   1      44.061  34.761  27.255  1.00  0.00     0.055 A 
ATOM     96  C   UNL A   1      45.096  33.509  25.503  1.00  0.00     0.041 A 
ATOM     97  F   UNL A   1      45.718  31.324  25.836  1.00  0.00    -0.206 F 
ATOM     98  C   UNL A   1      44.493  34.677  25.932  1.00  0.00     0.022 A 
BRANCH  95  99
ATOM     99  S   UNL A   1      43.089  36.166  27.826  1.00  0.00     0.124 S 
ATOM    100  O   UNL A   1      42.273  35.556  28.875  1.00  0.00    -0.237 OA
ATOM    101  O   UNL A   1      44.118  37.093  28.286  1.00  0.00    -0.237 OA
ATOM    102  O   UNL A   1      42.356  36.583  26.633  1.00  0.00    -0.744 OA
ENDBRANCH  95  99
ENDBRANCH  69  92
ENDBRANCH  43  44
ENDBRANCH  36  38
ENDBRANCH  35  36
ENDBRANCH  34  35
ENDBRANCH  33  34
ENDBRANCH  32  33
ENDBRANCH   1  32
TORSDOF 21
ENDMDL
MODEL 2
REMARK VINA RESULT:     -12.1      3.396      7.475
REMARK SMILES Cc1ccccc1/C=C1\SC(=O)N(CC(=O)Nc2ccccc2C(=O)OCCOCCOC(=O)c2ccc(-c3c4nc(c(-c5cc(S(=O)(=O)[O-])ccc5F)c5ccc([nH]5)c(-c5cc(S(=O)(=O)[O-])ccc5F)c5nc(c(-c6cc(S(=O)(=O)[O-])ccc6F)c6ccc3[nH]6)C=C5)C=C4)cc2)C1=O
REMARK SMILES IDX 28 1 27 2 26 3 24 4 25 5 23 6 18 7 19 8 20 9 22 10 21 11
REMARK SMILES IDX 17 12 15 13 16 14 14 16 13 17 8 18 9 19 10 20 98 21 11 22
REMARK SMILES IDX 99 23 12 24 7 25 1 26 2 27 3 28 4 29 6 30 5 31 29 32 30 33
REMARK SMILES IDX 31 34 32 35 33 36 34 37 35 38 36 39 97 40 37 41 96 42 38 43
REMARK SMILES IDX 39 44 40 45 90 46 41 47 95 48 89 49 91 50 42 51 94 52 88 53
REMARK SMILES IDX 87 54 43 56 75 57 55 58 74 59 56 60 59 61 73 62 92 63 57 64
REMARK SMILES IDX 58 65 72 67 93 68 60 69 44 70 45 71 53 72 46 73 52 74 54 75
REMARK SMILES IDX 51 76 47 77 48 78 49 79 50 80 76 81 77 82 85 83 78 84 84 85
REMARK SMILES IDX 86 86 83 87 79 88 80 89 81 90 82 91 61 92 62 93 70 94 63 95
REMARK SMILES IDX 69 96 71 97 68 98 64 99 65 100 66 101 67 102
REMARK H PARENT 17 15 91 55 59 66
REMARK Flexibility Score: inf
ROOT
ATOM      1  C   UNL A   1      36.099  23.830  25.662  1.00  0.00     0.202 C 
ENDROOT
BRANCH   1   2
ATOM      2  C   UNL A   1      35.185  24.350  24.459  1.00  0.00     0.261 C 
BRANCH   2   3
ATOM      3  O   UNL A   1      34.138  26.097  24.226  1.00  0.00    -0.460 OA
BRANCH   3   4
ATOM      4  C   UNL A   1      34.082  27.574  24.104  1.00  0.00     0.340 C 
ATOM      5  O   UNL A   1      34.396  28.162  23.080  1.00  0.00    -0.246 OA
BRANCH   4   6
ATOM      6  C   UNL A   1      33.367  28.413  25.068  1.00  0.00     0.083 A 
ATOM      7  C   UNL A   1      32.290  29.216  24.620  1.00  0.00     0.055 A 
ATOM      8  C   UNL A   1      31.716  30.146  25.483  1.00  0.00     0.027 A 
ATOM      9  C   UNL A   1      32.166  30.220  26.797  1.00  0.00     0.002 A 
ATOM     10  C   UNL A   1      33.882  28.564  26.346  1.00  0.00     0.018 A 
ATOM     11  C   UNL A   1      33.250  29.441  27.221  1.00  0.00     0.001 A 
BRANCH   7  12
ATOM     12  N   UNL A   1      31.705  29.117  23.346  1.00  0.00    -0.324 N 
ATOM     13  C   UNL A   1      30.651  28.317  22.996  1.00  0.00     0.244 C 
ATOM     14  O   UNL A   1      30.179  28.418  21.857  1.00  0.00    -0.273 OA
ATOM     15  H   UNL A   1      32.091  29.679  22.636  1.00  0.00     0.170 HD
BRANCH  13  16
ATOM     16  C   UNL A   1      29.893  27.552  24.092  1.00  0.00     0.230 C 
BRANCH  16  17
ATOM     17  N   UNL A   1      30.430  26.286  24.573  1.00  0.00    -0.259 N 
ATOM     18  C   UNL A   1      31.992  22.177  23.829  1.00  0.00     0.029 C 
ATOM     19  C   UNL A   1      31.614  23.409  24.305  1.00  0.00     0.083 C 
ATOM     20  S   UNL A   1      32.102  24.020  26.405  1.00  0.00    -0.022 SA
ATOM     21  C   UNL A   1      30.698  24.958  23.390  1.00  0.00     0.268 C 
ATOM     22  C   UNL A   1      31.038  26.061  26.219  1.00  0.00     0.294 C 
ATOM     23  O   UNL A   1      30.564  25.260  22.213  1.00  0.00    -0.268 OA
ATOM     24  O   UNL A   1      30.897  26.793  27.184  1.00  0.00    -0.261 OA
BRANCH  18  25
ATOM     25  C   UNL A   1      32.633  20.807  23.836  1.00  0.00    -0.021 A 
ATOM     26  C   UNL A   1      33.766  21.069  26.076  1.00  0.00     0.045 C 
ATOM     27  C   UNL A   1      33.461  20.296  24.835  1.00  0.00    -0.044 A 
ATOM     28  C   UNL A   1      33.958  18.964  24.743  1.00  0.00     0.004 A 
ATOM     29  C   UNL A   1      33.549  18.083  23.741  1.00  0.00     0.000 A 
ATOM     30  C   UNL A   1      32.118  19.825  22.926  1.00  0.00     0.008 A 
ATOM     31  C   UNL A   1      32.569  18.494  22.865  1.00  0.00     0.001 A 
ENDBRANCH  18  25
ENDBRANCH  16  17
ENDBRANCH  13  16
ENDBRANCH   7  12
ENDBRANCH   4   6
ENDBRANCH   3   4
ENDBRANCH   2   3
ENDBRANCH   1   2
BRANCH   1  32
ATOM     32  O   UNL A   1      37.367  23.470  25.124  1.00  0.00    -0.374 OA
BRANCH  32  33
ATOM     33  C   UNL A   1      37.849  22.205  25.528  1.00  0.00     0.202 C 
BRANCH  33  34
ATOM     34  C   UNL A   1      39.104  22.379  26.381  1.00  0.00     0.261 C 
BRANCH  34  35
ATOM     35  O   UNL A   1      40.032  21.311  26.044  1.00  0.00    -0.460 OA
BRANCH  35  36
ATOM     36  C   UNL A   1      40.866  20.837  27.019  1.00  0.00     0.338 C 
ATOM     37  O   UNL A   1      40.599  19.912  27.768  1.00  0.00    -0.246 OA
BRANCH  36  38
ATOM     38  C   UNL A   1      42.112  21.686  27.126  1.00  0.00     0.060 A 
ATOM     39  C   UNL A   1      42.560  22.264  28.319  1.00  0.00     0.016 A 
ATOM     40  C   UNL A   1      42.750  22.100  25.977  1.00  0.00     0.016 A 
ATOM     41  C   UNL A   1      43.460  23.384  28.314  1.00  0.00     0.010 A 
ATOM     42  C   UNL A   1      43.496  23.289  25.988  1.00  0.00     0.010 A 
ATOM     43  C   UNL A   1      43.723  24.096  27.132  1.00  0.00    -0.014 A 
BRANCH  43  44
ATOM     44  C   UNL A   1      44.147  25.672  26.954  1.00  0.00     0.031 A 
ATOM     45  C   UNL A   1      45.600  25.725  26.726  1.00  0.00     0.074 A 
ATOM     46  C   UNL A   1      43.578  26.974  27.004  1.00  0.00     0.049 A 
ATOM     47  N   UNL A   1      46.443  26.192  27.599  1.00  0.00    -0.248 NA
ATOM     48  C   UNL A   1      46.222  24.994  25.613  1.00  0.00     0.031 C 
ATOM     49  C   UNL A   1      44.149  28.221  26.448  1.00  0.00     0.029 A 
ATOM     50  N   UNL A   1      42.306  27.524  27.395  1.00  0.00    -0.354 N 
ATOM     51  C   UNL A   1      47.640  26.102  26.929  1.00  0.00     0.074 A 
ATOM     52  C   UNL A   1      47.470  24.967  26.064  1.00  0.00     0.031 C 
ATOM     53  C   UNL A   1      43.354  29.299  26.684  1.00  0.00     0.029 A 
ATOM     54  C   UNL A   1      42.193  28.912  27.491  1.00  0.00     0.049 A 
ATOM     55  H   UNL A   1      41.540  26.938  27.590  1.00  0.00     0.167 HD
ATOM     56  C   UNL A   1      48.333  27.231  26.581  1.00  0.00     0.034 A 
ATOM     57  C   UNL A   1      41.493  29.640  28.435  1.00  0.00     0.034 A 
ATOM     58  C   UNL A   1      47.636  28.468  26.981  1.00  0.00     0.049 A 
ATOM     59  C   UNL A   1      42.621  30.228  29.291  1.00  0.00     0.074 A 
ATOM     60  C   UNL A   1      47.153  29.552  26.260  1.00  0.00     0.029 A 
ATOM     61  N   UNL A   1      47.133  28.623  28.270  1.00  0.00    -0.354 N 
ATOM     62  N   UNL A   1      43.857  29.896  29.057  1.00  0.00    -0.248 NA
ATOM     63  C   UNL A   1      42.538  31.140  30.430  1.00  0.00     0.031 C 
ATOM     64  C   UNL A   1      46.441  30.400  27.145  1.00  0.00     0.029 A 
ATOM     65  C   UNL A   1      46.463  29.823  28.401  1.00  0.00     0.049 A 
ATOM     66  H   UNL A   1      47.241  27.964  28.993  1.00  0.00     0.167 HD
ATOM     67  C   UNL A   1      44.717  30.520  29.885  1.00  0.00     0.074 A 
ATOM     68  C   UNL A   1      43.840  31.262  30.774  1.00  0.00     0.031 C 
ATOM     69  C   UNL A   1      46.055  30.315  29.710  1.00  0.00     0.034 A 
BRANCH  56  70
ATOM     70  C   UNL A   1      49.439  27.234  25.526  1.00  0.00     0.023 A 
ATOM     71  C   UNL A   1      49.084  27.504  24.194  1.00  0.00     0.031 A 
ATOM     72  C   UNL A   1      50.822  27.014  25.726  1.00  0.00     0.131 A 
ATOM     73  C   UNL A   1      50.013  27.438  23.143  1.00  0.00     0.055 A 
ATOM     74  C   UNL A   1      51.746  26.901  24.679  1.00  0.00     0.041 A 
ATOM     75  F   UNL A   1      51.380  26.978  26.942  1.00  0.00    -0.206 F 
ATOM     76  C   UNL A   1      51.343  27.110  23.374  1.00  0.00     0.022 A 
BRANCH  73  77
ATOM     77  S   UNL A   1      49.450  27.841  21.474  1.00  0.00     0.124 S 
ATOM     78  O   UNL A   1      50.171  26.862  20.668  1.00  0.00    -0.237 OA
ATOM     79  O   UNL A   1      48.006  27.657  21.578  1.00  0.00    -0.237 OA
ATOM     80  O   UNL A   1      49.881  29.227  21.301  1.00  0.00    -0.744 OA
ENDBRANCH  73  77
ENDBRANCH  56  70
BRANCH  57  81
ATOM     81  C   UNL A   1      40.113  29.233  29.003  1.00  0.00     0.023 A 
ATOM     82  C   UNL A   1      39.785  29.154  30.393  1.00  0.00     0.031 A 
ATOM     83  C   UNL A   1      39.020  29.005  28.159  1.00  0.00     0.131 A 
ATOM     84  C   UNL A   1      38.418  29.091  30.843  1.00  0.00     0.055 A 
ATOM     85  C   UNL A   1      37.679  29.054  28.593  1.00  0.00     0.041 A 
ATOM     86  F   UNL A   1      39.228  28.718  26.870  1.00  0.00    -0.206 F 
ATOM     87  C   UNL A   1      37.368  29.164  29.935  1.00  0.00     0.022 A 
BRANCH  84  88
ATOM     88  S   UNL A   1      37.926  29.132  32.627  1.00  0.00     0.124 S 
ATOM     89  O   UNL A   1      39.078  29.775  33.252  1.00  0.00    -0.237 OA
ATOM     90  O   UNL A   1      36.693  29.915  32.613  1.00  0.00    -0.237 OA
ATOM     91  O   UNL A   1      37.767  27.721  32.985  1.00  0.00    -0.744 OA
ENDBRANCH  84  88
ENDBRANCH  57  81
BRANCH  69  92
ATOM     92  C   UNL A   1      47.131  30.691  30.673  1.00  0.00     0.023 A 
ATOM     93  C   UNL A   1      47.618  31.992  30.756  1.00  0.00     0.031 A 
ATOM     94  C   UNL A   1      47.670  29.754  31.592  1.00  0.00     0.131 A 
ATOM     95  C   UNL A   1      48.685  32.292  31.608  1.00  0.00     0.055 A 
ATOM     96  C   UNL A   1      48.651  30.083  32.519  1.00  0.00     0.041 A 
ATOM     97  F   UNL A   1      47.273  28.474  31.635  1.00  0.00    -0.206 F 
ATOM     98  C   UNL A   1      49.193  31.356  32.508  1.00  0.00     0.022 A 
BRANCH  95  99
ATOM     99  S   UNL A   1      49.473  33.898  31.396  1.00  0.00     0.124 S 
ATOM    100  O   UNL A   1      48.318  34.793  31.353  1.00  0.00    -0.237 OA
ATOM    101  O   UNL A   1      50.305  33.998  32.590  1.00  0.00    -0.237 OA
ATOM    102  O   UNL A   1      50.200  33.759  30.136  1.00  0.00    -0.744 OA
ENDBRANCH  95  99
ENDBRANCH  69  92
ENDBRANCH  43  44
ENDBRANCH  36  38
ENDBRANCH  35  36
ENDBRANCH  34  35
ENDBRANCH  33  34
ENDBRANCH  32  33
ENDBRANCH   1  32
TORSDOF 21
ENDMDL
MODEL 3
REMARK VINA RESULT:     -12.0      4.724      9.211
REMARK SMILES Cc1ccccc1/C=C1\SC(=O)N(CC(=O)Nc2ccccc2C(=O)OCCOCCOC(=O)c2ccc(-c3c4nc(c(-c5cc(S(=O)(=O)[O-])ccc5F)c5ccc([nH]5)c(-c5cc(S(=O)(=O)[O-])ccc5F)c5nc(c(-c6cc(S(=O)(=O)[O-])ccc6F)c6ccc3[nH]6)C=C5)C=C4)cc2)C1=O
REMARK SMILES IDX 28 1 27 2 26 3 24 4 25 5 23 6 18 7 19 8 20 9 22 10 21 11
REMARK SMILES IDX 17 12 15 13 16 14 14 16 13 17 8 18 9 19 10 20 98 21 11 22
REMARK SMILES IDX 99 23 12 24 7 25 1 26 2 27 3 28 4 29 6 30 5 31 29 32 30 33
REMARK SMILES IDX 31 34 32 35 33 36 34 37 35 38 36 39 97 40 37 41 96 42 38 43
REMARK SMILES IDX 39 44 40 45 90 46 41 47 95 48 89 49 91 50 42 51 94 52 88 53
REMARK SMILES IDX 87 54 43 56 75 57 55 58 74 59 56 60 59 61 73 62 92 63 57 64
REMARK SMILES IDX 58 65 72 67 93 68 60 69 44 70 45 71 53 72 46 73 52 74 54 75
REMARK SMILES IDX 51 76 47 77 48 78 49 79 50 80 76 81 77 82 85 83 78 84 84 85
REMARK SMILES IDX 86 86 83 87 79 88 80 89 81 90 82 91 61 92 62 93 70 94 63 95
REMARK SMILES IDX 69 96 71 97 68 98 64 99 65 100 66 101 67 102
REMARK H PARENT 17 15 91 55 59 66
REMARK Flexibility Score: inf
ROOT
ATOM      1  C   UNL A   1      35.369  29.856  27.693  1.00  0.00     0.202 C 
ENDROOT
BRANCH   1   2
ATOM      2  C   UNL A   1      33.982  29.075  27.548  1.00  0.00     0.261 C 
BRANCH   2   3
ATOM      3  O   UNL A   1      32.369  29.417  26.331  1.00  0.00    -0.460 OA
BRANCH   3   4
ATOM      4  C   UNL A   1      31.700  29.355  25.009  1.00  0.00     0.340 C 
ATOM      5  O   UNL A   1      30.801  30.119  24.691  1.00  0.00    -0.246 OA
BRANCH   4   6
ATOM      6  C   UNL A   1      32.255  28.599  23.885  1.00  0.00     0.083 A 
ATOM      7  C   UNL A   1      31.679  27.351  23.540  1.00  0.00     0.055 A 
ATOM      8  C   UNL A   1      32.302  26.542  22.593  1.00  0.00     0.027 A 
ATOM      9  C   UNL A   1      33.443  27.007  21.948  1.00  0.00     0.002 A 
ATOM     10  C   UNL A   1      33.450  29.011  23.318  1.00  0.00     0.018 A 
ATOM     11  C   UNL A   1      34.019  28.228  22.318  1.00  0.00     0.001 A 
BRANCH   7  12
ATOM     12  N   UNL A   1      30.467  26.868  24.061  1.00  0.00    -0.324 N 
ATOM     13  C   UNL A   1      30.301  26.193  25.241  1.00  0.00     0.244 C 
ATOM     14  O   UNL A   1      29.154  25.923  25.616  1.00  0.00    -0.273 OA
ATOM     15  H   UNL A   1      29.657  27.031  23.525  1.00  0.00     0.170 HD
BRANCH  13  16
ATOM     16  C   UNL A   1      31.491  26.062  26.203  1.00  0.00     0.230 C 
BRANCH  16  17
ATOM     17  N   UNL A   1      32.275  24.834  26.199  1.00  0.00    -0.259 N 
ATOM     18  C   UNL A   1      36.093  22.648  25.476  1.00  0.00     0.029 C 
ATOM     19  C   UNL A   1      34.844  23.098  25.831  1.00  0.00     0.083 C 
ATOM     20  S   UNL A   1      33.466  21.806  27.035  1.00  0.00    -0.022 SA
ATOM     21  C   UNL A   1      33.946  24.882  25.535  1.00  0.00     0.268 C 
ATOM     22  C   UNL A   1      31.752  23.354  27.014  1.00  0.00     0.294 C 
ATOM     23  O   UNL A   1      34.382  25.993  25.274  1.00  0.00    -0.268 OA
ATOM     24  O   UNL A   1      30.650  23.086  27.462  1.00  0.00    -0.261 OA
BRANCH  18  25
ATOM     25  C   UNL A   1      37.275  21.708  25.399  1.00  0.00    -0.021 A 
ATOM     26  C   UNL A   1      38.887  23.229  26.605  1.00  0.00     0.045 C 
ATOM     27  C   UNL A   1      38.557  21.964  25.884  1.00  0.00    -0.044 A 
ATOM     28  C   UNL A   1      39.571  20.967  25.795  1.00  0.00     0.004 A 
ATOM     29  C   UNL A   1      39.306  19.672  25.346  1.00  0.00     0.000 A 
ATOM     30  C   UNL A   1      37.013  20.329  25.101  1.00  0.00     0.008 A 
ATOM     31  C   UNL A   1      38.001  19.330  25.062  1.00  0.00     0.001 A 
ENDBRANCH  18  25
ENDBRANCH  16  17
ENDBRANCH  13  16
ENDBRANCH   7  12
ENDBRANCH   4   6
ENDBRANCH   3   4
ENDBRANCH   2   3
ENDBRANCH   1   2
BRANCH   1  32
ATOM     32  O   UNL A   1      35.163  31.197  27.262  1.00  0.00    -0.374 OA
BRANCH  32  33
ATOM     33  C   UNL A   1      35.482  32.186  28.219  1.00  0.00     0.202 C 
BRANCH  33  34
ATOM     34  C   UNL A   1      34.200  32.841  28.732  1.00  0.00     0.261 C 
BRANCH  34  35
ATOM     35  O   UNL A   1      34.142  32.653  30.173  1.00  0.00    -0.460 OA
BRANCH  35  36
ATOM     36  C   UNL A   1      34.277  33.748  30.981  1.00  0.00     0.338 C 
ATOM     37  O   UNL A   1      33.530  34.713  30.968  1.00  0.00    -0.246 OA
BRANCH  36  38
ATOM     38  C   UNL A   1      35.539  33.661  31.808  1.00  0.00     0.060 A 
ATOM     39  C   UNL A   1      36.594  34.575  31.718  1.00  0.00     0.016 A 
ATOM     40  C   UNL A   1      35.786  32.524  32.548  1.00  0.00     0.016 A 
ATOM     41  C   UNL A   1      37.915  34.238  32.170  1.00  0.00     0.010 A 
ATOM     42  C   UNL A   1      37.110  32.157  32.834  1.00  0.00     0.010 A 
ATOM     43  C   UNL A   1      38.257  32.911  32.480  1.00  0.00    -0.014 A 
BRANCH  43  44
ATOM     44  C   UNL A   1      39.726  32.182  32.394  1.00  0.00     0.031 A 
ATOM     45  C   UNL A   1      39.579  30.966  31.579  1.00  0.00     0.074 A 
ATOM     46  C   UNL A   1      41.050  32.319  32.892  1.00  0.00     0.049 A 
ATOM     47  N   UNL A   1      39.649  29.764  32.070  1.00  0.00    -0.248 NA
ATOM     48  C   UNL A   1      39.060  31.029  30.205  1.00  0.00     0.031 C 
ATOM     49  C   UNL A   1      42.278  31.690  32.354  1.00  0.00     0.029 A 
ATOM     50  N   UNL A   1      41.697  33.152  33.872  1.00  0.00    -0.354 N 
ATOM     51  C   UNL A   1      39.525  28.979  30.948  1.00  0.00     0.074 A 
ATOM     52  C   UNL A   1      38.698  29.760  30.068  1.00  0.00     0.031 C 
ATOM     53  C   UNL A   1      43.382  32.019  33.079  1.00  0.00     0.029 A 
ATOM     54  C   UNL A   1      43.011  32.847  34.230  1.00  0.00     0.049 A 
ATOM     55  H   UNL A   1      41.225  33.915  34.279  1.00  0.00     0.167 HD
ATOM     56  C   UNL A   1      40.564  28.196  30.524  1.00  0.00     0.034 A 
ATOM     57  C   UNL A   1      43.584  32.916  35.486  1.00  0.00     0.034 A 
ATOM     58  C   UNL A   1      41.759  28.332  31.377  1.00  0.00     0.049 A 
ATOM     59  C   UNL A   1      43.724  31.435  35.860  1.00  0.00     0.074 A 
ATOM     60  C   UNL A   1      43.060  28.743  31.117  1.00  0.00     0.029 A 
ATOM     61  N   UNL A   1      41.665  28.250  32.764  1.00  0.00    -0.354 N 
ATOM     62  N   UNL A   1      43.250  30.516  35.069  1.00  0.00    -0.248 NA
ATOM     63  C   UNL A   1      44.312  30.835  37.056  1.00  0.00     0.031 C 
ATOM     64  C   UNL A   1      43.765  28.814  32.345  1.00  0.00     0.029 A 
ATOM     65  C   UNL A   1      42.889  28.474  33.360  1.00  0.00     0.049 A 
ATOM     66  H   UNL A   1      40.834  28.057  33.254  1.00  0.00     0.167 HD
ATOM     67  C   UNL A   1      43.478  29.275  35.539  1.00  0.00     0.074 A 
ATOM     68  C   UNL A   1      44.110  29.518  36.824  1.00  0.00     0.031 C 
ATOM     69  C   UNL A   1      43.092  28.209  34.778  1.00  0.00     0.034 A 
BRANCH  56  70
ATOM     70  C   UNL A   1      40.643  27.613  29.113  1.00  0.00     0.023 A 
ATOM     71  C   UNL A   1      41.608  28.132  28.234  1.00  0.00     0.031 A 
ATOM     72  C   UNL A   1      39.860  26.570  28.566  1.00  0.00     0.131 A 
ATOM     73  C   UNL A   1      41.696  27.726  26.893  1.00  0.00     0.055 A 
ATOM     74  C   UNL A   1      39.909  26.192  27.217  1.00  0.00     0.041 A 
ATOM     75  F   UNL A   1      39.061  25.798  29.312  1.00  0.00    -0.206 F 
ATOM     76  C   UNL A   1      40.831  26.775  26.368  1.00  0.00     0.022 A 
BRANCH  73  77
ATOM     77  S   UNL A   1      43.001  28.437  25.865  1.00  0.00     0.124 S 
ATOM     78  O   UNL A   1      42.634  27.958  24.537  1.00  0.00    -0.237 OA
ATOM     79  O   UNL A   1      42.844  29.867  26.105  1.00  0.00    -0.237 OA
ATOM     80  O   UNL A   1      44.220  27.852  26.421  1.00  0.00    -0.744 OA
ENDBRANCH  73  77
ENDBRANCH  56  70
BRANCH  57  81
ATOM     81  C   UNL A   1      43.295  34.033  36.516  1.00  0.00     0.023 A 
ATOM     82  C   UNL A   1      42.046  34.717  36.661  1.00  0.00     0.031 A 
ATOM     83  C   UNL A   1      44.242  34.393  37.481  1.00  0.00     0.131 A 
ATOM     84  C   UNL A   1      41.747  35.500  37.832  1.00  0.00     0.055 A 
ATOM     85  C   UNL A   1      43.917  35.066  38.677  1.00  0.00     0.041 A 
ATOM     86  F   UNL A   1      45.532  34.102  37.283  1.00  0.00    -0.206 F 
ATOM     87  C   UNL A   1      42.647  35.567  38.890  1.00  0.00     0.022 A 
BRANCH  84  88
ATOM     88  S   UNL A   1      40.101  36.288  38.142  1.00  0.00     0.124 S 
ATOM     89  O   UNL A   1      39.735  36.774  36.815  1.00  0.00    -0.237 OA
ATOM     90  O   UNL A   1      39.296  35.184  38.657  1.00  0.00    -0.237 OA
ATOM     91  O   UNL A   1      40.392  37.353  39.104  1.00  0.00    -0.744 OA
ENDBRANCH  84  88
ENDBRANCH  57  81
BRANCH  69  92
ATOM     92  C   UNL A   1      43.012  26.791  35.235  1.00  0.00     0.023 A 
ATOM     93  C   UNL A   1      43.872  25.814  34.744  1.00  0.00     0.031 A 
ATOM     94  C   UNL A   1      42.094  26.381  36.236  1.00  0.00     0.131 A 
ATOM     95  C   UNL A   1      43.715  24.479  35.128  1.00  0.00     0.055 A 
ATOM     96  C   UNL A   1      42.017  25.074  36.701  1.00  0.00     0.041 A 
ATOM     97  F   UNL A   1      41.226  27.226  36.810  1.00  0.00    -0.206 F 
ATOM     98  C   UNL A   1      42.810  24.101  36.120  1.00  0.00     0.022 A 
BRANCH  95  99
ATOM     99  S   UNL A   1      44.629  23.245  34.188  1.00  0.00     0.124 S 
ATOM    100  O   UNL A   1      45.160  22.393  35.251  1.00  0.00    -0.237 OA
ATOM    101  O   UNL A   1      43.588  22.645  33.360  1.00  0.00    -0.237 OA
ATOM    102  O   UNL A   1      45.627  24.032  33.467  1.00  0.00    -0.744 OA
ENDBRANCH  95  99
ENDBRANCH  69  92
ENDBRANCH  43  44
ENDBRANCH  36  38
ENDBRANCH  35  36
ENDBRANCH  34  35
ENDBRANCH  33  34
ENDBRANCH  32  33
ENDBRANCH   1  32
TORSDOF 21
ENDMDL
