MODEL 1
REMARK VINA RESULT:      -9.4      0.000      0.000
REMARK SMILES Cc1nc([C@H](C)[NH2+]CC(=O)OCCOCCOC(=O)c2ccc(-c3c4nc(c(-c5cc(S(=O)(=O)[O-])ccc5F)c5ccc([nH]5)c(-c5cc(S(=O)(=O)[O-])ccc5F)c5nc(c(-c6cc(S(=O)(=O)[O-])ccc6F)c6ccc3[nH]6)C=C5)C=C4)cc2)cs1
REMARK SMILES IDX 14 1 13 2 12 3 11 4 9 5 10 6 8 7 7 8 5 11 6 12 4 13 1 14
REMARK SMILES IDX 2 15 3 16 84 17 83 18 15 19 16 20 17 21 18 22 19 23 20 24
REMARK SMILES IDX 21 25 82 26 22 27 81 28 23 29 24 30 25 31 75 32 26 33 80 34
REMARK SMILES IDX 74 35 76 36 27 37 79 38 73 39 72 40 28 42 60 43 40 44 59 45
REMARK SMILES IDX 41 46 44 47 58 48 77 49 42 50 43 51 57 53 78 54 45 55 29 56
REMARK SMILES IDX 30 57 38 58 31 59 37 60 39 61 36 62 32 63 33 64 34 65 35 66
REMARK SMILES IDX 61 67 62 68 70 69 63 70 69 71 71 72 68 73 64 74 65 75 66 76
REMARK SMILES IDX 67 77 46 78 47 79 55 80 48 81 54 82 56 83 53 84 49 85 50 86
REMARK SMILES IDX 51 87 52 88
REMARK H PARENT 7 9 7 10 76 41 44 52
REMARK Flexibility Score: inf
ROOT
ATOM      1  O   UNL A   1      42.946  20.884  25.692  1.00  0.00    -0.374 OA
ENDROOT
BRANCH   1   2
ATOM      2  C   UNL A   1      42.474  19.606  26.126  1.00  0.00     0.202 C 
BRANCH   2   3
ATOM      3  C   UNL A   1      43.415  18.434  25.801  1.00  0.00     0.261 C 
BRANCH   3   4
ATOM      4  O   UNL A   1      44.367  18.762  24.774  1.00  0.00    -0.459 OA
BRANCH   4   5
ATOM      5  C   UNL A   1      45.685  18.627  25.061  1.00  0.00     0.361 C 
ATOM      6  O   UNL A   1      46.206  17.607  25.497  1.00  0.00    -0.245 OA
BRANCH   5   7
ATOM      7  C   UNL A   1      46.458  19.924  24.806  1.00  0.00     0.385 C 
BRANCH   7   8
ATOM      8  N   UNL A   1      45.841  21.117  25.401  1.00  0.00    -0.330 N 
ATOM      9  H   UNL A   1      44.832  20.968  25.415  1.00  0.00     0.347 HD
ATOM     10  H   UNL A   1      46.272  21.209  26.320  1.00  0.00     0.347 HD
BRANCH   8  11
ATOM     11  C   UNL A   1      46.092  22.398  24.730  1.00  0.00     0.230 C 
ATOM     12  C   UNL A   1      44.990  22.586  23.683  1.00  0.00     0.082 C 
BRANCH  11  13
ATOM     13  C   UNL A   1      46.183  23.593  25.657  1.00  0.00     0.108 A 
ATOM     14  C   UNL A   1      45.987  24.926  29.079  1.00  0.00     0.079 C 
ATOM     15  C   UNL A   1      46.094  24.659  27.616  1.00  0.00     0.090 A 
ATOM     16  N   UNL A   1      45.965  23.481  27.031  1.00  0.00    -0.240 NA
ATOM     17  S   UNL A   1      46.476  25.960  26.567  1.00  0.00    -0.127 S 
ATOM     18  C   UNL A   1      46.432  24.889  25.239  1.00  0.00     0.096 A 
ENDBRANCH  11  13
ENDBRANCH   8  11
ENDBRANCH   7   8
ENDBRANCH   5   7
ENDBRANCH   4   5
ENDBRANCH   3   4
ENDBRANCH   2   3
ENDBRANCH   1   2
BRANCH   1  19
ATOM     19  C   UNL A   1      42.032  21.949  25.979  1.00  0.00     0.202 C 
BRANCH  19  20
ATOM     20  C   UNL A   1      41.510  21.971  27.421  1.00  0.00     0.261 C 
BRANCH  20  21
ATOM     21  O   UNL A   1      40.068  21.850  27.406  1.00  0.00    -0.460 OA
BRANCH  21  22
ATOM     22  C   UNL A   1      39.426  22.725  26.597  1.00  0.00     0.338 C 
ATOM     23  O   UNL A   1      38.722  22.432  25.643  1.00  0.00    -0.246 OA
BRANCH  22  24
ATOM     24  C   UNL A   1      39.523  24.101  27.142  1.00  0.00     0.060 A 
ATOM     25  C   UNL A   1      40.063  25.081  26.305  1.00  0.00     0.016 A 
ATOM     26  C   UNL A   1      39.140  24.440  28.446  1.00  0.00     0.016 A 
ATOM     27  C   UNL A   1      40.182  26.402  26.744  1.00  0.00     0.010 A 
ATOM     28  C   UNL A   1      39.307  25.762  28.904  1.00  0.00     0.010 A 
ATOM     29  C   UNL A   1      39.837  26.753  28.058  1.00  0.00    -0.014 A 
BRANCH  29  30
ATOM     30  C   UNL A   1      40.264  28.091  28.562  1.00  0.00     0.031 A 
ATOM     31  C   UNL A   1      41.734  28.421  28.517  1.00  0.00     0.074 A 
ATOM     32  C   UNL A   1      39.386  29.040  28.942  1.00  0.00     0.049 A 
ATOM     33  N   UNL A   1      42.349  29.538  28.807  1.00  0.00    -0.248 NA
ATOM     34  C   UNL A   1      42.623  27.344  28.053  1.00  0.00     0.031 C 
ATOM     35  C   UNL A   1      37.934  28.893  28.943  1.00  0.00     0.029 A 
ATOM     36  N   UNL A   1      39.588  30.330  29.380  1.00  0.00    -0.354 N 
ATOM     37  C   UNL A   1      43.692  29.311  28.528  1.00  0.00     0.074 A 
ATOM     38  C   UNL A   1      43.801  27.943  28.065  1.00  0.00     0.031 C 
ATOM     39  C   UNL A   1      37.375  30.046  29.354  1.00  0.00     0.029 A 
ATOM     40  C   UNL A   1      38.427  31.007  29.686  1.00  0.00     0.049 A 
ATOM     41  H   UNL A   1      40.482  30.733  29.466  1.00  0.00     0.167 HD
ATOM     42  C   UNL A   1      44.745  30.156  28.654  1.00  0.00     0.034 A 
ATOM     43  C   UNL A   1      38.239  32.245  30.197  1.00  0.00     0.034 A 
ATOM     44  C   UNL A   1      44.651  31.485  29.199  1.00  0.00     0.049 A 
ATOM     45  C   UNL A   1      39.449  33.111  30.489  1.00  0.00     0.074 A 
ATOM     46  C   UNL A   1      45.669  32.388  29.453  1.00  0.00     0.029 A 
ATOM     47  N   UNL A   1      43.471  32.093  29.607  1.00  0.00    -0.354 N 
ATOM     48  N   UNL A   1      40.717  32.873  30.242  1.00  0.00    -0.248 NA
ATOM     49  C   UNL A   1      39.201  34.410  31.134  1.00  0.00     0.031 C 
ATOM     50  C   UNL A   1      45.114  33.508  30.083  1.00  0.00     0.029 A 
ATOM     51  C   UNL A   1      43.740  33.340  30.149  1.00  0.00     0.049 A 
ATOM     52  H   UNL A   1      42.574  31.696  29.525  1.00  0.00     0.167 HD
ATOM     53  C   UNL A   1      41.410  34.001  30.680  1.00  0.00     0.074 A 
ATOM     54  C   UNL A   1      40.420  34.926  31.188  1.00  0.00     0.031 C 
ATOM     55  C   UNL A   1      42.745  34.252  30.662  1.00  0.00     0.034 A 
BRANCH  42  56
ATOM     56  C   UNL A   1      46.097  29.601  28.285  1.00  0.00     0.023 A 
ATOM     57  C   UNL A   1      46.857  28.844  29.194  1.00  0.00     0.031 A 
ATOM     58  C   UNL A   1      46.669  29.911  27.039  1.00  0.00     0.131 A 
ATOM     59  C   UNL A   1      48.175  28.487  28.872  1.00  0.00     0.055 A 
ATOM     60  C   UNL A   1      47.954  29.488  26.696  1.00  0.00     0.041 A 
ATOM     61  F   UNL A   1      46.000  30.658  26.147  1.00  0.00    -0.206 F 
ATOM     62  C   UNL A   1      48.721  28.786  27.621  1.00  0.00     0.022 A 
BRANCH  59  63
ATOM     63  S   UNL A   1      49.222  27.767  30.169  1.00  0.00     0.124 S 
ATOM     64  O   UNL A   1      48.522  28.186  31.380  1.00  0.00    -0.237 OA
ATOM     65  O   UNL A   1      49.170  26.342  29.860  1.00  0.00    -0.237 OA
ATOM     66  O   UNL A   1      50.519  28.405  29.955  1.00  0.00    -0.744 OA
ENDBRANCH  59  63
ENDBRANCH  42  56
BRANCH  43  67
ATOM     67  C   UNL A   1      36.869  32.737  30.554  1.00  0.00     0.023 A 
ATOM     68  C   UNL A   1      35.982  33.235  29.582  1.00  0.00     0.031 A 
ATOM     69  C   UNL A   1      36.470  32.817  31.902  1.00  0.00     0.131 A 
ATOM     70  C   UNL A   1      34.771  33.833  29.976  1.00  0.00     0.055 A 
ATOM     71  C   UNL A   1      35.241  33.360  32.282  1.00  0.00     0.041 A 
ATOM     72  F   UNL A   1      37.280  32.377  32.878  1.00  0.00    -0.206 F 
ATOM     73  C   UNL A   1      34.390  33.887  31.318  1.00  0.00     0.022 A 
BRANCH  70  74
ATOM     74  S   UNL A   1      33.742  34.643  28.717  1.00  0.00     0.124 S 
ATOM     75  O   UNL A   1      33.475  33.543  27.798  1.00  0.00    -0.237 OA
ATOM     76  O   UNL A   1      32.608  35.111  29.507  1.00  0.00    -0.237 OA
ATOM     77  O   UNL A   1      34.611  35.696  28.194  1.00  0.00    -0.744 OA
ENDBRANCH  70  74
ENDBRANCH  43  67
BRANCH  55  78
ATOM     78  C   UNL A   1      43.208  35.597  31.170  1.00  0.00     0.023 A 
ATOM     79  C   UNL A   1      43.391  35.851  32.541  1.00  0.00     0.031 A 
ATOM     80  C   UNL A   1      43.485  36.636  30.264  1.00  0.00     0.131 A 
ATOM     81  C   UNL A   1      43.793  37.126  32.969  1.00  0.00     0.055 A 
ATOM     82  C   UNL A   1      43.937  37.886  30.691  1.00  0.00     0.041 A 
ATOM     83  F   UNL A   1      43.329  36.451  28.943  1.00  0.00    -0.206 F 
ATOM     84  C   UNL A   1      44.083  38.139  32.051  1.00  0.00     0.022 A 
BRANCH  81  85
ATOM     85  S   UNL A   1      43.864  37.470  34.749  1.00  0.00     0.124 S 
ATOM     86  O   UNL A   1      42.599  36.914  35.217  1.00  0.00    -0.237 OA
ATOM     87  O   UNL A   1      45.067  36.752  35.159  1.00  0.00    -0.237 OA
ATOM     88  O   UNL A   1      43.962  38.928  34.814  1.00  0.00    -0.744 OA
ENDBRANCH  81  85
ENDBRANCH  55  78
ENDBRANCH  29  30
ENDBRANCH  22  24
ENDBRANCH  21  22
ENDBRANCH  20  21
ENDBRANCH  19  20
ENDBRANCH   1  19
TORSDOF 20
ENDMDL
MODEL 2
REMARK VINA RESULT:      -8.7      4.212      6.891
REMARK SMILES Cc1nc([C@H](C)[NH2+]CC(=O)OCCOCCOC(=O)c2ccc(-c3c4nc(c(-c5cc(S(=O)(=O)[O-])ccc5F)c5ccc([nH]5)c(-c5cc(S(=O)(=O)[O-])ccc5F)c5nc(c(-c6cc(S(=O)(=O)[O-])ccc6F)c6ccc3[nH]6)C=C5)C=C4)cc2)cs1
REMARK SMILES IDX 14 1 13 2 12 3 11 4 9 5 10 6 8 7 7 8 5 11 6 12 4 13 1 14
REMARK SMILES IDX 2 15 3 16 84 17 83 18 15 19 16 20 17 21 18 22 19 23 20 24
REMARK SMILES IDX 21 25 82 26 22 27 81 28 23 29 24 30 25 31 75 32 26 33 80 34
REMARK SMILES IDX 74 35 76 36 27 37 79 38 73 39 72 40 28 42 60 43 40 44 59 45
REMARK SMILES IDX 41 46 44 47 58 48 77 49 42 50 43 51 57 53 78 54 45 55 29 56
REMARK SMILES IDX 30 57 38 58 31 59 37 60 39 61 36 62 32 63 33 64 34 65 35 66
REMARK SMILES IDX 61 67 62 68 70 69 63 70 69 71 71 72 68 73 64 74 65 75 66 76
REMARK SMILES IDX 67 77 46 78 47 79 55 80 48 81 54 82 56 83 53 84 49 85 50 86
REMARK SMILES IDX 51 87 52 88
REMARK H PARENT 7 9 7 10 76 41 44 52
REMARK Flexibility Score: inf
ROOT
ATOM      1  O   UNL A   1      38.037  21.303  25.294  1.00  0.00    -0.374 OA
ENDROOT
BRANCH   1   2
ATOM      2  C   UNL A   1      36.999  21.976  24.576  1.00  0.00     0.202 C 
BRANCH   2   3
ATOM      3  C   UNL A   1      36.237  23.030  25.397  1.00  0.00     0.261 C 
BRANCH   3   4
ATOM      4  O   UNL A   1      34.933  22.577  25.797  1.00  0.00    -0.459 OA
BRANCH   4   5
ATOM      5  C   UNL A   1      34.137  22.015  24.854  1.00  0.00     0.361 C 
ATOM      6  O   UNL A   1      33.982  20.809  24.695  1.00  0.00    -0.245 OA
BRANCH   5   7
ATOM      7  C   UNL A   1      33.468  23.073  23.972  1.00  0.00     0.385 C 
BRANCH   7   8
ATOM      8  N   UNL A   1      33.407  24.410  24.579  1.00  0.00    -0.330 N 
ATOM      9  H   UNL A   1      34.000  24.399  25.409  1.00  0.00     0.347 HD
ATOM     10  H   UNL A   1      33.709  25.049  23.845  1.00  0.00     0.347 HD
BRANCH   8  11
ATOM     11  C   UNL A   1      32.081  24.892  24.987  1.00  0.00     0.230 C 
ATOM     12  C   UNL A   1      32.139  25.162  26.493  1.00  0.00     0.082 C 
BRANCH  11  13
ATOM     13  C   UNL A   1      31.587  26.105  24.226  1.00  0.00     0.108 A 
ATOM     14  C   UNL A   1      30.654  29.663  24.267  1.00  0.00     0.079 C 
ATOM     15  C   UNL A   1      30.940  28.228  23.982  1.00  0.00     0.090 A 
ATOM     16  N   UNL A   1      31.375  27.334  24.852  1.00  0.00    -0.240 NA
ATOM     17  S   UNL A   1      30.753  27.655  22.376  1.00  0.00    -0.127 S 
ATOM     18  C   UNL A   1      31.254  26.104  22.883  1.00  0.00     0.096 A 
ENDBRANCH  11  13
ENDBRANCH   8  11
ENDBRANCH   7   8
ENDBRANCH   5   7
ENDBRANCH   4   5
ENDBRANCH   3   4
ENDBRANCH   2   3
ENDBRANCH   1   2
BRANCH   1  19
ATOM     19  C   UNL A   1      38.146  19.915  24.954  1.00  0.00     0.202 C 
BRANCH  19  20
ATOM     20  C   UNL A   1      39.208  19.145  25.749  1.00  0.00     0.261 C 
BRANCH  20  21
ATOM     21  O   UNL A   1      40.522  19.508  25.263  1.00  0.00    -0.460 OA
BRANCH  21  22
ATOM     22  C   UNL A   1      41.477  19.619  26.216  1.00  0.00     0.338 C 
ATOM     23  O   UNL A   1      42.279  18.752  26.528  1.00  0.00    -0.246 OA
BRANCH  22  24
ATOM     24  C   UNL A   1      41.559  21.016  26.707  1.00  0.00     0.060 A 
ATOM     25  C   UNL A   1      41.433  22.033  25.756  1.00  0.00     0.016 A 
ATOM     26  C   UNL A   1      41.793  21.348  28.047  1.00  0.00     0.016 A 
ATOM     27  C   UNL A   1      41.494  23.375  26.141  1.00  0.00     0.010 A 
ATOM     28  C   UNL A   1      41.905  22.700  28.425  1.00  0.00     0.010 A 
ATOM     29  C   UNL A   1      41.763  23.725  27.472  1.00  0.00    -0.014 A 
BRANCH  29  30
ATOM     30  C   UNL A   1      42.116  25.145  27.766  1.00  0.00     0.031 A 
ATOM     31  C   UNL A   1      43.460  25.645  27.300  1.00  0.00     0.074 A 
ATOM     32  C   UNL A   1      41.247  26.012  28.321  1.00  0.00     0.049 A 
ATOM     33  N   UNL A   1      43.966  26.850  27.348  1.00  0.00    -0.248 NA
ATOM     34  C   UNL A   1      44.336  24.645  26.668  1.00  0.00     0.031 C 
ATOM     35  C   UNL A   1      39.882  25.691  28.731  1.00  0.00     0.029 A 
ATOM     36  N   UNL A   1      41.374  27.351  28.616  1.00  0.00    -0.354 N 
ATOM     37  C   UNL A   1      45.205  26.762  26.723  1.00  0.00     0.074 A 
ATOM     38  C   UNL A   1      45.379  25.382  26.323  1.00  0.00     0.031 C 
ATOM     39  C   UNL A   1      39.296  26.800  29.216  1.00  0.00     0.029 A 
ATOM     40  C   UNL A   1      40.252  27.908  29.193  1.00  0.00     0.049 A 
ATOM     41  H   UNL A   1      42.192  27.866  28.430  1.00  0.00     0.167 HD
ATOM     42  C   UNL A   1      46.124  27.736  26.508  1.00  0.00     0.034 A 
ATOM     43  C   UNL A   1      40.034  29.155  29.668  1.00  0.00     0.034 A 
ATOM     44  C   UNL A   1      45.991  29.088  26.985  1.00  0.00     0.049 A 
ATOM     45  C   UNL A   1      41.144  30.184  29.568  1.00  0.00     0.074 A 
ATOM     46  C   UNL A   1      46.903  30.127  26.899  1.00  0.00     0.029 A 
ATOM     47  N   UNL A   1      44.889  29.583  27.669  1.00  0.00    -0.354 N 
ATOM     48  N   UNL A   1      42.321  30.079  28.995  1.00  0.00    -0.248 NA
ATOM     49  C   UNL A   1      40.896  31.496  30.186  1.00  0.00     0.031 C 
ATOM     50  C   UNL A   1      46.383  31.224  27.596  1.00  0.00     0.029 A 
ATOM     51  C   UNL A   1      45.114  30.898  28.047  1.00  0.00     0.049 A 
ATOM     52  H   UNL A   1      44.067  29.075  27.859  1.00  0.00     0.167 HD
ATOM     53  C   UNL A   1      42.940  31.318  29.163  1.00  0.00     0.074 A 
ATOM     54  C   UNL A   1      42.001  32.159  29.873  1.00  0.00     0.031 C 
ATOM     55  C   UNL A   1      44.173  31.725  28.765  1.00  0.00     0.034 A 
BRANCH  42  56
ATOM     56  C   UNL A   1      47.393  27.318  25.812  1.00  0.00     0.023 A 
ATOM     57  C   UNL A   1      48.505  26.842  26.528  1.00  0.00     0.031 A 
ATOM     58  C   UNL A   1      47.520  27.482  24.421  1.00  0.00     0.131 A 
ATOM     59  C   UNL A   1      49.719  26.620  25.862  1.00  0.00     0.055 A 
ATOM     60  C   UNL A   1      48.710  27.188  23.754  1.00  0.00     0.041 A 
ATOM     61  F   UNL A   1      46.500  27.964  23.694  1.00  0.00    -0.206 F 
ATOM     62  C   UNL A   1      49.823  26.770  24.477  1.00  0.00     0.022 A 
BRANCH  59  63
ATOM     63  S   UNL A   1      51.205  26.287  26.851  1.00  0.00     0.124 S 
ATOM     64  O   UNL A   1      51.226  24.828  26.870  1.00  0.00    -0.237 OA
ATOM     65  O   UNL A   1      52.254  26.932  26.069  1.00  0.00    -0.237 OA
ATOM     66  O   UNL A   1      50.909  26.916  28.136  1.00  0.00    -0.744 OA
ENDBRANCH  59  63
ENDBRANCH  42  56
BRANCH  43  67
ATOM     67  C   UNL A   1      38.754  29.508  30.362  1.00  0.00     0.023 A 
ATOM     68  C   UNL A   1      37.774  30.311  29.749  1.00  0.00     0.031 A 
ATOM     69  C   UNL A   1      38.543  29.133  31.703  1.00  0.00     0.131 A 
ATOM     70  C   UNL A   1      36.661  30.751  30.489  1.00  0.00     0.055 A 
ATOM     71  C   UNL A   1      37.408  29.526  32.414  1.00  0.00     0.041 A 
ATOM     72  F   UNL A   1      39.450  28.384  32.349  1.00  0.00    -0.206 F 
ATOM     73  C   UNL A   1      36.466  30.352  31.813  1.00  0.00     0.022 A 
BRANCH  70  74
ATOM     74  S   UNL A   1      35.520  31.945  29.732  1.00  0.00     0.124 S 
ATOM     75  O   UNL A   1      36.439  32.966  29.245  1.00  0.00    -0.237 OA
ATOM     76  O   UNL A   1      34.862  31.132  28.715  1.00  0.00    -0.237 OA
ATOM     77  O   UNL A   1      34.667  32.353  30.848  1.00  0.00    -0.744 OA
ENDBRANCH  70  74
ENDBRANCH  43  67
BRANCH  55  78
ATOM     78  C   UNL A   1      44.560  33.157  29.052  1.00  0.00     0.023 A 
ATOM     79  C   UNL A   1      44.229  34.207  28.177  1.00  0.00     0.031 A 
ATOM     80  C   UNL A   1      45.262  33.475  30.228  1.00  0.00     0.131 A 
ATOM     81  C   UNL A   1      44.637  35.518  28.470  1.00  0.00     0.055 A 
ATOM     82  C   UNL A   1      45.619  34.788  30.542  1.00  0.00     0.041 A 
ATOM     83  F   UNL A   1      45.605  32.513  31.100  1.00  0.00    -0.206 F 
ATOM     84  C   UNL A   1      45.315  35.816  29.655  1.00  0.00     0.022 A 
BRANCH  81  85
ATOM     85  S   UNL A   1      44.335  36.823  27.246  1.00  0.00     0.124 S 
ATOM     86  O   UNL A   1      45.580  36.821  26.486  1.00  0.00    -0.237 OA
ATOM     87  O   UNL A   1      43.157  36.326  26.543  1.00  0.00    -0.237 OA
ATOM     88  O   UNL A   1      44.110  38.015  28.063  1.00  0.00    -0.744 OA
ENDBRANCH  81  85
ENDBRANCH  55  78
ENDBRANCH  29  30
ENDBRANCH  22  24
ENDBRANCH  21  22
ENDBRANCH  20  21
ENDBRANCH  19  20
ENDBRANCH   1  19
TORSDOF 20
ENDMDL
MODEL 3
REMARK VINA RESULT:      -8.5      4.068      6.530
REMARK SMILES Cc1nc([C@H](C)[NH2+]CC(=O)OCCOCCOC(=O)c2ccc(-c3c4nc(c(-c5cc(S(=O)(=O)[O-])ccc5F)c5ccc([nH]5)c(-c5cc(S(=O)(=O)[O-])ccc5F)c5nc(c(-c6cc(S(=O)(=O)[O-])ccc6F)c6ccc3[nH]6)C=C5)C=C4)cc2)cs1
REMARK SMILES IDX 14 1 13 2 12 3 11 4 9 5 10 6 8 7 7 8 5 11 6 12 4 13 1 14
REMARK SMILES IDX 2 15 3 16 84 17 83 18 15 19 16 20 17 21 18 22 19 23 20 24
REMARK SMILES IDX 21 25 82 26 22 27 81 28 23 29 24 30 25 31 75 32 26 33 80 34
REMARK SMILES IDX 74 35 76 36 27 37 79 38 73 39 72 40 28 42 60 43 40 44 59 45
REMARK SMILES IDX 41 46 44 47 58 48 77 49 42 50 43 51 57 53 78 54 45 55 29 56
REMARK SMILES IDX 30 57 38 58 31 59 37 60 39 61 36 62 32 63 33 64 34 65 35 66
REMARK SMILES IDX 61 67 62 68 70 69 63 70 69 71 71 72 68 73 64 74 65 75 66 76
REMARK SMILES IDX 67 77 46 78 47 79 55 80 48 81 54 82 56 83 53 84 49 85 50 86
REMARK SMILES IDX 51 87 52 88
REMARK H PARENT 7 9 7 10 76 41 44 52
REMARK Flexibility Score: inf
ROOT
ATOM      1  O   UNL A   1      38.231  21.514  26.139  1.00  0.00    -0.374 OA
ENDROOT
BRANCH   1   2
ATOM      2  C   UNL A   1      38.022  22.749  25.450  1.00  0.00     0.202 C 
BRANCH   2   3
ATOM      3  C   UNL A   1      36.695  23.450  25.785  1.00  0.00     0.261 C 
BRANCH   3   4
ATOM      4  O   UNL A   1      35.670  23.176  24.815  1.00  0.00    -0.459 OA
BRANCH   4   5
ATOM      5  C   UNL A   1      34.634  24.046  24.719  1.00  0.00     0.361 C 
ATOM      6  O   UNL A   1      34.725  25.201  24.319  1.00  0.00    -0.245 OA
BRANCH   5   7
ATOM      7  C   UNL A   1      33.323  23.423  25.207  1.00  0.00     0.385 C 
BRANCH   7   8
ATOM      8  N   UNL A   1      33.499  22.346  26.190  1.00  0.00    -0.330 N 
ATOM      9  H   UNL A   1      34.446  21.982  26.082  1.00  0.00     0.347 HD
ATOM     10  H   UNL A   1      33.306  22.776  27.094  1.00  0.00     0.347 HD
BRANCH   8  11
ATOM     11  C   UNL A   1      32.574  21.210  26.100  1.00  0.00     0.230 C 
ATOM     12  C   UNL A   1      31.370  21.668  25.273  1.00  0.00     0.082 C 
BRANCH  11  13
ATOM     13  C   UNL A   1      33.181  19.941  25.536  1.00  0.00     0.108 A 
ATOM     14  C   UNL A   1      32.809  16.363  24.767  1.00  0.00     0.079 C 
ATOM     15  C   UNL A   1      33.229  17.776  24.994  1.00  0.00     0.090 A 
ATOM     16  N   UNL A   1      32.487  18.729  25.530  1.00  0.00    -0.240 NA
ATOM     17  S   UNL A   1      34.788  18.265  24.475  1.00  0.00    -0.127 S 
ATOM     18  C   UNL A   1      34.466  19.846  25.033  1.00  0.00     0.096 A 
ENDBRANCH  11  13
ENDBRANCH   8  11
ENDBRANCH   7   8
ENDBRANCH   5   7
ENDBRANCH   4   5
ENDBRANCH   3   4
ENDBRANCH   2   3
ENDBRANCH   1   2
BRANCH   1  19
ATOM     19  C   UNL A   1      38.441  20.405  25.256  1.00  0.00     0.202 C 
BRANCH  19  20
ATOM     20  C   UNL A   1      39.279  19.266  25.850  1.00  0.00     0.261 C 
BRANCH  20  21
ATOM     21  O   UNL A   1      40.610  19.310  25.282  1.00  0.00    -0.460 OA
BRANCH  21  22
ATOM     22  C   UNL A   1      41.611  19.475  26.178  1.00  0.00     0.338 C 
ATOM     23  O   UNL A   1      42.464  18.646  26.458  1.00  0.00    -0.246 OA
BRANCH  22  24
ATOM     24  C   UNL A   1      41.666  20.883  26.641  1.00  0.00     0.060 A 
ATOM     25  C   UNL A   1      41.815  21.869  25.662  1.00  0.00     0.016 A 
ATOM     26  C   UNL A   1      41.616  21.251  27.991  1.00  0.00     0.016 A 
ATOM     27  C   UNL A   1      41.869  23.220  26.018  1.00  0.00     0.010 A 
ATOM     28  C   UNL A   1      41.721  22.609  28.352  1.00  0.00     0.010 A 
ATOM     29  C   UNL A   1      41.856  23.604  27.367  1.00  0.00    -0.014 A 
BRANCH  29  30
ATOM     30  C   UNL A   1      42.219  25.014  27.698  1.00  0.00     0.031 A 
ATOM     31  C   UNL A   1      43.591  25.496  27.302  1.00  0.00     0.074 A 
ATOM     32  C   UNL A   1      41.339  25.888  28.225  1.00  0.00     0.049 A 
ATOM     33  N   UNL A   1      44.115  26.691  27.392  1.00  0.00    -0.248 NA
ATOM     34  C   UNL A   1      44.479  24.490  26.696  1.00  0.00     0.031 C 
ATOM     35  C   UNL A   1      39.952  25.585  28.566  1.00  0.00     0.029 A 
ATOM     36  N   UNL A   1      41.475  27.220  28.545  1.00  0.00    -0.354 N 
ATOM     37  C   UNL A   1      45.380  26.590  26.823  1.00  0.00     0.074 A 
ATOM     38  C   UNL A   1      45.549  25.213  26.411  1.00  0.00     0.031 C 
ATOM     39  C   UNL A   1      39.363  26.698  29.040  1.00  0.00     0.029 A 
ATOM     40  C   UNL A   1      40.338  27.789  29.078  1.00  0.00     0.049 A 
ATOM     41  H   UNL A   1      42.310  27.722  28.405  1.00  0.00     0.167 HD
ATOM     42  C   UNL A   1      46.324  27.550  26.665  1.00  0.00     0.034 A 
ATOM     43  C   UNL A   1      40.119  29.033  29.561  1.00  0.00     0.034 A 
ATOM     44  C   UNL A   1      46.192  28.898  27.156  1.00  0.00     0.049 A 
ATOM     45  C   UNL A   1      41.250  30.043  29.528  1.00  0.00     0.074 A 
ATOM     46  C   UNL A   1      47.125  29.921  27.128  1.00  0.00     0.029 A 
ATOM     47  N   UNL A   1      45.068  29.402  27.796  1.00  0.00    -0.354 N 
ATOM     48  N   UNL A   1      42.450  29.925  29.008  1.00  0.00    -0.248 NA
ATOM     49  C   UNL A   1      40.996  31.350  30.153  1.00  0.00     0.031 C 
ATOM     50  C   UNL A   1      46.592  31.018  27.816  1.00  0.00     0.029 A 
ATOM     51  C   UNL A   1      45.298  30.708  28.203  1.00  0.00     0.049 A 
ATOM     52  H   UNL A   1      44.230  28.906  27.940  1.00  0.00     0.167 HD
ATOM     53  C   UNL A   1      43.082  31.150  29.223  1.00  0.00     0.074 A 
ATOM     54  C   UNL A   1      42.125  31.997  29.902  1.00  0.00     0.031 C 
ATOM     55  C   UNL A   1      44.338  31.542  28.889  1.00  0.00     0.034 A 
BRANCH  42  56
ATOM     56  C   UNL A   1      47.618  27.120  26.023  1.00  0.00     0.023 A 
ATOM     57  C   UNL A   1      48.659  26.546  26.773  1.00  0.00     0.031 A 
ATOM     58  C   UNL A   1      47.842  27.370  24.658  1.00  0.00     0.131 A 
ATOM     59  C   UNL A   1      49.904  26.312  26.170  1.00  0.00     0.055 A 
ATOM     60  C   UNL A   1      49.060  27.064  24.047  1.00  0.00     0.041 A 
ATOM     61  F   UNL A   1      46.894  27.946  23.903  1.00  0.00    -0.206 F 
ATOM     62  C   UNL A   1      50.104  26.547  24.808  1.00  0.00     0.022 A 
BRANCH  59  63
ATOM     63  S   UNL A   1      51.306  25.844  27.224  1.00  0.00     0.124 S 
ATOM     64  O   UNL A   1      51.921  24.777  26.441  1.00  0.00    -0.237 OA
ATOM     65  O   UNL A   1      52.060  27.089  27.314  1.00  0.00    -0.237 OA
ATOM     66  O   UNL A   1      50.670  25.409  28.466  1.00  0.00    -0.744 OA
ENDBRANCH  59  63
ENDBRANCH  42  56
BRANCH  43  67
ATOM     67  C   UNL A   1      38.814  29.398  30.199  1.00  0.00     0.023 A 
ATOM     68  C   UNL A   1      37.859  30.191  29.537  1.00  0.00     0.031 A 
ATOM     69  C   UNL A   1      38.552  29.046  31.538  1.00  0.00     0.131 A 
ATOM     70  C   UNL A   1      36.720  30.644  30.227  1.00  0.00     0.055 A 
ATOM     71  C   UNL A   1      37.392  29.452  32.199  1.00  0.00     0.041 A 
ATOM     72  F   UNL A   1      39.432  28.307  32.230  1.00  0.00    -0.206 F 
ATOM     73  C   UNL A   1      36.474  30.269  31.548  1.00  0.00     0.022 A 
BRANCH  70  74
ATOM     74  S   UNL A   1      35.610  31.826  29.407  1.00  0.00     0.124 S 
ATOM     75  O   UNL A   1      36.554  32.805  28.881  1.00  0.00    -0.237 OA
ATOM     76  O   UNL A   1      34.941  30.982  28.423  1.00  0.00    -0.237 OA
ATOM     77  O   UNL A   1      34.759  32.304  30.496  1.00  0.00    -0.744 OA
ENDBRANCH  70  74
ENDBRANCH  43  67
BRANCH  55  78
ATOM     78  C   UNL A   1      44.736  32.962  29.215  1.00  0.00     0.023 A 
ATOM     79  C   UNL A   1      45.369  33.297  30.424  1.00  0.00     0.031 A 
ATOM     80  C   UNL A   1      44.490  33.993  28.291  1.00  0.00     0.131 A 
ATOM     81  C   UNL A   1      45.694  34.636  30.698  1.00  0.00     0.055 A 
ATOM     82  C   UNL A   1      44.863  35.314  28.544  1.00  0.00     0.041 A 
ATOM     83  F   UNL A   1      43.888  33.732  27.119  1.00  0.00    -0.206 F 
ATOM     84  C   UNL A   1      45.459  35.643  29.758  1.00  0.00     0.022 A 
BRANCH  81  85
ATOM     85  S   UNL A   1      46.362  35.059  32.331  1.00  0.00     0.124 S 
ATOM     86  O   UNL A   1      47.372  36.058  31.997  1.00  0.00    -0.237 OA
ATOM     87  O   UNL A   1      45.182  35.555  33.032  1.00  0.00    -0.237 OA
ATOM     88  O   UNL A   1      46.889  33.788  32.827  1.00  0.00    -0.744 OA
ENDBRANCH  81  85
ENDBRANCH  55  78
ENDBRANCH  29  30
ENDBRANCH  22  24
ENDBRANCH  21  22
ENDBRANCH  20  21
ENDBRANCH  19  20
ENDBRANCH   1  19
TORSDOF 20
ENDMDL
