MODEL 1
REMARK VINA RESULT:     -10.9      0.000      0.000
REMARK SMILES O=C(OCCOCCOC(=O)c1ccc(S(=O)(=O)NC[C@H]2CCS(=O)(=O)C2)cc1)c1ccc(-c2c3nc(c(-c4cc(S(=O)(=O)[O-])ccc4F)c4ccc([nH]4)c(-c4cc(S(=O)(=O)[O-])ccc4F)c4nc(c(-c5cc(S(=O)(=O)[O-])ccc5F)c5ccc2[nH]5)C=C4)C=C3)cc1
REMARK SMILES IDX 7 1 6 2 5 3 4 4 3 5 2 6 1 7 30 8 31 9 92 10 32 11 91 12
REMARK SMILES IDX 33 13 34 14 35 15 85 16 36 17 90 18 84 19 86 20 37 21 89 22
REMARK SMILES IDX 83 23 82 24 38 26 70 27 50 28 69 29 51 30 54 31 68 32 87 33
REMARK SMILES IDX 52 34 53 35 67 37 88 38 55 39 39 40 40 41 48 42 41 43 47 44
REMARK SMILES IDX 49 45 46 46 42 47 43 48 44 49 45 50 71 51 72 52 80 53 73 54
REMARK SMILES IDX 79 55 81 56 78 57 74 58 75 59 76 60 77 61 56 62 57 63 65 64
REMARK SMILES IDX 58 65 64 66 66 67 63 68 59 69 60 70 61 71 62 72 8 73 9 74
REMARK SMILES IDX 10 75 11 76 12 77 13 78 29 79 14 80 28 81 15 82 16 83 17 84
REMARK SMILES IDX 18 85 19 86 20 88 21 89 22 90 27 91 23 92 24 93 25 94 26 95
REMARK H PARENT 86 25 54 36 19 87
REMARK Flexibility Score: inf
ROOT
ATOM      1  C   UNL A   1      33.083  28.951  23.092  1.00  0.00     0.202 C 
ENDROOT
BRANCH   1   2
ATOM      2  O   UNL A   1      32.610  28.659  24.415  1.00  0.00    -0.374 OA
BRANCH   2   3
ATOM      3  C   UNL A   1      31.410  29.328  24.806  1.00  0.00     0.202 C 
BRANCH   3   4
ATOM      4  C   UNL A   1      31.569  30.276  25.996  1.00  0.00     0.261 C 
BRANCH   4   5
ATOM      5  O   UNL A   1      32.947  30.661  26.138  1.00  0.00    -0.460 OA
BRANCH   5   6
ATOM      6  C   UNL A   1      33.526  31.363  27.140  1.00  0.00     0.338 C 
ATOM      7  O   UNL A   1      32.947  32.366  27.556  1.00  0.00    -0.246 OA
BRANCH   6   8
ATOM      8  C   UNL A   1      34.850  31.013  27.746  1.00  0.00     0.060 A 
ATOM      9  C   UNL A   1      35.882  31.920  27.997  1.00  0.00     0.016 A 
ATOM     10  C   UNL A   1      35.009  29.693  28.204  1.00  0.00     0.016 A 
ATOM     11  C   UNL A   1      37.054  31.530  28.638  1.00  0.00     0.010 A 
ATOM     12  C   UNL A   1      36.164  29.304  28.889  1.00  0.00     0.010 A 
ATOM     13  C   UNL A   1      37.192  30.227  29.106  1.00  0.00    -0.014 A 
BRANCH  13  14
ATOM     14  C   UNL A   1      38.427  29.851  29.823  1.00  0.00     0.031 A 
ATOM     15  C   UNL A   1      38.661  30.390  31.198  1.00  0.00     0.074 A 
ATOM     16  C   UNL A   1      39.283  28.988  29.243  1.00  0.00     0.049 A 
ATOM     17  N   UNL A   1      39.706  30.261  31.967  1.00  0.00    -0.248 NA
ATOM     18  C   UNL A   1      37.565  31.175  31.789  1.00  0.00     0.031 C 
ATOM     19  C   UNL A   1      39.076  28.346  27.942  1.00  0.00     0.029 A 
ATOM     20  N   UNL A   1      40.489  28.496  29.666  1.00  0.00    -0.354 N 
ATOM     21  C   UNL A   1      39.408  30.968  33.126  1.00  0.00     0.074 A 
ATOM     22  C   UNL A   1      38.082  31.522  32.959  1.00  0.00     0.031 C 
ATOM     23  C   UNL A   1      40.122  27.548  27.674  1.00  0.00     0.029 A 
ATOM     24  C   UNL A   1      41.102  27.677  28.745  1.00  0.00     0.049 A 
ATOM     25  H   UNL A   1      40.880  28.707  30.545  1.00  0.00     0.167 HD
ATOM     26  C   UNL A   1      40.189  31.144  34.218  1.00  0.00     0.034 A 
ATOM     27  C   UNL A   1      42.340  27.142  28.749  1.00  0.00     0.034 A 
ATOM     28  C   UNL A   1      41.512  30.586  34.338  1.00  0.00     0.049 A 
ATOM     29  C   UNL A   1      43.226  27.443  29.934  1.00  0.00     0.074 A 
ATOM     30  C   UNL A   1      42.411  30.703  35.381  1.00  0.00     0.029 A 
ATOM     31  N   UNL A   1      42.132  29.813  33.361  1.00  0.00    -0.354 N 
ATOM     32  N   UNL A   1      42.944  28.128  31.020  1.00  0.00    -0.248 NA
ATOM     33  C   UNL A   1      44.596  26.919  29.890  1.00  0.00     0.031 C 
ATOM     34  C   UNL A   1      43.596  30.058  35.008  1.00  0.00     0.029 A 
ATOM     35  C   UNL A   1      43.417  29.486  33.757  1.00  0.00     0.049 A 
ATOM     36  H   UNL A   1      41.716  29.539  32.511  1.00  0.00     0.167 HD
ATOM     37  C   UNL A   1      44.104  28.117  31.788  1.00  0.00     0.074 A 
ATOM     38  C   UNL A   1      45.074  27.328  31.056  1.00  0.00     0.031 C 
ATOM     39  C   UNL A   1      44.356  28.710  32.982  1.00  0.00     0.034 A 
BRANCH  26  40
ATOM     40  C   UNL A   1      39.665  32.049  35.300  1.00  0.00     0.023 A 
ATOM     41  C   UNL A   1      38.944  31.558  36.403  1.00  0.00     0.031 A 
ATOM     42  C   UNL A   1      39.843  33.439  35.193  1.00  0.00     0.131 A 
ATOM     43  C   UNL A   1      38.381  32.456  37.324  1.00  0.00     0.055 A 
ATOM     44  C   UNL A   1      39.334  34.323  36.145  1.00  0.00     0.041 A 
ATOM     45  F   UNL A   1      40.497  33.963  34.144  1.00  0.00    -0.206 F 
ATOM     46  C   UNL A   1      38.589  33.834  37.213  1.00  0.00     0.022 A 
BRANCH  43  47
ATOM     47  S   UNL A   1      37.276  31.812  38.610  1.00  0.00     0.124 S 
ATOM     48  O   UNL A   1      37.035  30.450  38.137  1.00  0.00    -0.237 OA
ATOM     49  O   UNL A   1      38.087  31.934  39.816  1.00  0.00    -0.237 OA
ATOM     50  O   UNL A   1      36.117  32.701  38.546  1.00  0.00    -0.744 OA
ENDBRANCH  43  47
ENDBRANCH  26  40
BRANCH  27  51
ATOM     51  C   UNL A   1      42.852  26.375  27.574  1.00  0.00     0.023 A 
ATOM     52  C   UNL A   1      42.684  24.985  27.474  1.00  0.00     0.031 A 
ATOM     53  C   UNL A   1      43.584  27.019  26.558  1.00  0.00     0.131 A 
ATOM     54  C   UNL A   1      43.277  24.280  26.412  1.00  0.00     0.055 A 
ATOM     55  C   UNL A   1      44.120  26.323  25.473  1.00  0.00     0.041 A 
ATOM     56  F   UNL A   1      43.790  28.346  26.602  1.00  0.00    -0.206 F 
ATOM     57  C   UNL A   1      43.982  24.942  25.404  1.00  0.00     0.022 A 
BRANCH  54  58
ATOM     58  S   UNL A   1      43.219  22.466  26.427  1.00  0.00     0.124 S 
ATOM     59  O   UNL A   1      42.780  22.191  27.791  1.00  0.00    -0.237 OA
ATOM     60  O   UNL A   1      42.249  22.188  25.373  1.00  0.00    -0.237 OA
ATOM     61  O   UNL A   1      44.595  22.079  26.125  1.00  0.00    -0.744 OA
ENDBRANCH  54  58
ENDBRANCH  27  51
BRANCH  39  62
ATOM     62  C   UNL A   1      45.735  28.510  33.549  1.00  0.00     0.023 A 
ATOM     63  C   UNL A   1      46.079  27.322  34.217  1.00  0.00     0.031 A 
ATOM     64  C   UNL A   1      46.709  29.513  33.421  1.00  0.00     0.131 A 
ATOM     65  C   UNL A   1      47.358  27.184  34.772  1.00  0.00     0.055 A 
ATOM     66  C   UNL A   1      47.997  29.348  33.930  1.00  0.00     0.041 A 
ATOM     67  F   UNL A   1      46.425  30.664  32.792  1.00  0.00    -0.206 F 
ATOM     68  C   UNL A   1      48.323  28.182  34.618  1.00  0.00     0.022 A 
BRANCH  65  69
ATOM     69  S   UNL A   1      47.725  25.701  35.747  1.00  0.00     0.124 S 
ATOM     70  O   UNL A   1      47.583  26.194  37.112  1.00  0.00    -0.237 OA
ATOM     71  O   UNL A   1      46.700  24.765  35.297  1.00  0.00    -0.237 OA
ATOM     72  O   UNL A   1      49.090  25.359  35.349  1.00  0.00    -0.744 OA
ENDBRANCH  65  69
ENDBRANCH  39  62
ENDBRANCH  13  14
ENDBRANCH   6   8
ENDBRANCH   5   6
ENDBRANCH   4   5
ENDBRANCH   3   4
ENDBRANCH   2   3
ENDBRANCH   1   2
BRANCH   1  73
ATOM     73  C   UNL A   1      33.655  27.672  22.470  1.00  0.00     0.261 C 
BRANCH  73  74
ATOM     74  O   UNL A   1      32.542  26.833  22.127  1.00  0.00    -0.460 OA
BRANCH  74  75
ATOM     75  C   UNL A   1      32.911  25.596  21.713  1.00  0.00     0.338 C 
ATOM     76  O   UNL A   1      33.255  25.267  20.591  1.00  0.00    -0.246 OA
BRANCH  75  77
ATOM     77  C   UNL A   1      33.010  24.710  22.896  1.00  0.00     0.060 A 
ATOM     78  C   UNL A   1      34.172  23.940  23.041  1.00  0.00     0.017 A 
ATOM     79  C   UNL A   1      32.010  24.667  23.879  1.00  0.00     0.017 A 
ATOM     80  C   UNL A   1      34.307  23.080  24.127  1.00  0.00     0.022 A 
ATOM     81  C   UNL A   1      32.150  23.821  24.976  1.00  0.00     0.022 A 
ATOM     82  C   UNL A   1      33.276  22.998  25.066  1.00  0.00     0.082 A 
BRANCH  82  83
ATOM     83  S   UNL A   1      33.335  21.725  26.295  1.00  0.00     0.240 S 
ATOM     84  O   UNL A   1      34.656  21.146  26.280  1.00  0.00    -0.207 OA
ATOM     85  O   UNL A   1      32.739  22.251  27.501  1.00  0.00    -0.207 OA
BRANCH  83  86
ATOM     86  N   UNL A   1      32.269  20.549  25.732  1.00  0.00    -0.211 NA
ATOM     87  H   UNL A   1      31.342  20.973  25.783  1.00  0.00     0.141 HD
BRANCH  86  88
ATOM     88  C   UNL A   1      32.340  19.922  24.409  1.00  0.00     0.103 C 
BRANCH  88  89
ATOM     89  C   UNL A   1      32.528  18.411  24.373  1.00  0.00     0.020 C 
ATOM     90  C   UNL A   1      33.566  17.928  23.351  1.00  0.00     0.022 C 
ATOM     91  C   UNL A   1      32.877  17.746  25.705  1.00  0.00     0.142 C 
ATOM     92  C   UNL A   1      33.658  16.414  23.517  1.00  0.00     0.137 C 
ATOM     93  S   UNL A   1      33.415  16.100  25.260  1.00  0.00     0.150 S 
ATOM     94  O   UNL A   1      32.286  15.204  25.410  1.00  0.00    -0.229 OA
ATOM     95  O   UNL A   1      34.694  15.831  25.882  1.00  0.00    -0.229 OA
ENDBRANCH  88  89
ENDBRANCH  86  88
ENDBRANCH  83  86
ENDBRANCH  82  83
ENDBRANCH  75  77
ENDBRANCH  74  75
ENDBRANCH  73  74
ENDBRANCH   1  73
TORSDOF 21
ENDMDL
MODEL 2
REMARK VINA RESULT:     -10.8      2.447      3.054
REMARK SMILES O=C(OCCOCCOC(=O)c1ccc(S(=O)(=O)NC[C@H]2CCS(=O)(=O)C2)cc1)c1ccc(-c2c3nc(c(-c4cc(S(=O)(=O)[O-])ccc4F)c4ccc([nH]4)c(-c4cc(S(=O)(=O)[O-])ccc4F)c4nc(c(-c5cc(S(=O)(=O)[O-])ccc5F)c5ccc2[nH]5)C=C4)C=C3)cc1
REMARK SMILES IDX 7 1 6 2 5 3 4 4 3 5 2 6 1 7 30 8 31 9 92 10 32 11 91 12
REMARK SMILES IDX 33 13 34 14 35 15 85 16 36 17 90 18 84 19 86 20 37 21 89 22
REMARK SMILES IDX 83 23 82 24 38 26 70 27 50 28 69 29 51 30 54 31 68 32 87 33
REMARK SMILES IDX 52 34 53 35 67 37 88 38 55 39 39 40 40 41 48 42 41 43 47 44
REMARK SMILES IDX 49 45 46 46 42 47 43 48 44 49 45 50 71 51 72 52 80 53 73 54
REMARK SMILES IDX 79 55 81 56 78 57 74 58 75 59 76 60 77 61 56 62 57 63 65 64
REMARK SMILES IDX 58 65 64 66 66 67 63 68 59 69 60 70 61 71 62 72 8 73 9 74
REMARK SMILES IDX 10 75 11 76 12 77 13 78 29 79 14 80 28 81 15 82 16 83 17 84
REMARK SMILES IDX 18 85 19 86 20 88 21 89 22 90 27 91 23 92 24 93 25 94 26 95
REMARK H PARENT 86 25 54 36 19 87
REMARK Flexibility Score: inf
ROOT
ATOM      1  C   UNL A   1      32.696  29.296  23.370  1.00  0.00     0.202 C 
ENDROOT
BRANCH   1   2
ATOM      2  O   UNL A   1      32.857  28.947  24.753  1.00  0.00    -0.374 OA
BRANCH   2   3
ATOM      3  C   UNL A   1      31.849  29.437  25.638  1.00  0.00     0.202 C 
BRANCH   3   4
ATOM      4  C   UNL A   1      32.316  30.548  26.581  1.00  0.00     0.261 C 
BRANCH   4   5
ATOM      5  O   UNL A   1      33.444  30.098  27.351  1.00  0.00    -0.460 OA
BRANCH   5   6
ATOM      6  C   UNL A   1      34.526  30.805  27.751  1.00  0.00     0.338 C 
ATOM      7  O   UNL A   1      34.440  32.032  27.777  1.00  0.00    -0.246 OA
BRANCH   6   8
ATOM      8  C   UNL A   1      35.836  30.183  28.127  1.00  0.00     0.060 A 
ATOM      9  C   UNL A   1      37.002  30.244  27.360  1.00  0.00     0.016 A 
ATOM     10  C   UNL A   1      35.919  29.603  29.405  1.00  0.00     0.016 A 
ATOM     11  C   UNL A   1      38.202  29.708  27.818  1.00  0.00     0.010 A 
ATOM     12  C   UNL A   1      37.131  29.104  29.891  1.00  0.00     0.010 A 
ATOM     13  C   UNL A   1      38.278  29.155  29.093  1.00  0.00    -0.014 A 
BRANCH  13  14
ATOM     14  C   UNL A   1      39.574  28.635  29.572  1.00  0.00     0.031 A 
ATOM     15  C   UNL A   1      40.271  29.341  30.691  1.00  0.00     0.074 A 
ATOM     16  C   UNL A   1      40.068  27.508  29.027  1.00  0.00     0.049 A 
ATOM     17  N   UNL A   1      41.446  29.110  31.206  1.00  0.00    -0.248 NA
ATOM     18  C   UNL A   1      39.539  30.452  31.321  1.00  0.00     0.031 C 
ATOM     19  C   UNL A   1      39.400  26.710  27.994  1.00  0.00     0.029 A 
ATOM     20  N   UNL A   1      41.236  26.832  29.261  1.00  0.00    -0.354 N 
ATOM     21  C   UNL A   1      41.611  30.062  32.206  1.00  0.00     0.074 A 
ATOM     22  C   UNL A   1      40.412  30.871  32.226  1.00  0.00     0.031 C 
ATOM     23  C   UNL A   1      40.171  25.656  27.685  1.00  0.00     0.029 A 
ATOM     24  C   UNL A   1      41.415  25.742  28.439  1.00  0.00     0.049 A 
ATOM     25  H   UNL A   1      41.885  27.099  29.952  1.00  0.00     0.167 HD
ATOM     26  C   UNL A   1      42.681  30.242  33.015  1.00  0.00     0.034 A 
ATOM     27  C   UNL A   1      42.490  24.942  28.281  1.00  0.00     0.034 A 
ATOM     28  C   UNL A   1      43.864  29.422  32.952  1.00  0.00     0.049 A 
ATOM     29  C   UNL A   1      43.706  25.234  29.125  1.00  0.00     0.074 A 
ATOM     30  C   UNL A   1      45.021  29.510  33.703  1.00  0.00     0.029 A 
ATOM     31  N   UNL A   1      44.041  28.365  32.065  1.00  0.00    -0.354 N 
ATOM     32  N   UNL A   1      43.862  26.148  30.057  1.00  0.00    -0.248 NA
ATOM     33  C   UNL A   1      44.894  24.406  28.888  1.00  0.00     0.031 C 
ATOM     34  C   UNL A   1      45.921  28.551  33.225  1.00  0.00     0.029 A 
ATOM     35  C   UNL A   1      45.306  27.822  32.218  1.00  0.00     0.049 A 
ATOM     36  H   UNL A   1      43.366  28.048  31.422  1.00  0.00     0.167 HD
ATOM     37  C   UNL A   1      45.166  26.003  30.517  1.00  0.00     0.074 A 
ATOM     38  C   UNL A   1      45.740  24.892  29.785  1.00  0.00     0.031 C 
ATOM     39  C   UNL A   1      45.840  26.724  31.450  1.00  0.00     0.034 A 
BRANCH  26  40
ATOM     40  C   UNL A   1      42.646  31.423  33.949  1.00  0.00     0.023 A 
ATOM     41  C   UNL A   1      41.905  31.410  35.144  1.00  0.00     0.031 A 
ATOM     42  C   UNL A   1      43.324  32.604  33.604  1.00  0.00     0.131 A 
ATOM     43  C   UNL A   1      41.815  32.577  35.922  1.00  0.00     0.055 A 
ATOM     44  C   UNL A   1      43.283  33.741  34.413  1.00  0.00     0.041 A 
ATOM     45  F   UNL A   1      44.021  32.680  32.460  1.00  0.00    -0.206 F 
ATOM     46  C   UNL A   1      42.517  33.735  35.573  1.00  0.00     0.022 A 
BRANCH  43  47
ATOM     47  S   UNL A   1      40.681  32.600  37.336  1.00  0.00     0.124 S 
ATOM     48  O   UNL A   1      41.574  32.247  38.437  1.00  0.00    -0.237 OA
ATOM     49  O   UNL A   1      40.191  33.972  37.328  1.00  0.00    -0.237 OA
ATOM     50  O   UNL A   1      39.688  31.581  36.998  1.00  0.00    -0.744 OA
ENDBRANCH  43  47
ENDBRANCH  26  40
BRANCH  27  51
ATOM     51  C   UNL A   1      42.512  23.880  27.231  1.00  0.00     0.023 A 
ATOM     52  C   UNL A   1      41.936  22.618  27.449  1.00  0.00     0.031 A 
ATOM     53  C   UNL A   1      43.176  24.092  26.007  1.00  0.00     0.131 A 
ATOM     54  C   UNL A   1      42.076  21.607  26.483  1.00  0.00     0.055 A 
ATOM     55  C   UNL A   1      43.260  23.103  25.025  1.00  0.00     0.041 A 
ATOM     56  F   UNL A   1      43.757  25.274  25.743  1.00  0.00    -0.206 F 
ATOM     57  C   UNL A   1      42.721  21.845  25.267  1.00  0.00     0.022 A 
BRANCH  54  58
ATOM     58  S   UNL A   1      41.505  19.931  26.884  1.00  0.00     0.124 S 
ATOM     59  O   UNL A   1      40.631  19.634  25.755  1.00  0.00    -0.237 OA
ATOM     60  O   UNL A   1      42.762  19.190  26.936  1.00  0.00    -0.237 OA
ATOM     61  O   UNL A   1      40.829  20.101  28.168  1.00  0.00    -0.744 OA
ENDBRANCH  54  58
ENDBRANCH  27  51
BRANCH  39  62
ATOM     62  C   UNL A   1      47.263  26.312  31.713  1.00  0.00     0.023 A 
ATOM     63  C   UNL A   1      48.313  26.779  30.905  1.00  0.00     0.031 A 
ATOM     64  C   UNL A   1      47.568  25.447  32.776  1.00  0.00     0.131 A 
ATOM     65  C   UNL A   1      49.622  26.343  31.149  1.00  0.00     0.055 A 
ATOM     66  C   UNL A   1      48.879  25.058  33.045  1.00  0.00     0.041 A 
ATOM     67  F   UNL A   1      46.596  24.976  33.574  1.00  0.00    -0.206 F 
ATOM     68  C   UNL A   1      49.914  25.498  32.224  1.00  0.00     0.022 A 
BRANCH  65  69
ATOM     69  S   UNL A   1      50.934  26.850  30.005  1.00  0.00     0.124 S 
ATOM     70  O   UNL A   1      51.049  28.276  30.293  1.00  0.00    -0.237 OA
ATOM     71  O   UNL A   1      52.058  26.021  30.426  1.00  0.00    -0.237 OA
ATOM     72  O   UNL A   1      50.385  26.525  28.689  1.00  0.00    -0.744 OA
ENDBRANCH  65  69
ENDBRANCH  39  62
ENDBRANCH  13  14
ENDBRANCH   6   8
ENDBRANCH   5   6
ENDBRANCH   4   5
ENDBRANCH   3   4
ENDBRANCH   2   3
ENDBRANCH   1   2
BRANCH   1  73
ATOM     73  C   UNL A   1      33.316  28.198  22.499  1.00  0.00     0.261 C 
BRANCH  73  74
ATOM     74  O   UNL A   1      32.384  27.107  22.462  1.00  0.00    -0.460 OA
BRANCH  74  75
ATOM     75  C   UNL A   1      32.968  25.910  22.209  1.00  0.00     0.338 C 
ATOM     76  O   UNL A   1      33.534  25.569  21.186  1.00  0.00    -0.246 OA
BRANCH  75  77
ATOM     77  C   UNL A   1      32.976  25.113  23.458  1.00  0.00     0.060 A 
ATOM     78  C   UNL A   1      34.117  25.181  24.270  1.00  0.00     0.017 A 
ATOM     79  C   UNL A   1      31.869  24.353  23.861  1.00  0.00     0.017 A 
ATOM     80  C   UNL A   1      34.180  24.439  25.445  1.00  0.00     0.022 A 
ATOM     81  C   UNL A   1      31.922  23.623  25.046  1.00  0.00     0.022 A 
ATOM     82  C   UNL A   1      33.096  23.634  25.805  1.00  0.00     0.082 A 
BRANCH  82  83
ATOM     83  S   UNL A   1      33.279  22.501  27.152  1.00  0.00     0.240 S 
ATOM     84  O   UNL A   1      34.654  22.538  27.588  1.00  0.00    -0.207 OA
ATOM     85  O   UNL A   1      32.178  22.719  28.062  1.00  0.00    -0.207 OA
BRANCH  83  86
ATOM     86  N   UNL A   1      33.013  20.986  26.467  1.00  0.00    -0.211 NA
ATOM     87  H   UNL A   1      32.017  20.954  26.252  1.00  0.00     0.141 HD
BRANCH  86  88
ATOM     88  C   UNL A   1      33.689  20.483  25.267  1.00  0.00     0.103 C 
BRANCH  88  89
ATOM     89  C   UNL A   1      33.222  19.137  24.728  1.00  0.00     0.020 C 
ATOM     90  C   UNL A   1      32.586  19.202  23.332  1.00  0.00     0.022 C 
ATOM     91  C   UNL A   1      34.275  18.030  24.682  1.00  0.00     0.142 C 
ATOM     92  C   UNL A   1      32.254  17.764  22.946  1.00  0.00     0.137 C 
ATOM     93  S   UNL A   1      33.548  16.758  23.658  1.00  0.00     0.150 S 
ATOM     94  O   UNL A   1      32.935  15.776  24.531  1.00  0.00    -0.229 OA
ATOM     95  O   UNL A   1      34.488  16.382  22.624  1.00  0.00    -0.229 OA
ENDBRANCH  88  89
ENDBRANCH  86  88
ENDBRANCH  83  86
ENDBRANCH  82  83
ENDBRANCH  75  77
ENDBRANCH  74  75
ENDBRANCH  73  74
ENDBRANCH   1  73
TORSDOF 21
ENDMDL
MODEL 3
REMARK VINA RESULT:     -10.4      3.837      5.947
REMARK SMILES O=C(OCCOCCOC(=O)c1ccc(S(=O)(=O)NC[C@H]2CCS(=O)(=O)C2)cc1)c1ccc(-c2c3nc(c(-c4cc(S(=O)(=O)[O-])ccc4F)c4ccc([nH]4)c(-c4cc(S(=O)(=O)[O-])ccc4F)c4nc(c(-c5cc(S(=O)(=O)[O-])ccc5F)c5ccc2[nH]5)C=C4)C=C3)cc1
REMARK SMILES IDX 7 1 6 2 5 3 4 4 3 5 2 6 1 7 30 8 31 9 92 10 32 11 91 12
REMARK SMILES IDX 33 13 34 14 35 15 85 16 36 17 90 18 84 19 86 20 37 21 89 22
REMARK SMILES IDX 83 23 82 24 38 26 70 27 50 28 69 29 51 30 54 31 68 32 87 33
REMARK SMILES IDX 52 34 53 35 67 37 88 38 55 39 39 40 40 41 48 42 41 43 47 44
REMARK SMILES IDX 49 45 46 46 42 47 43 48 44 49 45 50 71 51 72 52 80 53 73 54
REMARK SMILES IDX 79 55 81 56 78 57 74 58 75 59 76 60 77 61 56 62 57 63 65 64
REMARK SMILES IDX 58 65 64 66 66 67 63 68 59 69 60 70 61 71 62 72 8 73 9 74
REMARK SMILES IDX 10 75 11 76 12 77 13 78 29 79 14 80 28 81 15 82 16 83 17 84
REMARK SMILES IDX 18 85 19 86 20 88 21 89 22 90 27 91 23 92 24 93 25 94 26 95
REMARK H PARENT 86 25 54 36 19 87
REMARK Flexibility Score: inf
ROOT
ATOM      1  C   UNL A   1      34.359  32.615  28.963  1.00  0.00     0.202 C 
ENDROOT
BRANCH   1   2
ATOM      2  O   UNL A   1      34.175  33.614  27.949  1.00  0.00    -0.374 OA
BRANCH   2   3
ATOM      3  C   UNL A   1      32.991  34.405  28.064  1.00  0.00     0.202 C 
BRANCH   3   4
ATOM      4  C   UNL A   1      33.117  35.606  29.003  1.00  0.00     0.261 C 
BRANCH   4   5
ATOM      5  O   UNL A   1      32.470  35.322  30.255  1.00  0.00    -0.460 OA
BRANCH   5   6
ATOM      6  C   UNL A   1      32.951  35.489  31.509  1.00  0.00     0.338 C 
ATOM      7  O   UNL A   1      32.437  36.355  32.217  1.00  0.00    -0.246 OA
BRANCH   6   8
ATOM      8  C   UNL A   1      34.099  34.710  32.072  1.00  0.00     0.060 A 
ATOM      9  C   UNL A   1      33.990  33.481  32.728  1.00  0.00     0.016 A 
ATOM     10  C   UNL A   1      35.390  35.201  31.808  1.00  0.00     0.016 A 
ATOM     11  C   UNL A   1      35.114  32.780  33.152  1.00  0.00     0.010 A 
ATOM     12  C   UNL A   1      36.526  34.481  32.190  1.00  0.00     0.010 A 
ATOM     13  C   UNL A   1      36.387  33.265  32.867  1.00  0.00    -0.014 A 
BRANCH  13  14
ATOM     14  C   UNL A   1      37.564  32.479  33.288  1.00  0.00     0.031 A 
ATOM     15  C   UNL A   1      38.241  32.820  34.577  1.00  0.00     0.074 A 
ATOM     16  C   UNL A   1      37.963  31.441  32.530  1.00  0.00     0.049 A 
ATOM     17  N   UNL A   1      39.331  32.323  35.092  1.00  0.00    -0.248 NA
ATOM     18  C   UNL A   1      37.599  33.858  35.401  1.00  0.00     0.031 C 
ATOM     19  C   UNL A   1      37.294  30.988  31.306  1.00  0.00     0.029 A 
ATOM     20  N   UNL A   1      39.015  30.575  32.670  1.00  0.00    -0.354 N 
ATOM     21  C   UNL A   1      39.524  33.002  36.290  1.00  0.00     0.074 A 
ATOM     22  C   UNL A   1      38.434  33.944  36.425  1.00  0.00     0.031 C 
ATOM     23  C   UNL A   1      37.955  29.931  30.809  1.00  0.00     0.029 A 
ATOM     24  C   UNL A   1      39.130  29.677  31.633  1.00  0.00     0.049 A 
ATOM     25  H   UNL A   1      39.629  30.593  33.439  1.00  0.00     0.167 HD
ATOM     26  C   UNL A   1      40.533  32.851  37.179  1.00  0.00     0.034 A 
ATOM     27  C   UNL A   1      40.109  28.792  31.359  1.00  0.00     0.034 A 
ATOM     28  C   UNL A   1      41.608  31.910  36.998  1.00  0.00     0.049 A 
ATOM     29  C   UNL A   1      41.275  28.721  32.315  1.00  0.00     0.074 A 
ATOM     30  C   UNL A   1      42.699  31.671  37.814  1.00  0.00     0.029 A 
ATOM     31  N   UNL A   1      41.732  31.058  35.905  1.00  0.00    -0.354 N 
ATOM     32  N   UNL A   1      41.459  29.379  33.438  1.00  0.00    -0.248 NA
ATOM     33  C   UNL A   1      42.369  27.809  31.963  1.00  0.00     0.031 C 
ATOM     34  C   UNL A   1      43.514  30.725  37.182  1.00  0.00     0.029 A 
ATOM     35  C   UNL A   1      42.903  30.326  36.002  1.00  0.00     0.049 A 
ATOM     36  H   UNL A   1      41.081  30.985  35.170  1.00  0.00     0.167 HD
ATOM     37  C   UNL A   1      42.692  28.959  33.927  1.00  0.00     0.074 A 
ATOM     38  C   UNL A   1      43.188  27.967  32.994  1.00  0.00     0.031 C 
ATOM     39  C   UNL A   1      43.364  29.359  35.035  1.00  0.00     0.034 A 
BRANCH  26  40
ATOM     40  C   UNL A   1      40.561  33.793  38.354  1.00  0.00     0.023 A 
ATOM     41  C   UNL A   1      39.763  33.592  39.493  1.00  0.00     0.031 A 
ATOM     42  C   UNL A   1      41.363  34.946  38.303  1.00  0.00     0.131 A 
ATOM     43  C   UNL A   1      39.743  34.560  40.511  1.00  0.00     0.055 A 
ATOM     44  C   UNL A   1      41.387  35.873  39.346  1.00  0.00     0.041 A 
ATOM     45  F   UNL A   1      42.122  35.201  37.226  1.00  0.00    -0.206 F 
ATOM     46  C   UNL A   1      40.566  35.688  40.453  1.00  0.00     0.022 A 
BRANCH  43  47
ATOM     47  S   UNL A   1      38.545  34.384  41.861  1.00  0.00     0.124 S 
ATOM     48  O   UNL A   1      37.417  33.759  41.176  1.00  0.00    -0.237 OA
ATOM     49  O   UNL A   1      39.260  33.542  42.812  1.00  0.00    -0.237 OA
ATOM     50  O   UNL A   1      38.315  35.760  42.299  1.00  0.00    -0.744 OA
ENDBRANCH  43  47
ENDBRANCH  26  40
BRANCH  27  51
ATOM     51  C   UNL A   1      40.094  27.992  30.097  1.00  0.00     0.023 A 
ATOM     52  C   UNL A   1      40.846  28.375  28.974  1.00  0.00     0.031 A 
ATOM     53  C   UNL A   1      39.265  26.860  29.972  1.00  0.00     0.131 A 
ATOM     54  C   UNL A   1      40.719  27.664  27.768  1.00  0.00     0.055 A 
ATOM     55  C   UNL A   1      39.188  26.121  28.790  1.00  0.00     0.041 A 
ATOM     56  F   UNL A   1      38.512  26.450  31.006  1.00  0.00    -0.206 F 
ATOM     57  C   UNL A   1      39.907  26.532  27.674  1.00  0.00     0.022 A 
BRANCH  54  58
ATOM     58  S   UNL A   1      41.540  28.309  26.284  1.00  0.00     0.124 S 
ATOM     59  O   UNL A   1      42.769  28.866  26.839  1.00  0.00    -0.237 OA
ATOM     60  O   UNL A   1      41.690  27.103  25.476  1.00  0.00    -0.237 OA
ATOM     61  O   UNL A   1      40.589  29.291  25.768  1.00  0.00    -0.744 OA
ENDBRANCH  54  58
ENDBRANCH  27  51
BRANCH  39  62
ATOM     62  C   UNL A   1      44.699  28.707  35.278  1.00  0.00     0.023 A 
ATOM     63  C   UNL A   1      44.801  27.522  36.025  1.00  0.00     0.031 A 
ATOM     64  C   UNL A   1      45.873  29.277  34.760  1.00  0.00     0.131 A 
ATOM     65  C   UNL A   1      46.062  26.963  36.270  1.00  0.00     0.055 A 
ATOM     66  C   UNL A   1      47.120  28.688  34.964  1.00  0.00     0.041 A 
ATOM     67  F   UNL A   1      45.824  30.409  34.041  1.00  0.00    -0.206 F 
ATOM     68  C   UNL A   1      47.220  27.529  35.731  1.00  0.00     0.022 A 
BRANCH  65  69
ATOM     69  S   UNL A   1      46.174  25.514  37.353  1.00  0.00     0.124 S 
ATOM     70  O   UNL A   1      47.082  24.649  36.608  1.00  0.00    -0.237 OA
ATOM     71  O   UNL A   1      46.704  26.082  38.588  1.00  0.00    -0.237 OA
ATOM     72  O   UNL A   1      44.793  25.041  37.435  1.00  0.00    -0.744 OA
ENDBRANCH  65  69
ENDBRANCH  39  62
ENDBRANCH  13  14
ENDBRANCH   6   8
ENDBRANCH   5   6
ENDBRANCH   4   5
ENDBRANCH   3   4
ENDBRANCH   2   3
ENDBRANCH   1   2
BRANCH   1  73
ATOM     73  C   UNL A   1      35.143  31.438  28.373  1.00  0.00     0.261 C 
BRANCH  73  74
ATOM     74  O   UNL A   1      34.184  30.524  27.820  1.00  0.00    -0.460 OA
BRANCH  74  75
ATOM     75  C   UNL A   1      34.751  29.493  27.147  1.00  0.00     0.338 C 
ATOM     76  O   UNL A   1      35.934  29.337  26.899  1.00  0.00    -0.246 OA
BRANCH  75  77
ATOM     77  C   UNL A   1      33.717  28.461  26.902  1.00  0.00     0.060 A 
ATOM     78  C   UNL A   1      34.110  27.282  26.253  1.00  0.00     0.017 A 
ATOM     79  C   UNL A   1      32.395  28.614  27.343  1.00  0.00     0.017 A 
ATOM     80  C   UNL A   1      33.173  26.288  25.986  1.00  0.00     0.022 A 
ATOM     81  C   UNL A   1      31.458  27.614  27.093  1.00  0.00     0.022 A 
ATOM     82  C   UNL A   1      31.844  26.480  26.373  1.00  0.00     0.082 A 
BRANCH  82  83
ATOM     83  S   UNL A   1      30.614  25.341  25.806  1.00  0.00     0.240 S 
ATOM     84  O   UNL A   1      31.170  24.011  25.866  1.00  0.00    -0.207 OA
ATOM     85  O   UNL A   1      29.368  25.683  26.453  1.00  0.00    -0.207 OA
BRANCH  83  86
ATOM     86  N   UNL A   1      30.405  25.723  24.180  1.00  0.00    -0.211 NA
ATOM     87  H   UNL A   1      29.400  25.677  24.014  1.00  0.00     0.141 HD
BRANCH  86  88
ATOM     88  C   UNL A   1      30.848  26.971  23.553  1.00  0.00     0.103 C 
BRANCH  88  89
ATOM     89  C   UNL A   1      29.910  28.167  23.661  1.00  0.00     0.020 C 
ATOM     90  C   UNL A   1      30.622  29.514  23.848  1.00  0.00     0.022 C 
ATOM     91  C   UNL A   1      28.918  28.348  22.512  1.00  0.00     0.142 C 
ATOM     92  C   UNL A   1      29.529  30.577  23.862  1.00  0.00     0.137 C 
ATOM     93  S   UNL A   1      28.273  30.001  22.728  1.00  0.00     0.150 S 
ATOM     94  O   UNL A   1      27.019  29.902  23.448  1.00  0.00    -0.229 OA
ATOM     95  O   UNL A   1      28.386  30.724  21.480  1.00  0.00    -0.229 OA
ENDBRANCH  88  89
ENDBRANCH  86  88
ENDBRANCH  83  86
ENDBRANCH  82  83
ENDBRANCH  75  77
ENDBRANCH  74  75
ENDBRANCH  73  74
ENDBRANCH   1  73
TORSDOF 21
ENDMDL
