MODEL 1
REMARK VINA RESULT:     -10.9      0.000      0.000
REMARK SMILES CN(C)Nc1ncnc(Nc2ccc(C(=O)OCCOCCOC(=O)c3ccc(-c4c5nc(c(-c6cc(S(=O)(=O)[O-])ccc6F)c6ccc([nH]6)c(-c6cc(S(=O)(=O)[O-])ccc6F)c6nc(c(-c7cc(S(=O)(=O)[O-])ccc7F)c7ccc4[nH]7)C=C6)C=C5)cc3)cc2)c1[N+](=O)[O-]
REMARK SMILES IDX 19 1 18 2 17 3 15 4 16 5 14 6 11 7 12 8 90 9 13 10 89 11
REMARK SMILES IDX 10 12 9 14 5 15 6 16 91 17 7 18 8 19 4 20 2 22 1 23 3 24
REMARK SMILES IDX 92 25 93 26 94 27 20 28 21 29 22 30 23 31 24 32 25 33 26 34
REMARK SMILES IDX 27 35 88 36 28 37 87 38 29 39 30 40 31 41 81 42 32 43 86 44
REMARK SMILES IDX 80 45 82 46 33 47 85 48 79 49 78 50 34 52 66 53 46 54 65 55
REMARK SMILES IDX 47 56 50 57 64 58 83 59 48 60 49 61 63 63 84 64 51 65 35 66
REMARK SMILES IDX 36 67 44 68 37 69 43 70 45 71 42 72 38 73 39 74 40 75 41 76
REMARK SMILES IDX 67 77 68 78 76 79 69 80 75 81 77 82 74 83 70 84 71 85 72 86
REMARK SMILES IDX 73 87 52 88 53 89 61 90 54 91 60 92 62 93 59 94 55 95 56 96
REMARK SMILES IDX 57 97 58 98
REMARK H PARENT 10 13 4 21 82 51 50 62
REMARK Flexibility Score: inf
ROOT
ATOM      1  C   UNL A   1      31.683  29.408  23.634  1.00  0.00     0.202 C 
ENDROOT
BRANCH   1   2
ATOM      2  C   UNL A   1      30.542  28.675  22.924  1.00  0.00     0.261 C 
BRANCH   2   3
ATOM      3  O   UNL A   1      29.456  28.417  23.830  1.00  0.00    -0.460 OA
BRANCH   3   4
ATOM      4  C   UNL A   1      29.082  27.121  23.914  1.00  0.00     0.338 C 
ATOM      5  O   UNL A   1      28.006  26.640  23.580  1.00  0.00    -0.246 OA
BRANCH   4   6
ATOM      6  C   UNL A   1      30.226  26.283  24.329  1.00  0.00     0.060 A 
ATOM      7  C   UNL A   1      32.511  24.912  25.212  1.00  0.00     0.040 A 
ATOM      8  C   UNL A   1      31.761  25.682  26.106  1.00  0.00     0.027 A 
ATOM      9  C   UNL A   1      32.052  24.773  23.891  1.00  0.00     0.027 A 
ATOM     10  C   UNL A   1      30.635  26.375  25.665  1.00  0.00     0.018 A 
ATOM     11  C   UNL A   1      30.906  25.442  23.447  1.00  0.00     0.018 A 
BRANCH   7  12
ATOM     12  N   UNL A   1      33.784  24.463  25.616  1.00  0.00    -0.334 N 
ATOM     13  H   UNL A   1      34.421  25.150  25.919  1.00  0.00     0.168 HD
BRANCH  12  14
ATOM     14  C   UNL A   1      34.234  23.128  25.630  1.00  0.00     0.215 A 
ATOM     15  C   UNL A   1      33.950  20.788  25.929  1.00  0.00     0.225 A 
ATOM     16  N   UNL A   1      35.196  20.563  25.460  1.00  0.00    -0.212 NA
ATOM     17  C   UNL A   1      33.470  22.072  26.101  1.00  0.00     0.354 A 
ATOM     18  C   UNL A   1      35.902  21.629  25.089  1.00  0.00     0.227 A 
ATOM     19  N   UNL A   1      35.464  22.886  25.121  1.00  0.00    -0.212 NA
BRANCH  15  20
ATOM     20  N   UNL A   1      33.234  19.599  26.085  1.00  0.00    -0.298 N 
ATOM     21  H   UNL A   1      33.400  19.085  26.907  1.00  0.00     0.184 HD
BRANCH  20  22
ATOM     22  N   UNL A   1      32.291  19.062  25.171  1.00  0.00    -0.228 NA
ATOM     23  C   UNL A   1      32.524  19.530  23.793  1.00  0.00     0.130 C 
ATOM     24  C   UNL A   1      32.485  17.598  25.182  1.00  0.00     0.130 C 
ENDBRANCH  20  22
ENDBRANCH  15  20
BRANCH  17  25
ATOM     25  N   UNL A   1      32.305  22.320  26.898  1.00  0.00     0.070 N 
ATOM     26  O   UNL A   1      32.481  22.677  28.074  1.00  0.00    -0.258 OA
ATOM     27  O   UNL A   1      31.202  22.036  26.409  1.00  0.00    -0.258 OA
ENDBRANCH  17  25
ENDBRANCH  12  14
ENDBRANCH   7  12
ENDBRANCH   4   6
ENDBRANCH   3   4
ENDBRANCH   2   3
ENDBRANCH   1   2
BRANCH   1  28
ATOM     28  O   UNL A   1      31.624  29.411  25.062  1.00  0.00    -0.374 OA
BRANCH  28  29
ATOM     29  C   UNL A   1      31.506  30.686  25.699  1.00  0.00     0.202 C 
BRANCH  29  30
ATOM     30  C   UNL A   1      32.234  30.849  27.038  1.00  0.00     0.261 C 
BRANCH  30  31
ATOM     31  O   UNL A   1      33.654  30.998  26.857  1.00  0.00    -0.460 OA
BRANCH  31  32
ATOM     32  C   UNL A   1      34.276  31.673  27.853  1.00  0.00     0.338 C 
ATOM     33  O   UNL A   1      33.760  32.464  28.632  1.00  0.00    -0.246 OA
BRANCH  32  34
ATOM     34  C   UNL A   1      35.662  31.190  28.018  1.00  0.00     0.060 A 
ATOM     35  C   UNL A   1      35.867  29.807  27.939  1.00  0.00     0.016 A 
ATOM     36  C   UNL A   1      36.724  32.046  28.323  1.00  0.00     0.016 A 
ATOM     37  C   UNL A   1      37.112  29.266  28.247  1.00  0.00     0.010 A 
ATOM     38  C   UNL A   1      37.975  31.499  28.637  1.00  0.00     0.010 A 
ATOM     39  C   UNL A   1      38.158  30.104  28.651  1.00  0.00    -0.014 A 
BRANCH  39  40
ATOM     40  C   UNL A   1      39.352  29.496  29.294  1.00  0.00     0.031 A 
ATOM     41  C   UNL A   1      39.753  29.980  30.664  1.00  0.00     0.074 A 
ATOM     42  C   UNL A   1      40.015  28.479  28.712  1.00  0.00     0.049 A 
ATOM     43  N   UNL A   1      40.748  29.602  31.423  1.00  0.00    -0.248 NA
ATOM     44  C   UNL A   1      38.911  31.033  31.256  1.00  0.00     0.031 C 
ATOM     45  C   UNL A   1      39.688  27.889  27.415  1.00  0.00     0.029 A 
ATOM     46  N   UNL A   1      41.100  27.758  29.145  1.00  0.00    -0.354 N 
ATOM     47  C   UNL A   1      40.647  30.360  32.586  1.00  0.00     0.074 A 
ATOM     48  C   UNL A   1      39.526  31.257  32.407  1.00  0.00     0.031 C 
ATOM     49  C   UNL A   1      40.561  26.901  27.153  1.00  0.00     0.029 A 
ATOM     50  C   UNL A   1      41.525  26.805  28.248  1.00  0.00     0.049 A 
ATOM     51  H   UNL A   1      41.534  27.909  30.016  1.00  0.00     0.167 HD
ATOM     52  C   UNL A   1      41.405  30.301  33.709  1.00  0.00     0.034 A 
ATOM     53  C   UNL A   1      42.580  25.966  28.301  1.00  0.00     0.034 A 
ATOM     54  C   UNL A   1      42.531  29.415  33.871  1.00  0.00     0.049 A 
ATOM     55  C   UNL A   1      43.457  25.973  29.533  1.00  0.00     0.074 A 
ATOM     56  C   UNL A   1      43.400  29.308  34.942  1.00  0.00     0.029 A 
ATOM     57  N   UNL A   1      42.942  28.477  32.933  1.00  0.00    -0.354 N 
ATOM     58  N   UNL A   1      43.363  26.712  30.615  1.00  0.00    -0.248 NA
ATOM     59  C   UNL A   1      44.570  25.013  29.560  1.00  0.00     0.031 C 
ATOM     60  C   UNL A   1      44.365  28.342  34.632  1.00  0.00     0.029 A 
ATOM     61  C   UNL A   1      44.054  27.793  33.399  1.00  0.00     0.049 A 
ATOM     62  H   UNL A   1      42.507  28.321  32.063  1.00  0.00     0.167 HD
ATOM     63  C   UNL A   1      44.373  26.271  31.467  1.00  0.00     0.074 A 
ATOM     64  C   UNL A   1      45.053  25.193  30.779  1.00  0.00     0.031 C 
ATOM     65  C   UNL A   1      44.711  26.711  32.706  1.00  0.00     0.034 A 
BRANCH  52  66
ATOM     66  C   UNL A   1      41.055  31.251  34.828  1.00  0.00     0.023 A 
ATOM     67  C   UNL A   1      39.875  31.101  35.578  1.00  0.00     0.031 A 
ATOM     68  C   UNL A   1      41.897  32.334  35.135  1.00  0.00     0.131 A 
ATOM     69  C   UNL A   1      39.541  32.050  36.555  1.00  0.00     0.055 A 
ATOM     70  C   UNL A   1      41.596  33.233  36.160  1.00  0.00     0.041 A 
ATOM     71  F   UNL A   1      43.023  32.543  34.436  1.00  0.00    -0.206 F 
ATOM     72  C   UNL A   1      40.405  33.101  36.869  1.00  0.00     0.022 A 
BRANCH  69  73
ATOM     73  S   UNL A   1      37.901  31.962  37.327  1.00  0.00     0.124 S 
ATOM     74  O   UNL A   1      37.694  30.519  37.413  1.00  0.00    -0.237 OA
ATOM     75  O   UNL A   1      38.109  32.655  38.593  1.00  0.00    -0.237 OA
ATOM     76  O   UNL A   1      37.036  32.654  36.372  1.00  0.00    -0.744 OA
ENDBRANCH  69  73
ENDBRANCH  52  66
BRANCH  53  77
ATOM     77  C   UNL A   1      42.903  25.070  27.151  1.00  0.00     0.023 A 
ATOM     78  C   UNL A   1      42.367  23.776  27.058  1.00  0.00     0.031 A 
ATOM     79  C   UNL A   1      43.838  25.464  26.176  1.00  0.00     0.131 A 
ATOM     80  C   UNL A   1      42.823  22.898  26.063  1.00  0.00     0.055 A 
ATOM     81  C   UNL A   1      44.238  24.610  25.148  1.00  0.00     0.041 A 
ATOM     82  F   UNL A   1      44.384  26.690  26.213  1.00  0.00    -0.206 F 
ATOM     83  C   UNL A   1      43.745  23.309  25.099  1.00  0.00     0.022 A 
BRANCH  80  84
ATOM     84  S   UNL A   1      42.290  21.163  26.124  1.00  0.00     0.124 S 
ATOM     85  O   UNL A   1      43.266  20.524  25.249  1.00  0.00    -0.237 OA
ATOM     86  O   UNL A   1      42.409  20.863  27.547  1.00  0.00    -0.237 OA
ATOM     87  O   UNL A   1      40.924  21.210  25.610  1.00  0.00    -0.744 OA
ENDBRANCH  80  84
ENDBRANCH  53  77
BRANCH  65  88
ATOM     88  C   UNL A   1      45.815  25.969  33.423  1.00  0.00     0.023 A 
ATOM     89  C   UNL A   1      45.554  24.872  34.263  1.00  0.00     0.031 A 
ATOM     90  C   UNL A   1      47.150  26.391  33.283  1.00  0.00     0.131 A 
ATOM     91  C   UNL A   1      46.601  24.283  34.988  1.00  0.00     0.055 A 
ATOM     92  C   UNL A   1      48.195  25.759  33.957  1.00  0.00     0.041 A 
ATOM     93  F   UNL A   1      47.458  27.433  32.494  1.00  0.00    -0.206 F 
ATOM     94  C   UNL A   1      47.922  24.710  34.829  1.00  0.00     0.022 A 
BRANCH  91  95
ATOM     95  S   UNL A   1      46.197  23.028  36.234  1.00  0.00     0.124 S 
ATOM     96  O   UNL A   1      46.865  23.549  37.422  1.00  0.00    -0.237 OA
ATOM     97  O   UNL A   1      44.737  23.070  36.254  1.00  0.00    -0.237 OA
ATOM     98  O   UNL A   1      46.772  21.801  35.686  1.00  0.00    -0.744 OA
ENDBRANCH  91  95
ENDBRANCH  65  88
ENDBRANCH  39  40
ENDBRANCH  32  34
ENDBRANCH  31  32
ENDBRANCH  30  31
ENDBRANCH  29  30
ENDBRANCH  28  29
ENDBRANCH   1  28
TORSDOF 22
ENDMDL
MODEL 2
REMARK VINA RESULT:     -10.9      3.125      8.406
REMARK SMILES CN(C)Nc1ncnc(Nc2ccc(C(=O)OCCOCCOC(=O)c3ccc(-c4c5nc(c(-c6cc(S(=O)(=O)[O-])ccc6F)c6ccc([nH]6)c(-c6cc(S(=O)(=O)[O-])ccc6F)c6nc(c(-c7cc(S(=O)(=O)[O-])ccc7F)c7ccc4[nH]7)C=C6)C=C5)cc3)cc2)c1[N+](=O)[O-]
REMARK SMILES IDX 19 1 18 2 17 3 15 4 16 5 14 6 11 7 12 8 90 9 13 10 89 11
REMARK SMILES IDX 10 12 9 14 5 15 6 16 91 17 7 18 8 19 4 20 2 22 1 23 3 24
REMARK SMILES IDX 92 25 93 26 94 27 20 28 21 29 22 30 23 31 24 32 25 33 26 34
REMARK SMILES IDX 27 35 88 36 28 37 87 38 29 39 30 40 31 41 81 42 32 43 86 44
REMARK SMILES IDX 80 45 82 46 33 47 85 48 79 49 78 50 34 52 66 53 46 54 65 55
REMARK SMILES IDX 47 56 50 57 64 58 83 59 48 60 49 61 63 63 84 64 51 65 35 66
REMARK SMILES IDX 36 67 44 68 37 69 43 70 45 71 42 72 38 73 39 74 40 75 41 76
REMARK SMILES IDX 67 77 68 78 76 79 69 80 75 81 77 82 74 83 70 84 71 85 72 86
REMARK SMILES IDX 73 87 52 88 53 89 61 90 54 91 60 92 62 93 59 94 55 95 56 96
REMARK SMILES IDX 57 97 58 98
REMARK H PARENT 10 13 4 21 82 51 50 62
REMARK Flexibility Score: inf
ROOT
ATOM      1  C   UNL A   1      35.362  32.401  28.019  1.00  0.00     0.202 C 
ENDROOT
BRANCH   1   2
ATOM      2  C   UNL A   1      34.361  31.301  28.384  1.00  0.00     0.261 C 
BRANCH   2   3
ATOM      3  O   UNL A   1      34.195  30.378  27.296  1.00  0.00    -0.460 OA
BRANCH   3   4
ATOM      4  C   UNL A   1      32.912  30.057  27.014  1.00  0.00     0.338 C 
ATOM      5  O   UNL A   1      31.960  30.824  26.934  1.00  0.00    -0.246 OA
BRANCH   4   6
ATOM      6  C   UNL A   1      32.810  28.630  26.643  1.00  0.00     0.060 A 
ATOM      7  C   UNL A   1      32.665  25.994  25.690  1.00  0.00     0.040 A 
ATOM      8  C   UNL A   1      33.807  26.766  25.457  1.00  0.00     0.027 A 
ATOM      9  C   UNL A   1      31.634  26.534  26.478  1.00  0.00     0.027 A 
ATOM     10  C   UNL A   1      33.873  28.081  25.917  1.00  0.00     0.018 A 
ATOM     11  C   UNL A   1      31.706  27.842  26.969  1.00  0.00     0.018 A 
BRANCH   7  12
ATOM     12  N   UNL A   1      32.513  24.788  24.977  1.00  0.00    -0.334 N 
ATOM     13  H   UNL A   1      31.810  24.765  24.289  1.00  0.00     0.168 HD
BRANCH  12  14
ATOM     14  C   UNL A   1      33.269  23.613  25.154  1.00  0.00     0.215 A 
ATOM     15  C   UNL A   1      33.544  21.325  25.734  1.00  0.00     0.225 A 
ATOM     16  N   UNL A   1      34.822  21.354  25.300  1.00  0.00    -0.212 NA
ATOM     17  C   UNL A   1      32.765  22.466  25.747  1.00  0.00     0.354 A 
ATOM     18  C   UNL A   1      35.264  22.508  24.806  1.00  0.00     0.227 A 
ATOM     19  N   UNL A   1      34.537  23.617  24.684  1.00  0.00    -0.212 NA
BRANCH  15  20
ATOM     20  N   UNL A   1      33.129  20.024  26.031  1.00  0.00    -0.298 N 
ATOM     21  H   UNL A   1      32.711  19.881  26.910  1.00  0.00     0.184 HD
BRANCH  20  22
ATOM     22  N   UNL A   1      33.253  18.892  25.186  1.00  0.00    -0.228 NA
ATOM     23  C   UNL A   1      32.594  17.700  25.751  1.00  0.00     0.130 C 
ATOM     24  C   UNL A   1      32.557  19.229  23.928  1.00  0.00     0.130 C 
ENDBRANCH  20  22
ENDBRANCH  15  20
BRANCH  17  25
ATOM     25  N   UNL A   1      31.549  22.516  26.504  1.00  0.00     0.070 N 
ATOM     26  O   UNL A   1      31.603  23.010  27.642  1.00  0.00    -0.258 OA
ATOM     27  O   UNL A   1      30.554  21.946  26.033  1.00  0.00    -0.258 OA
ENDBRANCH  17  25
ENDBRANCH  12  14
ENDBRANCH   7  12
ENDBRANCH   4   6
ENDBRANCH   3   4
ENDBRANCH   2   3
ENDBRANCH   1   2
BRANCH   1  28
ATOM     28  O   UNL A   1      34.793  33.658  27.648  1.00  0.00    -0.374 OA
BRANCH  28  29
ATOM     29  C   UNL A   1      33.413  33.858  27.962  1.00  0.00     0.202 C 
BRANCH  29  30
ATOM     30  C   UNL A   1      33.062  35.159  28.694  1.00  0.00     0.261 C 
BRANCH  30  31
ATOM     31  O   UNL A   1      32.496  34.902  29.993  1.00  0.00    -0.460 OA
BRANCH  31  32
ATOM     32  C   UNL A   1      33.263  35.320  31.028  1.00  0.00     0.338 C 
ATOM     33  O   UNL A   1      32.969  36.173  31.855  1.00  0.00    -0.246 OA
BRANCH  32  34
ATOM     34  C   UNL A   1      34.462  34.469  31.161  1.00  0.00     0.060 A 
ATOM     35  C   UNL A   1      34.296  33.231  31.793  1.00  0.00     0.016 A 
ATOM     36  C   UNL A   1      35.731  34.892  30.757  1.00  0.00     0.016 A 
ATOM     37  C   UNL A   1      35.405  32.448  32.102  1.00  0.00     0.010 A 
ATOM     38  C   UNL A   1      36.848  34.106  31.074  1.00  0.00     0.010 A 
ATOM     39  C   UNL A   1      36.692  32.907  31.793  1.00  0.00    -0.014 A 
BRANCH  39  40
ATOM     40  C   UNL A   1      37.858  32.236  32.423  1.00  0.00     0.031 A 
ATOM     41  C   UNL A   1      38.557  31.143  31.655  1.00  0.00     0.074 A 
ATOM     42  C   UNL A   1      38.339  32.644  33.612  1.00  0.00     0.049 A 
ATOM     43  N   UNL A   1      39.592  30.418  31.993  1.00  0.00    -0.248 NA
ATOM     44  C   UNL A   1      38.011  30.829  30.324  1.00  0.00     0.031 C 
ATOM     45  C   UNL A   1      37.782  33.726  34.422  1.00  0.00     0.029 A 
ATOM     46  N   UNL A   1      39.413  32.197  34.341  1.00  0.00    -0.354 N 
ATOM     47  C   UNL A   1      39.830  29.572  30.913  1.00  0.00     0.074 A 
ATOM     48  C   UNL A   1      38.797  29.837  29.936  1.00  0.00     0.031 C 
ATOM     49  C   UNL A   1      38.515  33.853  35.542  1.00  0.00     0.029 A 
ATOM     50  C   UNL A   1      39.574  32.846  35.544  1.00  0.00     0.049 A 
ATOM     51  H   UNL A   1      40.012  31.479  34.033  1.00  0.00     0.167 HD
ATOM     52  C   UNL A   1      40.829  28.671  30.743  1.00  0.00     0.034 A 
ATOM     53  C   UNL A   1      40.464  32.637  36.536  1.00  0.00     0.034 A 
ATOM     54  C   UNL A   1      41.844  28.402  31.731  1.00  0.00     0.049 A 
ATOM     55  C   UNL A   1      41.523  31.572  36.354  1.00  0.00     0.074 A 
ATOM     56  C   UNL A   1      42.870  27.475  31.687  1.00  0.00     0.029 A 
ATOM     57  N   UNL A   1      41.963  29.066  32.945  1.00  0.00    -0.354 N 
ATOM     58  N   UNL A   1      41.721  30.764  35.337  1.00  0.00    -0.248 NA
ATOM     59  C   UNL A   1      42.494  31.410  37.445  1.00  0.00     0.031 C 
ATOM     60  C   UNL A   1      43.579  27.544  32.892  1.00  0.00     0.029 A 
ATOM     61  C   UNL A   1      43.041  28.565  33.658  1.00  0.00     0.049 A 
ATOM     62  H   UNL A   1      41.368  29.787  33.254  1.00  0.00     0.167 HD
ATOM     63  C   UNL A   1      42.866  30.034  35.649  1.00  0.00     0.074 A 
ATOM     64  C   UNL A   1      43.321  30.509  36.939  1.00  0.00     0.031 C 
ATOM     65  C   UNL A   1      43.490  29.060  34.937  1.00  0.00     0.034 A 
BRANCH  52  66
ATOM     66  C   UNL A   1      40.840  27.889  29.452  1.00  0.00     0.023 A 
ATOM     67  C   UNL A   1      41.756  28.179  28.425  1.00  0.00     0.031 A 
ATOM     68  C   UNL A   1      39.909  26.858  29.234  1.00  0.00     0.131 A 
ATOM     69  C   UNL A   1      41.683  27.488  27.207  1.00  0.00     0.055 A 
ATOM     70  C   UNL A   1      39.892  26.123  28.046  1.00  0.00     0.041 A 
ATOM     71  F   UNL A   1      38.994  26.554  30.167  1.00  0.00    -0.206 F 
ATOM     72  C   UNL A   1      40.774  26.445  27.020  1.00  0.00     0.022 A 
BRANCH  69  73
ATOM     73  S   UNL A   1      42.713  28.054  25.824  1.00  0.00     0.124 S 
ATOM     74  O   UNL A   1      44.048  27.671  26.276  1.00  0.00    -0.237 OA
ATOM     75  O   UNL A   1      42.177  27.296  24.700  1.00  0.00    -0.237 OA
ATOM     76  O   UNL A   1      42.466  29.494  25.780  1.00  0.00    -0.744 OA
ENDBRANCH  69  73
ENDBRANCH  52  66
BRANCH  53  77
ATOM     77  C   UNL A   1      40.388  33.414  37.809  1.00  0.00     0.023 A 
ATOM     78  C   UNL A   1      41.289  34.455  38.085  1.00  0.00     0.031 A 
ATOM     79  C   UNL A   1      39.471  33.056  38.813  1.00  0.00     0.131 A 
ATOM     80  C   UNL A   1      41.304  35.050  39.356  1.00  0.00     0.055 A 
ATOM     81  C   UNL A   1      39.446  33.696  40.053  1.00  0.00     0.041 A 
ATOM     82  F   UNL A   1      38.585  32.068  38.606  1.00  0.00    -0.206 F 
ATOM     83  C   UNL A   1      40.381  34.686  40.339  1.00  0.00     0.022 A 
BRANCH  80  84
ATOM     84  S   UNL A   1      42.637  36.216  39.754  1.00  0.00     0.124 S 
ATOM     85  O   UNL A   1      42.685  36.125  41.209  1.00  0.00    -0.237 OA
ATOM     86  O   UNL A   1      43.767  35.636  39.037  1.00  0.00    -0.237 OA
ATOM     87  O   UNL A   1      42.147  37.485  39.222  1.00  0.00    -0.744 OA
ENDBRANCH  80  84
ENDBRANCH  53  77
BRANCH  65  88
ATOM     88  C   UNL A   1      44.775  28.507  35.507  1.00  0.00     0.023 A 
ATOM     89  C   UNL A   1      44.790  27.426  36.405  1.00  0.00     0.031 A 
ATOM     90  C   UNL A   1      46.006  29.096  35.164  1.00  0.00     0.131 A 
ATOM     91  C   UNL A   1      45.999  27.016  36.987  1.00  0.00     0.055 A 
ATOM     92  C   UNL A   1      47.213  28.642  35.696  1.00  0.00     0.041 A 
ATOM     93  F   UNL A   1      46.053  30.131  34.309  1.00  0.00    -0.206 F 
ATOM     94  C   UNL A   1      47.212  27.609  36.627  1.00  0.00     0.022 A 
BRANCH  91  95
ATOM     95  S   UNL A   1      45.951  25.778  38.313  1.00  0.00     0.124 S 
ATOM     96  O   UNL A   1      45.841  24.531  37.563  1.00  0.00    -0.237 OA
ATOM     97  O   UNL A   1      47.224  26.003  38.991  1.00  0.00    -0.237 OA
ATOM     98  O   UNL A   1      44.765  26.146  39.084  1.00  0.00    -0.744 OA
ENDBRANCH  91  95
ENDBRANCH  65  88
ENDBRANCH  39  40
ENDBRANCH  32  34
ENDBRANCH  31  32
ENDBRANCH  30  31
ENDBRANCH  29  30
ENDBRANCH  28  29
ENDBRANCH   1  28
TORSDOF 22
ENDMDL
MODEL 3
REMARK VINA RESULT:     -10.8      2.720      3.875
REMARK SMILES CN(C)Nc1ncnc(Nc2ccc(C(=O)OCCOCCOC(=O)c3ccc(-c4c5nc(c(-c6cc(S(=O)(=O)[O-])ccc6F)c6ccc([nH]6)c(-c6cc(S(=O)(=O)[O-])ccc6F)c6nc(c(-c7cc(S(=O)(=O)[O-])ccc7F)c7ccc4[nH]7)C=C6)C=C5)cc3)cc2)c1[N+](=O)[O-]
REMARK SMILES IDX 19 1 18 2 17 3 15 4 16 5 14 6 11 7 12 8 90 9 13 10 89 11
REMARK SMILES IDX 10 12 9 14 5 15 6 16 91 17 7 18 8 19 4 20 2 22 1 23 3 24
REMARK SMILES IDX 92 25 93 26 94 27 20 28 21 29 22 30 23 31 24 32 25 33 26 34
REMARK SMILES IDX 27 35 88 36 28 37 87 38 29 39 30 40 31 41 81 42 32 43 86 44
REMARK SMILES IDX 80 45 82 46 33 47 85 48 79 49 78 50 34 52 66 53 46 54 65 55
REMARK SMILES IDX 47 56 50 57 64 58 83 59 48 60 49 61 63 63 84 64 51 65 35 66
REMARK SMILES IDX 36 67 44 68 37 69 43 70 45 71 42 72 38 73 39 74 40 75 41 76
REMARK SMILES IDX 67 77 68 78 76 79 69 80 75 81 77 82 74 83 70 84 71 85 72 86
REMARK SMILES IDX 73 87 52 88 53 89 61 90 54 91 60 92 62 93 59 94 55 95 56 96
REMARK SMILES IDX 57 97 58 98
REMARK H PARENT 10 13 4 21 82 51 50 62
REMARK Flexibility Score: inf
ROOT
ATOM      1  C   UNL A   1      30.802  27.454  25.056  1.00  0.00     0.202 C 
ENDROOT
BRANCH   1   2
ATOM      2  C   UNL A   1      30.271  26.140  25.637  1.00  0.00     0.261 C 
BRANCH   2   3
ATOM      3  O   UNL A   1      31.144  25.645  26.666  1.00  0.00    -0.460 OA
BRANCH   3   4
ATOM      4  C   UNL A   1      31.249  24.299  26.723  1.00  0.00     0.338 C 
ATOM      5  O   UNL A   1      30.408  23.509  27.134  1.00  0.00    -0.246 OA
BRANCH   4   6
ATOM      6  C   UNL A   1      32.491  23.853  26.058  1.00  0.00     0.060 A 
ATOM      7  C   UNL A   1      34.983  23.148  24.976  1.00  0.00     0.040 A 
ATOM      8  C   UNL A   1      34.703  22.897  26.322  1.00  0.00     0.027 A 
ATOM      9  C   UNL A   1      33.968  23.679  24.162  1.00  0.00     0.027 A 
ATOM     10  C   UNL A   1      33.471  23.262  26.864  1.00  0.00     0.018 A 
ATOM     11  C   UNL A   1      32.718  24.019  24.692  1.00  0.00     0.018 A 
BRANCH   7  12
ATOM     12  N   UNL A   1      36.316  23.033  24.535  1.00  0.00    -0.334 N 
ATOM     13  H   UNL A   1      36.465  23.057  23.562  1.00  0.00     0.168 HD
BRANCH  12  14
ATOM     14  C   UNL A   1      37.456  22.887  25.349  1.00  0.00     0.215 A 
ATOM     15  C   UNL A   1      39.367  21.724  26.150  1.00  0.00     0.225 A 
ATOM     16  N   UNL A   1      39.738  22.802  26.873  1.00  0.00    -0.212 NA
ATOM     17  C   UNL A   1      38.183  21.711  25.439  1.00  0.00     0.354 A 
ATOM     18  C   UNL A   1      38.957  23.877  26.796  1.00  0.00     0.227 A 
ATOM     19  N   UNL A   1      37.862  23.975  26.043  1.00  0.00    -0.212 NA
BRANCH  15  20
ATOM     20  N   UNL A   1      40.360  20.741  26.141  1.00  0.00    -0.298 N 
ATOM     21  H   UNL A   1      40.240  19.994  25.512  1.00  0.00     0.184 HD
BRANCH  20  22
ATOM     22  N   UNL A   1      41.524  20.719  26.951  1.00  0.00    -0.228 NA
ATOM     23  C   UNL A   1      41.583  19.521  27.808  1.00  0.00     0.130 C 
ATOM     24  C   UNL A   1      42.676  20.662  26.029  1.00  0.00     0.130 C 
ENDBRANCH  20  22
ENDBRANCH  15  20
BRANCH  17  25
ATOM     25  N   UNL A   1      37.629  20.479  24.957  1.00  0.00     0.070 N 
ATOM     26  O   UNL A   1      36.424  20.272  25.169  1.00  0.00    -0.258 OA
ATOM     27  O   UNL A   1      38.412  19.644  24.481  1.00  0.00    -0.258 OA
ENDBRANCH  17  25
ENDBRANCH  12  14
ENDBRANCH   7  12
ENDBRANCH   4   6
ENDBRANCH   3   4
ENDBRANCH   2   3
ENDBRANCH   1   2
BRANCH   1  28
ATOM     28  O   UNL A   1      31.323  28.385  26.005  1.00  0.00    -0.374 OA
BRANCH  28  29
ATOM     29  C   UNL A   1      31.655  29.686  25.515  1.00  0.00     0.202 C 
BRANCH  29  30
ATOM     30  C   UNL A   1      32.184  30.689  26.547  1.00  0.00     0.261 C 
BRANCH  30  31
ATOM     31  O   UNL A   1      33.608  30.575  26.718  1.00  0.00    -0.460 OA
BRANCH  31  32
ATOM     32  C   UNL A   1      34.143  31.481  27.572  1.00  0.00     0.338 C 
ATOM     33  O   UNL A   1      33.561  32.423  28.093  1.00  0.00    -0.246 OA
BRANCH  32  34
ATOM     34  C   UNL A   1      35.511  31.083  27.959  1.00  0.00     0.060 A 
ATOM     35  C   UNL A   1      35.727  29.724  28.219  1.00  0.00     0.016 A 
ATOM     36  C   UNL A   1      36.538  32.011  28.147  1.00  0.00     0.016 A 
ATOM     37  C   UNL A   1      36.942  29.298  28.748  1.00  0.00     0.010 A 
ATOM     38  C   UNL A   1      37.759  31.581  28.683  1.00  0.00     0.010 A 
ATOM     39  C   UNL A   1      37.946  30.231  29.034  1.00  0.00    -0.014 A 
BRANCH  39  40
ATOM     40  C   UNL A   1      39.081  29.816  29.898  1.00  0.00     0.031 A 
ATOM     41  C   UNL A   1      39.162  30.378  31.294  1.00  0.00     0.074 A 
ATOM     42  C   UNL A   1      39.972  28.896  29.484  1.00  0.00     0.049 A 
ATOM     43  N   UNL A   1      40.051  30.164  32.229  1.00  0.00    -0.248 NA
ATOM     44  C   UNL A   1      38.090  31.309  31.686  1.00  0.00     0.031 C 
ATOM     45  C   UNL A   1      39.965  28.240  28.178  1.00  0.00     0.029 A 
ATOM     46  N   UNL A   1      41.054  28.349  30.129  1.00  0.00    -0.354 N 
ATOM     47  C   UNL A   1      39.641  30.921  33.323  1.00  0.00     0.074 A 
ATOM     48  C   UNL A   1      38.455  31.642  32.915  1.00  0.00     0.031 C 
ATOM     49  C   UNL A   1      41.000  27.385  28.113  1.00  0.00     0.029 A 
ATOM     50  C   UNL A   1      41.760  27.451  29.360  1.00  0.00     0.049 A 
ATOM     51  H   UNL A   1      41.302  28.578  31.053  1.00  0.00     0.167 HD
ATOM     52  C   UNL A   1      40.191  30.994  34.561  1.00  0.00     0.034 A 
ATOM     53  C   UNL A   1      42.896  26.776  29.630  1.00  0.00     0.034 A 
ATOM     54  C   UNL A   1      41.383  30.285  34.952  1.00  0.00     0.049 A 
ATOM     55  C   UNL A   1      43.533  26.934  30.993  1.00  0.00     0.074 A 
ATOM     56  C   UNL A   1      42.056  30.326  36.161  1.00  0.00     0.029 A 
ATOM     57  N   UNL A   1      42.080  29.399  34.141  1.00  0.00    -0.354 N 
ATOM     58  N   UNL A   1      43.146  27.671  32.010  1.00  0.00    -0.248 NA
ATOM     59  C   UNL A   1      44.747  26.147  31.253  1.00  0.00     0.031 C 
ATOM     60  C   UNL A   1      43.186  29.505  36.064  1.00  0.00     0.029 A 
ATOM     61  C   UNL A   1      43.177  28.894  34.821  1.00  0.00     0.049 A 
ATOM     62  H   UNL A   1      41.832  29.166  33.217  1.00  0.00     0.167 HD
ATOM     63  C   UNL A   1      44.043  27.398  33.041  1.00  0.00     0.074 A 
ATOM     64  C   UNL A   1      44.977  26.419  32.528  1.00  0.00     0.031 C 
ATOM     65  C   UNL A   1      44.092  27.906  34.299  1.00  0.00     0.034 A 
BRANCH  52  66
ATOM     66  C   UNL A   1      39.519  31.904  35.560  1.00  0.00     0.023 A 
ATOM     67  C   UNL A   1      38.814  31.390  36.664  1.00  0.00     0.031 A 
ATOM     68  C   UNL A   1      39.563  33.300  35.397  1.00  0.00     0.131 A 
ATOM     69  C   UNL A   1      38.133  32.262  37.526  1.00  0.00     0.055 A 
ATOM     70  C   UNL A   1      38.945  34.165  36.303  1.00  0.00     0.041 A 
ATOM     71  F   UNL A   1      40.198  33.846  34.349  1.00  0.00    -0.206 F 
ATOM     72  C   UNL A   1      38.214  33.647  37.368  1.00  0.00     0.022 A 
BRANCH  69  73
ATOM     73  S   UNL A   1      37.037  31.556  38.788  1.00  0.00     0.124 S 
ATOM     74  O   UNL A   1      37.870  31.646  39.985  1.00  0.00    -0.237 OA
ATOM     75  O   UNL A   1      35.885  32.448  38.742  1.00  0.00    -0.237 OA
ATOM     76  O   UNL A   1      36.793  30.197  38.307  1.00  0.00    -0.744 OA
ENDBRANCH  69  73
ENDBRANCH  52  66
BRANCH  53  77
ATOM     77  C   UNL A   1      43.539  25.916  28.594  1.00  0.00     0.023 A 
ATOM     78  C   UNL A   1      44.633  26.371  27.839  1.00  0.00     0.031 A 
ATOM     79  C   UNL A   1      43.001  24.655  28.274  1.00  0.00     0.131 A 
ATOM     80  C   UNL A   1      45.104  25.610  26.758  1.00  0.00     0.055 A 
ATOM     81  C   UNL A   1      43.517  23.873  27.240  1.00  0.00     0.041 A 
ATOM     82  F   UNL A   1      41.956  24.168  28.961  1.00  0.00    -0.206 F 
ATOM     83  C   UNL A   1      44.562  24.359  26.460  1.00  0.00     0.022 A 
BRANCH  80  84
ATOM     84  S   UNL A   1      46.351  26.341  25.660  1.00  0.00     0.124 S 
ATOM     85  O   UNL A   1      47.020  27.278  26.555  1.00  0.00    -0.237 OA
ATOM     86  O   UNL A   1      47.124  25.170  25.262  1.00  0.00    -0.237 OA
ATOM     87  O   UNL A   1      45.553  26.951  24.599  1.00  0.00    -0.744 OA
ENDBRANCH  80  84
ENDBRANCH  53  77
BRANCH  65  88
ATOM     88  C   UNL A   1      45.145  27.347  35.227  1.00  0.00     0.023 A 
ATOM     89  C   UNL A   1      46.453  27.858  35.266  1.00  0.00     0.031 A 
ATOM     90  C   UNL A   1      44.836  26.259  36.064  1.00  0.00     0.131 A 
ATOM     91  C   UNL A   1      47.423  27.237  36.068  1.00  0.00     0.055 A 
ATOM     92  C   UNL A   1      45.788  25.687  36.908  1.00  0.00     0.041 A 
ATOM     93  F   UNL A   1      43.602  25.730  36.070  1.00  0.00    -0.206 F 
ATOM     94  C   UNL A   1      47.095  26.163  36.900  1.00  0.00     0.022 A 
BRANCH  91  95
ATOM     95  S   UNL A   1      49.149  27.775  35.919  1.00  0.00     0.124 S 
ATOM     96  O   UNL A   1      49.431  28.277  37.259  1.00  0.00    -0.237 OA
ATOM     97  O   UNL A   1      49.828  26.536  35.547  1.00  0.00    -0.237 OA
ATOM     98  O   UNL A   1      49.103  28.793  34.872  1.00  0.00    -0.744 OA
ENDBRANCH  91  95
ENDBRANCH  65  88
ENDBRANCH  39  40
ENDBRANCH  32  34
ENDBRANCH  31  32
ENDBRANCH  30  31
ENDBRANCH  29  30
ENDBRANCH  28  29
ENDBRANCH   1  28
TORSDOF 22
ENDMDL
