MODEL 1
REMARK VINA RESULT:     -11.0      0.000      0.000
REMARK SMILES CC1(C)[C@@H](C(=O)OCCOCCOC(=O)c2ccc(-c3c4nc(c(-c5cc(S(=O)(=O)[O-])ccc5F)c5ccc([nH]5)c(-c5cc(S(=O)(=O)[O-])ccc5F)c5nc(c(-c6cc(S(=O)(=O)[O-])ccc6F)c6ccc3[nH]6)C=C5)C=C4)cc2)CC[C@@]1(C)C(N)=O
REMARK SMILES IDX 11 1 10 2 9 3 8 4 7 5 5 6 6 7 4 8 1 9 2 10 3 11 81 12 79 13
REMARK SMILES IDX 80 14 82 15 83 16 84 17 85 18 12 21 13 22 14 23 15 24 16 25
REMARK SMILES IDX 17 26 78 27 18 28 77 29 19 30 20 31 21 32 71 33 22 34 76 35
REMARK SMILES IDX 70 36 72 37 23 38 75 39 69 40 68 41 24 43 56 44 36 45 55 46
REMARK SMILES IDX 37 47 40 48 54 49 73 50 38 51 39 52 53 54 74 55 41 56 25 57
REMARK SMILES IDX 26 58 34 59 27 60 33 61 35 62 32 63 28 64 29 65 30 66 31 67
REMARK SMILES IDX 57 68 58 69 66 70 59 71 65 72 67 73 64 74 60 75 61 76 62 77
REMARK SMILES IDX 63 78 42 79 43 80 51 81 44 82 50 83 52 84 49 85 45 86 46 87
REMARK SMILES IDX 47 88 48 89
REMARK H PARENT 84 19 84 20 72 42 40 53
REMARK Flexibility Score: inf
ROOT
ATOM      1  C   UNL A   1      36.040  20.238  24.996  1.00  0.00     0.202 C 
ENDROOT
BRANCH   1   2
ATOM      2  O   UNL A   1      35.701  21.582  25.330  1.00  0.00    -0.374 OA
BRANCH   2   3
ATOM      3  C   UNL A   1      35.140  21.789  26.628  1.00  0.00     0.202 C 
BRANCH   3   4
ATOM      4  C   UNL A   1      33.608  21.720  26.689  1.00  0.00     0.261 C 
BRANCH   4   5
ATOM      5  O   UNL A   1      33.007  22.715  25.822  1.00  0.00    -0.463 OA
BRANCH   5   6
ATOM      6  C   UNL A   1      32.173  23.602  26.408  1.00  0.00     0.309 C 
ATOM      7  O   UNL A   1      31.564  23.390  27.451  1.00  0.00    -0.252 OA
BRANCH   6   8
ATOM      8  C   UNL A   1      32.117  24.968  25.730  1.00  0.00     0.106 C 
ATOM      9  C   UNL A   1      30.649  24.284  23.677  1.00  0.00     0.013 C 
ATOM     10  C   UNL A   1      31.706  25.241  24.251  1.00  0.00    -0.008 C 
ATOM     11  C   UNL A   1      30.963  26.623  24.285  1.00  0.00     0.013 C 
ATOM     12  C   UNL A   1      33.065  25.378  23.447  1.00  0.00     0.052 C 
ATOM     13  C   UNL A   1      33.453  25.699  25.899  1.00  0.00     0.017 C 
ATOM     14  C   UNL A   1      34.085  25.852  24.516  1.00  0.00     0.018 C 
ATOM     15  C   UNL A   1      33.004  26.440  22.313  1.00  0.00     0.022 C 
BRANCH  12  16
ATOM     16  C   UNL A   1      33.672  24.149  22.726  1.00  0.00     0.223 C 
ATOM     17  N   UNL A   1      34.554  23.362  23.367  1.00  0.00    -0.369 N 
ATOM     18  O   UNL A   1      33.436  23.888  21.545  1.00  0.00    -0.275 OA
ATOM     19  H   UNL A   1      34.773  23.534  24.311  1.00  0.00     0.159 HD
ATOM     20  H   UNL A   1      34.982  22.614  22.891  1.00  0.00     0.159 HD
ENDBRANCH  12  16
ENDBRANCH   6   8
ENDBRANCH   5   6
ENDBRANCH   4   5
ENDBRANCH   3   4
ENDBRANCH   2   3
ENDBRANCH   1   2
BRANCH   1  21
ATOM     21  C   UNL A   1      37.539  19.916  24.941  1.00  0.00     0.261 C 
BRANCH  21  22
ATOM     22  O   UNL A   1      38.337  21.057  25.291  1.00  0.00    -0.460 OA
BRANCH  22  23
ATOM     23  C   UNL A   1      39.410  20.794  26.072  1.00  0.00     0.338 C 
ATOM     24  O   UNL A   1      40.035  19.747  26.127  1.00  0.00    -0.246 OA
BRANCH  23  25
ATOM     25  C   UNL A   1      39.874  22.052  26.701  1.00  0.00     0.060 A 
ATOM     26  C   UNL A   1      39.187  23.224  26.366  1.00  0.00     0.016 A 
ATOM     27  C   UNL A   1      40.940  22.096  27.605  1.00  0.00     0.016 A 
ATOM     28  C   UNL A   1      39.601  24.450  26.881  1.00  0.00     0.010 A 
ATOM     29  C   UNL A   1      41.340  23.328  28.141  1.00  0.00     0.010 A 
ATOM     30  C   UNL A   1      40.706  24.520  27.743  1.00  0.00    -0.014 A 
BRANCH  30  31
ATOM     31  C   UNL A   1      41.298  25.849  28.057  1.00  0.00     0.031 A 
ATOM     32  C   UNL A   1      42.695  26.148  27.574  1.00  0.00     0.074 A 
ATOM     33  C   UNL A   1      40.588  26.806  28.686  1.00  0.00     0.049 A 
ATOM     34  N   UNL A   1      43.410  27.235  27.715  1.00  0.00    -0.248 NA
ATOM     35  C   UNL A   1      43.376  25.074  26.834  1.00  0.00     0.031 C 
ATOM     36  C   UNL A   1      39.216  26.661  29.169  1.00  0.00     0.029 A 
ATOM     37  N   UNL A   1      40.924  28.096  29.024  1.00  0.00    -0.354 N 
ATOM     38  C   UNL A   1      44.621  26.977  27.077  1.00  0.00     0.074 A 
ATOM     39  C   UNL A   1      44.565  25.609  26.609  1.00  0.00     0.031 C 
ATOM     40  C   UNL A   1      38.826  27.816  29.735  1.00  0.00     0.029 A 
ATOM     41  C   UNL A   1      39.931  28.773  29.695  1.00  0.00     0.049 A 
ATOM     42  H   UNL A   1      41.796  28.499  28.804  1.00  0.00     0.167 HD
ATOM     43  C   UNL A   1      45.672  27.808  26.875  1.00  0.00     0.034 A 
ATOM     44  C   UNL A   1      39.922  30.011  30.233  1.00  0.00     0.034 A 
ATOM     45  C   UNL A   1      45.727  29.167  27.352  1.00  0.00     0.049 A 
ATOM     46  C   UNL A   1      41.147  30.887  30.085  1.00  0.00     0.074 A 
ATOM     47  C   UNL A   1      46.747  30.091  27.207  1.00  0.00     0.029 A 
ATOM     48  N   UNL A   1      44.723  29.797  28.075  1.00  0.00    -0.354 N 
ATOM     49  N   UNL A   1      42.280  30.630  29.471  1.00  0.00    -0.248 NA
ATOM     50  C   UNL A   1      41.087  32.225  30.690  1.00  0.00     0.031 C 
ATOM     51  C   UNL A   1      46.393  31.250  27.905  1.00  0.00     0.029 A 
ATOM     52  C   UNL A   1      45.113  31.085  28.409  1.00  0.00     0.049 A 
ATOM     53  H   UNL A   1      43.859  29.389  28.316  1.00  0.00     0.167 HD
ATOM     54  C   UNL A   1      43.048  31.788  29.587  1.00  0.00     0.074 A 
ATOM     55  C   UNL A   1      42.244  32.748  30.312  1.00  0.00     0.031 C 
ATOM     56  C   UNL A   1      44.304  32.036  29.134  1.00  0.00     0.034 A 
BRANCH  43  57
ATOM     57  C   UNL A   1      46.863  27.249  26.132  1.00  0.00     0.023 A 
ATOM     58  C   UNL A   1      47.884  26.548  26.799  1.00  0.00     0.031 A 
ATOM     59  C   UNL A   1      46.993  27.439  24.746  1.00  0.00     0.131 A 
ATOM     60  C   UNL A   1      49.021  26.128  26.093  1.00  0.00     0.055 A 
ATOM     61  C   UNL A   1      48.087  26.943  24.034  1.00  0.00     0.041 A 
ATOM     62  F   UNL A   1      46.063  28.121  24.059  1.00  0.00    -0.206 F 
ATOM     63  C   UNL A   1      49.116  26.296  24.710  1.00  0.00     0.022 A 
BRANCH  60  64
ATOM     64  S   UNL A   1      50.437  25.492  27.032  1.00  0.00     0.124 S 
ATOM     65  O   UNL A   1      51.401  25.228  25.966  1.00  0.00    -0.237 OA
ATOM     66  O   UNL A   1      50.754  26.605  27.918  1.00  0.00    -0.237 OA
ATOM     67  O   UNL A   1      49.905  24.301  27.689  1.00  0.00    -0.744 OA
ENDBRANCH  60  64
ENDBRANCH  43  57
BRANCH  44  68
ATOM     68  C   UNL A   1      38.741  30.496  31.012  1.00  0.00     0.023 A 
ATOM     69  C   UNL A   1      37.634  31.084  30.378  1.00  0.00     0.031 A 
ATOM     70  C   UNL A   1      38.745  30.457  32.418  1.00  0.00     0.131 A 
ATOM     71  C   UNL A   1      36.611  31.664  31.146  1.00  0.00     0.055 A 
ATOM     72  C   UNL A   1      37.694  30.976  33.178  1.00  0.00     0.041 A 
ATOM     73  F   UNL A   1      39.779  29.915  33.080  1.00  0.00    -0.206 F 
ATOM     74  C   UNL A   1      36.627  31.600  32.541  1.00  0.00     0.022 A 
BRANCH  71  75
ATOM     75  S   UNL A   1      35.319  32.616  30.300  1.00  0.00     0.124 S 
ATOM     76  O   UNL A   1      36.036  33.834  29.940  1.00  0.00    -0.237 OA
ATOM     77  O   UNL A   1      34.965  31.729  29.197  1.00  0.00    -0.237 OA
ATOM     78  O   UNL A   1      34.290  32.776  31.325  1.00  0.00    -0.744 OA
ENDBRANCH  71  75
ENDBRANCH  44  68
BRANCH  56  79
ATOM     79  C   UNL A   1      44.863  33.423  29.358  1.00  0.00     0.023 A 
ATOM     80  C   UNL A   1      44.684  34.459  28.425  1.00  0.00     0.031 A 
ATOM     81  C   UNL A   1      45.592  33.709  30.528  1.00  0.00     0.131 A 
ATOM     82  C   UNL A   1      45.273  35.714  28.650  1.00  0.00     0.055 A 
ATOM     83  C   UNL A   1      46.116  34.978  30.777  1.00  0.00     0.041 A 
ATOM     84  F   UNL A   1      45.799  32.759  31.454  1.00  0.00    -0.206 F 
ATOM     85  C   UNL A   1      45.971  35.985  29.829  1.00  0.00     0.022 A 
BRANCH  82  86
ATOM     86  S   UNL A   1      45.202  36.958  27.332  1.00  0.00     0.124 S 
ATOM     87  O   UNL A   1      43.788  36.941  26.974  1.00  0.00    -0.237 OA
ATOM     88  O   UNL A   1      45.673  38.160  28.011  1.00  0.00    -0.237 OA
ATOM     89  O   UNL A   1      46.106  36.429  26.312  1.00  0.00    -0.744 OA
ENDBRANCH  82  86
ENDBRANCH  56  79
ENDBRANCH  30  31
ENDBRANCH  23  25
ENDBRANCH  22  23
ENDBRANCH  21  22
ENDBRANCH   1  21
TORSDOF 18
ENDMDL
MODEL 2
REMARK VINA RESULT:     -10.8      4.749     10.361
REMARK SMILES CC1(C)[C@@H](C(=O)OCCOCCOC(=O)c2ccc(-c3c4nc(c(-c5cc(S(=O)(=O)[O-])ccc5F)c5ccc([nH]5)c(-c5cc(S(=O)(=O)[O-])ccc5F)c5nc(c(-c6cc(S(=O)(=O)[O-])ccc6F)c6ccc3[nH]6)C=C5)C=C4)cc2)CC[C@@]1(C)C(N)=O
REMARK SMILES IDX 11 1 10 2 9 3 8 4 7 5 5 6 6 7 4 8 1 9 2 10 3 11 81 12 79 13
REMARK SMILES IDX 80 14 82 15 83 16 84 17 85 18 12 21 13 22 14 23 15 24 16 25
REMARK SMILES IDX 17 26 78 27 18 28 77 29 19 30 20 31 21 32 71 33 22 34 76 35
REMARK SMILES IDX 70 36 72 37 23 38 75 39 69 40 68 41 24 43 56 44 36 45 55 46
REMARK SMILES IDX 37 47 40 48 54 49 73 50 38 51 39 52 53 54 74 55 41 56 25 57
REMARK SMILES IDX 26 58 34 59 27 60 33 61 35 62 32 63 28 64 29 65 30 66 31 67
REMARK SMILES IDX 57 68 58 69 66 70 59 71 65 72 67 73 64 74 60 75 61 76 62 77
REMARK SMILES IDX 63 78 42 79 43 80 51 81 44 82 50 83 52 84 49 85 45 86 46 87
REMARK SMILES IDX 47 88 48 89
REMARK H PARENT 84 19 84 20 72 42 40 53
REMARK Flexibility Score: inf
ROOT
ATOM      1  C   UNL A   1      31.611  31.081  26.125  1.00  0.00     0.202 C 
ENDROOT
BRANCH   1   2
ATOM      2  O   UNL A   1      32.700  30.191  26.362  1.00  0.00    -0.374 OA
BRANCH   2   3
ATOM      3  C   UNL A   1      33.054  29.326  25.281  1.00  0.00     0.202 C 
BRANCH   3   4
ATOM      4  C   UNL A   1      31.892  28.929  24.362  1.00  0.00     0.261 C 
BRANCH   4   5
ATOM      5  O   UNL A   1      32.380  28.465  23.077  1.00  0.00    -0.463 OA
BRANCH   5   6
ATOM      6  C   UNL A   1      32.355  27.131  22.868  1.00  0.00     0.309 C 
ATOM      7  O   UNL A   1      32.921  26.568  21.936  1.00  0.00    -0.252 OA
BRANCH   6   8
ATOM      8  C   UNL A   1      31.649  26.328  23.957  1.00  0.00     0.106 C 
ATOM      9  C   UNL A   1      33.781  25.367  25.126  1.00  0.00     0.013 C 
ATOM     10  C   UNL A   1      32.285  25.195  24.818  1.00  0.00    -0.008 C 
ATOM     11  C   UNL A   1      31.608  25.327  26.227  1.00  0.00     0.013 C 
ATOM     12  C   UNL A   1      31.843  23.836  24.132  1.00  0.00     0.052 C 
ATOM     13  C   UNL A   1      30.356  25.716  23.409  1.00  0.00     0.017 C 
ATOM     14  C   UNL A   1      30.516  24.195  23.413  1.00  0.00     0.018 C 
ATOM     15  C   UNL A   1      31.563  22.696  25.151  1.00  0.00     0.022 C 
BRANCH  12  16
ATOM     16  C   UNL A   1      32.769  23.147  23.099  1.00  0.00     0.223 C 
ATOM     17  N   UNL A   1      32.848  23.623  21.845  1.00  0.00    -0.369 N 
ATOM     18  O   UNL A   1      33.399  22.119  23.354  1.00  0.00    -0.275 OA
ATOM     19  H   UNL A   1      32.361  24.442  21.597  1.00  0.00     0.159 HD
ATOM     20  H   UNL A   1      33.393  23.153  21.173  1.00  0.00     0.159 HD
ENDBRANCH  12  16
ENDBRANCH   6   8
ENDBRANCH   5   6
ENDBRANCH   4   5
ENDBRANCH   3   4
ENDBRANCH   2   3
ENDBRANCH   1   2
BRANCH   1  21
ATOM     21  C   UNL A   1      31.529  32.304  27.048  1.00  0.00     0.261 C 
BRANCH  21  22
ATOM     22  O   UNL A   1      32.622  33.209  26.824  1.00  0.00    -0.460 OA
BRANCH  22  23
ATOM     23  C   UNL A   1      33.139  33.778  27.938  1.00  0.00     0.338 C 
ATOM     24  O   UNL A   1      32.586  34.581  28.672  1.00  0.00    -0.246 OA
BRANCH  23  25
ATOM     25  C   UNL A   1      34.414  33.108  28.279  1.00  0.00     0.060 A 
ATOM     26  C   UNL A   1      34.341  31.777  28.706  1.00  0.00     0.016 A 
ATOM     27  C   UNL A   1      35.654  33.746  28.178  1.00  0.00     0.016 A 
ATOM     28  C   UNL A   1      35.497  31.101  29.092  1.00  0.00     0.010 A 
ATOM     29  C   UNL A   1      36.817  33.057  28.544  1.00  0.00     0.010 A 
ATOM     30  C   UNL A   1      36.741  31.746  29.052  1.00  0.00    -0.014 A 
BRANCH  30  31
ATOM     31  C   UNL A   1      37.909  31.111  29.723  1.00  0.00     0.031 A 
ATOM     32  C   UNL A   1      38.204  31.477  31.156  1.00  0.00     0.074 A 
ATOM     33  C   UNL A   1      38.648  30.168  29.107  1.00  0.00     0.049 A 
ATOM     34  N   UNL A   1      39.153  31.045  31.947  1.00  0.00    -0.248 NA
ATOM     35  C   UNL A   1      37.307  32.464  31.778  1.00  0.00     0.031 C 
ATOM     36  C   UNL A   1      38.444  29.693  27.739  1.00  0.00     0.029 A 
ATOM     37  N   UNL A   1      39.721  29.434  29.556  1.00  0.00    -0.354 N 
ATOM     38  C   UNL A   1      38.964  31.704  33.159  1.00  0.00     0.074 A 
ATOM     39  C   UNL A   1      37.851  32.610  32.976  1.00  0.00     0.031 C 
ATOM     40  C   UNL A   1      39.358  28.747  27.463  1.00  0.00     0.029 A 
ATOM     41  C   UNL A   1      40.239  28.573  28.616  1.00  0.00     0.049 A 
ATOM     42  H   UNL A   1      40.083  29.516  30.468  1.00  0.00     0.167 HD
ATOM     43  C   UNL A   1      39.635  31.551  34.327  1.00  0.00     0.034 A 
ATOM     44  C   UNL A   1      41.312  27.755  28.672  1.00  0.00     0.034 A 
ATOM     45  C   UNL A   1      40.750  30.654  34.502  1.00  0.00     0.049 A 
ATOM     46  C   UNL A   1      42.111  27.676  29.955  1.00  0.00     0.074 A 
ATOM     47  C   UNL A   1      41.503  30.428  35.640  1.00  0.00     0.029 A 
ATOM     48  N   UNL A   1      41.279  29.839  33.510  1.00  0.00    -0.354 N 
ATOM     49  N   UNL A   1      41.912  28.299  31.094  1.00  0.00    -0.248 NA
ATOM     50  C   UNL A   1      43.271  26.773  29.964  1.00  0.00     0.031 C 
ATOM     51  C   UNL A   1      42.531  29.537  35.318  1.00  0.00     0.029 A 
ATOM     52  C   UNL A   1      42.367  29.135  34.003  1.00  0.00     0.049 A 
ATOM     53  H   UNL A   1      40.932  29.771  32.591  1.00  0.00     0.167 HD
ATOM     54  C   UNL A   1      42.900  27.833  31.961  1.00  0.00     0.074 A 
ATOM     55  C   UNL A   1      43.680  26.866  31.220  1.00  0.00     0.031 C 
ATOM     56  C   UNL A   1      43.140  28.172  33.254  1.00  0.00     0.034 A 
BRANCH  43  57
ATOM     57  C   UNL A   1      39.196  32.404  35.494  1.00  0.00     0.023 A 
ATOM     58  C   UNL A   1      39.619  33.738  35.631  1.00  0.00     0.031 A 
ATOM     59  C   UNL A   1      38.365  31.871  36.494  1.00  0.00     0.131 A 
ATOM     60  C   UNL A   1      39.271  34.468  36.777  1.00  0.00     0.055 A 
ATOM     61  C   UNL A   1      37.952  32.632  37.590  1.00  0.00     0.041 A 
ATOM     62  F   UNL A   1      37.949  30.597  36.430  1.00  0.00    -0.206 F 
ATOM     63  C   UNL A   1      38.417  33.933  37.744  1.00  0.00     0.022 A 
BRANCH  60  64
ATOM     64  S   UNL A   1      40.070  36.073  37.057  1.00  0.00     0.124 S 
ATOM     65  O   UNL A   1      39.273  36.609  38.159  1.00  0.00    -0.237 OA
ATOM     66  O   UNL A   1      41.438  35.692  37.385  1.00  0.00    -0.237 OA
ATOM     67  O   UNL A   1      39.902  36.766  35.782  1.00  0.00    -0.744 OA
ENDBRANCH  60  64
ENDBRANCH  43  57
BRANCH  44  68
ATOM     68  C   UNL A   1      41.742  26.977  27.469  1.00  0.00     0.023 A 
ATOM     69  C   UNL A   1      41.529  25.592  27.376  1.00  0.00     0.031 A 
ATOM     70  C   UNL A   1      42.457  27.600  26.430  1.00  0.00     0.131 A 
ATOM     71  C   UNL A   1      42.078  24.868  26.304  1.00  0.00     0.055 A 
ATOM     72  C   UNL A   1      42.943  26.888  25.333  1.00  0.00     0.041 A 
ATOM     73  F   UNL A   1      42.699  28.920  26.468  1.00  0.00    -0.206 F 
ATOM     74  C   UNL A   1      42.770  25.509  25.275  1.00  0.00     0.022 A 
BRANCH  71  75
ATOM     75  S   UNL A   1      41.983  23.056  26.337  1.00  0.00     0.124 S 
ATOM     76  O   UNL A   1      42.615  22.704  25.071  1.00  0.00    -0.237 OA
ATOM     77  O   UNL A   1      42.739  22.737  27.544  1.00  0.00    -0.237 OA
ATOM     78  O   UNL A   1      40.547  22.793  26.414  1.00  0.00    -0.744 OA
ENDBRANCH  71  75
ENDBRANCH  44  68
BRANCH  56  79
ATOM     79  C   UNL A   1      44.258  27.447  33.968  1.00  0.00     0.023 A 
ATOM     80  C   UNL A   1      44.055  26.215  34.615  1.00  0.00     0.031 A 
ATOM     81  C   UNL A   1      45.551  28.003  34.003  1.00  0.00     0.131 A 
ATOM     82  C   UNL A   1      45.110  25.609  35.315  1.00  0.00     0.055 A 
ATOM     83  C   UNL A   1      46.612  27.361  34.643  1.00  0.00     0.041 A 
ATOM     84  F   UNL A   1      45.805  29.179  33.406  1.00  0.00    -0.206 F 
ATOM     85  C   UNL A   1      46.391  26.165  35.317  1.00  0.00     0.022 A 
BRANCH  82  86
ATOM     86  S   UNL A   1      44.761  24.134  36.312  1.00  0.00     0.124 S 
ATOM     87  O   UNL A   1      46.070  23.493  36.375  1.00  0.00    -0.237 OA
ATOM     88  O   UNL A   1      44.273  24.710  37.561  1.00  0.00    -0.237 OA
ATOM     89  O   UNL A   1      43.757  23.419  35.527  1.00  0.00    -0.744 OA
ENDBRANCH  82  86
ENDBRANCH  56  79
ENDBRANCH  30  31
ENDBRANCH  23  25
ENDBRANCH  22  23
ENDBRANCH  21  22
ENDBRANCH   1  21
TORSDOF 18
ENDMDL
MODEL 3
REMARK VINA RESULT:     -10.7      2.072      2.374
REMARK SMILES CC1(C)[C@@H](C(=O)OCCOCCOC(=O)c2ccc(-c3c4nc(c(-c5cc(S(=O)(=O)[O-])ccc5F)c5ccc([nH]5)c(-c5cc(S(=O)(=O)[O-])ccc5F)c5nc(c(-c6cc(S(=O)(=O)[O-])ccc6F)c6ccc3[nH]6)C=C5)C=C4)cc2)CC[C@@]1(C)C(N)=O
REMARK SMILES IDX 11 1 10 2 9 3 8 4 7 5 5 6 6 7 4 8 1 9 2 10 3 11 81 12 79 13
REMARK SMILES IDX 80 14 82 15 83 16 84 17 85 18 12 21 13 22 14 23 15 24 16 25
REMARK SMILES IDX 17 26 78 27 18 28 77 29 19 30 20 31 21 32 71 33 22 34 76 35
REMARK SMILES IDX 70 36 72 37 23 38 75 39 69 40 68 41 24 43 56 44 36 45 55 46
REMARK SMILES IDX 37 47 40 48 54 49 73 50 38 51 39 52 53 54 74 55 41 56 25 57
REMARK SMILES IDX 26 58 34 59 27 60 33 61 35 62 32 63 28 64 29 65 30 66 31 67
REMARK SMILES IDX 57 68 58 69 66 70 59 71 65 72 67 73 64 74 60 75 61 76 62 77
REMARK SMILES IDX 63 78 42 79 43 80 51 81 44 82 50 83 52 84 49 85 45 86 46 87
REMARK SMILES IDX 47 88 48 89
REMARK H PARENT 84 19 84 20 72 42 40 53
REMARK Flexibility Score: inf
ROOT
ATOM      1  C   UNL A   1      36.054  21.512  25.809  1.00  0.00     0.202 C 
ENDROOT
BRANCH   1   2
ATOM      2  O   UNL A   1      34.814  21.171  25.192  1.00  0.00    -0.374 OA
BRANCH   2   3
ATOM      3  C   UNL A   1      33.711  20.951  26.074  1.00  0.00     0.202 C 
BRANCH   3   4
ATOM      4  C   UNL A   1      32.486  21.838  25.812  1.00  0.00     0.261 C 
BRANCH   4   5
ATOM      5  O   UNL A   1      32.828  23.243  25.922  1.00  0.00    -0.463 OA
BRANCH   5   6
ATOM      6  C   UNL A   1      31.853  24.069  26.360  1.00  0.00     0.309 C 
ATOM      7  O   UNL A   1      31.076  23.797  27.270  1.00  0.00    -0.252 OA
BRANCH   6   8
ATOM      8  C   UNL A   1      31.845  25.449  25.707  1.00  0.00     0.106 C 
ATOM      9  C   UNL A   1      30.441  24.829  23.590  1.00  0.00     0.013 C 
ATOM     10  C   UNL A   1      31.493  25.756  24.221  1.00  0.00    -0.008 C 
ATOM     11  C   UNL A   1      30.774  27.150  24.254  1.00  0.00     0.013 C 
ATOM     12  C   UNL A   1      32.883  25.884  23.469  1.00  0.00     0.052 C 
ATOM     13  C   UNL A   1      33.186  26.151  25.939  1.00  0.00     0.017 C 
ATOM     14  C   UNL A   1      33.871  26.319  24.583  1.00  0.00     0.018 C 
ATOM     15  C   UNL A   1      32.881  26.968  22.355  1.00  0.00     0.022 C 
BRANCH  12  16
ATOM     16  C   UNL A   1      33.495  24.658  22.746  1.00  0.00     0.223 C 
ATOM     17  N   UNL A   1      34.187  23.742  23.447  1.00  0.00    -0.369 N 
ATOM     18  O   UNL A   1      33.438  24.511  21.525  1.00  0.00    -0.275 OA
ATOM     19  H   UNL A   1      34.258  23.821  24.425  1.00  0.00     0.159 HD
ATOM     20  H   UNL A   1      34.622  22.992  22.980  1.00  0.00     0.159 HD
ENDBRANCH  12  16
ENDBRANCH   6   8
ENDBRANCH   5   6
ENDBRANCH   4   5
ENDBRANCH   3   4
ENDBRANCH   2   3
ENDBRANCH   1   2
BRANCH   1  21
ATOM     21  C   UNL A   1      37.313  20.922  25.159  1.00  0.00     0.261 C 
BRANCH  21  22
ATOM     22  O   UNL A   1      38.407  21.852  25.188  1.00  0.00    -0.460 OA
BRANCH  22  23
ATOM     23  C   UNL A   1      39.387  21.565  26.076  1.00  0.00     0.338 C 
ATOM     24  O   UNL A   1      39.991  20.509  26.182  1.00  0.00    -0.246 OA
BRANCH  23  25
ATOM     25  C   UNL A   1      39.793  22.807  26.771  1.00  0.00     0.060 A 
ATOM     26  C   UNL A   1      39.052  23.963  26.498  1.00  0.00     0.016 A 
ATOM     27  C   UNL A   1      40.857  22.852  27.677  1.00  0.00     0.016 A 
ATOM     28  C   UNL A   1      39.411  25.177  27.078  1.00  0.00     0.010 A 
ATOM     29  C   UNL A   1      41.201  24.071  28.278  1.00  0.00     0.010 A 
ATOM     30  C   UNL A   1      40.512  25.252  27.943  1.00  0.00    -0.014 A 
BRANCH  30  31
ATOM     31  C   UNL A   1      41.044  26.588  28.328  1.00  0.00     0.031 A 
ATOM     32  C   UNL A   1      42.480  26.915  28.001  1.00  0.00     0.074 A 
ATOM     33  C   UNL A   1      40.253  27.528  28.882  1.00  0.00     0.049 A 
ATOM     34  N   UNL A   1      43.156  28.013  28.225  1.00  0.00    -0.248 NA
ATOM     35  C   UNL A   1      43.256  25.858  27.333  1.00  0.00     0.031 C 
ATOM     36  C   UNL A   1      38.839  27.356  29.211  1.00  0.00     0.029 A 
ATOM     37  N   UNL A   1      40.528  28.821  29.262  1.00  0.00    -0.354 N 
ATOM     38  C   UNL A   1      44.433  27.780  27.721  1.00  0.00     0.074 A 
ATOM     39  C   UNL A   1      44.453  26.415  27.241  1.00  0.00     0.031 C 
ATOM     40  C   UNL A   1      38.370  28.500  29.740  1.00  0.00     0.029 A 
ATOM     41  C   UNL A   1      39.456  29.475  29.825  1.00  0.00     0.049 A 
ATOM     42  H   UNL A   1      41.411  29.240  29.140  1.00  0.00     0.167 HD
ATOM     43  C   UNL A   1      45.485  28.630  27.639  1.00  0.00     0.034 A 
ATOM     44  C   UNL A   1      39.367  30.709  30.367  1.00  0.00     0.034 A 
ATOM     45  C   UNL A   1      45.464  29.986  28.128  1.00  0.00     0.049 A 
ATOM     46  C   UNL A   1      40.585  31.607  30.357  1.00  0.00     0.074 A 
ATOM     47  C   UNL A   1      46.477  30.928  28.100  1.00  0.00     0.029 A 
ATOM     48  N   UNL A   1      44.377  30.594  28.741  1.00  0.00    -0.354 N 
ATOM     49  N   UNL A   1      41.782  31.373  29.869  1.00  0.00    -0.248 NA
ATOM     50  C   UNL A   1      40.437  32.939  30.960  1.00  0.00     0.031 C 
ATOM     51  C   UNL A   1      46.030  32.075  28.762  1.00  0.00     0.029 A 
ATOM     52  C   UNL A   1      44.706  31.885  29.123  1.00  0.00     0.049 A 
ATOM     53  H   UNL A   1      43.499  30.169  28.884  1.00  0.00     0.167 HD
ATOM     54  C   UNL A   1      42.513  32.543  30.075  1.00  0.00     0.074 A 
ATOM     55  C   UNL A   1      41.618  33.484  30.713  1.00  0.00     0.031 C 
ATOM     56  C   UNL A   1      43.806  32.817  29.762  1.00  0.00     0.034 A 
BRANCH  43  57
ATOM     57  C   UNL A   1      46.759  28.097  27.027  1.00  0.00     0.023 A 
ATOM     58  C   UNL A   1      46.996  28.165  25.642  1.00  0.00     0.031 A 
ATOM     59  C   UNL A   1      47.739  27.491  27.832  1.00  0.00     0.131 A 
ATOM     60  C   UNL A   1      48.145  27.573  25.098  1.00  0.00     0.055 A 
ATOM     61  C   UNL A   1      48.921  26.980  27.294  1.00  0.00     0.041 A 
ATOM     62  F   UNL A   1      47.558  27.375  29.157  1.00  0.00    -0.206 F 
ATOM     63  C   UNL A   1      49.123  27.006  25.918  1.00  0.00     0.022 A 
BRANCH  60  64
ATOM     64  S   UNL A   1      48.272  27.424  23.295  1.00  0.00     0.124 S 
ATOM     65  O   UNL A   1      49.591  28.001  23.045  1.00  0.00    -0.237 OA
ATOM     66  O   UNL A   1      48.155  25.986  23.087  1.00  0.00    -0.237 OA
ATOM     67  O   UNL A   1      47.149  28.220  22.805  1.00  0.00    -0.744 OA
ENDBRANCH  60  64
ENDBRANCH  43  57
BRANCH  44  68
ATOM     68  C   UNL A   1      38.100  31.168  31.015  1.00  0.00     0.023 A 
ATOM     69  C   UNL A   1      37.085  31.801  30.279  1.00  0.00     0.031 A 
ATOM     70  C   UNL A   1      37.927  31.057  32.407  1.00  0.00     0.131 A 
ATOM     71  C   UNL A   1      35.977  32.353  30.943  1.00  0.00     0.055 A 
ATOM     72  C   UNL A   1      36.792  31.549  33.055  1.00  0.00     0.041 A 
ATOM     73  F   UNL A   1      38.866  30.470  33.164  1.00  0.00    -0.206 F 
ATOM     74  C   UNL A   1      35.816  32.218  32.323  1.00  0.00     0.022 A 
BRANCH  71  75
ATOM     75  S   UNL A   1      34.807  33.363  29.992  1.00  0.00     0.124 S 
ATOM     76  O   UNL A   1      33.995  33.951  31.052  1.00  0.00    -0.237 OA
ATOM     77  O   UNL A   1      35.700  34.276  29.286  1.00  0.00    -0.237 OA
ATOM     78  O   UNL A   1      34.122  32.385  29.149  1.00  0.00    -0.744 OA
ENDBRANCH  71  75
ENDBRANCH  44  68
BRANCH  56  79
ATOM     79  C   UNL A   1      44.313  34.211  30.053  1.00  0.00     0.023 A 
ATOM     80  C   UNL A   1      44.899  34.548  31.285  1.00  0.00     0.031 A 
ATOM     81  C   UNL A   1      44.204  35.219  29.077  1.00  0.00     0.131 A 
ATOM     82  C   UNL A   1      45.301  35.871  31.530  1.00  0.00     0.055 A 
ATOM     83  C   UNL A   1      44.668  36.516  29.302  1.00  0.00     0.041 A 
ATOM     84  F   UNL A   1      43.650  34.957  27.882  1.00  0.00    -0.206 F 
ATOM     85  C   UNL A   1      45.207  36.852  30.540  1.00  0.00     0.022 A 
BRANCH  82  86
ATOM     86  S   UNL A   1      45.854  36.319  33.199  1.00  0.00     0.124 S 
ATOM     87  O   UNL A   1      45.174  35.324  34.021  1.00  0.00    -0.237 OA
ATOM     88  O   UNL A   1      47.303  36.179  33.096  1.00  0.00    -0.237 OA
ATOM     89  O   UNL A   1      45.375  37.690  33.363  1.00  0.00    -0.744 OA
ENDBRANCH  82  86
ENDBRANCH  56  79
ENDBRANCH  30  31
ENDBRANCH  23  25
ENDBRANCH  22  23
ENDBRANCH  21  22
ENDBRANCH   1  21
TORSDOF 18
ENDMDL
