MODEL 1
REMARK VINA RESULT:     -11.2      0.000      0.000
REMARK SMILES O=C(OCCOCCOC(=O)c1ccc(-c2c3nc(c(-c4cc(S(=O)(=O)[O-])ccc4F)c4ccc([nH]4)c(-c4cc(S(=O)(=O)[O-])ccc4F)c4nc(c(-c5cc(S(=O)(=O)[O-])ccc5F)c5ccc2[nH]5)C=C4)C=C3)cc1)C1=Cc2c(ccc(Cl)c2Oc2ccccc2)O[C@H]1C(F)(F)F
REMARK SMILES IDX 7 1 6 2 5 3 4 4 3 5 2 6 1 7 75 8 76 9 92 10 77 11 91 12
REMARK SMILES IDX 78 13 83 14 79 15 81 16 80 17 82 18 93 19 94 20 95 21 96 22
REMARK SMILES IDX 84 23 85 24 86 25 90 26 87 27 89 28 88 29 8 30 9 31 10 32
REMARK SMILES IDX 11 33 12 34 13 35 74 36 14 37 73 38 15 39 16 40 17 41 67 42
REMARK SMILES IDX 18 43 72 44 66 45 68 46 19 47 71 48 65 49 64 50 20 52 52 53
REMARK SMILES IDX 32 54 51 55 33 56 36 57 50 58 69 59 34 60 35 61 49 63 70 64
REMARK SMILES IDX 37 65 21 66 22 67 30 68 23 69 29 70 31 71 28 72 24 73 25 74
REMARK SMILES IDX 26 75 27 76 53 77 54 78 62 79 55 80 61 81 63 82 60 83 56 84
REMARK SMILES IDX 57 85 58 86 59 87 38 88 39 89 47 90 40 91 46 92 48 93 45 94
REMARK SMILES IDX 41 95 42 96 43 97 44 98
REMARK H PARENT 68 51 36 62
REMARK Flexibility Score: inf
ROOT
ATOM      1  C   UNL A   1      42.805  40.685  26.587  1.00  0.00     0.202 C 
ENDROOT
BRANCH   1   2
ATOM      2  O   UNL A   1      43.547  40.879  25.385  1.00  0.00    -0.374 OA
BRANCH   2   3
ATOM      3  C   UNL A   1      43.504  42.231  24.975  1.00  0.00     0.202 C 
BRANCH   3   4
ATOM      4  C   UNL A   1      43.078  42.505  23.510  1.00  0.00     0.261 C 
BRANCH   4   5
ATOM      5  O   UNL A   1      43.920  43.378  22.726  1.00  0.00    -0.460 OA
BRANCH   5   6
ATOM      6  C   UNL A   1      44.337  42.966  21.500  1.00  0.00     0.338 C 
ATOM      7  O   UNL A   1      44.922  41.905  21.291  1.00  0.00    -0.246 OA
BRANCH   6   8
ATOM      8  C   UNL A   1      44.250  43.982  20.439  1.00  0.00     0.088 C 
ATOM      9  C   UNL A   1      45.214  43.960  19.521  1.00  0.00     0.031 C 
ATOM     10  C   UNL A   1      42.891  44.474  19.998  1.00  0.00     0.316 C 
ATOM     11  C   UNL A   1      45.386  45.133  18.716  1.00  0.00     0.062 A 
ATOM     12  O   UNL A   1      42.941  45.220  18.721  1.00  0.00    -0.475 OA
ATOM     13  C   UNL A   1      44.165  45.682  18.279  1.00  0.00     0.131 A 
ATOM     14  C   UNL A   1      46.641  45.574  18.261  1.00  0.00     0.156 A 
ATOM     15  C   UNL A   1      44.182  46.636  17.273  1.00  0.00     0.049 A 
ATOM     16  C   UNL A   1      46.619  46.600  17.312  1.00  0.00     0.084 A 
ATOM     17  C   UNL A   1      45.413  47.097  16.795  1.00  0.00     0.028 A 
ATOM     18  Cl  UNL A   1      48.102  47.259  16.735  1.00  0.00    -0.080 Cl
BRANCH  10  19
ATOM     19  C   UNL A   1      41.880  43.292  19.893  1.00  0.00     0.430 C 
ATOM     20  F   UNL A   1      42.459  42.135  19.495  1.00  0.00    -0.167 F 
ATOM     21  F   UNL A   1      41.291  43.048  21.090  1.00  0.00    -0.167 F 
ATOM     22  F   UNL A   1      40.881  43.538  19.013  1.00  0.00    -0.167 F 
ENDBRANCH  10  19
BRANCH  14  23
ATOM     23  O   UNL A   1      47.874  44.952  18.393  1.00  0.00    -0.455 OA
BRANCH  23  24
ATOM     24  C   UNL A   1      48.747  45.040  19.446  1.00  0.00     0.127 A 
ATOM     25  C   UNL A   1      49.625  46.080  19.721  1.00  0.00     0.047 A 
ATOM     26  C   UNL A   1      48.814  43.888  20.251  1.00  0.00     0.047 A 
ATOM     27  C   UNL A   1      50.434  46.023  20.876  1.00  0.00     0.004 A 
ATOM     28  C   UNL A   1      49.572  43.849  21.426  1.00  0.00     0.004 A 
ATOM     29  C   UNL A   1      50.365  44.937  21.757  1.00  0.00     0.000 A 
ENDBRANCH  23  24
ENDBRANCH  14  23
ENDBRANCH   6   8
ENDBRANCH   5   6
ENDBRANCH   4   5
ENDBRANCH   3   4
ENDBRANCH   2   3
ENDBRANCH   1   2
BRANCH   1  30
ATOM     30  C   UNL A   1      43.376  39.865  27.784  1.00  0.00     0.261 C 
BRANCH  30  31
ATOM     31  O   UNL A   1      43.788  38.485  27.643  1.00  0.00    -0.460 OA
BRANCH  31  32
ATOM     32  C   UNL A   1      43.988  37.832  28.825  1.00  0.00     0.338 C 
ATOM     33  O   UNL A   1      44.013  38.397  29.911  1.00  0.00    -0.246 OA
BRANCH  32  34
ATOM     34  C   UNL A   1      44.259  36.352  28.713  1.00  0.00     0.060 A 
ATOM     35  C   UNL A   1      43.672  35.683  27.627  1.00  0.00     0.016 A 
ATOM     36  C   UNL A   1      44.903  35.572  29.686  1.00  0.00     0.016 A 
ATOM     37  C   UNL A   1      43.660  34.281  27.539  1.00  0.00     0.010 A 
ATOM     38  C   UNL A   1      44.901  34.152  29.592  1.00  0.00     0.010 A 
ATOM     39  C   UNL A   1      44.234  33.489  28.542  1.00  0.00    -0.014 A 
BRANCH  39  40
ATOM     40  C   UNL A   1      43.909  32.018  28.553  1.00  0.00     0.031 A 
ATOM     41  C   UNL A   1      42.614  31.570  29.191  1.00  0.00     0.074 A 
ATOM     42  C   UNL A   1      44.648  31.101  27.891  1.00  0.00     0.049 A 
ATOM     43  N   UNL A   1      42.011  30.407  29.134  1.00  0.00    -0.248 NA
ATOM     44  C   UNL A   1      41.898  32.576  29.987  1.00  0.00     0.031 C 
ATOM     45  C   UNL A   1      45.899  31.377  27.199  1.00  0.00     0.029 A 
ATOM     46  N   UNL A   1      44.445  29.755  27.662  1.00  0.00    -0.354 N 
ATOM     47  C   UNL A   1      40.830  30.553  29.858  1.00  0.00     0.074 A 
ATOM     48  C   UNL A   1      40.838  31.896  30.397  1.00  0.00     0.031 C 
ATOM     49  C   UNL A   1      46.352  30.256  26.614  1.00  0.00     0.029 A 
ATOM     50  C   UNL A   1      45.422  29.163  26.887  1.00  0.00     0.049 A 
ATOM     51  H   UNL A   1      43.674  29.261  28.023  1.00  0.00     0.167 HD
ATOM     52  C   UNL A   1      39.819  29.665  30.042  1.00  0.00     0.034 A 
ATOM     53  C   UNL A   1      45.552  27.899  26.428  1.00  0.00     0.034 A 
ATOM     54  C   UNL A   1      39.830  28.311  29.540  1.00  0.00     0.049 A 
ATOM     55  C   UNL A   1      44.456  26.899  26.718  1.00  0.00     0.074 A 
ATOM     56  C   UNL A   1      38.864  27.328  29.682  1.00  0.00     0.029 A 
ATOM     57  N   UNL A   1      40.870  27.739  28.818  1.00  0.00    -0.354 N 
ATOM     58  N   UNL A   1      43.324  27.074  27.362  1.00  0.00    -0.248 NA
ATOM     59  C   UNL A   1      44.642  25.539  26.194  1.00  0.00     0.031 C 
ATOM     60  C   UNL A   1      39.353  26.145  29.117  1.00  0.00     0.029 A 
ATOM     61  C   UNL A   1      40.584  26.409  28.541  1.00  0.00     0.049 A 
ATOM     62  H   UNL A   1      41.691  28.207  28.544  1.00  0.00     0.167 HD
ATOM     63  C   UNL A   1      42.646  25.860  27.277  1.00  0.00     0.074 A 
ATOM     64  C   UNL A   1      43.490  24.967  26.511  1.00  0.00     0.031 C 
ATOM     65  C   UNL A   1      41.430  25.519  27.779  1.00  0.00     0.034 A 
BRANCH  52  66
ATOM     66  C   UNL A   1      38.643  30.128  30.874  1.00  0.00     0.023 A 
ATOM     67  C   UNL A   1      37.552  30.807  30.300  1.00  0.00     0.031 A 
ATOM     68  C   UNL A   1      38.638  29.939  32.267  1.00  0.00     0.131 A 
ATOM     69  C   UNL A   1      36.551  31.349  31.122  1.00  0.00     0.055 A 
ATOM     70  C   UNL A   1      37.594  30.405  33.070  1.00  0.00     0.041 A 
ATOM     71  F   UNL A   1      39.660  29.318  32.877  1.00  0.00    -0.206 F 
ATOM     72  C   UNL A   1      36.552  31.130  32.501  1.00  0.00     0.022 A 
BRANCH  69  73
ATOM     73  S   UNL A   1      35.341  32.483  30.386  1.00  0.00     0.124 S 
ATOM     74  O   UNL A   1      36.156  33.675  30.157  1.00  0.00    -0.237 OA
ATOM     75  O   UNL A   1      34.913  31.761  29.195  1.00  0.00    -0.237 OA
ATOM     76  O   UNL A   1      34.326  32.626  31.429  1.00  0.00    -0.744 OA
ENDBRANCH  69  73
ENDBRANCH  52  66
BRANCH  53  77
ATOM     77  C   UNL A   1      46.759  27.481  25.645  1.00  0.00     0.023 A 
ATOM     78  C   UNL A   1      46.960  27.897  24.316  1.00  0.00     0.031 A 
ATOM     79  C   UNL A   1      47.696  26.588  26.197  1.00  0.00     0.131 A 
ATOM     80  C   UNL A   1      48.037  27.383  23.572  1.00  0.00     0.055 A 
ATOM     81  C   UNL A   1      48.795  26.122  25.471  1.00  0.00     0.041 A 
ATOM     82  F   UNL A   1      47.553  26.149  27.458  1.00  0.00    -0.206 F 
ATOM     83  C   UNL A   1      48.962  26.508  24.145  1.00  0.00     0.022 A 
BRANCH  80  84
ATOM     84  S   UNL A   1      48.164  27.797  21.808  1.00  0.00     0.124 S 
ATOM     85  O   UNL A   1      49.331  28.671  21.791  1.00  0.00    -0.237 OA
ATOM     86  O   UNL A   1      48.337  26.482  21.200  1.00  0.00    -0.237 OA
ATOM     87  O   UNL A   1      46.889  28.451  21.518  1.00  0.00    -0.744 OA
ENDBRANCH  80  84
ENDBRANCH  53  77
BRANCH  65  88
ATOM     88  C   UNL A   1      40.912  24.135  27.458  1.00  0.00     0.023 A 
ATOM     89  C   UNL A   1      39.821  23.926  26.596  1.00  0.00     0.031 A 
ATOM     90  C   UNL A   1      41.509  23.005  28.048  1.00  0.00     0.131 A 
ATOM     91  C   UNL A   1      39.316  22.630  26.407  1.00  0.00     0.055 A 
ATOM     92  C   UNL A   1      41.047  21.712  27.800  1.00  0.00     0.041 A 
ATOM     93  F   UNL A   1      42.552  23.141  28.883  1.00  0.00    -0.206 F 
ATOM     94  C   UNL A   1      39.932  21.519  26.989  1.00  0.00     0.022 A 
BRANCH  91  95
ATOM     95  S   UNL A   1      37.765  22.424  25.487  1.00  0.00     0.124 S 
ATOM     96  O   UNL A   1      37.984  21.154  24.803  1.00  0.00    -0.237 OA
ATOM     97  O   UNL A   1      36.770  22.409  26.555  1.00  0.00    -0.237 OA
ATOM     98  O   UNL A   1      37.722  23.598  24.618  1.00  0.00    -0.744 OA
ENDBRANCH  91  95
ENDBRANCH  65  88
ENDBRANCH  39  40
ENDBRANCH  32  34
ENDBRANCH  31  32
ENDBRANCH  30  31
ENDBRANCH   1  30
TORSDOF 20
ENDMDL
MODEL 2
REMARK VINA RESULT:     -10.7      7.431     10.591
REMARK SMILES O=C(OCCOCCOC(=O)c1ccc(-c2c3nc(c(-c4cc(S(=O)(=O)[O-])ccc4F)c4ccc([nH]4)c(-c4cc(S(=O)(=O)[O-])ccc4F)c4nc(c(-c5cc(S(=O)(=O)[O-])ccc5F)c5ccc2[nH]5)C=C4)C=C3)cc1)C1=Cc2c(ccc(Cl)c2Oc2ccccc2)O[C@H]1C(F)(F)F
REMARK SMILES IDX 7 1 6 2 5 3 4 4 3 5 2 6 1 7 75 8 76 9 92 10 77 11 91 12
REMARK SMILES IDX 78 13 83 14 79 15 81 16 80 17 82 18 93 19 94 20 95 21 96 22
REMARK SMILES IDX 84 23 85 24 86 25 90 26 87 27 89 28 88 29 8 30 9 31 10 32
REMARK SMILES IDX 11 33 12 34 13 35 74 36 14 37 73 38 15 39 16 40 17 41 67 42
REMARK SMILES IDX 18 43 72 44 66 45 68 46 19 47 71 48 65 49 64 50 20 52 52 53
REMARK SMILES IDX 32 54 51 55 33 56 36 57 50 58 69 59 34 60 35 61 49 63 70 64
REMARK SMILES IDX 37 65 21 66 22 67 30 68 23 69 29 70 31 71 28 72 24 73 25 74
REMARK SMILES IDX 26 75 27 76 53 77 54 78 62 79 55 80 61 81 63 82 60 83 56 84
REMARK SMILES IDX 57 85 58 86 59 87 38 88 39 89 47 90 40 91 46 92 48 93 45 94
REMARK SMILES IDX 41 95 42 96 43 97 44 98
REMARK H PARENT 68 51 36 62
REMARK Flexibility Score: inf
ROOT
ATOM      1  C   UNL A   1      50.201  39.193  32.776  1.00  0.00     0.202 C 
ENDROOT
BRANCH   1   2
ATOM      2  O   UNL A   1      49.263  39.364  31.716  1.00  0.00    -0.374 OA
BRANCH   2   3
ATOM      3  C   UNL A   1      49.218  38.219  30.889  1.00  0.00     0.202 C 
BRANCH   3   4
ATOM      4  C   UNL A   1      49.277  38.459  29.359  1.00  0.00     0.261 C 
BRANCH   4   5
ATOM      5  O   UNL A   1      48.021  38.526  28.648  1.00  0.00    -0.460 OA
BRANCH   5   6
ATOM      6  C   UNL A   1      47.462  39.742  28.410  1.00  0.00     0.338 C 
ATOM      7  O   UNL A   1      47.944  40.808  28.788  1.00  0.00    -0.246 OA
BRANCH   6   8
ATOM      8  C   UNL A   1      46.099  39.703  27.857  1.00  0.00     0.088 C 
ATOM      9  C   UNL A   1      45.249  40.616  28.319  1.00  0.00     0.031 C 
ATOM     10  C   UNL A   1      45.892  39.225  26.438  1.00  0.00     0.316 C 
ATOM     11  C   UNL A   1      43.850  40.383  28.109  1.00  0.00     0.062 A 
ATOM     12  O   UNL A   1      44.548  39.555  25.915  1.00  0.00    -0.475 OA
ATOM     13  C   UNL A   1      43.562  39.906  26.815  1.00  0.00     0.131 A 
ATOM     14  C   UNL A   1      42.861  40.766  29.032  1.00  0.00     0.156 A 
ATOM     15  C   UNL A   1      42.246  39.906  26.380  1.00  0.00     0.049 A 
ATOM     16  C   UNL A   1      41.540  40.666  28.586  1.00  0.00     0.084 A 
ATOM     17  C   UNL A   1      41.235  40.282  27.271  1.00  0.00     0.028 A 
ATOM     18  Cl  UNL A   1      40.247  41.049  29.658  1.00  0.00    -0.080 Cl
BRANCH  10  19
ATOM     19  C   UNL A   1      46.994  39.795  25.494  1.00  0.00     0.430 C 
ATOM     20  F   UNL A   1      46.835  39.412  24.205  1.00  0.00    -0.167 F 
ATOM     21  F   UNL A   1      46.991  41.151  25.506  1.00  0.00    -0.167 F 
ATOM     22  F   UNL A   1      48.240  39.407  25.854  1.00  0.00    -0.167 F 
ENDBRANCH  10  19
BRANCH  14  23
ATOM     23  O   UNL A   1      43.010  41.495  30.203  1.00  0.00    -0.455 OA
BRANCH  23  24
ATOM     24  C   UNL A   1      43.141  41.012  31.479  1.00  0.00     0.127 A 
ATOM     25  C   UNL A   1      43.389  39.698  31.855  1.00  0.00     0.047 A 
ATOM     26  C   UNL A   1      42.881  41.952  32.492  1.00  0.00     0.047 A 
ATOM     27  C   UNL A   1      43.531  39.379  33.222  1.00  0.00     0.004 A 
ATOM     28  C   UNL A   1      43.074  41.654  33.846  1.00  0.00     0.004 A 
ATOM     29  C   UNL A   1      43.431  40.365  34.211  1.00  0.00     0.000 A 
ENDBRANCH  23  24
ENDBRANCH  14  23
ENDBRANCH   6   8
ENDBRANCH   5   6
ENDBRANCH   4   5
ENDBRANCH   3   4
ENDBRANCH   2   3
ENDBRANCH   1   2
BRANCH   1  30
ATOM     30  C   UNL A   1      50.532  37.787  33.365  1.00  0.00     0.261 C 
BRANCH  30  31
ATOM     31  O   UNL A   1      50.778  37.584  34.776  1.00  0.00    -0.460 OA
BRANCH  31  32
ATOM     32  C   UNL A   1      49.957  38.298  35.600  1.00  0.00     0.338 C 
ATOM     33  O   UNL A   1      50.345  39.222  36.302  1.00  0.00    -0.246 OA
BRANCH  32  34
ATOM     34  C   UNL A   1      48.524  37.826  35.659  1.00  0.00     0.060 A 
ATOM     35  C   UNL A   1      48.319  36.437  35.695  1.00  0.00     0.016 A 
ATOM     36  C   UNL A   1      47.396  38.647  35.514  1.00  0.00     0.016 A 
ATOM     37  C   UNL A   1      47.043  35.873  35.522  1.00  0.00     0.010 A 
ATOM     38  C   UNL A   1      46.103  38.077  35.350  1.00  0.00     0.010 A 
ATOM     39  C   UNL A   1      45.919  36.680  35.302  1.00  0.00    -0.014 A 
BRANCH  39  40
ATOM     40  C   UNL A   1      44.659  36.017  34.810  1.00  0.00     0.031 A 
ATOM     41  C   UNL A   1      43.575  35.695  35.813  1.00  0.00     0.074 A 
ATOM     42  C   UNL A   1      44.394  35.834  33.498  1.00  0.00     0.049 A 
ATOM     43  N   UNL A   1      42.330  35.334  35.614  1.00  0.00    -0.248 NA
ATOM     44  C   UNL A   1      43.944  35.810  37.230  1.00  0.00     0.031 C 
ATOM     45  C   UNL A   1      45.317  36.125  32.410  1.00  0.00     0.029 A 
ATOM     46  N   UNL A   1      43.262  35.387  32.848  1.00  0.00    -0.354 N 
ATOM     47  C   UNL A   1      41.760  35.213  36.879  1.00  0.00     0.074 A 
ATOM     48  C   UNL A   1      42.815  35.474  37.835  1.00  0.00     0.031 C 
ATOM     49  C   UNL A   1      44.725  35.866  31.232  1.00  0.00     0.029 A 
ATOM     50  C   UNL A   1      43.368  35.385  31.472  1.00  0.00     0.049 A 
ATOM     51  H   UNL A   1      42.451  35.093  33.324  1.00  0.00     0.167 HD
ATOM     52  C   UNL A   1      40.476  34.933  37.219  1.00  0.00     0.034 A 
ATOM     53  C   UNL A   1      42.478  35.056  30.509  1.00  0.00     0.034 A 
ATOM     54  C   UNL A   1      39.433  34.630  36.266  1.00  0.00     0.049 A 
ATOM     55  C   UNL A   1      41.076  34.662  30.913  1.00  0.00     0.074 A 
ATOM     56  C   UNL A   1      38.105  34.321  36.507  1.00  0.00     0.029 A 
ATOM     57  N   UNL A   1      39.606  34.575  34.889  1.00  0.00    -0.354 N 
ATOM     58  N   UNL A   1      40.545  34.603  32.114  1.00  0.00    -0.248 NA
ATOM     59  C   UNL A   1      40.144  34.317  29.830  1.00  0.00     0.031 C 
ATOM     60  C   UNL A   1      37.498  34.003  35.287  1.00  0.00     0.029 A 
ATOM     61  C   UNL A   1      38.419  34.202  34.273  1.00  0.00     0.049 A 
ATOM     62  H   UNL A   1      40.448  34.771  34.418  1.00  0.00     0.167 HD
ATOM     63  C   UNL A   1      39.208  34.262  31.922  1.00  0.00     0.074 A 
ATOM     64  C   UNL A   1      39.011  34.140  30.493  1.00  0.00     0.031 C 
ATOM     65  C   UNL A   1      38.228  34.078  32.846  1.00  0.00     0.034 A 
BRANCH  52  66
ATOM     66  C   UNL A   1      40.153  34.888  38.696  1.00  0.00     0.023 A 
ATOM     67  C   UNL A   1      40.321  33.715  39.455  1.00  0.00     0.031 A 
ATOM     68  C   UNL A   1      39.618  36.015  39.344  1.00  0.00     0.131 A 
ATOM     69  C   UNL A   1      39.875  33.669  40.786  1.00  0.00     0.055 A 
ATOM     70  C   UNL A   1      39.257  35.990  40.692  1.00  0.00     0.041 A 
ATOM     71  F   UNL A   1      39.413  37.158  38.668  1.00  0.00    -0.206 F 
ATOM     72  C   UNL A   1      39.367  34.807  41.417  1.00  0.00     0.022 A 
BRANCH  69  73
ATOM     73  S   UNL A   1      39.812  32.063  41.628  1.00  0.00     0.124 S 
ATOM     74  O   UNL A   1      38.705  31.410  40.932  1.00  0.00    -0.237 OA
ATOM     75  O   UNL A   1      41.139  31.519  41.372  1.00  0.00    -0.237 OA
ATOM     76  O   UNL A   1      39.538  32.416  43.020  1.00  0.00    -0.744 OA
ENDBRANCH  69  73
ENDBRANCH  52  66
BRANCH  53  77
ATOM     77  C   UNL A   1      42.863  35.076  29.061  1.00  0.00     0.023 A 
ATOM     78  C   UNL A   1      43.471  33.968  28.442  1.00  0.00     0.031 A 
ATOM     79  C   UNL A   1      42.699  36.243  28.294  1.00  0.00     0.131 A 
ATOM     80  C   UNL A   1      43.935  34.069  27.118  1.00  0.00     0.055 A 
ATOM     81  C   UNL A   1      43.113  36.321  26.961  1.00  0.00     0.041 A 
ATOM     82  F   UNL A   1      42.133  37.335  28.833  1.00  0.00    -0.206 F 
ATOM     83  C   UNL A   1      43.748  35.234  26.370  1.00  0.00     0.022 A 
BRANCH  80  84
ATOM     84  S   UNL A   1      44.875  32.686  26.409  1.00  0.00     0.124 S 
ATOM     85  O   UNL A   1      46.246  33.055  26.743  1.00  0.00    -0.237 OA
ATOM     86  O   UNL A   1      44.323  31.544  27.130  1.00  0.00    -0.237 OA
ATOM     87  O   UNL A   1      44.542  32.741  24.987  1.00  0.00    -0.744 OA
ENDBRANCH  80  84
ENDBRANCH  53  77
BRANCH  65  88
ATOM     88  C   UNL A   1      36.837  33.786  32.331  1.00  0.00     0.023 A 
ATOM     89  C   UNL A   1      35.859  34.788  32.208  1.00  0.00     0.031 A 
ATOM     90  C   UNL A   1      36.477  32.470  31.981  1.00  0.00     0.131 A 
ATOM     91  C   UNL A   1      34.553  34.450  31.817  1.00  0.00     0.055 A 
ATOM     92  C   UNL A   1      35.197  32.151  31.525  1.00  0.00     0.041 A 
ATOM     93  F   UNL A   1      37.367  31.469  32.080  1.00  0.00    -0.206 F 
ATOM     94  C   UNL A   1      34.220  33.141  31.459  1.00  0.00     0.022 A 
BRANCH  91  95
ATOM     95  S   UNL A   1      33.261  35.720  31.903  1.00  0.00     0.124 S 
ATOM     96  O   UNL A   1      33.807  36.644  32.891  1.00  0.00    -0.237 OA
ATOM     97  O   UNL A   1      33.214  36.210  30.529  1.00  0.00    -0.237 OA
ATOM     98  O   UNL A   1      32.078  34.978  32.336  1.00  0.00    -0.744 OA
ENDBRANCH  91  95
ENDBRANCH  65  88
ENDBRANCH  39  40
ENDBRANCH  32  34
ENDBRANCH  31  32
ENDBRANCH  30  31
ENDBRANCH   1  30
TORSDOF 20
ENDMDL
MODEL 3
REMARK VINA RESULT:     -10.6      7.781     13.810
REMARK SMILES O=C(OCCOCCOC(=O)c1ccc(-c2c3nc(c(-c4cc(S(=O)(=O)[O-])ccc4F)c4ccc([nH]4)c(-c4cc(S(=O)(=O)[O-])ccc4F)c4nc(c(-c5cc(S(=O)(=O)[O-])ccc5F)c5ccc2[nH]5)C=C4)C=C3)cc1)C1=Cc2c(ccc(Cl)c2Oc2ccccc2)O[C@H]1C(F)(F)F
REMARK SMILES IDX 7 1 6 2 5 3 4 4 3 5 2 6 1 7 75 8 76 9 92 10 77 11 91 12
REMARK SMILES IDX 78 13 83 14 79 15 81 16 80 17 82 18 93 19 94 20 95 21 96 22
REMARK SMILES IDX 84 23 85 24 86 25 90 26 87 27 89 28 88 29 8 30 9 31 10 32
REMARK SMILES IDX 11 33 12 34 13 35 74 36 14 37 73 38 15 39 16 40 17 41 67 42
REMARK SMILES IDX 18 43 72 44 66 45 68 46 19 47 71 48 65 49 64 50 20 52 52 53
REMARK SMILES IDX 32 54 51 55 33 56 36 57 50 58 69 59 34 60 35 61 49 63 70 64
REMARK SMILES IDX 37 65 21 66 22 67 30 68 23 69 29 70 31 71 28 72 24 73 25 74
REMARK SMILES IDX 26 75 27 76 53 77 54 78 62 79 55 80 61 81 63 82 60 83 56 84
REMARK SMILES IDX 57 85 58 86 59 87 38 88 39 89 47 90 40 91 46 92 48 93 45 94
REMARK SMILES IDX 41 95 42 96 43 97 44 98
REMARK H PARENT 68 51 36 62
REMARK Flexibility Score: inf
ROOT
ATOM      1  C   UNL A   1      34.289  32.947  29.609  1.00  0.00     0.202 C 
ENDROOT
BRANCH   1   2
ATOM      2  O   UNL A   1      34.261  33.201  28.207  1.00  0.00    -0.374 OA
BRANCH   2   3
ATOM      3  C   UNL A   1      32.993  33.677  27.803  1.00  0.00     0.202 C 
BRANCH   3   4
ATOM      4  C   UNL A   1      32.081  32.681  27.042  1.00  0.00     0.261 C 
BRANCH   4   5
ATOM      5  O   UNL A   1      32.683  31.454  26.575  1.00  0.00    -0.460 OA
BRANCH   5   6
ATOM      6  C   UNL A   1      32.123  30.267  26.929  1.00  0.00     0.338 C 
ATOM      7  O   UNL A   1      31.353  30.125  27.877  1.00  0.00    -0.246 OA
BRANCH   6   8
ATOM      8  C   UNL A   1      32.673  29.089  26.241  1.00  0.00     0.088 C 
ATOM      9  C   UNL A   1      32.626  29.107  24.912  1.00  0.00     0.031 C 
ATOM     10  C   UNL A   1      33.811  28.326  26.880  1.00  0.00     0.316 C 
ATOM     11  C   UNL A   1      32.786  27.857  24.228  1.00  0.00     0.062 A 
ATOM     12  O   UNL A   1      34.473  27.396  25.939  1.00  0.00    -0.475 OA
ATOM     13  C   UNL A   1      33.812  27.061  24.774  1.00  0.00     0.131 A 
ATOM     14  C   UNL A   1      32.117  27.545  23.031  1.00  0.00     0.156 A 
ATOM     15  C   UNL A   1      34.266  25.968  24.053  1.00  0.00     0.049 A 
ATOM     16  C   UNL A   1      32.543  26.385  22.379  1.00  0.00     0.084 A 
ATOM     17  C   UNL A   1      33.625  25.629  22.856  1.00  0.00     0.028 A 
ATOM     18  Cl  UNL A   1      31.748  25.876  20.939  1.00  0.00    -0.080 Cl
BRANCH  10  19
ATOM     19  C   UNL A   1      34.857  29.304  27.496  1.00  0.00     0.430 C 
ATOM     20  F   UNL A   1      36.015  28.692  27.839  1.00  0.00    -0.167 F 
ATOM     21  F   UNL A   1      35.176  30.291  26.622  1.00  0.00    -0.167 F 
ATOM     22  F   UNL A   1      34.404  29.912  28.618  1.00  0.00    -0.167 F 
ENDBRANCH  10  19
BRANCH  14  23
ATOM     23  O   UNL A   1      31.305  28.363  22.259  1.00  0.00    -0.455 OA
BRANCH  23  24
ATOM     24  C   UNL A   1      29.985  28.667  22.465  1.00  0.00     0.127 A 
ATOM     25  C   UNL A   1      29.329  29.837  22.106  1.00  0.00     0.047 A 
ATOM     26  C   UNL A   1      29.275  27.717  23.222  1.00  0.00     0.047 A 
ATOM     27  C   UNL A   1      27.949  29.971  22.365  1.00  0.00     0.004 A 
ATOM     28  C   UNL A   1      27.895  27.821  23.433  1.00  0.00     0.004 A 
ATOM     29  C   UNL A   1      27.222  28.942  22.975  1.00  0.00     0.000 A 
ENDBRANCH  23  24
ENDBRANCH  14  23
ENDBRANCH   6   8
ENDBRANCH   5   6
ENDBRANCH   4   5
ENDBRANCH   3   4
ENDBRANCH   2   3
ENDBRANCH   1   2
BRANCH   1  30
ATOM     30  C   UNL A   1      34.782  34.019  30.631  1.00  0.00     0.261 C 
BRANCH  30  31
ATOM     31  O   UNL A   1      35.986  33.838  31.412  1.00  0.00    -0.460 OA
BRANCH  31  32
ATOM     32  C   UNL A   1      36.100  32.610  31.995  1.00  0.00     0.338 C 
ATOM     33  O   UNL A   1      35.512  32.292  33.021  1.00  0.00    -0.246 OA
BRANCH  32  34
ATOM     34  C   UNL A   1      37.075  31.665  31.335  1.00  0.00     0.060 A 
ATOM     35  C   UNL A   1      38.027  31.056  32.170  1.00  0.00     0.016 A 
ATOM     36  C   UNL A   1      37.210  31.479  29.951  1.00  0.00     0.016 A 
ATOM     37  C   UNL A   1      39.120  30.343  31.649  1.00  0.00     0.010 A 
ATOM     38  C   UNL A   1      38.311  30.747  29.423  1.00  0.00     0.010 A 
ATOM     39  C   UNL A   1      39.307  30.213  30.266  1.00  0.00    -0.014 A 
BRANCH  39  40
ATOM     40  C   UNL A   1      40.645  29.726  29.776  1.00  0.00     0.031 A 
ATOM     41  C   UNL A   1      40.731  28.343  29.171  1.00  0.00     0.074 A 
ATOM     42  C   UNL A   1      41.736  30.520  29.718  1.00  0.00     0.049 A 
ATOM     43  N   UNL A   1      41.702  27.787  28.487  1.00  0.00    -0.248 NA
ATOM     44  C   UNL A   1      39.556  27.479  29.350  1.00  0.00     0.031 C 
ATOM     45  C   UNL A   1      41.806  31.882  30.226  1.00  0.00     0.029 A 
ATOM     46  N   UNL A   1      42.991  30.312  29.182  1.00  0.00    -0.354 N 
ATOM     47  C   UNL A   1      41.241  26.523  28.127  1.00  0.00     0.074 A 
ATOM     48  C   UNL A   1      39.932  26.374  28.726  1.00  0.00     0.031 C 
ATOM     49  C   UNL A   1      43.020  32.399  29.973  1.00  0.00     0.029 A 
ATOM     50  C   UNL A   1      43.831  31.403  29.280  1.00  0.00     0.049 A 
ATOM     51  H   UNL A   1      43.262  29.461  28.768  1.00  0.00     0.167 HD
ATOM     52  C   UNL A   1      41.837  25.579  27.353  1.00  0.00     0.034 A 
ATOM     53  C   UNL A   1      45.098  31.594  28.850  1.00  0.00     0.034 A 
ATOM     54  C   UNL A   1      43.161  25.711  26.791  1.00  0.00     0.049 A 
ATOM     55  C   UNL A   1      45.777  30.496  28.063  1.00  0.00     0.074 A 
ATOM     56  C   UNL A   1      43.860  24.810  26.005  1.00  0.00     0.029 A 
ATOM     57  N   UNL A   1      43.997  26.805  26.974  1.00  0.00    -0.354 N 
ATOM     58  N   UNL A   1      45.303  29.328  27.692  1.00  0.00    -0.248 NA
ATOM     59  C   UNL A   1      47.152  30.754  27.614  1.00  0.00     0.031 C 
ATOM     60  C   UNL A   1      45.143  25.323  25.781  1.00  0.00     0.029 A 
ATOM     61  C   UNL A   1      45.217  26.585  26.348  1.00  0.00     0.049 A 
ATOM     62  H   UNL A   1      43.761  27.618  27.477  1.00  0.00     0.167 HD
ATOM     63  C   UNL A   1      46.305  28.737  26.925  1.00  0.00     0.074 A 
ATOM     64  C   UNL A   1      47.403  29.680  26.880  1.00  0.00     0.031 C 
ATOM     65  C   UNL A   1      46.312  27.527  26.307  1.00  0.00     0.034 A 
BRANCH  52  66
ATOM     66  C   UNL A   1      41.068  24.297  27.123  1.00  0.00     0.023 A 
ATOM     67  C   UNL A   1      39.873  24.273  26.380  1.00  0.00     0.031 A 
ATOM     68  C   UNL A   1      41.504  23.092  27.701  1.00  0.00     0.131 A 
ATOM     69  C   UNL A   1      39.113  23.095  26.312  1.00  0.00     0.055 A 
ATOM     70  C   UNL A   1      40.788  21.902  27.556  1.00  0.00     0.041 A 
ATOM     71  F   UNL A   1      42.625  23.054  28.440  1.00  0.00    -0.206 F 
ATOM     72  C   UNL A   1      39.575  21.902  26.873  1.00  0.00     0.022 A 
BRANCH  69  73
ATOM     73  S   UNL A   1      37.436  23.181  25.624  1.00  0.00     0.124 S 
ATOM     74  O   UNL A   1      36.926  21.844  25.922  1.00  0.00    -0.237 OA
ATOM     75  O   UNL A   1      36.839  24.276  26.380  1.00  0.00    -0.237 OA
ATOM     76  O   UNL A   1      37.660  23.450  24.205  1.00  0.00    -0.744 OA
ENDBRANCH  69  73
ENDBRANCH  52  66
BRANCH  53  77
ATOM     77  C   UNL A   1      45.829  32.869  29.142  1.00  0.00     0.023 A 
ATOM     78  C   UNL A   1      45.764  33.975  28.276  1.00  0.00     0.031 A 
ATOM     79  C   UNL A   1      46.673  32.967  30.263  1.00  0.00     0.131 A 
ATOM     80  C   UNL A   1      46.564  35.106  28.517  1.00  0.00     0.055 A 
ATOM     81  C   UNL A   1      47.426  34.114  30.528  1.00  0.00     0.041 A 
ATOM     82  F   UNL A   1      46.784  31.941  31.122  1.00  0.00    -0.206 F 
ATOM     83  C   UNL A   1      47.385  35.188  29.644  1.00  0.00     0.022 A 
BRANCH  80  84
ATOM     84  S   UNL A   1      46.593  36.441  27.285  1.00  0.00     0.124 S 
ATOM     85  O   UNL A   1      47.953  36.339  26.768  1.00  0.00    -0.237 OA
ATOM     86  O   UNL A   1      45.527  36.036  26.375  1.00  0.00    -0.237 OA
ATOM     87  O   UNL A   1      46.313  37.639  28.073  1.00  0.00    -0.744 OA
ENDBRANCH  80  84
ENDBRANCH  53  77
BRANCH  65  88
ATOM     88  C   UNL A   1      47.525  27.183  25.472  1.00  0.00     0.023 A 
ATOM     89  C   UNL A   1      48.685  26.622  26.035  1.00  0.00     0.031 A 
ATOM     90  C   UNL A   1      47.526  27.447  24.090  1.00  0.00     0.131 A 
ATOM     91  C   UNL A   1      49.820  26.410  25.236  1.00  0.00     0.055 A 
ATOM     92  C   UNL A   1      48.633  27.169  23.286  1.00  0.00     0.041 A 
ATOM     93  F   UNL A   1      46.449  27.986  23.496  1.00  0.00    -0.206 F 
ATOM     94  C   UNL A   1      49.796  26.664  23.862  1.00  0.00     0.022 A 
BRANCH  91  95
ATOM     95  S   UNL A   1      51.370  25.915  26.037  1.00  0.00     0.124 S 
ATOM     96  O   UNL A   1      52.200  25.550  24.893  1.00  0.00    -0.237 OA
ATOM     97  O   UNL A   1      51.758  27.134  26.742  1.00  0.00    -0.237 OA
ATOM     98  O   UNL A   1      50.973  24.802  26.897  1.00  0.00    -0.744 OA
ENDBRANCH  91  95
ENDBRANCH  65  88
ENDBRANCH  39  40
ENDBRANCH  32  34
ENDBRANCH  31  32
ENDBRANCH  30  31
ENDBRANCH   1  30
TORSDOF 20
ENDMDL
