MODEL 1
REMARK VINA RESULT:     -10.8      0.000      0.000
REMARK SMILES Cc1ccc(C)c([C@@H](C)[C@](C)(O)C(=O)OCCOCCOC(=O)c2ccc(-c3c4nc(c(-c5cc(S(=O)(=O)[O-])ccc5F)c5ccc([nH]5)c(-c5cc(S(=O)(=O)[O-])ccc5F)c5nc(c(-c6cc(S(=O)(=O)[O-])ccc6F)c6ccc3[nH]6)C=C5)C=C4)cc2)c1
REMARK SMILES IDX 19 1 18 2 17 3 16 4 15 5 13 6 14 7 10 8 11 9 8 10 9 11 7 12
REMARK SMILES IDX 1 13 2 14 3 15 87 16 4 17 5 18 6 19 12 20 20 22 21 23 22 24
REMARK SMILES IDX 23 25 24 26 25 27 86 28 26 29 85 30 27 31 28 32 29 33 79 34
REMARK SMILES IDX 30 35 84 36 78 37 80 38 31 39 83 40 77 41 76 42 32 44 64 45
REMARK SMILES IDX 44 46 63 47 45 48 48 49 62 50 81 51 46 52 47 53 61 55 82 56
REMARK SMILES IDX 49 57 33 58 34 59 42 60 35 61 41 62 43 63 40 64 36 65 37 66
REMARK SMILES IDX 38 67 39 68 65 69 66 70 74 71 67 72 73 73 75 74 72 75 68 76
REMARK SMILES IDX 69 77 70 78 71 79 50 80 51 81 59 82 52 83 58 84 60 85 57 86
REMARK SMILES IDX 53 87 54 88 55 89 56 90
REMARK H PARENT 12 21 80 43 48 54
REMARK Flexibility Score: inf
ROOT
ATOM      1  C   UNL A   1      33.750  30.010  27.645  1.00  0.00     0.202 C 
ENDROOT
BRANCH   1   2
ATOM      2  O   UNL A   1      33.071  30.467  26.484  1.00  0.00    -0.374 OA
BRANCH   2   3
ATOM      3  C   UNL A   1      31.656  30.443  26.498  1.00  0.00     0.202 C 
BRANCH   3   4
ATOM      4  C   UNL A   1      31.174  30.309  25.058  1.00  0.00     0.261 C 
BRANCH   4   5
ATOM      5  O   UNL A   1      31.229  28.954  24.557  1.00  0.00    -0.461 OA
BRANCH   5   6
ATOM      6  C   UNL A   1      31.897  28.763  23.385  1.00  0.00     0.338 C 
ATOM      7  O   UNL A   1      31.534  29.199  22.299  1.00  0.00    -0.249 OA
BRANCH   6   8
ATOM      8  C   UNL A   1      33.178  27.912  23.540  1.00  0.00     0.165 C 
ATOM      9  C   UNL A   1      33.683  27.590  22.095  1.00  0.00     0.055 C 
BRANCH   8  10
ATOM     10  C   UNL A   1      32.971  26.694  24.552  1.00  0.00     0.059 C 
ATOM     11  C   UNL A   1      33.657  26.849  25.927  1.00  0.00     0.016 C 
BRANCH  10  12
ATOM     12  C   UNL A   1      33.240  25.290  24.001  1.00  0.00    -0.039 A 
ATOM     13  C   UNL A   1      36.202  22.842  23.555  1.00  0.00     0.044 C 
ATOM     14  C   UNL A   1      34.828  23.435  23.582  1.00  0.00    -0.051 A 
ATOM     15  C   UNL A   1      33.790  22.665  23.098  1.00  0.00     0.004 A 
ATOM     16  C   UNL A   1      34.552  24.747  24.014  1.00  0.00     0.007 A 
ATOM     17  C   UNL A   1      32.515  23.198  23.080  1.00  0.00     0.004 A 
ATOM     18  C   UNL A   1      32.204  24.499  23.504  1.00  0.00    -0.048 A 
ATOM     19  C   UNL A   1      30.790  24.992  23.467  1.00  0.00     0.044 C 
ENDBRANCH  10  12
ENDBRANCH   8  10
BRANCH   8  20
ATOM     20  O   UNL A   1      34.209  28.764  24.095  1.00  0.00    -0.378 OA
ATOM     21  H   UNL A   1      35.004  28.237  24.269  1.00  0.00     0.212 HD
ENDBRANCH   8  20
ENDBRANCH   6   8
ENDBRANCH   5   6
ENDBRANCH   4   5
ENDBRANCH   3   4
ENDBRANCH   2   3
ENDBRANCH   1   2
BRANCH   1  22
ATOM     22  C   UNL A   1      35.162  30.583  27.624  1.00  0.00     0.261 C 
BRANCH  22  23
ATOM     23  O   UNL A   1      36.140  29.518  27.579  1.00  0.00    -0.460 OA
BRANCH  23  24
ATOM     24  C   UNL A   1      36.855  29.364  28.743  1.00  0.00     0.338 C 
ATOM     25  O   UNL A   1      36.432  29.628  29.837  1.00  0.00    -0.246 OA
BRANCH  24  26
ATOM     26  C   UNL A   1      38.262  28.920  28.424  1.00  0.00     0.060 A 
ATOM     27  C   UNL A   1      38.876  29.340  27.238  1.00  0.00     0.016 A 
ATOM     28  C   UNL A   1      38.917  27.979  29.221  1.00  0.00     0.016 A 
ATOM     29  C   UNL A   1      40.138  28.823  26.869  1.00  0.00     0.010 A 
ATOM     30  C   UNL A   1      40.119  27.401  28.802  1.00  0.00     0.010 A 
ATOM     31  C   UNL A   1      40.760  27.798  27.614  1.00  0.00    -0.014 A 
BRANCH  31  32
ATOM     32  C   UNL A   1      42.222  27.409  27.549  1.00  0.00     0.031 A 
ATOM     33  C   UNL A   1      42.159  26.024  27.083  1.00  0.00     0.074 A 
ATOM     34  C   UNL A   1      43.465  27.626  28.112  1.00  0.00     0.049 A 
ATOM     35  N   UNL A   1      42.141  25.021  27.903  1.00  0.00    -0.248 NA
ATOM     36  C   UNL A   1      41.738  25.693  25.718  1.00  0.00     0.031 C 
ATOM     37  C   UNL A   1      43.868  28.305  29.339  1.00  0.00     0.029 A 
ATOM     38  N   UNL A   1      44.633  27.825  27.325  1.00  0.00    -0.354 N 
ATOM     39  C   UNL A   1      42.298  23.964  27.050  1.00  0.00     0.074 A 
ATOM     40  C   UNL A   1      41.663  24.362  25.819  1.00  0.00     0.031 C 
ATOM     41  C   UNL A   1      44.939  29.099  29.144  1.00  0.00     0.029 A 
ATOM     42  C   UNL A   1      45.494  28.864  27.805  1.00  0.00     0.049 A 
ATOM     43  H   UNL A   1      44.833  27.294  26.520  1.00  0.00     0.167 HD
ATOM     44  C   UNL A   1      43.432  23.239  27.227  1.00  0.00     0.034 A 
ATOM     45  C   UNL A   1      46.855  28.985  27.705  1.00  0.00     0.034 A 
ATOM     46  C   UNL A   1      43.972  23.366  28.577  1.00  0.00     0.049 A 
ATOM     47  C   UNL A   1      47.464  27.768  28.291  1.00  0.00     0.074 A 
ATOM     48  C   UNL A   1      43.452  23.189  29.846  1.00  0.00     0.029 A 
ATOM     49  N   UNL A   1      45.135  24.090  28.728  1.00  0.00    -0.354 N 
ATOM     50  N   UNL A   1      47.420  27.446  29.555  1.00  0.00    -0.248 NA
ATOM     51  C   UNL A   1      47.769  26.671  27.381  1.00  0.00     0.031 C 
ATOM     52  C   UNL A   1      44.270  23.930  30.740  1.00  0.00     0.029 A 
ATOM     53  C   UNL A   1      45.319  24.507  30.032  1.00  0.00     0.049 A 
ATOM     54  H   UNL A   1      45.761  24.286  27.994  1.00  0.00     0.167 HD
ATOM     55  C   UNL A   1      47.164  26.085  29.530  1.00  0.00     0.074 A 
ATOM     56  C   UNL A   1      47.561  25.641  28.203  1.00  0.00     0.031 C 
ATOM     57  C   UNL A   1      46.303  25.520  30.422  1.00  0.00     0.034 A 
BRANCH  44  58
ATOM     58  C   UNL A   1      44.273  22.806  26.062  1.00  0.00     0.023 A 
ATOM     59  C   UNL A   1      44.353  21.433  25.840  1.00  0.00     0.031 A 
ATOM     60  C   UNL A   1      45.174  23.619  25.328  1.00  0.00     0.131 A 
ATOM     61  C   UNL A   1      45.312  20.920  24.958  1.00  0.00     0.055 A 
ATOM     62  C   UNL A   1      46.064  23.111  24.388  1.00  0.00     0.041 A 
ATOM     63  F   UNL A   1      45.329  24.929  25.548  1.00  0.00    -0.206 F 
ATOM     64  C   UNL A   1      46.153  21.746  24.213  1.00  0.00     0.022 A 
BRANCH  61  65
ATOM     65  S   UNL A   1      45.539  19.134  24.925  1.00  0.00     0.124 S 
ATOM     66  O   UNL A   1      45.574  18.879  23.490  1.00  0.00    -0.237 OA
ATOM     67  O   UNL A   1      46.801  18.980  25.642  1.00  0.00    -0.237 OA
ATOM     68  O   UNL A   1      44.359  18.636  25.626  1.00  0.00    -0.744 OA
ENDBRANCH  61  65
ENDBRANCH  44  58
BRANCH  45  69
ATOM     69  C   UNL A   1      47.620  30.213  27.318  1.00  0.00     0.023 A 
ATOM     70  C   UNL A   1      46.984  31.392  26.854  1.00  0.00     0.031 A 
ATOM     71  C   UNL A   1      49.011  30.303  27.543  1.00  0.00     0.131 A 
ATOM     72  C   UNL A   1      47.716  32.594  26.693  1.00  0.00     0.055 A 
ATOM     73  C   UNL A   1      49.730  31.496  27.384  1.00  0.00     0.041 A 
ATOM     74  F   UNL A   1      49.711  29.239  27.970  1.00  0.00    -0.206 F 
ATOM     75  C   UNL A   1      49.080  32.653  26.978  1.00  0.00     0.022 A 
BRANCH  72  76
ATOM     76  S   UNL A   1      46.883  34.155  26.242  1.00  0.00     0.124 S 
ATOM     77  O   UNL A   1      47.763  34.691  25.211  1.00  0.00    -0.237 OA
ATOM     78  O   UNL A   1      45.566  33.710  25.799  1.00  0.00    -0.237 OA
ATOM     79  O   UNL A   1      46.880  34.903  27.501  1.00  0.00    -0.744 OA
ENDBRANCH  72  76
ENDBRANCH  45  69
BRANCH  57  80
ATOM     80  C   UNL A   1      46.293  26.037  31.851  1.00  0.00     0.023 A 
ATOM     81  C   UNL A   1      45.239  26.725  32.486  1.00  0.00     0.031 A 
ATOM     82  C   UNL A   1      47.432  25.763  32.633  1.00  0.00     0.131 A 
ATOM     83  C   UNL A   1      45.324  27.063  33.852  1.00  0.00     0.055 A 
ATOM     84  C   UNL A   1      47.518  26.096  33.985  1.00  0.00     0.041 A 
ATOM     85  F   UNL A   1      48.493  25.138  32.094  1.00  0.00    -0.206 F 
ATOM     86  C   UNL A   1      46.458  26.745  34.603  1.00  0.00     0.022 A 
BRANCH  83  87
ATOM     87  S   UNL A   1      43.973  27.954  34.687  1.00  0.00     0.124 S 
ATOM     88  O   UNL A   1      44.633  29.107  35.286  1.00  0.00    -0.237 OA
ATOM     89  O   UNL A   1      43.067  28.239  33.579  1.00  0.00    -0.237 OA
ATOM     90  O   UNL A   1      43.467  26.970  35.646  1.00  0.00    -0.744 OA
ENDBRANCH  83  87
ENDBRANCH  57  80
ENDBRANCH  31  32
ENDBRANCH  24  26
ENDBRANCH  23  24
ENDBRANCH  22  23
ENDBRANCH   1  22
TORSDOF 20
ENDMDL
MODEL 2
REMARK VINA RESULT:     -10.7      4.418      9.963
REMARK SMILES Cc1ccc(C)c([C@@H](C)[C@](C)(O)C(=O)OCCOCCOC(=O)c2ccc(-c3c4nc(c(-c5cc(S(=O)(=O)[O-])ccc5F)c5ccc([nH]5)c(-c5cc(S(=O)(=O)[O-])ccc5F)c5nc(c(-c6cc(S(=O)(=O)[O-])ccc6F)c6ccc3[nH]6)C=C5)C=C4)cc2)c1
REMARK SMILES IDX 19 1 18 2 17 3 16 4 15 5 13 6 14 7 10 8 11 9 8 10 9 11 7 12
REMARK SMILES IDX 1 13 2 14 3 15 87 16 4 17 5 18 6 19 12 20 20 22 21 23 22 24
REMARK SMILES IDX 23 25 24 26 25 27 86 28 26 29 85 30 27 31 28 32 29 33 79 34
REMARK SMILES IDX 30 35 84 36 78 37 80 38 31 39 83 40 77 41 76 42 32 44 64 45
REMARK SMILES IDX 44 46 63 47 45 48 48 49 62 50 81 51 46 52 47 53 61 55 82 56
REMARK SMILES IDX 49 57 33 58 34 59 42 60 35 61 41 62 43 63 40 64 36 65 37 66
REMARK SMILES IDX 38 67 39 68 65 69 66 70 74 71 67 72 73 73 75 74 72 75 68 76
REMARK SMILES IDX 69 77 70 78 71 79 50 80 51 81 59 82 52 83 58 84 60 85 57 86
REMARK SMILES IDX 53 87 54 88 55 89 56 90
REMARK H PARENT 12 21 80 43 48 54
REMARK Flexibility Score: inf
ROOT
ATOM      1  C   UNL A   1      41.924  19.101  26.993  1.00  0.00     0.202 C 
ENDROOT
BRANCH   1   2
ATOM      2  O   UNL A   1      42.492  18.663  25.766  1.00  0.00    -0.374 OA
BRANCH   2   3
ATOM      3  C   UNL A   1      43.854  18.282  25.771  1.00  0.00     0.202 C 
BRANCH   3   4
ATOM      4  C   UNL A   1      44.641  19.341  25.005  1.00  0.00     0.261 C 
BRANCH   4   5
ATOM      5  O   UNL A   1      43.870  20.529  24.713  1.00  0.00    -0.461 OA
BRANCH   5   6
ATOM      6  C   UNL A   1      44.084  21.608  25.517  1.00  0.00     0.338 C 
ATOM      7  O   UNL A   1      43.904  21.619  26.728  1.00  0.00    -0.249 OA
BRANCH   6   8
ATOM      8  C   UNL A   1      44.570  22.859  24.749  1.00  0.00     0.165 C 
ATOM      9  C   UNL A   1      46.024  22.552  24.261  1.00  0.00     0.055 C 
BRANCH   8  10
ATOM     10  C   UNL A   1      44.324  24.203  25.576  1.00  0.00     0.059 C 
ATOM     11  C   UNL A   1      43.241  25.145  25.006  1.00  0.00     0.016 C 
BRANCH  10  12
ATOM     12  C   UNL A   1      45.567  25.018  25.948  1.00  0.00    -0.039 A 
ATOM     13  C   UNL A   1      47.956  27.602  24.343  1.00  0.00     0.044 C 
ATOM     14  C   UNL A   1      47.275  26.701  25.325  1.00  0.00    -0.051 A 
ATOM     15  C   UNL A   1      47.799  26.632  26.599  1.00  0.00     0.004 A 
ATOM     16  C   UNL A   1      46.175  25.884  25.000  1.00  0.00     0.007 A 
ATOM     17  C   UNL A   1      47.210  25.783  27.518  1.00  0.00     0.004 A 
ATOM     18  C   UNL A   1      46.113  24.957  27.230  1.00  0.00    -0.048 A 
ATOM     19  C   UNL A   1      45.525  24.079  28.292  1.00  0.00     0.044 C 
ENDBRANCH  10  12
ENDBRANCH   8  10
BRANCH   8  20
ATOM     20  O   UNL A   1      43.798  22.955  23.529  1.00  0.00    -0.378 OA
ATOM     21  H   UNL A   1      44.039  23.767  23.057  1.00  0.00     0.212 HD
ENDBRANCH   8  20
ENDBRANCH   6   8
ENDBRANCH   5   6
ENDBRANCH   4   5
ENDBRANCH   3   4
ENDBRANCH   2   3
ENDBRANCH   1   2
BRANCH   1  22
ATOM     22  C   UNL A   1      40.695  19.942  26.672  1.00  0.00     0.261 C 
BRANCH  22  23
ATOM     23  O   UNL A   1      40.825  21.266  27.240  1.00  0.00    -0.460 OA
BRANCH  23  24
ATOM     24  C   UNL A   1      39.860  22.152  26.825  1.00  0.00     0.338 C 
ATOM     25  O   UNL A   1      38.917  21.854  26.141  1.00  0.00    -0.246 OA
BRANCH  24  26
ATOM     26  C   UNL A   1      40.224  23.549  27.268  1.00  0.00     0.060 A 
ATOM     27  C   UNL A   1      39.613  24.655  26.666  1.00  0.00     0.016 A 
ATOM     28  C   UNL A   1      41.264  23.767  28.173  1.00  0.00     0.016 A 
ATOM     29  C   UNL A   1      40.044  25.963  26.981  1.00  0.00     0.010 A 
ATOM     30  C   UNL A   1      41.748  25.057  28.407  1.00  0.00     0.010 A 
ATOM     31  C   UNL A   1      41.160  26.191  27.815  1.00  0.00    -0.014 A 
BRANCH  31  32
ATOM     32  C   UNL A   1      41.509  27.491  28.507  1.00  0.00     0.031 A 
ATOM     33  C   UNL A   1      42.709  27.920  27.788  1.00  0.00     0.074 A 
ATOM     34  C   UNL A   1      41.450  28.171  29.708  1.00  0.00     0.049 A 
ATOM     35  N   UNL A   1      43.901  27.621  28.199  1.00  0.00    -0.248 NA
ATOM     36  C   UNL A   1      42.648  28.371  26.394  1.00  0.00     0.031 C 
ATOM     37  C   UNL A   1      41.138  27.723  31.061  1.00  0.00     0.029 A 
ATOM     38  N   UNL A   1      41.033  29.529  29.795  1.00  0.00    -0.354 N 
ATOM     39  C   UNL A   1      44.677  28.387  27.375  1.00  0.00     0.074 A 
ATOM     40  C   UNL A   1      43.954  28.471  26.130  1.00  0.00     0.031 C 
ATOM     41  C   UNL A   1      40.316  28.581  31.697  1.00  0.00     0.029 A 
ATOM     42  C   UNL A   1      40.165  29.806  30.900  1.00  0.00     0.049 A 
ATOM     43  H   UNL A   1      41.317  30.218  29.152  1.00  0.00     0.167 HD
ATOM     44  C   UNL A   1      45.416  29.342  27.996  1.00  0.00     0.034 A 
ATOM     45  C   UNL A   1      40.013  30.960  31.622  1.00  0.00     0.034 A 
ATOM     46  C   UNL A   1      45.668  29.030  29.399  1.00  0.00     0.049 A 
ATOM     47  C   UNL A   1      41.343  31.339  32.156  1.00  0.00     0.074 A 
ATOM     48  C   UNL A   1      46.196  27.939  30.066  1.00  0.00     0.029 A 
ATOM     49  N   UNL A   1      45.009  29.786  30.344  1.00  0.00    -0.354 N 
ATOM     50  N   UNL A   1      42.005  30.667  33.057  1.00  0.00    -0.248 NA
ATOM     51  C   UNL A   1      42.140  32.265  31.362  1.00  0.00     0.031 C 
ATOM     52  C   UNL A   1      45.729  28.004  31.406  1.00  0.00     0.029 A 
ATOM     53  C   UNL A   1      44.971  29.159  31.574  1.00  0.00     0.049 A 
ATOM     54  H   UNL A   1      44.613  30.669  30.164  1.00  0.00     0.167 HD
ATOM     55  C   UNL A   1      43.306  30.693  32.584  1.00  0.00     0.074 A 
ATOM     56  C   UNL A   1      43.360  31.814  31.660  1.00  0.00     0.031 C 
ATOM     57  C   UNL A   1      44.102  29.590  32.671  1.00  0.00     0.034 A 
BRANCH  44  58
ATOM     58  C   UNL A   1      45.502  30.739  27.455  1.00  0.00     0.023 A 
ATOM     59  C   UNL A   1      46.782  31.211  27.174  1.00  0.00     0.031 A 
ATOM     60  C   UNL A   1      44.456  31.697  27.431  1.00  0.00     0.131 A 
ATOM     61  C   UNL A   1      46.989  32.572  26.924  1.00  0.00     0.055 A 
ATOM     62  C   UNL A   1      44.655  33.032  27.096  1.00  0.00     0.041 A 
ATOM     63  F   UNL A   1      43.209  31.434  27.834  1.00  0.00    -0.206 F 
ATOM     64  C   UNL A   1      45.936  33.485  26.860  1.00  0.00     0.022 A 
BRANCH  61  65
ATOM     65  S   UNL A   1      48.692  33.152  26.838  1.00  0.00     0.124 S 
ATOM     66  O   UNL A   1      48.973  33.418  28.244  1.00  0.00    -0.237 OA
ATOM     67  O   UNL A   1      49.369  32.002  26.248  1.00  0.00    -0.237 OA
ATOM     68  O   UNL A   1      48.599  34.330  25.979  1.00  0.00    -0.744 OA
ENDBRANCH  61  65
ENDBRANCH  44  58
BRANCH  45  69
ATOM     69  C   UNL A   1      38.723  31.600  32.030  1.00  0.00     0.023 A 
ATOM     70  C   UNL A   1      37.782  32.085  31.088  1.00  0.00     0.031 A 
ATOM     71  C   UNL A   1      38.313  31.613  33.381  1.00  0.00     0.131 A 
ATOM     72  C   UNL A   1      36.490  32.496  31.499  1.00  0.00     0.055 A 
ATOM     73  C   UNL A   1      37.032  32.020  33.783  1.00  0.00     0.041 A 
ATOM     74  F   UNL A   1      39.135  31.188  34.355  1.00  0.00    -0.206 F 
ATOM     75  C   UNL A   1      36.108  32.442  32.839  1.00  0.00     0.022 A 
BRANCH  72  76
ATOM     76  S   UNL A   1      35.218  32.979  30.280  1.00  0.00     0.124 S 
ATOM     77  O   UNL A   1      34.030  33.125  31.112  1.00  0.00    -0.237 OA
ATOM     78  O   UNL A   1      35.760  34.206  29.707  1.00  0.00    -0.237 OA
ATOM     79  O   UNL A   1      35.193  31.839  29.361  1.00  0.00    -0.744 OA
ENDBRANCH  72  76
ENDBRANCH  45  69
BRANCH  57  80
ATOM     80  C   UNL A   1      44.005  28.719  33.913  1.00  0.00     0.023 A 
ATOM     81  C   UNL A   1      43.138  27.623  34.101  1.00  0.00     0.031 A 
ATOM     82  C   UNL A   1      44.900  29.006  34.961  1.00  0.00     0.131 A 
ATOM     83  C   UNL A   1      43.220  26.837  35.269  1.00  0.00     0.055 A 
ATOM     84  C   UNL A   1      44.983  28.229  36.117  1.00  0.00     0.041 A 
ATOM     85  F   UNL A   1      45.739  30.053  34.873  1.00  0.00    -0.206 F 
ATOM     86  C   UNL A   1      44.143  27.135  36.274  1.00  0.00     0.022 A 
BRANCH  83  87
ATOM     87  S   UNL A   1      42.106  25.420  35.529  1.00  0.00     0.124 S 
ATOM     88  O   UNL A   1      42.644  24.388  34.653  1.00  0.00    -0.237 OA
ATOM     89  O   UNL A   1      42.248  25.180  36.962  1.00  0.00    -0.237 OA
ATOM     90  O   UNL A   1      40.799  25.946  35.129  1.00  0.00    -0.744 OA
ENDBRANCH  83  87
ENDBRANCH  57  80
ENDBRANCH  31  32
ENDBRANCH  24  26
ENDBRANCH  23  24
ENDBRANCH  22  23
ENDBRANCH   1  22
TORSDOF 20
ENDMDL
MODEL 3
REMARK VINA RESULT:     -10.4      2.884      5.026
REMARK SMILES Cc1ccc(C)c([C@@H](C)[C@](C)(O)C(=O)OCCOCCOC(=O)c2ccc(-c3c4nc(c(-c5cc(S(=O)(=O)[O-])ccc5F)c5ccc([nH]5)c(-c5cc(S(=O)(=O)[O-])ccc5F)c5nc(c(-c6cc(S(=O)(=O)[O-])ccc6F)c6ccc3[nH]6)C=C5)C=C4)cc2)c1
REMARK SMILES IDX 19 1 18 2 17 3 16 4 15 5 13 6 14 7 10 8 11 9 8 10 9 11 7 12
REMARK SMILES IDX 1 13 2 14 3 15 87 16 4 17 5 18 6 19 12 20 20 22 21 23 22 24
REMARK SMILES IDX 23 25 24 26 25 27 86 28 26 29 85 30 27 31 28 32 29 33 79 34
REMARK SMILES IDX 30 35 84 36 78 37 80 38 31 39 83 40 77 41 76 42 32 44 64 45
REMARK SMILES IDX 44 46 63 47 45 48 48 49 62 50 81 51 46 52 47 53 61 55 82 56
REMARK SMILES IDX 49 57 33 58 34 59 42 60 35 61 41 62 43 63 40 64 36 65 37 66
REMARK SMILES IDX 38 67 39 68 65 69 66 70 74 71 67 72 73 73 75 74 72 75 68 76
REMARK SMILES IDX 69 77 70 78 71 79 50 80 51 81 59 82 52 83 58 84 60 85 57 86
REMARK SMILES IDX 53 87 54 88 55 89 56 90
REMARK H PARENT 12 21 80 43 48 54
REMARK Flexibility Score: inf
ROOT
ATOM      1  C   UNL A   1      34.049  30.783  27.697  1.00  0.00     0.202 C 
ENDROOT
BRANCH   1   2
ATOM      2  O   UNL A   1      33.542  32.104  27.818  1.00  0.00    -0.374 OA
BRANCH   2   3
ATOM      3  C   UNL A   1      34.478  33.157  27.955  1.00  0.00     0.202 C 
BRANCH   3   4
ATOM      4  C   UNL A   1      34.164  33.898  29.250  1.00  0.00     0.261 C 
BRANCH   4   5
ATOM      5  O   UNL A   1      35.343  34.250  30.010  1.00  0.00    -0.461 OA
BRANCH   5   6
ATOM      6  C   UNL A   1      35.910  33.256  30.749  1.00  0.00     0.338 C 
ATOM      7  O   UNL A   1      35.284  32.412  31.378  1.00  0.00    -0.249 OA
BRANCH   6   8
ATOM      8  C   UNL A   1      37.456  33.293  30.744  1.00  0.00     0.165 C 
ATOM      9  C   UNL A   1      37.910  32.938  29.290  1.00  0.00     0.055 C 
BRANCH   8  10
ATOM     10  C   UNL A   1      38.080  32.454  31.950  1.00  0.00     0.059 C 
ATOM     11  C   UNL A   1      38.313  33.242  33.258  1.00  0.00     0.016 C 
BRANCH  10  12
ATOM     12  C   UNL A   1      39.321  31.612  31.633  1.00  0.00    -0.039 A 
ATOM     13  C   UNL A   1      42.644  31.924  29.678  1.00  0.00     0.044 C 
ATOM     14  C   UNL A   1      41.544  31.418  30.558  1.00  0.00    -0.051 A 
ATOM     15  C   UNL A   1      41.686  30.154  31.093  1.00  0.00     0.004 A 
ATOM     16  C   UNL A   1      40.359  32.133  30.815  1.00  0.00     0.007 A 
ATOM     17  C   UNL A   1      40.671  29.646  31.883  1.00  0.00     0.004 A 
ATOM     18  C   UNL A   1      39.478  30.330  32.162  1.00  0.00    -0.048 A 
ATOM     19  C   UNL A   1      38.437  29.713  33.043  1.00  0.00     0.044 C 
ENDBRANCH  10  12
ENDBRANCH   8  10
BRANCH   8  20
ATOM     20  O   UNL A   1      37.865  34.670  30.918  1.00  0.00    -0.378 OA
ATOM     21  H   UNL A   1      37.165  35.258  30.596  1.00  0.00     0.212 HD
ENDBRANCH   8  20
ENDBRANCH   6   8
ENDBRANCH   5   6
ENDBRANCH   4   5
ENDBRANCH   3   4
ENDBRANCH   2   3
ENDBRANCH   1   2
BRANCH   1  22
ATOM     22  C   UNL A   1      35.553  30.829  27.938  1.00  0.00     0.261 C 
BRANCH  22  23
ATOM     23  O   UNL A   1      36.076  29.493  28.127  1.00  0.00    -0.460 OA
BRANCH  23  24
ATOM     24  C   UNL A   1      36.858  29.350  29.249  1.00  0.00     0.338 C 
ATOM     25  O   UNL A   1      36.494  29.610  30.365  1.00  0.00    -0.246 OA
BRANCH  24  26
ATOM     26  C   UNL A   1      38.250  28.924  28.850  1.00  0.00     0.060 A 
ATOM     27  C   UNL A   1      38.860  29.490  27.724  1.00  0.00     0.016 A 
ATOM     28  C   UNL A   1      38.894  27.869  29.501  1.00  0.00     0.016 A 
ATOM     29  C   UNL A   1      40.105  29.002  27.269  1.00  0.00     0.010 A 
ATOM     30  C   UNL A   1      40.076  27.329  28.989  1.00  0.00     0.010 A 
ATOM     31  C   UNL A   1      40.713  27.872  27.857  1.00  0.00    -0.014 A 
BRANCH  31  32
ATOM     32  C   UNL A   1      42.164  27.464  27.718  1.00  0.00     0.031 A 
ATOM     33  C   UNL A   1      42.060  26.088  27.233  1.00  0.00     0.074 A 
ATOM     34  C   UNL A   1      43.434  27.656  28.226  1.00  0.00     0.049 A 
ATOM     35  N   UNL A   1      42.066  25.072  28.038  1.00  0.00    -0.248 NA
ATOM     36  C   UNL A   1      41.571  25.785  25.884  1.00  0.00     0.031 C 
ATOM     37  C   UNL A   1      43.904  28.309  29.443  1.00  0.00     0.029 A 
ATOM     38  N   UNL A   1      44.568  27.852  27.388  1.00  0.00    -0.354 N 
ATOM     39  C   UNL A   1      42.168  24.027  27.162  1.00  0.00     0.074 A 
ATOM     40  C   UNL A   1      41.482  24.454  25.967  1.00  0.00     0.031 C 
ATOM     41  C   UNL A   1      44.976  29.091  29.211  1.00  0.00     0.029 A 
ATOM     42  C   UNL A   1      45.465  28.871  27.844  1.00  0.00     0.049 A 
ATOM     43  H   UNL A   1      44.722  27.331  26.566  1.00  0.00     0.167 HD
ATOM     44  C   UNL A   1      43.299  23.285  27.274  1.00  0.00     0.034 A 
ATOM     45  C   UNL A   1      46.821  28.976  27.682  1.00  0.00     0.034 A 
ATOM     46  C   UNL A   1      43.903  23.382  28.599  1.00  0.00     0.049 A 
ATOM     47  C   UNL A   1      47.439  27.741  28.220  1.00  0.00     0.074 A 
ATOM     48  C   UNL A   1      43.440  23.190  29.887  1.00  0.00     0.029 A 
ATOM     49  N   UNL A   1      45.082  24.087  28.707  1.00  0.00    -0.354 N 
ATOM     50  N   UNL A   1      47.450  27.399  29.479  1.00  0.00    -0.248 NA
ATOM     51  C   UNL A   1      47.686  26.655  27.279  1.00  0.00     0.031 C 
ATOM     52  C   UNL A   1      44.309  23.906  30.754  1.00  0.00     0.029 A 
ATOM     53  C   UNL A   1      45.333  24.481  30.007  1.00  0.00     0.049 A 
ATOM     54  H   UNL A   1      45.676  24.287  27.948  1.00  0.00     0.167 HD
ATOM     55  C   UNL A   1      47.174  26.042  29.444  1.00  0.00     0.074 A 
ATOM     56  C   UNL A   1      47.502  25.614  28.093  1.00  0.00     0.031 C 
ATOM     57  C   UNL A   1      46.347  25.473  30.367  1.00  0.00     0.034 A 
BRANCH  44  58
ATOM     58  C   UNL A   1      44.079  22.860  26.064  1.00  0.00     0.023 A 
ATOM     59  C   UNL A   1      44.027  21.505  25.745  1.00  0.00     0.031 A 
ATOM     60  C   UNL A   1      45.041  23.636  25.369  1.00  0.00     0.131 A 
ATOM     61  C   UNL A   1      44.920  20.969  24.809  1.00  0.00     0.055 A 
ATOM     62  C   UNL A   1      45.866  23.116  24.377  1.00  0.00     0.041 A 
ATOM     63  F   UNL A   1      45.322  24.907  25.676  1.00  0.00    -0.206 F 
ATOM     64  C   UNL A   1      45.824  21.765  24.106  1.00  0.00     0.022 A 
BRANCH  61  65
ATOM     65  S   UNL A   1      44.978  19.177  24.647  1.00  0.00     0.124 S 
ATOM     66  O   UNL A   1      45.380  18.783  25.992  1.00  0.00    -0.237 OA
ATOM     67  O   UNL A   1      43.604  18.867  24.264  1.00  0.00    -0.237 OA
ATOM     68  O   UNL A   1      45.979  18.970  23.604  1.00  0.00    -0.744 OA
ENDBRANCH  61  65
ENDBRANCH  44  58
BRANCH  45  69
ATOM     69  C   UNL A   1      47.585  30.199  27.280  1.00  0.00     0.023 A 
ATOM     70  C   UNL A   1      46.945  31.394  26.864  1.00  0.00     0.031 A 
ATOM     71  C   UNL A   1      48.985  30.268  27.442  1.00  0.00     0.131 A 
ATOM     72  C   UNL A   1      47.685  32.589  26.688  1.00  0.00     0.055 A 
ATOM     73  C   UNL A   1      49.713  31.454  27.268  1.00  0.00     0.041 A 
ATOM     74  F   UNL A   1      49.690  29.188  27.819  1.00  0.00    -0.206 F 
ATOM     75  C   UNL A   1      49.061  32.625  26.911  1.00  0.00     0.022 A 
BRANCH  72  76
ATOM     76  S   UNL A   1      46.853  34.168  26.300  1.00  0.00     0.124 S 
ATOM     77  O   UNL A   1      45.479  33.745  26.057  1.00  0.00    -0.237 OA
ATOM     78  O   UNL A   1      47.081  34.964  27.501  1.00  0.00    -0.237 OA
ATOM     79  O   UNL A   1      47.573  34.637  25.114  1.00  0.00    -0.744 OA
ENDBRANCH  72  76
ENDBRANCH  45  69
BRANCH  57  80
ATOM     80  C   UNL A   1      46.412  25.967  31.802  1.00  0.00     0.023 A 
ATOM     81  C   UNL A   1      45.405  26.675  32.490  1.00  0.00     0.031 A 
ATOM     82  C   UNL A   1      47.572  25.645  32.533  1.00  0.00     0.131 A 
ATOM     83  C   UNL A   1      45.556  26.988  33.857  1.00  0.00     0.055 A 
ATOM     84  C   UNL A   1      47.723  25.953  33.885  1.00  0.00     0.041 A 
ATOM     85  F   UNL A   1      48.591  24.998  31.941  1.00  0.00    -0.206 F 
ATOM     86  C   UNL A   1      46.709  26.624  34.556  1.00  0.00     0.022 A 
BRANCH  83  87
ATOM     87  S   UNL A   1      44.268  27.905  34.760  1.00  0.00     0.124 S 
ATOM     88  O   UNL A   1      45.021  28.764  35.666  1.00  0.00    -0.237 OA
ATOM     89  O   UNL A   1      43.561  28.582  33.678  1.00  0.00    -0.237 OA
ATOM     90  O   UNL A   1      43.500  26.845  35.415  1.00  0.00    -0.744 OA
ENDBRANCH  83  87
ENDBRANCH  57  80
ENDBRANCH  31  32
ENDBRANCH  24  26
ENDBRANCH  23  24
ENDBRANCH  22  23
ENDBRANCH   1  22
TORSDOF 20
ENDMDL
