MODEL 1
REMARK VINA RESULT:      -9.3      0.000      0.000
REMARK SMILES CC[C@H](C)CN(CC)C(=O)Nc1ccc(C(=O)OCCOCCOC(=O)c2ccc(-c3c4nc(c(-c5cc(S(=O)(=O)[O-])ccc5F)c5ccc([nH]5)c(-c5cc(S(=O)(=O)[O-])ccc5F)c5nc(c(-c6cc(S(=O)(=O)[O-])ccc6F)c6ccc3[nH]6)C=C5)C=C4)cc2)cc1Cl
REMARK SMILES IDX 20 1 19 2 18 3 16 4 17 5 15 6 12 7 13 8 91 9 14 10 90 11
REMARK SMILES IDX 92 12 11 13 9 14 10 15 6 17 5 18 3 19 4 20 2 21 1 22 7 23
REMARK SMILES IDX 8 24 21 25 22 26 23 27 24 28 25 29 26 30 27 31 28 32 89 33
REMARK SMILES IDX 29 34 88 35 30 36 31 37 32 38 82 39 33 40 87 41 81 42 83 43
REMARK SMILES IDX 34 44 86 45 80 46 79 47 35 49 67 50 47 51 66 52 48 53 51 54
REMARK SMILES IDX 65 55 84 56 49 57 50 58 64 60 85 61 52 62 36 63 37 64 45 65
REMARK SMILES IDX 38 66 44 67 46 68 43 69 39 70 40 71 41 72 42 73 68 74 69 75
REMARK SMILES IDX 77 76 70 77 76 78 78 79 75 80 71 81 72 82 73 83 74 84 53 85
REMARK SMILES IDX 54 86 62 87 55 88 61 89 63 90 60 91 56 92 57 93 58 94 59 95
REMARK H PARENT 11 16 83 48 51 59
REMARK Flexibility Score: inf
ROOT
ATOM      1  C   UNL A   1      34.156  36.026  28.373  1.00  0.00     0.202 C 
ENDROOT
BRANCH   1   2
ATOM      2  C   UNL A   1      33.292  36.873  29.308  1.00  0.00     0.261 C 
BRANCH   2   3
ATOM      3  O   UNL A   1      32.833  36.084  30.414  1.00  0.00    -0.460 OA
BRANCH   3   4
ATOM      4  C   UNL A   1      33.212  36.518  31.637  1.00  0.00     0.338 C 
ATOM      5  O   UNL A   1      32.983  37.611  32.130  1.00  0.00    -0.246 OA
BRANCH   4   6
ATOM      6  C   UNL A   1      33.926  35.442  32.369  1.00  0.00     0.061 A 
ATOM      7  C   UNL A   1      35.576  33.661  33.715  1.00  0.00     0.061 A 
ATOM      8  C   UNL A   1      35.167  34.831  34.358  1.00  0.00     0.028 A 
ATOM      9  C   UNL A   1      34.980  33.274  32.507  1.00  0.00     0.065 A 
ATOM     10  C   UNL A   1      34.358  35.731  33.671  1.00  0.00     0.018 A 
ATOM     11  C   UNL A   1      34.171  34.176  31.818  1.00  0.00     0.038 A 
ATOM     12  Cl  UNL A   1      35.181  31.679  31.875  1.00  0.00    -0.082 Cl
BRANCH   7  13
ATOM     13  N   UNL A   1      36.665  32.993  34.271  1.00  0.00    -0.306 N 
ATOM     14  C   UNL A   1      37.996  33.080  34.001  1.00  0.00     0.321 C 
ATOM     15  O   UNL A   1      38.679  32.136  34.416  1.00  0.00    -0.248 OA
ATOM     16  H   UNL A   1      36.433  32.348  34.978  1.00  0.00     0.171 HD
BRANCH  14  17
ATOM     17  N   UNL A   1      38.577  34.224  33.476  1.00  0.00    -0.325 N 
BRANCH  17  18
ATOM     18  C   UNL A   1      38.148  34.611  32.123  1.00  0.00     0.124 C 
BRANCH  18  19
ATOM     19  C   UNL A   1      38.706  33.650  31.037  1.00  0.00     0.005 C 
ATOM     20  C   UNL A   1      37.679  33.423  29.921  1.00  0.00     0.009 C 
BRANCH  19  21
ATOM     21  C   UNL A   1      40.035  34.199  30.483  1.00  0.00     0.002 C 
ATOM     22  C   UNL A   1      39.881  34.943  29.161  1.00  0.00     0.004 C 
ENDBRANCH  19  21
ENDBRANCH  18  19
ENDBRANCH  17  18
BRANCH  17  23
ATOM     23  C   UNL A   1      39.689  35.041  33.994  1.00  0.00     0.118 C 
ATOM     24  C   UNL A   1      39.584  35.302  35.494  1.00  0.00     0.027 C 
ENDBRANCH  17  23
ENDBRANCH  14  17
ENDBRANCH   7  13
ENDBRANCH   4   6
ENDBRANCH   3   4
ENDBRANCH   2   3
ENDBRANCH   1   2
BRANCH   1  25
ATOM     25  O   UNL A   1      34.442  34.696  28.809  1.00  0.00    -0.374 OA
BRANCH  25  26
ATOM     26  C   UNL A   1      33.859  33.617  28.081  1.00  0.00     0.202 C 
BRANCH  26  27
ATOM     27  C   UNL A   1      34.216  32.189  28.512  1.00  0.00     0.261 C 
BRANCH  27  28
ATOM     28  O   UNL A   1      34.571  31.343  27.408  1.00  0.00    -0.460 OA
BRANCH  28  29
ATOM     29  C   UNL A   1      34.770  30.044  27.750  1.00  0.00     0.338 C 
ATOM     30  O   UNL A   1      34.035  29.104  27.500  1.00  0.00    -0.246 OA
BRANCH  29  31
ATOM     31  C   UNL A   1      36.117  29.868  28.326  1.00  0.00     0.060 A 
ATOM     32  C   UNL A   1      37.209  30.214  27.520  1.00  0.00     0.016 A 
ATOM     33  C   UNL A   1      36.318  29.309  29.590  1.00  0.00     0.016 A 
ATOM     34  C   UNL A   1      38.507  29.952  27.951  1.00  0.00     0.010 A 
ATOM     35  C   UNL A   1      37.623  29.038  30.018  1.00  0.00     0.010 A 
ATOM     36  C   UNL A   1      38.720  29.326  29.186  1.00  0.00    -0.014 A 
BRANCH  36  37
ATOM     37  C   UNL A   1      40.079  28.837  29.528  1.00  0.00     0.031 A 
ATOM     38  C   UNL A   1      40.841  29.521  30.631  1.00  0.00     0.074 A 
ATOM     39  C   UNL A   1      40.609  27.778  28.893  1.00  0.00     0.049 A 
ATOM     40  N   UNL A   1      42.046  29.284  31.081  1.00  0.00    -0.248 NA
ATOM     41  C   UNL A   1      40.148  30.625  31.313  1.00  0.00     0.031 C 
ATOM     42  C   UNL A   1      39.945  27.007  27.842  1.00  0.00     0.029 A 
ATOM     43  N   UNL A   1      41.830  27.169  29.037  1.00  0.00    -0.354 N 
ATOM     44  C   UNL A   1      42.259  30.208  32.098  1.00  0.00     0.074 A 
ATOM     45  C   UNL A   1      41.072  31.035  32.169  1.00  0.00     0.031 C 
ATOM     46  C   UNL A   1      40.774  26.033  27.427  1.00  0.00     0.029 A 
ATOM     47  C   UNL A   1      42.037  26.133  28.158  1.00  0.00     0.049 A 
ATOM     48  H   UNL A   1      42.495  27.447  29.707  1.00  0.00     0.167 HD
ATOM     49  C   UNL A   1      43.341  30.348  32.904  1.00  0.00     0.034 A 
ATOM     50  C   UNL A   1      43.129  25.370  27.950  1.00  0.00     0.034 A 
ATOM     51  C   UNL A   1      44.523  29.525  32.810  1.00  0.00     0.049 A 
ATOM     52  C   UNL A   1      44.356  25.599  28.799  1.00  0.00     0.074 A 
ATOM     53  C   UNL A   1      45.671  29.572  33.582  1.00  0.00     0.029 A 
ATOM     54  N   UNL A   1      44.715  28.516  31.875  1.00  0.00    -0.354 N 
ATOM     55  N   UNL A   1      44.542  26.470  29.764  1.00  0.00    -0.248 NA
ATOM     56  C   UNL A   1      45.515  24.736  28.536  1.00  0.00     0.031 C 
ATOM     57  C   UNL A   1      46.582  28.640  33.071  1.00  0.00     0.029 A 
ATOM     58  C   UNL A   1      45.975  27.956  32.029  1.00  0.00     0.049 A 
ATOM     59  H   UNL A   1      44.054  28.237  31.202  1.00  0.00     0.167 HD
ATOM     60  C   UNL A   1      45.830  26.237  30.243  1.00  0.00     0.074 A 
ATOM     61  C   UNL A   1      46.367  25.139  29.468  1.00  0.00     0.031 C 
ATOM     62  C   UNL A   1      46.503  26.868  31.239  1.00  0.00     0.034 A 
BRANCH  49  63
ATOM     63  C   UNL A   1      43.308  31.470  33.916  1.00  0.00     0.023 A 
ATOM     64  C   UNL A   1      42.738  31.302  35.189  1.00  0.00     0.031 A 
ATOM     65  C   UNL A   1      43.820  32.737  33.585  1.00  0.00     0.131 A 
ATOM     66  C   UNL A   1      42.627  32.400  36.057  1.00  0.00     0.055 A 
ATOM     67  C   UNL A   1      43.778  33.805  34.483  1.00  0.00     0.041 A 
ATOM     68  F   UNL A   1      44.355  32.964  32.375  1.00  0.00    -0.206 F 
ATOM     69  C   UNL A   1      43.164  33.645  35.721  1.00  0.00     0.022 A 
BRANCH  66  70
ATOM     70  S   UNL A   1      41.638  32.217  37.567  1.00  0.00     0.124 S 
ATOM     71  O   UNL A   1      40.432  31.574  37.054  1.00  0.00    -0.237 OA
ATOM     72  O   UNL A   1      42.497  31.388  38.407  1.00  0.00    -0.237 OA
ATOM     73  O   UNL A   1      41.456  33.591  38.026  1.00  0.00    -0.744 OA
ENDBRANCH  66  70
ENDBRANCH  49  63
BRANCH  50  74
ATOM     74  C   UNL A   1      43.135  24.346  26.867  1.00  0.00     0.023 A 
ATOM     75  C   UNL A   1      42.516  23.099  27.038  1.00  0.00     0.031 A 
ATOM     76  C   UNL A   1      43.808  24.588  25.655  1.00  0.00     0.131 A 
ATOM     77  C   UNL A   1      42.613  22.125  26.032  1.00  0.00     0.055 A 
ATOM     78  C   UNL A   1      43.861  23.635  24.637  1.00  0.00     0.041 A 
ATOM     79  F   UNL A   1      44.417  25.765  25.439  1.00  0.00    -0.206 F 
ATOM     80  C   UNL A   1      43.272  22.389  24.828  1.00  0.00     0.022 A 
BRANCH  77  81
ATOM     81  S   UNL A   1      41.929  20.475  26.347  1.00  0.00     0.124 S 
ATOM     82  O   UNL A   1      40.506  20.695  26.114  1.00  0.00    -0.237 OA
ATOM     83  O   UNL A   1      42.625  19.665  25.353  1.00  0.00    -0.237 OA
ATOM     84  O   UNL A   1      42.303  20.212  27.735  1.00  0.00    -0.744 OA
ENDBRANCH  77  81
ENDBRANCH  50  74
BRANCH  62  85
ATOM     85  C   UNL A   1      47.880  26.347  31.575  1.00  0.00     0.023 A 
ATOM     86  C   UNL A   1      49.024  26.764  30.873  1.00  0.00     0.031 A 
ATOM     87  C   UNL A   1      48.046  25.412  32.613  1.00  0.00     0.131 A 
ATOM     88  C   UNL A   1      50.275  26.208  31.182  1.00  0.00     0.055 A 
ATOM     89  C   UNL A   1      49.300  24.906  32.954  1.00  0.00     0.041 A 
ATOM     90  F   UNL A   1      46.988  24.977  33.316  1.00  0.00    -0.206 F 
ATOM     91  C   UNL A   1      50.422  25.294  32.229  1.00  0.00     0.022 A 
BRANCH  88  92
ATOM     92  S   UNL A   1      51.699  26.629  30.140  1.00  0.00     0.124 S 
ATOM     93  O   UNL A   1      51.312  26.062  28.852  1.00  0.00    -0.237 OA
ATOM     94  O   UNL A   1      51.720  28.086  30.214  1.00  0.00    -0.237 OA
ATOM     95  O   UNL A   1      52.819  25.960  30.801  1.00  0.00    -0.744 OA
ENDBRANCH  88  92
ENDBRANCH  62  85
ENDBRANCH  36  37
ENDBRANCH  29  31
ENDBRANCH  28  29
ENDBRANCH  27  28
ENDBRANCH  26  27
ENDBRANCH  25  26
ENDBRANCH   1  25
TORSDOF 23
ENDMDL
MODEL 2
REMARK VINA RESULT:      -9.1      2.124      2.428
REMARK SMILES CC[C@H](C)CN(CC)C(=O)Nc1ccc(C(=O)OCCOCCOC(=O)c2ccc(-c3c4nc(c(-c5cc(S(=O)(=O)[O-])ccc5F)c5ccc([nH]5)c(-c5cc(S(=O)(=O)[O-])ccc5F)c5nc(c(-c6cc(S(=O)(=O)[O-])ccc6F)c6ccc3[nH]6)C=C5)C=C4)cc2)cc1Cl
REMARK SMILES IDX 20 1 19 2 18 3 16 4 17 5 15 6 12 7 13 8 91 9 14 10 90 11
REMARK SMILES IDX 92 12 11 13 9 14 10 15 6 17 5 18 3 19 4 20 2 21 1 22 7 23
REMARK SMILES IDX 8 24 21 25 22 26 23 27 24 28 25 29 26 30 27 31 28 32 89 33
REMARK SMILES IDX 29 34 88 35 30 36 31 37 32 38 82 39 33 40 87 41 81 42 83 43
REMARK SMILES IDX 34 44 86 45 80 46 79 47 35 49 67 50 47 51 66 52 48 53 51 54
REMARK SMILES IDX 65 55 84 56 49 57 50 58 64 60 85 61 52 62 36 63 37 64 45 65
REMARK SMILES IDX 38 66 44 67 46 68 43 69 39 70 40 71 41 72 42 73 68 74 69 75
REMARK SMILES IDX 77 76 70 77 76 78 78 79 75 80 71 81 72 82 73 83 74 84 53 85
REMARK SMILES IDX 54 86 62 87 55 88 61 89 63 90 60 91 56 92 57 93 58 94 59 95
REMARK H PARENT 11 16 83 48 51 59
REMARK Flexibility Score: inf
ROOT
ATOM      1  C   UNL A   1      33.988  36.500  28.439  1.00  0.00     0.202 C 
ENDROOT
BRANCH   1   2
ATOM      2  C   UNL A   1      33.002  37.283  29.308  1.00  0.00     0.261 C 
BRANCH   2   3
ATOM      3  O   UNL A   1      32.653  36.523  30.473  1.00  0.00    -0.460 OA
BRANCH   3   4
ATOM      4  C   UNL A   1      33.206  36.945  31.632  1.00  0.00     0.338 C 
ATOM      5  O   UNL A   1      33.186  38.079  32.083  1.00  0.00    -0.246 OA
BRANCH   4   6
ATOM      6  C   UNL A   1      33.823  35.805  32.356  1.00  0.00     0.061 A 
ATOM      7  C   UNL A   1      35.306  33.886  33.706  1.00  0.00     0.061 A 
ATOM      8  C   UNL A   1      34.944  35.059  34.370  1.00  0.00     0.028 A 
ATOM      9  C   UNL A   1      34.737  33.573  32.464  1.00  0.00     0.065 A 
ATOM     10  C   UNL A   1      34.220  36.028  33.682  1.00  0.00     0.018 A 
ATOM     11  C   UNL A   1      34.012  34.543  31.775  1.00  0.00     0.038 A 
ATOM     12  Cl  UNL A   1      34.864  31.988  31.789  1.00  0.00    -0.082 Cl
BRANCH   7  13
ATOM     13  N   UNL A   1      36.330  33.135  34.280  1.00  0.00    -0.306 N 
ATOM     14  C   UNL A   1      37.672  33.142  34.060  1.00  0.00     0.321 C 
ATOM     15  O   UNL A   1      38.278  32.146  34.473  1.00  0.00    -0.248 OA
ATOM     16  H   UNL A   1      36.031  32.490  34.962  1.00  0.00     0.171 HD
BRANCH  14  17
ATOM     17  N   UNL A   1      38.344  34.258  33.586  1.00  0.00    -0.325 N 
BRANCH  17  18
ATOM     18  C   UNL A   1      37.979  34.714  32.236  1.00  0.00     0.124 C 
BRANCH  18  19
ATOM     19  C   UNL A   1      38.594  33.812  31.129  1.00  0.00     0.005 C 
ATOM     20  C   UNL A   1      37.540  33.424  30.085  1.00  0.00     0.009 C 
BRANCH  19  21
ATOM     21  C   UNL A   1      39.799  34.522  30.482  1.00  0.00     0.002 C 
ATOM     22  C   UNL A   1      41.143  34.063  31.037  1.00  0.00     0.004 C 
ENDBRANCH  19  21
ENDBRANCH  18  19
ENDBRANCH  17  18
BRANCH  17  23
ATOM     23  C   UNL A   1      39.494  34.980  34.157  1.00  0.00     0.118 C 
ATOM     24  C   UNL A   1      39.380  35.179  35.665  1.00  0.00     0.027 C 
ENDBRANCH  17  23
ENDBRANCH  14  17
ENDBRANCH   7  13
ENDBRANCH   4   6
ENDBRANCH   3   4
ENDBRANCH   2   3
ENDBRANCH   1   2
BRANCH   1  25
ATOM     25  O   UNL A   1      34.210  35.137  28.806  1.00  0.00    -0.374 OA
BRANCH  25  26
ATOM     26  C   UNL A   1      33.622  34.125  27.991  1.00  0.00     0.202 C 
BRANCH  26  27
ATOM     27  C   UNL A   1      33.904  32.662  28.355  1.00  0.00     0.261 C 
BRANCH  27  28
ATOM     28  O   UNL A   1      34.491  31.919  27.276  1.00  0.00    -0.460 OA
BRANCH  28  29
ATOM     29  C   UNL A   1      34.572  30.583  27.506  1.00  0.00     0.338 C 
ATOM     30  O   UNL A   1      33.828  29.722  27.068  1.00  0.00    -0.246 OA
BRANCH  29  31
ATOM     31  C   UNL A   1      35.816  30.263  28.232  1.00  0.00     0.060 A 
ATOM     32  C   UNL A   1      37.026  30.586  27.603  1.00  0.00     0.016 A 
ATOM     33  C   UNL A   1      35.811  29.598  29.460  1.00  0.00     0.016 A 
ATOM     34  C   UNL A   1      38.235  30.196  28.172  1.00  0.00     0.010 A 
ATOM     35  C   UNL A   1      37.027  29.199  30.026  1.00  0.00     0.010 A 
ATOM     36  C   UNL A   1      38.242  29.465  29.367  1.00  0.00    -0.014 A 
BRANCH  36  37
ATOM     37  C   UNL A   1      39.508  28.851  29.836  1.00  0.00     0.031 A 
ATOM     38  C   UNL A   1      40.199  29.438  31.038  1.00  0.00     0.074 A 
ATOM     39  C   UNL A   1      40.015  27.766  29.225  1.00  0.00     0.049 A 
ATOM     40  N   UNL A   1      41.322  29.085  31.607  1.00  0.00    -0.248 NA
ATOM     41  C   UNL A   1      39.529  30.579  31.680  1.00  0.00     0.031 C 
ATOM     42  C   UNL A   1      39.410  27.084  28.082  1.00  0.00     0.029 A 
ATOM     43  N   UNL A   1      41.158  27.050  29.479  1.00  0.00    -0.354 N 
ATOM     44  C   UNL A   1      41.498  29.960  32.673  1.00  0.00     0.074 A 
ATOM     45  C   UNL A   1      40.383  30.885  32.645  1.00  0.00     0.031 C 
ATOM     46  C   UNL A   1      40.195  26.052  27.725  1.00  0.00     0.029 A 
ATOM     47  C   UNL A   1      41.373  26.023  28.591  1.00  0.00     0.049 A 
ATOM     48  H   UNL A   1      41.765  27.252  30.226  1.00  0.00     0.167 HD
ATOM     49  C   UNL A   1      42.492  29.985  33.596  1.00  0.00     0.034 A 
ATOM     50  C   UNL A   1      42.414  25.173  28.476  1.00  0.00     0.034 A 
ATOM     51  C   UNL A   1      43.604  29.065  33.601  1.00  0.00     0.049 A 
ATOM     52  C   UNL A   1      43.554  25.273  29.460  1.00  0.00     0.074 A 
ATOM     53  C   UNL A   1      44.659  28.992  34.493  1.00  0.00     0.029 A 
ATOM     54  N   UNL A   1      43.814  28.067  32.658  1.00  0.00    -0.354 N 
ATOM     55  N   UNL A   1      43.705  26.100  30.469  1.00  0.00    -0.248 NA
ATOM     56  C   UNL A   1      44.659  24.319  29.294  1.00  0.00     0.031 C 
ATOM     57  C   UNL A   1      45.541  27.998  34.052  1.00  0.00     0.029 A 
ATOM     58  C   UNL A   1      44.997  27.396  32.927  1.00  0.00     0.049 A 
ATOM     59  H   UNL A   1      43.210  27.864  31.907  1.00  0.00     0.167 HD
ATOM     60  C   UNL A   1      44.908  25.743  31.076  1.00  0.00     0.074 A 
ATOM     61  C   UNL A   1      45.434  24.623  30.325  1.00  0.00     0.031 C 
ATOM     62  C   UNL A   1      45.517  26.287  32.161  1.00  0.00     0.034 A 
BRANCH  49  63
ATOM     63  C   UNL A   1      42.441  31.079  34.637  1.00  0.00     0.023 A 
ATOM     64  C   UNL A   1      42.897  32.381  34.366  1.00  0.00     0.031 A 
ATOM     65  C   UNL A   1      41.967  30.803  35.931  1.00  0.00     0.131 A 
ATOM     66  C   UNL A   1      42.937  33.336  35.393  1.00  0.00     0.055 A 
ATOM     67  C   UNL A   1      41.935  31.781  36.927  1.00  0.00     0.041 A 
ATOM     68  F   UNL A   1      41.541  29.573  36.255  1.00  0.00    -0.206 F 
ATOM     69  C   UNL A   1      42.437  33.052  36.666  1.00  0.00     0.022 A 
BRANCH  66  70
ATOM     70  S   UNL A   1      43.788  34.908  35.084  1.00  0.00     0.124 S 
ATOM     71  O   UNL A   1      43.711  35.004  33.629  1.00  0.00    -0.237 OA
ATOM     72  O   UNL A   1      42.974  35.860  35.833  1.00  0.00    -0.237 OA
ATOM     73  O   UNL A   1      45.130  34.682  35.615  1.00  0.00    -0.744 OA
ENDBRANCH  66  70
ENDBRANCH  49  63
BRANCH  50  74
ATOM     74  C   UNL A   1      42.455  24.181  27.364  1.00  0.00     0.023 A 
ATOM     75  C   UNL A   1      41.775  22.958  27.454  1.00  0.00     0.031 A 
ATOM     76  C   UNL A   1      43.220  24.428  26.209  1.00  0.00     0.131 A 
ATOM     77  C   UNL A   1      41.903  22.009  26.427  1.00  0.00     0.055 A 
ATOM     78  C   UNL A   1      43.305  23.503  25.168  1.00  0.00     0.041 A 
ATOM     79  F   UNL A   1      43.889  25.585  26.072  1.00  0.00    -0.206 F 
ATOM     80  C   UNL A   1      42.654  22.279  25.280  1.00  0.00     0.022 A 
BRANCH  77  81
ATOM     81  S   UNL A   1      41.132  20.382  26.643  1.00  0.00     0.124 S 
ATOM     82  O   UNL A   1      41.196  20.213  28.090  1.00  0.00    -0.237 OA
ATOM     83  O   UNL A   1      39.804  20.599  26.080  1.00  0.00    -0.237 OA
ATOM     84  O   UNL A   1      41.996  19.491  25.871  1.00  0.00    -0.744 OA
ENDBRANCH  77  81
ENDBRANCH  50  74
BRANCH  62  85
ATOM     85  C   UNL A   1      46.799  25.640  32.625  1.00  0.00     0.023 A 
ATOM     86  C   UNL A   1      46.822  24.700  33.670  1.00  0.00     0.031 A 
ATOM     87  C   UNL A   1      48.021  25.977  32.014  1.00  0.00     0.131 A 
ATOM     88  C   UNL A   1      48.045  24.168  34.106  1.00  0.00     0.055 A 
ATOM     89  C   UNL A   1      49.227  25.402  32.414  1.00  0.00     0.041 A 
ATOM     90  F   UNL A   1      48.059  26.870  31.012  1.00  0.00    -0.206 F 
ATOM     91  C   UNL A   1      49.246  24.502  33.474  1.00  0.00     0.022 A 
BRANCH  88  92
ATOM     92  S   UNL A   1      48.060  23.099  35.572  1.00  0.00     0.124 S 
ATOM     93  O   UNL A   1      46.950  22.192  35.298  1.00  0.00    -0.237 OA
ATOM     94  O   UNL A   1      49.393  22.510  35.516  1.00  0.00    -0.237 OA
ATOM     95  O   UNL A   1      47.840  24.030  36.679  1.00  0.00    -0.744 OA
ENDBRANCH  88  92
ENDBRANCH  62  85
ENDBRANCH  36  37
ENDBRANCH  29  31
ENDBRANCH  28  29
ENDBRANCH  27  28
ENDBRANCH  26  27
ENDBRANCH  25  26
ENDBRANCH   1  25
TORSDOF 23
ENDMDL
MODEL 3
REMARK VINA RESULT:      -8.6      4.752      8.175
REMARK SMILES CC[C@H](C)CN(CC)C(=O)Nc1ccc(C(=O)OCCOCCOC(=O)c2ccc(-c3c4nc(c(-c5cc(S(=O)(=O)[O-])ccc5F)c5ccc([nH]5)c(-c5cc(S(=O)(=O)[O-])ccc5F)c5nc(c(-c6cc(S(=O)(=O)[O-])ccc6F)c6ccc3[nH]6)C=C5)C=C4)cc2)cc1Cl
REMARK SMILES IDX 20 1 19 2 18 3 16 4 17 5 15 6 12 7 13 8 91 9 14 10 90 11
REMARK SMILES IDX 92 12 11 13 9 14 10 15 6 17 5 18 3 19 4 20 2 21 1 22 7 23
REMARK SMILES IDX 8 24 21 25 22 26 23 27 24 28 25 29 26 30 27 31 28 32 89 33
REMARK SMILES IDX 29 34 88 35 30 36 31 37 32 38 82 39 33 40 87 41 81 42 83 43
REMARK SMILES IDX 34 44 86 45 80 46 79 47 35 49 67 50 47 51 66 52 48 53 51 54
REMARK SMILES IDX 65 55 84 56 49 57 50 58 64 60 85 61 52 62 36 63 37 64 45 65
REMARK SMILES IDX 38 66 44 67 46 68 43 69 39 70 40 71 41 72 42 73 68 74 69 75
REMARK SMILES IDX 77 76 70 77 76 78 78 79 75 80 71 81 72 82 73 83 74 84 53 85
REMARK SMILES IDX 54 86 62 87 55 88 61 89 63 90 60 91 56 92 57 93 58 94 59 95
REMARK H PARENT 11 16 83 48 51 59
REMARK Flexibility Score: inf
ROOT
ATOM      1  C   UNL A   1      32.837  29.690  24.785  1.00  0.00     0.202 C 
ENDROOT
BRANCH   1   2
ATOM      2  C   UNL A   1      32.901  29.129  23.363  1.00  0.00     0.261 C 
BRANCH   2   3
ATOM      3  O   UNL A   1      32.318  27.819  23.317  1.00  0.00    -0.460 OA
BRANCH   3   4
ATOM      4  C   UNL A   1      33.009  26.899  22.608  1.00  0.00     0.338 C 
ATOM      5  O   UNL A   1      33.709  27.102  21.629  1.00  0.00    -0.246 OA
BRANCH   4   6
ATOM      6  C   UNL A   1      32.856  25.554  23.218  1.00  0.00     0.061 A 
ATOM      7  C   UNL A   1      32.477  22.918  24.000  1.00  0.00     0.061 A 
ATOM      8  C   UNL A   1      33.605  23.251  23.246  1.00  0.00     0.028 A 
ATOM      9  C   UNL A   1      31.675  23.925  24.552  1.00  0.00     0.065 A 
ATOM     10  C   UNL A   1      33.779  24.569  22.838  1.00  0.00     0.018 A 
ATOM     11  C   UNL A   1      31.848  25.246  24.144  1.00  0.00     0.038 A 
ATOM     12  Cl  UNL A   1      30.508  23.575  25.777  1.00  0.00    -0.082 Cl
BRANCH   7  13
ATOM     13  N   UNL A   1      32.143  21.566  24.057  1.00  0.00    -0.306 N 
ATOM     14  C   UNL A   1      32.803  20.507  24.601  1.00  0.00     0.321 C 
ATOM     15  O   UNL A   1      32.425  19.396  24.211  1.00  0.00    -0.248 OA
ATOM     16  H   UNL A   1      31.284  21.338  23.632  1.00  0.00     0.171 HD
BRANCH  14  17
ATOM     17  N   UNL A   1      33.694  20.645  25.655  1.00  0.00    -0.325 N 
BRANCH  17  18
ATOM     18  C   UNL A   1      35.118  20.466  25.331  1.00  0.00     0.124 C 
BRANCH  18  19
ATOM     19  C   UNL A   1      35.778  21.790  24.854  1.00  0.00     0.005 C 
ATOM     20  C   UNL A   1      35.929  22.781  26.015  1.00  0.00     0.009 C 
BRANCH  19  21
ATOM     21  C   UNL A   1      37.133  21.490  24.184  1.00  0.00     0.002 C 
ATOM     22  C   UNL A   1      38.266  21.263  25.179  1.00  0.00     0.004 C 
ENDBRANCH  19  21
ENDBRANCH  18  19
ENDBRANCH  17  18
BRANCH  17  23
ATOM     23  C   UNL A   1      33.434  20.787  27.098  1.00  0.00     0.118 C 
ATOM     24  C   UNL A   1      33.138  22.226  27.509  1.00  0.00     0.027 C 
ENDBRANCH  17  23
ENDBRANCH  14  17
ENDBRANCH   7  13
ENDBRANCH   4   6
ENDBRANCH   3   4
ENDBRANCH   2   3
ENDBRANCH   1   2
BRANCH   1  25
ATOM     25  O   UNL A   1      31.532  29.967  25.297  1.00  0.00    -0.374 OA
BRANCH  25  26
ATOM     26  C   UNL A   1      31.437  30.738  26.493  1.00  0.00     0.202 C 
BRANCH  26  27
ATOM     27  C   UNL A   1      32.002  32.163  26.470  1.00  0.00     0.261 C 
BRANCH  27  28
ATOM     28  O   UNL A   1      32.358  32.646  27.775  1.00  0.00    -0.460 OA
BRANCH  28  29
ATOM     29  C   UNL A   1      33.387  33.532  27.774  1.00  0.00     0.338 C 
ATOM     30  O   UNL A   1      33.306  34.743  27.657  1.00  0.00    -0.246 OA
BRANCH  29  31
ATOM     31  C   UNL A   1      34.649  32.850  28.121  1.00  0.00     0.060 A 
ATOM     32  C   UNL A   1      34.563  31.513  28.530  1.00  0.00     0.016 A 
ATOM     33  C   UNL A   1      35.877  33.515  28.122  1.00  0.00     0.016 A 
ATOM     34  C   UNL A   1      35.696  30.850  28.995  1.00  0.00     0.010 A 
ATOM     35  C   UNL A   1      37.013  32.850  28.598  1.00  0.00     0.010 A 
ATOM     36  C   UNL A   1      36.920  31.527  29.069  1.00  0.00    -0.014 A 
BRANCH  36  37
ATOM     37  C   UNL A   1      38.057  30.896  29.784  1.00  0.00     0.031 A 
ATOM     38  C   UNL A   1      38.310  31.270  31.219  1.00  0.00     0.074 A 
ATOM     39  C   UNL A   1      38.829  29.979  29.175  1.00  0.00     0.049 A 
ATOM     40  N   UNL A   1      39.255  30.869  32.029  1.00  0.00    -0.248 NA
ATOM     41  C   UNL A   1      37.369  32.228  31.818  1.00  0.00     0.031 C 
ATOM     42  C   UNL A   1      38.650  29.504  27.803  1.00  0.00     0.029 A 
ATOM     43  N   UNL A   1      39.921  29.284  29.633  1.00  0.00    -0.354 N 
ATOM     44  C   UNL A   1      39.027  31.526  33.234  1.00  0.00     0.074 A 
ATOM     45  C   UNL A   1      37.876  32.382  33.032  1.00  0.00     0.031 C 
ATOM     46  C   UNL A   1      39.608  28.603  27.527  1.00  0.00     0.029 A 
ATOM     47  C   UNL A   1      40.487  28.463  28.687  1.00  0.00     0.049 A 
ATOM     48  H   UNL A   1      40.264  29.366  30.551  1.00  0.00     0.167 HD
ATOM     49  C   UNL A   1      39.708  31.418  34.401  1.00  0.00     0.034 A 
ATOM     50  C   UNL A   1      41.601  27.705  28.745  1.00  0.00     0.034 A 
ATOM     51  C   UNL A   1      40.862  30.572  34.581  1.00  0.00     0.049 A 
ATOM     52  C   UNL A   1      42.395  27.667  30.028  1.00  0.00     0.074 A 
ATOM     53  C   UNL A   1      41.621  30.377  35.723  1.00  0.00     0.029 A 
ATOM     54  N   UNL A   1      41.436  29.789  33.587  1.00  0.00    -0.354 N 
ATOM     55  N   UNL A   1      42.164  28.286  31.162  1.00  0.00    -0.248 NA
ATOM     56  C   UNL A   1      43.596  26.820  30.038  1.00  0.00     0.031 C 
ATOM     57  C   UNL A   1      42.691  29.534  35.401  1.00  0.00     0.029 A 
ATOM     58  C   UNL A   1      42.557  29.138  34.079  1.00  0.00     0.049 A 
ATOM     59  H   UNL A   1      41.097  29.708  32.667  1.00  0.00     0.167 HD
ATOM     60  C   UNL A   1      43.174  27.878  32.031  1.00  0.00     0.074 A 
ATOM     61  C   UNL A   1      44.008  26.953  31.291  1.00  0.00     0.031 C 
ATOM     62  C   UNL A   1      43.388  28.228  33.325  1.00  0.00     0.034 A 
BRANCH  49  63
ATOM     63  C   UNL A   1      39.247  32.283  35.552  1.00  0.00     0.023 A 
ATOM     64  C   UNL A   1      39.646  33.625  35.675  1.00  0.00     0.031 A 
ATOM     65  C   UNL A   1      38.429  31.744  36.560  1.00  0.00     0.131 A 
ATOM     66  C   UNL A   1      39.288  34.360  36.816  1.00  0.00     0.055 A 
ATOM     67  C   UNL A   1      38.011  32.504  37.653  1.00  0.00     0.041 A 
ATOM     68  F   UNL A   1      38.036  30.462  36.508  1.00  0.00    -0.206 F 
ATOM     69  C   UNL A   1      38.453  33.816  37.795  1.00  0.00     0.022 A 
BRANCH  66  70
ATOM     70  S   UNL A   1      40.050  35.986  37.077  1.00  0.00     0.124 S 
ATOM     71  O   UNL A   1      39.813  36.632  35.788  1.00  0.00    -0.237 OA
ATOM     72  O   UNL A   1      39.291  36.512  38.206  1.00  0.00    -0.237 OA
ATOM     73  O   UNL A   1      41.448  35.668  37.358  1.00  0.00    -0.744 OA
ENDBRANCH  66  70
ENDBRANCH  49  63
BRANCH  50  74
ATOM     74  C   UNL A   1      42.061  26.953  27.543  1.00  0.00     0.023 A 
ATOM     75  C   UNL A   1      41.882  25.566  27.438  1.00  0.00     0.031 A 
ATOM     76  C   UNL A   1      42.734  27.613  26.498  1.00  0.00     0.131 A 
ATOM     77  C   UNL A   1      42.403  24.875  26.332  1.00  0.00     0.055 A 
ATOM     78  C   UNL A   1      43.207  26.929  25.377  1.00  0.00     0.041 A 
ATOM     79  F   UNL A   1      42.931  28.941  26.547  1.00  0.00    -0.206 F 
ATOM     80  C   UNL A   1      43.054  25.549  25.296  1.00  0.00     0.022 A 
BRANCH  77  81
ATOM     81  S   UNL A   1      42.284  23.065  26.302  1.00  0.00     0.124 S 
ATOM     82  O   UNL A   1      43.138  22.693  27.424  1.00  0.00    -0.237 OA
ATOM     83  O   UNL A   1      40.853  22.854  26.486  1.00  0.00    -0.237 OA
ATOM     84  O   UNL A   1      42.799  22.713  24.980  1.00  0.00    -0.744 OA
ENDBRANCH  77  81
ENDBRANCH  50  74
BRANCH  62  85
ATOM     85  C   UNL A   1      44.546  27.566  34.034  1.00  0.00     0.023 A 
ATOM     86  C   UNL A   1      44.387  26.378  34.768  1.00  0.00     0.031 A 
ATOM     87  C   UNL A   1      45.828  28.142  33.978  1.00  0.00     0.131 A 
ATOM     88  C   UNL A   1      45.479  25.831  35.459  1.00  0.00     0.055 A 
ATOM     89  C   UNL A   1      46.923  27.562  34.619  1.00  0.00     0.041 A 
ATOM     90  F   UNL A   1      46.038  29.277  33.292  1.00  0.00    -0.206 F 
ATOM     91  C   UNL A   1      46.750  26.408  35.375  1.00  0.00     0.022 A 
BRANCH  88  92
ATOM     92  S   UNL A   1      45.202  24.403  36.542  1.00  0.00     0.124 S 
ATOM     93  O   UNL A   1      46.555  23.885  36.715  1.00  0.00    -0.237 OA
ATOM     94  O   UNL A   1      44.599  25.017  37.720  1.00  0.00    -0.237 OA
ATOM     95  O   UNL A   1      44.306  23.549  35.763  1.00  0.00    -0.744 OA
ENDBRANCH  88  92
ENDBRANCH  62  85
ENDBRANCH  36  37
ENDBRANCH  29  31
ENDBRANCH  28  29
ENDBRANCH  27  28
ENDBRANCH  26  27
ENDBRANCH  25  26
ENDBRANCH   1  25
TORSDOF 23
ENDMDL
