MODEL 1
REMARK VINA RESULT:     -10.5      0.000      0.000
REMARK SMILES O=C(COc1ccccc1C[NH+]1CCC2(CC[NH2+]CC2)CC1)OCCOCCOC(=O)c1ccc(-c2c3nc(c(-c4cc(S(=O)(=O)[O-])ccc4F)c4ccc([nH]4)c(-c4cc(S(=O)(=O)[O-])ccc4F)c4nc(c(-c5cc(S(=O)(=O)[O-])ccc5F)c5ccc2[nH]5)C=C4)C=C3)cc1
REMARK SMILES IDX 25 1 24 2 23 3 2 4 1 5 3 6 4 7 5 8 6 9 10 10 7 11 9 12 8 13
REMARK SMILES IDX 11 14 12 15 13 16 22 17 14 19 21 20 15 21 16 22 20 23 17 24
REMARK SMILES IDX 19 25 18 26 26 29 27 30 28 31 29 32 30 33 31 34 32 35 33 36
REMARK SMILES IDX 94 37 34 38 93 39 35 40 36 41 37 42 87 43 38 44 92 45 86 46
REMARK SMILES IDX 88 47 39 48 91 49 85 50 84 51 40 53 72 54 52 55 71 56 53 57
REMARK SMILES IDX 56 58 70 59 89 60 54 61 55 62 69 64 90 65 57 66 41 67 42 68
REMARK SMILES IDX 50 69 43 70 49 71 51 72 48 73 44 74 45 75 46 76 47 77 73 78
REMARK SMILES IDX 74 79 82 80 75 81 81 82 83 83 80 84 76 85 77 86 78 87 79 88
REMARK SMILES IDX 58 89 59 90 67 91 60 92 66 93 68 94 65 95 61 96 62 97 63 98
REMARK SMILES IDX 64 99
REMARK H PARENT 12 18 18 27 18 28 88 52 56 63
REMARK Flexibility Score: inf
ROOT
ATOM      1  C   UNL A   1      40.057  22.973  27.292  1.00  0.00     0.202 C 
ENDROOT
BRANCH   1   2
ATOM      2  C   UNL A   1      38.893  23.657  26.573  1.00  0.00     0.261 C 
BRANCH   2   3
ATOM      3  O   UNL A   1      38.019  22.729  25.905  1.00  0.00    -0.461 OA
BRANCH   3   4
ATOM      4  C   UNL A   1      36.699  22.957  25.681  1.00  0.00     0.344 C 
ATOM      5  O   UNL A   1      36.285  24.106  25.521  1.00  0.00    -0.248 OA
BRANCH   4   6
ATOM      6  C   UNL A   1      35.746  21.777  25.689  1.00  0.00     0.351 C 
BRANCH   6   7
ATOM      7  O   UNL A   1      34.409  22.253  25.742  1.00  0.00    -0.481 OA
BRANCH   7   8
ATOM      8  C   UNL A   1      33.602  21.714  24.783  1.00  0.00     0.129 A 
ATOM      9  C   UNL A   1      33.356  20.343  24.889  1.00  0.00     0.047 A 
ATOM     10  C   UNL A   1      33.198  22.449  23.657  1.00  0.00     0.048 A 
ATOM     11  C   UNL A   1      32.646  19.684  23.890  1.00  0.00     0.004 A 
ATOM     12  C   UNL A   1      32.442  21.771  22.685  1.00  0.00     0.013 A 
ATOM     13  C   UNL A   1      32.178  20.402  22.794  1.00  0.00     0.001 A 
BRANCH  10  14
ATOM     14  C   UNL A   1      33.538  23.911  23.445  1.00  0.00     0.302 C 
BRANCH  14  15
ATOM     15  N   UNL A   1      33.271  24.881  24.509  1.00  0.00    -0.331 N 
ATOM     16  C   UNL A   1      33.785  26.231  24.342  1.00  0.00     0.263 C 
ATOM     17  C   UNL A   1      31.950  24.873  25.112  1.00  0.00     0.263 C 
ATOM     18  H   UNL A   1      33.881  24.454  25.206  1.00  0.00     0.348 HD
ATOM     19  C   UNL A   1      32.870  27.164  23.551  1.00  0.00     0.069 C 
ATOM     20  C   UNL A   1      30.923  25.726  24.374  1.00  0.00     0.069 C 
ATOM     21  C   UNL A   1      31.391  27.159  24.012  1.00  0.00    -0.008 C 
ATOM     22  C   UNL A   1      31.197  28.118  25.213  1.00  0.00     0.069 C 
ATOM     23  C   UNL A   1      30.487  27.655  22.851  1.00  0.00     0.069 C 
ATOM     24  C   UNL A   1      31.311  29.600  24.825  1.00  0.00     0.261 C 
ATOM     25  C   UNL A   1      30.687  29.132  22.535  1.00  0.00     0.261 C 
ATOM     26  N   UNL A   1      30.431  29.956  23.710  1.00  0.00    -0.346 N 
ATOM     27  H   UNL A   1      30.583  30.934  23.468  1.00  0.00     0.346 HD
ATOM     28  H   UNL A   1      29.466  29.798  24.005  1.00  0.00     0.346 HD
ENDBRANCH  14  15
ENDBRANCH  10  14
ENDBRANCH   7   8
ENDBRANCH   6   7
ENDBRANCH   4   6
ENDBRANCH   3   4
ENDBRANCH   2   3
ENDBRANCH   1   2
BRANCH   1  29
ATOM     29  O   UNL A   1      40.729  21.924  26.605  1.00  0.00    -0.374 OA
BRANCH  29  30
ATOM     30  C   UNL A   1      41.040  20.721  27.304  1.00  0.00     0.202 C 
BRANCH  30  31
ATOM     31  C   UNL A   1      42.002  19.673  26.716  1.00  0.00     0.261 C 
BRANCH  31  32
ATOM     32  O   UNL A   1      42.396  19.864  25.349  1.00  0.00    -0.460 OA
BRANCH  32  33
ATOM     33  C   UNL A   1      43.741  19.876  25.160  1.00  0.00     0.338 C 
ATOM     34  O   UNL A   1      44.441  18.924  24.860  1.00  0.00    -0.246 OA
BRANCH  33  35
ATOM     35  C   UNL A   1      44.282  21.247  25.217  1.00  0.00     0.060 A 
ATOM     36  C   UNL A   1      45.284  21.505  26.159  1.00  0.00     0.016 A 
ATOM     37  C   UNL A   1      43.678  22.292  24.515  1.00  0.00     0.016 A 
ATOM     38  C   UNL A   1      45.638  22.819  26.454  1.00  0.00     0.010 A 
ATOM     39  C   UNL A   1      44.028  23.614  24.820  1.00  0.00     0.010 A 
ATOM     40  C   UNL A   1      44.972  23.882  25.827  1.00  0.00    -0.014 A 
BRANCH  40  41
ATOM     41  C   UNL A   1      45.143  25.247  26.388  1.00  0.00     0.031 A 
ATOM     42  C   UNL A   1      46.515  25.871  26.376  1.00  0.00     0.074 A 
ATOM     43  C   UNL A   1      44.079  25.952  26.811  1.00  0.00     0.049 A 
ATOM     44  N   UNL A   1      46.883  27.078  26.726  1.00  0.00    -0.248 NA
ATOM     45  C   UNL A   1      47.617  25.020  25.902  1.00  0.00     0.031 C 
ATOM     46  C   UNL A   1      42.702  25.461  26.842  1.00  0.00     0.029 A 
ATOM     47  N   UNL A   1      43.990  27.236  27.283  1.00  0.00    -0.354 N 
ATOM     48  C   UNL A   1      48.253  27.139  26.492  1.00  0.00     0.074 A 
ATOM     49  C   UNL A   1      48.658  25.830  26.023  1.00  0.00     0.031 C 
ATOM     50  C   UNL A   1      41.904  26.434  27.313  1.00  0.00     0.029 A 
ATOM     51  C   UNL A   1      42.713  27.610  27.629  1.00  0.00     0.049 A 
ATOM     52  H   UNL A   1      44.768  27.835  27.367  1.00  0.00     0.167 HD
ATOM     53  C   UNL A   1      49.096  28.192  26.641  1.00  0.00     0.034 A 
ATOM     54  C   UNL A   1      42.253  28.766  28.146  1.00  0.00     0.034 A 
ATOM     55  C   UNL A   1      48.687  29.482  27.142  1.00  0.00     0.049 A 
ATOM     56  C   UNL A   1      43.218  29.908  28.357  1.00  0.00     0.074 A 
ATOM     57  C   UNL A   1      49.459  30.612  27.356  1.00  0.00     0.029 A 
ATOM     58  N   UNL A   1      47.391  29.814  27.516  1.00  0.00    -0.354 N 
ATOM     59  N   UNL A   1      44.510  29.953  28.123  1.00  0.00    -0.248 NA
ATOM     60  C   UNL A   1      42.656  31.160  28.879  1.00  0.00     0.031 C 
ATOM     61  C   UNL A   1      48.641  31.605  27.910  1.00  0.00     0.029 A 
ATOM     62  C   UNL A   1      47.345  31.119  27.980  1.00  0.00     0.049 A 
ATOM     63  H   UNL A   1      46.617  29.208  27.459  1.00  0.00     0.167 HD
ATOM     64  C   UNL A   1      44.911  31.244  28.457  1.00  0.00     0.074 A 
ATOM     65  C   UNL A   1      43.719  31.951  28.878  1.00  0.00     0.031 C 
ATOM     66  C   UNL A   1      46.150  31.799  28.422  1.00  0.00     0.034 A 
BRANCH  53  67
ATOM     67  C   UNL A   1      50.548  27.964  26.297  1.00  0.00     0.023 A 
ATOM     68  C   UNL A   1      50.998  27.972  24.963  1.00  0.00     0.031 A 
ATOM     69  C   UNL A   1      51.488  27.701  27.308  1.00  0.00     0.131 A 
ATOM     70  C   UNL A   1      52.335  27.660  24.673  1.00  0.00     0.055 A 
ATOM     71  C   UNL A   1      52.833  27.458  27.017  1.00  0.00     0.041 A 
ATOM     72  F   UNL A   1      51.112  27.659  28.595  1.00  0.00    -0.206 F 
ATOM     73  C   UNL A   1      53.260  27.423  25.693  1.00  0.00     0.022 A 
BRANCH  70  74
ATOM     74  S   UNL A   1      52.823  27.445  22.939  1.00  0.00     0.124 S 
ATOM     75  O   UNL A   1      53.638  26.236  23.009  1.00  0.00    -0.237 OA
ATOM     76  O   UNL A   1      51.539  27.313  22.263  1.00  0.00    -0.237 OA
ATOM     77  O   UNL A   1      53.563  28.670  22.637  1.00  0.00    -0.744 OA
ENDBRANCH  70  74
ENDBRANCH  53  67
BRANCH  54  78
ATOM     78  C   UNL A   1      40.821  28.899  28.536  1.00  0.00     0.023 A 
ATOM     79  C   UNL A   1      40.405  28.763  29.869  1.00  0.00     0.031 A 
ATOM     80  C   UNL A   1      39.835  29.116  27.556  1.00  0.00     0.131 A 
ATOM     81  C   UNL A   1      39.037  28.799  30.182  1.00  0.00     0.055 A 
ATOM     82  C   UNL A   1      38.480  29.198  27.877  1.00  0.00     0.041 A 
ATOM     83  F   UNL A   1      40.179  29.255  26.265  1.00  0.00    -0.206 F 
ATOM     84  C   UNL A   1      38.073  29.026  29.196  1.00  0.00     0.022 A 
BRANCH  81  85
ATOM     85  S   UNL A   1      38.523  28.460  31.888  1.00  0.00     0.124 S 
ATOM     86  O   UNL A   1      38.559  27.002  31.927  1.00  0.00    -0.237 OA
ATOM     87  O   UNL A   1      39.555  29.148  32.657  1.00  0.00    -0.237 OA
ATOM     88  O   UNL A   1      37.190  29.054  31.967  1.00  0.00    -0.744 OA
ENDBRANCH  81  85
ENDBRANCH  54  78
BRANCH  66  89
ATOM     89  C   UNL A   1      46.256  33.246  28.837  1.00  0.00     0.023 A 
ATOM     90  C   UNL A   1      46.200  34.286  27.891  1.00  0.00     0.031 A 
ATOM     91  C   UNL A   1      46.457  33.587  30.186  1.00  0.00     0.131 A 
ATOM     92  C   UNL A   1      46.411  35.611  28.298  1.00  0.00     0.055 A 
ATOM     93  C   UNL A   1      46.608  34.914  30.593  1.00  0.00     0.041 A 
ATOM     94  F   UNL A   1      46.518  32.634  31.130  1.00  0.00    -0.206 F 
ATOM     95  C   UNL A   1      46.603  35.933  29.645  1.00  0.00     0.022 A 
BRANCH  92  96
ATOM     96  S   UNL A   1      46.544  36.900  27.028  1.00  0.00     0.124 S 
ATOM     97  O   UNL A   1      45.389  37.740  27.323  1.00  0.00    -0.237 OA
ATOM     98  O   UNL A   1      47.849  37.485  27.314  1.00  0.00    -0.237 OA
ATOM     99  O   UNL A   1      46.462  36.155  25.772  1.00  0.00    -0.744 OA
ENDBRANCH  92  96
ENDBRANCH  66  89
ENDBRANCH  40  41
ENDBRANCH  33  35
ENDBRANCH  32  33
ENDBRANCH  31  32
ENDBRANCH  30  31
ENDBRANCH  29  30
ENDBRANCH   1  29
TORSDOF 21
ENDMDL
MODEL 2
REMARK VINA RESULT:     -10.4      1.913      2.514
REMARK SMILES O=C(COc1ccccc1C[NH+]1CCC2(CC[NH2+]CC2)CC1)OCCOCCOC(=O)c1ccc(-c2c3nc(c(-c4cc(S(=O)(=O)[O-])ccc4F)c4ccc([nH]4)c(-c4cc(S(=O)(=O)[O-])ccc4F)c4nc(c(-c5cc(S(=O)(=O)[O-])ccc5F)c5ccc2[nH]5)C=C4)C=C3)cc1
REMARK SMILES IDX 25 1 24 2 23 3 2 4 1 5 3 6 4 7 5 8 6 9 10 10 7 11 9 12 8 13
REMARK SMILES IDX 11 14 12 15 13 16 22 17 14 19 21 20 15 21 16 22 20 23 17 24
REMARK SMILES IDX 19 25 18 26 26 29 27 30 28 31 29 32 30 33 31 34 32 35 33 36
REMARK SMILES IDX 94 37 34 38 93 39 35 40 36 41 37 42 87 43 38 44 92 45 86 46
REMARK SMILES IDX 88 47 39 48 91 49 85 50 84 51 40 53 72 54 52 55 71 56 53 57
REMARK SMILES IDX 56 58 70 59 89 60 54 61 55 62 69 64 90 65 57 66 41 67 42 68
REMARK SMILES IDX 50 69 43 70 49 71 51 72 48 73 44 74 45 75 46 76 47 77 73 78
REMARK SMILES IDX 74 79 82 80 75 81 81 82 83 83 80 84 76 85 77 86 78 87 79 88
REMARK SMILES IDX 58 89 59 90 67 91 60 92 66 93 68 94 65 95 61 96 62 97 63 98
REMARK SMILES IDX 64 99
REMARK H PARENT 12 18 18 27 18 28 88 52 56 63
REMARK Flexibility Score: inf
ROOT
ATOM      1  C   UNL A   1      39.377  21.313  26.119  1.00  0.00     0.202 C 
ENDROOT
BRANCH   1   2
ATOM      2  C   UNL A   1      38.460  22.494  25.794  1.00  0.00     0.261 C 
BRANCH   2   3
ATOM      3  O   UNL A   1      37.073  22.119  25.697  1.00  0.00    -0.461 OA
BRANCH   3   4
ATOM      4  C   UNL A   1      36.050  23.010  25.651  1.00  0.00     0.344 C 
ATOM      5  O   UNL A   1      36.174  24.070  25.036  1.00  0.00    -0.248 OA
BRANCH   4   6
ATOM      6  C   UNL A   1      34.778  22.697  26.416  1.00  0.00     0.351 C 
BRANCH   6   7
ATOM      7  O   UNL A   1      33.659  23.177  25.686  1.00  0.00    -0.481 OA
BRANCH   7   8
ATOM      8  C   UNL A   1      33.098  22.238  24.870  1.00  0.00     0.129 A 
ATOM      9  C   UNL A   1      32.884  20.980  25.441  1.00  0.00     0.047 A 
ATOM     10  C   UNL A   1      32.921  22.462  23.496  1.00  0.00     0.048 A 
ATOM     11  C   UNL A   1      32.432  19.927  24.652  1.00  0.00     0.004 A 
ATOM     12  C   UNL A   1      32.418  21.396  22.731  1.00  0.00     0.013 A 
ATOM     13  C   UNL A   1      32.186  20.139  23.299  1.00  0.00     0.001 A 
BRANCH  10  14
ATOM     14  C   UNL A   1      33.246  23.775  22.813  1.00  0.00     0.302 C 
BRANCH  14  15
ATOM     15  N   UNL A   1      32.164  24.600  22.270  1.00  0.00    -0.331 N 
ATOM     16  C   UNL A   1      31.114  25.026  23.182  1.00  0.00     0.263 C 
ATOM     17  C   UNL A   1      32.520  25.643  21.325  1.00  0.00     0.263 C 
ATOM     18  H   UNL A   1      31.737  23.867  21.704  1.00  0.00     0.348 HD
ATOM     19  C   UNL A   1      31.423  26.310  23.949  1.00  0.00     0.069 C 
ATOM     20  C   UNL A   1      32.910  26.967  21.976  1.00  0.00     0.069 C 
ATOM     21  C   UNL A   1      31.939  27.477  23.071  1.00  0.00    -0.008 C 
ATOM     22  C   UNL A   1      30.749  28.240  22.434  1.00  0.00     0.069 C 
ATOM     23  C   UNL A   1      32.732  28.477  23.955  1.00  0.00     0.069 C 
ATOM     24  C   UNL A   1      29.945  29.059  23.454  1.00  0.00     0.261 C 
ATOM     25  C   UNL A   1      31.845  29.227  24.941  1.00  0.00     0.261 C 
ATOM     26  N   UNL A   1      30.791  29.955  24.245  1.00  0.00    -0.346 N 
ATOM     27  H   UNL A   1      30.211  30.435  24.933  1.00  0.00     0.346 HD
ATOM     28  H   UNL A   1      31.230  30.621  23.609  1.00  0.00     0.346 HD
ENDBRANCH  14  15
ENDBRANCH  10  14
ENDBRANCH   7   8
ENDBRANCH   6   7
ENDBRANCH   4   6
ENDBRANCH   3   4
ENDBRANCH   2   3
ENDBRANCH   1   2
BRANCH   1  29
ATOM     29  O   UNL A   1      39.026  20.041  25.587  1.00  0.00    -0.374 OA
BRANCH  29  30
ATOM     30  C   UNL A   1      39.924  18.947  25.750  1.00  0.00     0.202 C 
BRANCH  30  31
ATOM     31  C   UNL A   1      41.389  19.161  26.173  1.00  0.00     0.261 C 
BRANCH  31  32
ATOM     32  O   UNL A   1      42.319  19.466  25.123  1.00  0.00    -0.460 OA
BRANCH  32  33
ATOM     33  C   UNL A   1      43.410  20.160  25.538  1.00  0.00     0.338 C 
ATOM     34  O   UNL A   1      44.577  19.845  25.376  1.00  0.00    -0.246 OA
BRANCH  33  35
ATOM     35  C   UNL A   1      43.034  21.467  26.107  1.00  0.00     0.060 A 
ATOM     36  C   UNL A   1      42.934  22.549  25.226  1.00  0.00     0.016 A 
ATOM     37  C   UNL A   1      42.987  21.667  27.489  1.00  0.00     0.016 A 
ATOM     38  C   UNL A   1      42.857  23.847  25.725  1.00  0.00     0.010 A 
ATOM     39  C   UNL A   1      42.920  22.974  27.989  1.00  0.00     0.010 A 
ATOM     40  C   UNL A   1      42.908  24.070  27.108  1.00  0.00    -0.014 A 
BRANCH  40  41
ATOM     41  C   UNL A   1      43.145  25.455  27.588  1.00  0.00     0.031 A 
ATOM     42  C   UNL A   1      44.522  26.050  27.442  1.00  0.00     0.074 A 
ATOM     43  C   UNL A   1      42.129  26.202  28.056  1.00  0.00     0.049 A 
ATOM     44  N   UNL A   1      44.937  27.264  27.704  1.00  0.00    -0.248 NA
ATOM     45  C   UNL A   1      45.570  25.155  26.927  1.00  0.00     0.031 C 
ATOM     46  C   UNL A   1      40.750  25.742  28.215  1.00  0.00     0.029 A 
ATOM     47  N   UNL A   1      42.099  27.508  28.471  1.00  0.00    -0.354 N 
ATOM     48  C   UNL A   1      46.286  27.285  27.365  1.00  0.00     0.074 A 
ATOM     49  C   UNL A   1      46.631  25.948  26.930  1.00  0.00     0.031 C 
ATOM     50  C   UNL A   1      40.008  26.752  28.697  1.00  0.00     0.029 A 
ATOM     51  C   UNL A   1      40.858  27.924  28.894  1.00  0.00     0.049 A 
ATOM     52  H   UNL A   1      42.890  28.094  28.467  1.00  0.00     0.167 HD
ATOM     53  C   UNL A   1      47.156  28.326  27.399  1.00  0.00     0.034 A 
ATOM     54  C   UNL A   1      40.460  29.113  29.388  1.00  0.00     0.034 A 
ATOM     55  C   UNL A   1      46.809  29.647  27.866  1.00  0.00     0.049 A 
ATOM     56  C   UNL A   1      41.457  30.242  29.470  1.00  0.00     0.074 A 
ATOM     57  C   UNL A   1      47.614  30.769  27.967  1.00  0.00     0.029 A 
ATOM     58  N   UNL A   1      45.551  30.022  28.321  1.00  0.00    -0.354 N 
ATOM     59  N   UNL A   1      42.728  30.250  29.137  1.00  0.00    -0.248 NA
ATOM     60  C   UNL A   1      40.958  31.529  29.972  1.00  0.00     0.031 C 
ATOM     61  C   UNL A   1      46.858  31.803  28.533  1.00  0.00     0.029 A 
ATOM     62  C   UNL A   1      45.563  31.349  28.723  1.00  0.00     0.049 A 
ATOM     63  H   UNL A   1      44.765  29.431  28.352  1.00  0.00     0.167 HD
ATOM     64  C   UNL A   1      43.175  31.546  29.377  1.00  0.00     0.074 A 
ATOM     65  C   UNL A   1      42.031  32.297  29.852  1.00  0.00     0.031 C 
ATOM     66  C   UNL A   1      44.417  32.073  29.221  1.00  0.00     0.034 A 
BRANCH  53  67
ATOM     67  C   UNL A   1      48.573  28.053  26.957  1.00  0.00     0.023 A 
ATOM     68  C   UNL A   1      48.934  28.063  25.597  1.00  0.00     0.031 A 
ATOM     69  C   UNL A   1      49.567  27.742  27.900  1.00  0.00     0.131 A 
ATOM     70  C   UNL A   1      50.238  27.708  25.216  1.00  0.00     0.055 A 
ATOM     71  C   UNL A   1      50.880  27.457  27.519  1.00  0.00     0.041 A 
ATOM     72  F   UNL A   1      49.275  27.696  29.210  1.00  0.00    -0.206 F 
ATOM     73  C   UNL A   1      51.219  27.425  26.169  1.00  0.00     0.022 A 
BRANCH  70  74
ATOM     74  S   UNL A   1      50.603  27.500  23.451  1.00  0.00     0.124 S 
ATOM     75  O   UNL A   1      49.531  26.603  23.030  1.00  0.00    -0.237 OA
ATOM     76  O   UNL A   1      50.528  28.867  22.949  1.00  0.00    -0.237 OA
ATOM     77  O   UNL A   1      51.940  26.907  23.445  1.00  0.00    -0.744 OA
ENDBRANCH  70  74
ENDBRANCH  53  67
BRANCH  54  78
ATOM     78  C   UNL A   1      39.064  29.294  29.879  1.00  0.00     0.023 A 
ATOM     79  C   UNL A   1      38.084  29.922  29.095  1.00  0.00     0.031 A 
ATOM     80  C   UNL A   1      38.707  28.881  31.176  1.00  0.00     0.131 A 
ATOM     81  C   UNL A   1      36.807  30.159  29.630  1.00  0.00     0.055 A 
ATOM     82  C   UNL A   1      37.424  29.076  31.686  1.00  0.00     0.041 A 
ATOM     83  F   UNL A   1      39.607  28.274  31.967  1.00  0.00    -0.206 F 
ATOM     84  C   UNL A   1      36.468  29.731  30.916  1.00  0.00     0.022 A 
BRANCH  81  85
ATOM     85  S   UNL A   1      35.616  31.114  28.650  1.00  0.00     0.124 S 
ATOM     86  O   UNL A   1      34.819  31.755  29.691  1.00  0.00    -0.237 OA
ATOM     87  O   UNL A   1      36.491  31.990  27.879  1.00  0.00    -0.237 OA
ATOM     88  O   UNL A   1      34.919  30.091  27.872  1.00  0.00    -0.744 OA
ENDBRANCH  81  85
ENDBRANCH  54  78
BRANCH  66  89
ATOM     89  C   UNL A   1      44.580  33.536  29.557  1.00  0.00     0.023 A 
ATOM     90  C   UNL A   1      44.325  34.539  28.605  1.00  0.00     0.031 A 
ATOM     91  C   UNL A   1      45.035  33.928  30.827  1.00  0.00     0.131 A 
ATOM     92  C   UNL A   1      44.590  35.881  28.916  1.00  0.00     0.055 A 
ATOM     93  C   UNL A   1      45.241  35.270  31.151  1.00  0.00     0.041 A 
ATOM     94  F   UNL A   1      45.294  33.012  31.775  1.00  0.00    -0.206 F 
ATOM     95  C   UNL A   1      45.036  36.254  30.187  1.00  0.00     0.022 A 
BRANCH  92  96
ATOM     96  S   UNL A   1      44.453  37.122  27.600  1.00  0.00     0.124 S 
ATOM     97  O   UNL A   1      43.275  36.665  26.871  1.00  0.00    -0.237 OA
ATOM     98  O   UNL A   1      44.295  38.360  28.356  1.00  0.00    -0.237 OA
ATOM     99  O   UNL A   1      45.717  36.996  26.875  1.00  0.00    -0.744 OA
ENDBRANCH  92  96
ENDBRANCH  66  89
ENDBRANCH  40  41
ENDBRANCH  33  35
ENDBRANCH  32  33
ENDBRANCH  31  32
ENDBRANCH  30  31
ENDBRANCH  29  30
ENDBRANCH   1  29
TORSDOF 21
ENDMDL
MODEL 3
REMARK VINA RESULT:     -10.3      6.256     10.395
REMARK SMILES O=C(COc1ccccc1C[NH+]1CCC2(CC[NH2+]CC2)CC1)OCCOCCOC(=O)c1ccc(-c2c3nc(c(-c4cc(S(=O)(=O)[O-])ccc4F)c4ccc([nH]4)c(-c4cc(S(=O)(=O)[O-])ccc4F)c4nc(c(-c5cc(S(=O)(=O)[O-])ccc5F)c5ccc2[nH]5)C=C4)C=C3)cc1
REMARK SMILES IDX 25 1 24 2 23 3 2 4 1 5 3 6 4 7 5 8 6 9 10 10 7 11 9 12 8 13
REMARK SMILES IDX 11 14 12 15 13 16 22 17 14 19 21 20 15 21 16 22 20 23 17 24
REMARK SMILES IDX 19 25 18 26 26 29 27 30 28 31 29 32 30 33 31 34 32 35 33 36
REMARK SMILES IDX 94 37 34 38 93 39 35 40 36 41 37 42 87 43 38 44 92 45 86 46
REMARK SMILES IDX 88 47 39 48 91 49 85 50 84 51 40 53 72 54 52 55 71 56 53 57
REMARK SMILES IDX 56 58 70 59 89 60 54 61 55 62 69 64 90 65 57 66 41 67 42 68
REMARK SMILES IDX 50 69 43 70 49 71 51 72 48 73 44 74 45 75 46 76 47 77 73 78
REMARK SMILES IDX 74 79 82 80 75 81 81 82 83 83 80 84 76 85 77 86 78 87 79 88
REMARK SMILES IDX 58 89 59 90 67 91 60 92 66 93 68 94 65 95 61 96 62 97 63 98
REMARK SMILES IDX 64 99
REMARK H PARENT 12 18 18 27 18 28 88 52 56 63
REMARK Flexibility Score: inf
ROOT
ATOM      1  C   UNL A   1      33.883  30.420  27.225  1.00  0.00     0.202 C 
ENDROOT
BRANCH   1   2
ATOM      2  C   UNL A   1      33.450  28.968  27.018  1.00  0.00     0.261 C 
BRANCH   2   3
ATOM      3  O   UNL A   1      33.867  28.432  25.749  1.00  0.00    -0.461 OA
BRANCH   3   4
ATOM      4  C   UNL A   1      33.225  28.673  24.577  1.00  0.00     0.344 C 
ATOM      5  O   UNL A   1      33.780  28.436  23.503  1.00  0.00    -0.248 OA
BRANCH   4   6
ATOM      6  C   UNL A   1      31.839  29.286  24.621  1.00  0.00     0.351 C 
BRANCH   6   7
ATOM      7  O   UNL A   1      31.342  29.421  23.297  1.00  0.00    -0.481 OA
BRANCH   7   8
ATOM      8  C   UNL A   1      29.994  29.230  23.200  1.00  0.00     0.129 A 
ATOM      9  C   UNL A   1      29.202  30.374  23.335  1.00  0.00     0.047 A 
ATOM     10  C   UNL A   1      29.430  27.946  23.156  1.00  0.00     0.048 A 
ATOM     11  C   UNL A   1      27.816  30.259  23.373  1.00  0.00     0.004 A 
ATOM     12  C   UNL A   1      28.027  27.860  23.148  1.00  0.00     0.013 A 
ATOM     13  C   UNL A   1      27.229  29.002  23.266  1.00  0.00     0.001 A 
BRANCH  10  14
ATOM     14  C   UNL A   1      30.250  26.671  23.123  1.00  0.00     0.302 C 
BRANCH  14  15
ATOM     15  N   UNL A   1      29.993  25.617  24.107  1.00  0.00    -0.331 N 
ATOM     16  C   UNL A   1      30.575  24.306  23.864  1.00  0.00     0.263 C 
ATOM     17  C   UNL A   1      30.038  25.980  25.512  1.00  0.00     0.263 C 
ATOM     18  H   UNL A   1      29.002  25.505  23.895  1.00  0.00     0.348 HD
ATOM     19  C   UNL A   1      32.005  24.144  24.376  1.00  0.00     0.069 C 
ATOM     20  C   UNL A   1      31.433  25.915  26.128  1.00  0.00     0.069 C 
ATOM     21  C   UNL A   1      32.225  24.615  25.835  1.00  0.00    -0.008 C 
ATOM     22  C   UNL A   1      31.827  23.496  26.830  1.00  0.00     0.069 C 
ATOM     23  C   UNL A   1      33.728  24.938  26.052  1.00  0.00     0.069 C 
ATOM     24  C   UNL A   1      32.804  22.310  26.824  1.00  0.00     0.261 C 
ATOM     25  C   UNL A   1      34.611  23.698  26.013  1.00  0.00     0.261 C 
ATOM     26  N   UNL A   1      34.193  22.728  27.018  1.00  0.00    -0.346 N 
ATOM     27  H   UNL A   1      34.796  21.908  26.958  1.00  0.00     0.346 HD
ATOM     28  H   UNL A   1      34.267  23.169  27.936  1.00  0.00     0.346 HD
ENDBRANCH  14  15
ENDBRANCH  10  14
ENDBRANCH   7   8
ENDBRANCH   6   7
ENDBRANCH   4   6
ENDBRANCH   3   4
ENDBRANCH   2   3
ENDBRANCH   1   2
BRANCH   1  29
ATOM     29  O   UNL A   1      32.871  31.373  27.530  1.00  0.00    -0.374 OA
BRANCH  29  30
ATOM     30  C   UNL A   1      32.992  32.702  27.031  1.00  0.00     0.202 C 
BRANCH  30  31
ATOM     31  C   UNL A   1      32.235  33.877  27.675  1.00  0.00     0.261 C 
BRANCH  31  32
ATOM     32  O   UNL A   1      32.590  34.199  29.029  1.00  0.00    -0.460 OA
BRANCH  32  33
ATOM     33  C   UNL A   1      33.808  34.786  29.155  1.00  0.00     0.338 C 
ATOM     34  O   UNL A   1      34.035  35.981  29.232  1.00  0.00    -0.246 OA
BRANCH  33  35
ATOM     35  C   UNL A   1      34.873  33.783  29.340  1.00  0.00     0.060 A 
ATOM     36  C   UNL A   1      34.600  32.701  30.184  1.00  0.00     0.016 A 
ATOM     37  C   UNL A   1      36.168  34.008  28.867  1.00  0.00     0.016 A 
ATOM     38  C   UNL A   1      35.636  31.878  30.616  1.00  0.00     0.010 A 
ATOM     39  C   UNL A   1      37.211  33.185  29.312  1.00  0.00     0.010 A 
ATOM     40  C   UNL A   1      36.956  32.150  30.229  1.00  0.00    -0.014 A 
BRANCH  40  41
ATOM     41  C   UNL A   1      38.056  31.462  30.951  1.00  0.00     0.031 A 
ATOM     42  C   UNL A   1      38.824  30.375  30.244  1.00  0.00     0.074 A 
ATOM     43  C   UNL A   1      38.426  31.866  32.180  1.00  0.00     0.049 A 
ATOM     44  N   UNL A   1      39.876  29.705  30.641  1.00  0.00    -0.248 NA
ATOM     45  C   UNL A   1      38.341  29.998  28.906  1.00  0.00     0.031 C 
ATOM     46  C   UNL A   1      37.775  32.926  32.949  1.00  0.00     0.029 A 
ATOM     47  N   UNL A   1      39.447  31.440  32.989  1.00  0.00    -0.354 N 
ATOM     48  C   UNL A   1      40.195  28.844  29.596  1.00  0.00     0.074 A 
ATOM     49  C   UNL A   1      39.192  29.040  28.570  1.00  0.00     0.031 C 
ATOM     50  C   UNL A   1      38.414  33.065  34.123  1.00  0.00     0.029 A 
ATOM     51  C   UNL A   1      39.506  32.098  34.195  1.00  0.00     0.049 A 
ATOM     52  H   UNL A   1      40.079  30.730  32.732  1.00  0.00     0.167 HD
ATOM     53  C   UNL A   1      41.235  27.980  29.493  1.00  0.00     0.034 A 
ATOM     54  C   UNL A   1      40.345  31.932  35.238  1.00  0.00     0.034 A 
ATOM     55  C   UNL A   1      42.210  27.769  30.536  1.00  0.00     0.049 A 
ATOM     56  C   UNL A   1      41.462  30.925  35.124  1.00  0.00     0.074 A 
ATOM     57  C   UNL A   1      43.290  26.903  30.549  1.00  0.00     0.029 A 
ATOM     58  N   UNL A   1      42.218  28.428  31.759  1.00  0.00    -0.354 N 
ATOM     59  N   UNL A   1      41.756  30.124  34.125  1.00  0.00    -0.248 NA
ATOM     60  C   UNL A   1      42.374  30.817  36.271  1.00  0.00     0.031 C 
ATOM     61  C   UNL A   1      43.916  26.998  31.799  1.00  0.00     0.029 A 
ATOM     62  C   UNL A   1      43.268  27.973  32.542  1.00  0.00     0.049 A 
ATOM     63  H   UNL A   1      41.571  29.118  32.030  1.00  0.00     0.167 HD
ATOM     64  C   UNL A   1      42.897  29.428  34.520  1.00  0.00     0.074 A 
ATOM     65  C   UNL A   1      43.252  29.927  35.832  1.00  0.00     0.031 C 
ATOM     66  C   UNL A   1      43.590  28.464  33.861  1.00  0.00     0.034 A 
BRANCH  53  67
ATOM     67  C   UNL A   1      41.335  27.172  28.221  1.00  0.00     0.023 A 
ATOM     68  C   UNL A   1      41.026  25.799  28.195  1.00  0.00     0.031 A 
ATOM     69  C   UNL A   1      41.778  27.770  27.029  1.00  0.00     0.131 A 
ATOM     70  C   UNL A   1      41.224  25.059  27.020  1.00  0.00     0.055 A 
ATOM     71  C   UNL A   1      41.908  27.042  25.844  1.00  0.00     0.041 A 
ATOM     72  F   UNL A   1      42.108  29.071  27.000  1.00  0.00    -0.206 F 
ATOM     73  C   UNL A   1      41.643  25.676  25.838  1.00  0.00     0.022 A 
BRANCH  70  74
ATOM     74  S   UNL A   1      41.044  23.255  27.085  1.00  0.00     0.124 S 
ATOM     75  O   UNL A   1      41.703  22.938  28.349  1.00  0.00    -0.237 OA
ATOM     76  O   UNL A   1      39.597  23.080  27.057  1.00  0.00    -0.237 OA
ATOM     77  O   UNL A   1      41.751  22.796  25.890  1.00  0.00    -0.744 OA
ENDBRANCH  70  74
ENDBRANCH  53  67
BRANCH  54  78
ATOM     78  C   UNL A   1      40.144  32.708  36.494  1.00  0.00     0.023 A 
ATOM     79  C   UNL A   1      39.187  32.330  37.448  1.00  0.00     0.031 A 
ATOM     80  C   UNL A   1      40.884  33.882  36.730  1.00  0.00     0.131 A 
ATOM     81  C   UNL A   1      38.962  33.141  38.572  1.00  0.00     0.055 A 
ATOM     82  C   UNL A   1      40.691  34.659  37.872  1.00  0.00     0.041 A 
ATOM     83  F   UNL A   1      41.814  34.287  35.850  1.00  0.00    -0.206 F 
ATOM     84  C   UNL A   1      39.715  34.297  38.795  1.00  0.00     0.022 A 
BRANCH  81  85
ATOM     85  S   UNL A   1      37.610  32.710  39.701  1.00  0.00     0.124 S 
ATOM     86  O   UNL A   1      36.500  32.511  38.776  1.00  0.00    -0.237 OA
ATOM     87  O   UNL A   1      38.128  31.510  40.351  1.00  0.00    -0.237 OA
ATOM     88  O   UNL A   1      37.500  33.885  40.565  1.00  0.00    -0.744 OA
ENDBRANCH  81  85
ENDBRANCH  54  78
BRANCH  66  89
ATOM     89  C   UNL A   1      44.808  27.909  34.558  1.00  0.00     0.023 A 
ATOM     90  C   UNL A   1      44.716  26.819  35.442  1.00  0.00     0.031 A 
ATOM     91  C   UNL A   1      46.068  28.503  34.369  1.00  0.00     0.131 A 
ATOM     92  C   UNL A   1      45.848  26.399  36.155  1.00  0.00     0.055 A 
ATOM     93  C   UNL A   1      47.204  28.043  35.037  1.00  0.00     0.041 A 
ATOM     94  F   UNL A   1      46.214  29.546  33.536  1.00  0.00    -0.206 F 
ATOM     95  C   UNL A   1      47.095  26.997  35.949  1.00  0.00     0.022 A 
BRANCH  92  96
ATOM     96  S   UNL A   1      45.648  25.134  37.439  1.00  0.00     0.124 S 
ATOM     97  O   UNL A   1      46.593  25.580  38.457  1.00  0.00    -0.237 OA
ATOM     98  O   UNL A   1      44.235  25.259  37.781  1.00  0.00    -0.237 OA
ATOM     99  O   UNL A   1      46.012  23.892  36.758  1.00  0.00    -0.744 OA
ENDBRANCH  92  96
ENDBRANCH  66  89
ENDBRANCH  40  41
ENDBRANCH  33  35
ENDBRANCH  32  33
ENDBRANCH  31  32
ENDBRANCH  30  31
ENDBRANCH  29  30
ENDBRANCH   1  29
TORSDOF 21
ENDMDL
