MODEL 1
REMARK VINA RESULT:     -12.7      0.000      0.000
REMARK SMILES Cc1ccccc1[C@@H]1[NH2+][C@@H](C(=O)OCCOCCOC(=O)c2ccc(-c3c4nc(c(-c5cc(S(=O)(=O)[O-])ccc5F)c5ccc([nH]5)c(-c5cc(S(=O)(=O)[O-])ccc5F)c5nc(c(-c6cc(S(=O)(=O)[O-])ccc6F)c6ccc3[nH]6)C=C5)C=C4)cc2)CC2=c3ccccc3=N[C@H]21
REMARK SMILES IDX 17 1 16 2 15 3 14 4 13 5 11 6 12 7 10 8 8 9 9 10 94 11 86 14
REMARK SMILES IDX 93 15 85 16 87 17 92 18 88 19 91 20 89 21 90 22 7 23 1 24
REMARK SMILES IDX 2 25 3 26 4 27 6 28 5 29 18 30 19 31 20 32 21 33 22 34 23 35
REMARK SMILES IDX 84 36 24 37 83 38 25 39 26 40 27 41 77 42 28 43 82 44 76 45
REMARK SMILES IDX 78 46 29 47 81 48 75 49 74 50 30 52 62 53 42 54 61 55 43 56
REMARK SMILES IDX 46 57 60 58 79 59 44 60 45 61 59 63 80 64 47 65 31 66 32 67
REMARK SMILES IDX 40 68 33 69 39 70 41 71 38 72 34 73 35 74 36 75 37 76 63 77
REMARK SMILES IDX 64 78 72 79 65 80 71 81 73 82 70 83 66 84 67 85 68 86 69 87
REMARK SMILES IDX 48 88 49 89 57 90 50 91 56 92 58 93 55 94 51 95 52 96 53 97
REMARK SMILES IDX 54 98
REMARK H PARENT 9 12 9 13 78 51 46 62
REMARK Flexibility Score: inf
ROOT
ATOM      1  C   UNL A   1      32.930  35.599  29.149  1.00  0.00     0.202 C 
ENDROOT
BRANCH   1   2
ATOM      2  O   UNL A   1      32.917  34.187  29.111  1.00  0.00    -0.374 OA
BRANCH   2   3
ATOM      3  C   UNL A   1      33.327  33.637  27.869  1.00  0.00     0.202 C 
BRANCH   3   4
ATOM      4  C   UNL A   1      34.078  32.383  28.172  1.00  0.00     0.261 C 
BRANCH   4   5
ATOM      5  O   UNL A   1      33.786  31.260  27.288  1.00  0.00    -0.459 OA
BRANCH   5   6
ATOM      6  C   UNL A   1      34.438  30.097  27.093  1.00  0.00     0.365 C 
ATOM      7  O   UNL A   1      35.654  30.039  27.281  1.00  0.00    -0.245 OA
BRANCH   6   8
ATOM      8  C   UNL A   1      33.626  28.887  26.614  1.00  0.00     0.298 C 
ATOM      9  C   UNL A   1      33.150  27.657  24.464  1.00  0.00     0.243 C 
ATOM     10  N   UNL A   1      34.067  28.525  25.234  1.00  0.00    -0.326 N 
ATOM     11  C   UNL A   1      31.612  27.769  24.732  1.00  0.00     0.196 C 
ATOM     12  H   UNL A   1      34.191  29.391  24.709  1.00  0.00     0.347 HD
ATOM     13  H   UNL A   1      34.923  27.982  25.354  1.00  0.00     0.347 HD
ATOM     14  C   UNL A   1      31.378  29.010  25.514  1.00  0.00    -0.024 C 
ATOM     15  N   UNL A   1      30.847  27.984  23.459  1.00  0.00    -0.270 NA
ATOM     16  C   UNL A   1      32.121  29.169  26.777  1.00  0.00     0.111 C 
ATOM     17  C   UNL A   1      30.658  29.899  24.852  1.00  0.00     0.002 A 
ATOM     18  C   UNL A   1      30.372  29.186  23.603  1.00  0.00     0.066 A 
ATOM     19  C   UNL A   1      30.295  31.257  25.071  1.00  0.00     0.010 A 
ATOM     20  C   UNL A   1      29.596  29.942  22.599  1.00  0.00     0.028 A 
ATOM     21  C   UNL A   1      29.649  31.904  24.090  1.00  0.00     0.001 A 
ATOM     22  C   UNL A   1      29.285  31.227  22.853  1.00  0.00     0.002 A 
BRANCH   9  23
ATOM     23  C   UNL A   1      33.678  26.225  24.365  1.00  0.00     0.015 A 
ATOM     24  C   UNL A   1      33.094  25.786  21.884  1.00  0.00     0.045 C 
ATOM     25  C   UNL A   1      33.747  25.442  23.194  1.00  0.00    -0.042 A 
ATOM     26  C   UNL A   1      34.505  24.255  23.219  1.00  0.00     0.004 A 
ATOM     27  C   UNL A   1      35.098  23.793  24.392  1.00  0.00     0.000 A 
ATOM     28  C   UNL A   1      34.191  25.679  25.564  1.00  0.00     0.010 A 
ATOM     29  C   UNL A   1      34.899  24.482  25.578  1.00  0.00     0.001 A 
ENDBRANCH   9  23
ENDBRANCH   6   8
ENDBRANCH   5   6
ENDBRANCH   4   5
ENDBRANCH   3   4
ENDBRANCH   2   3
ENDBRANCH   1   2
BRANCH   1  30
ATOM     30  C   UNL A   1      33.112  36.146  30.571  1.00  0.00     0.261 C 
BRANCH  30  31
ATOM     31  O   UNL A   1      33.334  35.057  31.494  1.00  0.00    -0.460 OA
BRANCH  31  32
ATOM     32  C   UNL A   1      34.499  35.101  32.193  1.00  0.00     0.338 C 
ATOM     33  O   UNL A   1      34.895  36.075  32.832  1.00  0.00    -0.246 OA
BRANCH  32  34
ATOM     34  C   UNL A   1      35.289  33.861  31.972  1.00  0.00     0.060 A 
ATOM     35  C   UNL A   1      35.240  32.800  32.898  1.00  0.00     0.016 A 
ATOM     36  C   UNL A   1      36.270  33.876  30.983  1.00  0.00     0.016 A 
ATOM     37  C   UNL A   1      36.257  31.836  32.914  1.00  0.00     0.010 A 
ATOM     38  C   UNL A   1      37.331  33.009  31.088  1.00  0.00     0.010 A 
ATOM     39  C   UNL A   1      37.339  31.994  32.053  1.00  0.00    -0.014 A 
BRANCH  39  40
ATOM     40  C   UNL A   1      38.574  31.214  32.070  1.00  0.00     0.031 A 
ATOM     41  C   UNL A   1      38.623  29.980  31.269  1.00  0.00     0.074 A 
ATOM     42  C   UNL A   1      39.717  31.781  32.519  1.00  0.00     0.049 A 
ATOM     43  N   UNL A   1      39.600  29.152  31.314  1.00  0.00    -0.248 NA
ATOM     44  C   UNL A   1      37.552  29.529  30.377  1.00  0.00     0.031 C 
ATOM     45  C   UNL A   1      41.106  31.519  32.143  1.00  0.00     0.029 A 
ATOM     46  N   UNL A   1      39.845  32.823  33.433  1.00  0.00    -0.354 N 
ATOM     47  C   UNL A   1      39.497  28.348  30.208  1.00  0.00     0.074 A 
ATOM     48  C   UNL A   1      38.128  28.475  29.791  1.00  0.00     0.031 C 
ATOM     49  C   UNL A   1      41.932  32.143  33.009  1.00  0.00     0.029 A 
ATOM     50  C   UNL A   1      41.101  32.733  34.047  1.00  0.00     0.049 A 
ATOM     51  H   UNL A   1      39.166  33.510  33.618  1.00  0.00     0.167 HD
ATOM     52  C   UNL A   1      40.643  27.818  29.700  1.00  0.00     0.034 A 
ATOM     53  C   UNL A   1      41.158  32.536  35.392  1.00  0.00     0.034 A 
ATOM     54  C   UNL A   1      41.779  28.095  30.599  1.00  0.00     0.049 A 
ATOM     55  C   UNL A   1      41.674  31.131  35.609  1.00  0.00     0.074 A 
ATOM     56  C   UNL A   1      42.927  28.863  30.497  1.00  0.00     0.029 A 
ATOM     57  N   UNL A   1      41.660  27.767  31.952  1.00  0.00    -0.354 N 
ATOM     58  N   UNL A   1      41.630  30.211  34.677  1.00  0.00    -0.248 NA
ATOM     59  C   UNL A   1      42.411  30.689  36.785  1.00  0.00     0.031 C 
ATOM     60  C   UNL A   1      43.431  29.070  31.821  1.00  0.00     0.029 A 
ATOM     61  C   UNL A   1      42.616  28.397  32.722  1.00  0.00     0.049 A 
ATOM     62  H   UNL A   1      40.974  27.159  32.312  1.00  0.00     0.167 HD
ATOM     63  C   UNL A   1      42.420  29.157  35.021  1.00  0.00     0.074 A 
ATOM     64  C   UNL A   1      42.847  29.481  36.376  1.00  0.00     0.031 C 
ATOM     65  C   UNL A   1      42.691  28.128  34.158  1.00  0.00     0.034 A 
BRANCH  52  66
ATOM     66  C   UNL A   1      40.799  27.201  28.325  1.00  0.00     0.023 A 
ATOM     67  C   UNL A   1      40.813  25.794  28.222  1.00  0.00     0.031 A 
ATOM     68  C   UNL A   1      41.006  27.889  27.107  1.00  0.00     0.131 A 
ATOM     69  C   UNL A   1      41.004  25.146  26.984  1.00  0.00     0.055 A 
ATOM     70  C   UNL A   1      41.139  27.245  25.869  1.00  0.00     0.041 A 
ATOM     71  F   UNL A   1      41.149  29.216  27.037  1.00  0.00    -0.206 F 
ATOM     72  C   UNL A   1      41.141  25.865  25.801  1.00  0.00     0.022 A 
BRANCH  69  73
ATOM     73  S   UNL A   1      41.107  23.338  26.943  1.00  0.00     0.124 S 
ATOM     74  O   UNL A   1      41.546  23.024  28.298  1.00  0.00    -0.237 OA
ATOM     75  O   UNL A   1      39.743  22.955  26.596  1.00  0.00    -0.237 OA
ATOM     76  O   UNL A   1      42.100  23.079  25.900  1.00  0.00    -0.744 OA
ENDBRANCH  69  73
ENDBRANCH  52  66
BRANCH  53  77
ATOM     77  C   UNL A   1      40.068  33.311  36.089  1.00  0.00     0.023 A 
ATOM     78  C   UNL A   1      39.012  32.552  36.678  1.00  0.00     0.031 A 
ATOM     79  C   UNL A   1      40.288  34.595  36.608  1.00  0.00     0.131 A 
ATOM     80  C   UNL A   1      38.338  33.012  37.828  1.00  0.00     0.055 A 
ATOM     81  C   UNL A   1      39.594  35.059  37.740  1.00  0.00     0.041 A 
ATOM     82  F   UNL A   1      41.275  35.365  36.125  1.00  0.00    -0.206 F 
ATOM     83  C   UNL A   1      38.653  34.252  38.383  1.00  0.00     0.022 A 
BRANCH  80  84
ATOM     84  S   UNL A   1      37.258  31.885  38.786  1.00  0.00     0.124 S 
ATOM     85  O   UNL A   1      37.963  31.772  40.055  1.00  0.00    -0.237 OA
ATOM     86  O   UNL A   1      35.982  32.595  38.823  1.00  0.00    -0.237 OA
ATOM     87  O   UNL A   1      37.234  30.678  37.959  1.00  0.00    -0.744 OA
ENDBRANCH  80  84
ENDBRANCH  53  77
BRANCH  65  88
ATOM     88  C   UNL A   1      43.097  26.746  34.607  1.00  0.00     0.023 A 
ATOM     89  C   UNL A   1      44.432  26.343  34.658  1.00  0.00     0.031 A 
ATOM     90  C   UNL A   1      42.160  25.827  35.140  1.00  0.00     0.131 A 
ATOM     91  C   UNL A   1      44.793  25.070  35.111  1.00  0.00     0.055 A 
ATOM     92  C   UNL A   1      42.533  24.605  35.704  1.00  0.00     0.041 A 
ATOM     93  F   UNL A   1      40.843  26.075  35.164  1.00  0.00    -0.206 F 
ATOM     94  C   UNL A   1      43.858  24.208  35.672  1.00  0.00     0.022 A 
BRANCH  91  95
ATOM     95  S   UNL A   1      46.505  24.560  34.852  1.00  0.00     0.124 S 
ATOM     96  O   UNL A   1      46.391  23.104  34.905  1.00  0.00    -0.237 OA
ATOM     97  O   UNL A   1      46.807  25.119  33.538  1.00  0.00    -0.237 OA
ATOM     98  O   UNL A   1      47.219  25.169  35.971  1.00  0.00    -0.744 OA
ENDBRANCH  91  95
ENDBRANCH  65  88
ENDBRANCH  39  40
ENDBRANCH  32  34
ENDBRANCH  31  32
ENDBRANCH  30  31
ENDBRANCH   1  30
TORSDOF 18
ENDMDL
MODEL 2
REMARK VINA RESULT:     -12.6      0.981      2.967
REMARK SMILES Cc1ccccc1[C@@H]1[NH2+][C@@H](C(=O)OCCOCCOC(=O)c2ccc(-c3c4nc(c(-c5cc(S(=O)(=O)[O-])ccc5F)c5ccc([nH]5)c(-c5cc(S(=O)(=O)[O-])ccc5F)c5nc(c(-c6cc(S(=O)(=O)[O-])ccc6F)c6ccc3[nH]6)C=C5)C=C4)cc2)CC2=c3ccccc3=N[C@H]21
REMARK SMILES IDX 17 1 16 2 15 3 14 4 13 5 11 6 12 7 10 8 8 9 9 10 94 11 86 14
REMARK SMILES IDX 93 15 85 16 87 17 92 18 88 19 91 20 89 21 90 22 7 23 1 24
REMARK SMILES IDX 2 25 3 26 4 27 6 28 5 29 18 30 19 31 20 32 21 33 22 34 23 35
REMARK SMILES IDX 84 36 24 37 83 38 25 39 26 40 27 41 77 42 28 43 82 44 76 45
REMARK SMILES IDX 78 46 29 47 81 48 75 49 74 50 30 52 62 53 42 54 61 55 43 56
REMARK SMILES IDX 46 57 60 58 79 59 44 60 45 61 59 63 80 64 47 65 31 66 32 67
REMARK SMILES IDX 40 68 33 69 39 70 41 71 38 72 34 73 35 74 36 75 37 76 63 77
REMARK SMILES IDX 64 78 72 79 65 80 71 81 73 82 70 83 66 84 67 85 68 86 69 87
REMARK SMILES IDX 48 88 49 89 57 90 50 91 56 92 58 93 55 94 51 95 52 96 53 97
REMARK SMILES IDX 54 98
REMARK H PARENT 9 12 9 13 78 51 46 62
REMARK Flexibility Score: inf
ROOT
ATOM      1  C   UNL A   1      33.541  34.892  28.375  1.00  0.00     0.202 C 
ENDROOT
BRANCH   1   2
ATOM      2  O   UNL A   1      33.339  33.496  28.428  1.00  0.00    -0.374 OA
BRANCH   2   3
ATOM      3  C   UNL A   1      34.396  32.735  27.863  1.00  0.00     0.202 C 
BRANCH   3   4
ATOM      4  C   UNL A   1      34.058  31.296  28.068  1.00  0.00     0.261 C 
BRANCH   4   5
ATOM      5  O   UNL A   1      33.760  30.553  26.849  1.00  0.00    -0.459 OA
BRANCH   5   6
ATOM      6  C   UNL A   1      33.147  29.367  26.664  1.00  0.00     0.365 C 
ATOM      7  O   UNL A   1      32.982  28.609  27.621  1.00  0.00    -0.245 OA
BRANCH   6   8
ATOM      8  C   UNL A   1      32.697  29.001  25.245  1.00  0.00     0.298 C 
ATOM      9  C   UNL A   1      30.957  27.561  24.122  1.00  0.00     0.243 C 
ATOM     10  N   UNL A   1      31.365  28.330  25.318  1.00  0.00    -0.326 N 
ATOM     11  C   UNL A   1      32.067  26.884  23.251  1.00  0.00     0.196 C 
ATOM     12  H   UNL A   1      31.382  27.687  26.110  1.00  0.00     0.347 HD
ATOM     13  H   UNL A   1      30.683  29.084  25.405  1.00  0.00     0.347 HD
ATOM     14  C   UNL A   1      33.328  26.898  24.036  1.00  0.00    -0.024 C 
ATOM     15  N   UNL A   1      31.782  25.427  23.035  1.00  0.00    -0.270 NA
ATOM     16  C   UNL A   1      33.805  28.200  24.536  1.00  0.00     0.111 C 
ATOM     17  C   UNL A   1      33.751  25.683  24.339  1.00  0.00     0.002 A 
ATOM     18  C   UNL A   1      32.745  24.841  23.683  1.00  0.00     0.066 A 
ATOM     19  C   UNL A   1      34.777  25.158  25.174  1.00  0.00     0.010 A 
ATOM     20  C   UNL A   1      32.912  23.385  23.868  1.00  0.00     0.028 A 
ATOM     21  C   UNL A   1      34.829  23.830  25.351  1.00  0.00     0.001 A 
ATOM     22  C   UNL A   1      33.894  22.942  24.674  1.00  0.00     0.002 A 
BRANCH   9  23
ATOM     23  C   UNL A   1      29.877  28.293  23.323  1.00  0.00     0.015 A 
ATOM     24  C   UNL A   1      27.887  26.738  23.876  1.00  0.00     0.045 C 
ATOM     25  C   UNL A   1      28.501  27.985  23.304  1.00  0.00    -0.042 A 
ATOM     26  C   UNL A   1      27.608  28.915  22.739  1.00  0.00     0.004 A 
ATOM     27  C   UNL A   1      28.062  30.075  22.113  1.00  0.00     0.000 A 
ATOM     28  C   UNL A   1      30.319  29.416  22.585  1.00  0.00     0.010 A 
ATOM     29  C   UNL A   1      29.424  30.301  21.994  1.00  0.00     0.001 A 
ENDBRANCH   9  23
ENDBRANCH   6   8
ENDBRANCH   5   6
ENDBRANCH   4   5
ENDBRANCH   3   4
ENDBRANCH   2   3
ENDBRANCH   1   2
BRANCH   1  30
ATOM     30  C   UNL A   1      33.364  35.563  29.743  1.00  0.00     0.261 C 
BRANCH  30  31
ATOM     31  O   UNL A   1      33.396  34.567  30.789  1.00  0.00    -0.460 OA
BRANCH  31  32
ATOM     32  C   UNL A   1      34.478  34.607  31.611  1.00  0.00     0.338 C 
ATOM     33  O   UNL A   1      34.773  35.558  32.334  1.00  0.00    -0.246 OA
BRANCH  32  34
ATOM     34  C   UNL A   1      35.323  33.399  31.421  1.00  0.00     0.060 A 
ATOM     35  C   UNL A   1      35.240  32.312  32.313  1.00  0.00     0.016 A 
ATOM     36  C   UNL A   1      36.377  33.473  30.512  1.00  0.00     0.016 A 
ATOM     37  C   UNL A   1      36.285  31.381  32.383  1.00  0.00     0.010 A 
ATOM     38  C   UNL A   1      37.455  32.638  30.678  1.00  0.00     0.010 A 
ATOM     39  C   UNL A   1      37.424  31.596  31.614  1.00  0.00    -0.014 A 
BRANCH  39  40
ATOM     40  C   UNL A   1      38.680  30.856  31.707  1.00  0.00     0.031 A 
ATOM     41  C   UNL A   1      38.809  29.614  30.928  1.00  0.00     0.074 A 
ATOM     42  C   UNL A   1      39.779  31.464  32.208  1.00  0.00     0.049 A 
ATOM     43  N   UNL A   1      39.807  28.818  31.036  1.00  0.00    -0.248 NA
ATOM     44  C   UNL A   1      37.801  29.118  29.987  1.00  0.00     0.031 C 
ATOM     45  C   UNL A   1      41.193  31.242  31.909  1.00  0.00     0.029 A 
ATOM     46  N   UNL A   1      39.826  32.521  33.112  1.00  0.00    -0.354 N 
ATOM     47  C   UNL A   1      39.788  27.997  29.938  1.00  0.00     0.074 A 
ATOM     48  C   UNL A   1      38.439  28.076  29.447  1.00  0.00     0.031 C 
ATOM     49  C   UNL A   1      41.953  31.901  32.809  1.00  0.00     0.029 A 
ATOM     50  C   UNL A   1      41.050  32.479  33.793  1.00  0.00     0.049 A 
ATOM     51  H   UNL A   1      39.117  33.189  33.252  1.00  0.00     0.167 HD
ATOM     52  C   UNL A   1      40.975  27.497  29.499  1.00  0.00     0.034 A 
ATOM     53  C   UNL A   1      41.042  32.301  35.142  1.00  0.00     0.034 A 
ATOM     54  C   UNL A   1      42.053  27.821  30.452  1.00  0.00     0.049 A 
ATOM     55  C   UNL A   1      41.588  30.915  35.406  1.00  0.00     0.074 A 
ATOM     56  C   UNL A   1      43.180  28.623  30.400  1.00  0.00     0.029 A 
ATOM     57  N   UNL A   1      41.871  27.507  31.802  1.00  0.00    -0.354 N 
ATOM     58  N   UNL A   1      41.622  29.983  34.486  1.00  0.00    -0.248 NA
ATOM     59  C   UNL A   1      42.275  30.511  36.625  1.00  0.00     0.031 C 
ATOM     60  C   UNL A   1      43.606  28.863  31.746  1.00  0.00     0.029 A 
ATOM     61  C   UNL A   1      42.765  28.176  32.612  1.00  0.00     0.049 A 
ATOM     62  H   UNL A   1      41.187  26.882  32.134  1.00  0.00     0.167 HD
ATOM     63  C   UNL A   1      42.424  28.958  34.886  1.00  0.00     0.074 A 
ATOM     64  C   UNL A   1      42.768  29.312  36.257  1.00  0.00     0.031 C 
ATOM     65  C   UNL A   1      42.772  27.928  34.054  1.00  0.00     0.034 A 
BRANCH  52  66
ATOM     66  C   UNL A   1      41.223  26.868  28.142  1.00  0.00     0.023 A 
ATOM     67  C   UNL A   1      41.575  25.502  28.094  1.00  0.00     0.031 A 
ATOM     68  C   UNL A   1      41.209  27.523  26.890  1.00  0.00     0.131 A 
ATOM     69  C   UNL A   1      41.869  24.858  26.875  1.00  0.00     0.055 A 
ATOM     70  C   UNL A   1      41.446  26.869  25.673  1.00  0.00     0.041 A 
ATOM     71  F   UNL A   1      41.021  28.841  26.761  1.00  0.00    -0.206 F 
ATOM     72  C   UNL A   1      41.781  25.529  25.660  1.00  0.00     0.022 A 
BRANCH  69  73
ATOM     73  S   UNL A   1      42.407  23.129  26.899  1.00  0.00     0.124 S 
ATOM     74  O   UNL A   1      41.463  22.526  27.834  1.00  0.00    -0.237 OA
ATOM     75  O   UNL A   1      42.273  22.741  25.500  1.00  0.00    -0.237 OA
ATOM     76  O   UNL A   1      43.785  23.210  27.384  1.00  0.00    -0.744 OA
ENDBRANCH  69  73
ENDBRANCH  52  66
BRANCH  53  77
ATOM     77  C   UNL A   1      39.892  33.049  35.769  1.00  0.00     0.023 A 
ATOM     78  C   UNL A   1      38.938  32.276  36.496  1.00  0.00     0.031 A 
ATOM     79  C   UNL A   1      39.987  34.410  36.100  1.00  0.00     0.131 A 
ATOM     80  C   UNL A   1      38.247  32.821  37.598  1.00  0.00     0.055 A 
ATOM     81  C   UNL A   1      39.276  34.953  37.185  1.00  0.00     0.041 A 
ATOM     82  F   UNL A   1      40.874  35.201  35.479  1.00  0.00    -0.206 F 
ATOM     83  C   UNL A   1      38.442  34.151  37.968  1.00  0.00     0.022 A 
BRANCH  80  84
ATOM     84  S   UNL A   1      37.317  31.734  38.742  1.00  0.00     0.124 S 
ATOM     85  O   UNL A   1      36.035  32.414  38.856  1.00  0.00    -0.237 OA
ATOM     86  O   UNL A   1      37.302  30.450  38.046  1.00  0.00    -0.237 OA
ATOM     87  O   UNL A   1      38.151  31.739  39.945  1.00  0.00    -0.744 OA
ENDBRANCH  80  84
ENDBRANCH  53  77
BRANCH  65  88
ATOM     88  C   UNL A   1      43.196  26.565  34.544  1.00  0.00     0.023 A 
ATOM     89  C   UNL A   1      44.535  26.175  34.588  1.00  0.00     0.031 A 
ATOM     90  C   UNL A   1      42.274  25.657  35.120  1.00  0.00     0.131 A 
ATOM     91  C   UNL A   1      44.912  24.920  35.079  1.00  0.00     0.055 A 
ATOM     92  C   UNL A   1      42.665  24.458  35.720  1.00  0.00     0.041 A 
ATOM     93  F   UNL A   1      40.956  25.896  35.155  1.00  0.00    -0.206 F 
ATOM     94  C   UNL A   1      43.993  24.070  35.682  1.00  0.00     0.022 A 
BRANCH  91  95
ATOM     95  S   UNL A   1      46.625  24.415  34.813  1.00  0.00     0.124 S 
ATOM     96  O   UNL A   1      46.521  22.960  34.904  1.00  0.00    -0.237 OA
ATOM     97  O   UNL A   1      46.908  24.942  33.482  1.00  0.00    -0.237 OA
ATOM     98  O   UNL A   1      47.347  25.057  35.907  1.00  0.00    -0.744 OA
ENDBRANCH  91  95
ENDBRANCH  65  88
ENDBRANCH  39  40
ENDBRANCH  32  34
ENDBRANCH  31  32
ENDBRANCH  30  31
ENDBRANCH   1  30
TORSDOF 18
ENDMDL
MODEL 3
REMARK VINA RESULT:     -12.3      5.260     11.615
REMARK SMILES Cc1ccccc1[C@@H]1[NH2+][C@@H](C(=O)OCCOCCOC(=O)c2ccc(-c3c4nc(c(-c5cc(S(=O)(=O)[O-])ccc5F)c5ccc([nH]5)c(-c5cc(S(=O)(=O)[O-])ccc5F)c5nc(c(-c6cc(S(=O)(=O)[O-])ccc6F)c6ccc3[nH]6)C=C5)C=C4)cc2)CC2=c3ccccc3=N[C@H]21
REMARK SMILES IDX 17 1 16 2 15 3 14 4 13 5 11 6 12 7 10 8 8 9 9 10 94 11 86 14
REMARK SMILES IDX 93 15 85 16 87 17 92 18 88 19 91 20 89 21 90 22 7 23 1 24
REMARK SMILES IDX 2 25 3 26 4 27 6 28 5 29 18 30 19 31 20 32 21 33 22 34 23 35
REMARK SMILES IDX 84 36 24 37 83 38 25 39 26 40 27 41 77 42 28 43 82 44 76 45
REMARK SMILES IDX 78 46 29 47 81 48 75 49 74 50 30 52 62 53 42 54 61 55 43 56
REMARK SMILES IDX 46 57 60 58 79 59 44 60 45 61 59 63 80 64 47 65 31 66 32 67
REMARK SMILES IDX 40 68 33 69 39 70 41 71 38 72 34 73 35 74 36 75 37 76 63 77
REMARK SMILES IDX 64 78 72 79 65 80 71 81 73 82 70 83 66 84 67 85 68 86 69 87
REMARK SMILES IDX 48 88 49 89 57 90 50 91 56 92 58 93 55 94 51 95 52 96 53 97
REMARK SMILES IDX 54 98
REMARK H PARENT 9 12 9 13 78 51 46 62
REMARK Flexibility Score: inf
ROOT
ATOM      1  C   UNL A   1      41.752  19.601  25.813  1.00  0.00     0.202 C 
ENDROOT
BRANCH   1   2
ATOM      2  O   UNL A   1      41.294  20.175  27.019  1.00  0.00    -0.374 OA
BRANCH   2   3
ATOM      3  C   UNL A   1      40.559  21.377  26.847  1.00  0.00     0.202 C 
BRANCH   3   4
ATOM      4  C   UNL A   1      39.551  21.123  25.776  1.00  0.00     0.261 C 
BRANCH   4   5
ATOM      5  O   UNL A   1      38.225  21.672  26.034  1.00  0.00    -0.459 OA
BRANCH   5   6
ATOM      6  C   UNL A   1      37.790  22.947  26.083  1.00  0.00     0.365 C 
ATOM      7  O   UNL A   1      38.444  23.792  26.696  1.00  0.00    -0.245 OA
BRANCH   6   8
ATOM      8  C   UNL A   1      36.469  23.286  25.383  1.00  0.00     0.298 C 
ATOM      9  C   UNL A   1      34.003  23.328  25.909  1.00  0.00     0.243 C 
ATOM     10  N   UNL A   1      35.392  23.400  26.411  1.00  0.00    -0.326 N 
ATOM     11  C   UNL A   1      33.709  22.463  24.639  1.00  0.00     0.196 C 
ATOM     12  H   UNL A   1      35.520  22.643  27.082  1.00  0.00     0.347 HD
ATOM     13  H   UNL A   1      35.492  24.335  26.809  1.00  0.00     0.347 HD
ATOM     14  C   UNL A   1      34.896  21.606  24.391  1.00  0.00    -0.024 C 
ATOM     15  N   UNL A   1      32.594  21.488  24.885  1.00  0.00    -0.270 NA
ATOM     16  C   UNL A   1      36.202  22.275  24.252  1.00  0.00     0.111 C 
ATOM     17  C   UNL A   1      34.629  20.318  24.520  1.00  0.00     0.002 A 
ATOM     18  C   UNL A   1      33.194  20.336  24.821  1.00  0.00     0.066 A 
ATOM     19  C   UNL A   1      35.412  19.130  24.544  1.00  0.00     0.010 A 
ATOM     20  C   UNL A   1      32.576  19.017  25.068  1.00  0.00     0.028 A 
ATOM     21  C   UNL A   1      34.798  17.975  24.842  1.00  0.00     0.001 A 
ATOM     22  C   UNL A   1      33.364  17.926  25.087  1.00  0.00     0.002 A 
BRANCH   9  23
ATOM     23  C   UNL A   1      33.329  24.702  25.916  1.00  0.00     0.015 A 
ATOM     24  C   UNL A   1      30.960  23.949  26.630  1.00  0.00     0.045 C 
ATOM     25  C   UNL A   1      32.013  24.982  26.337  1.00  0.00    -0.042 A 
ATOM     26  C   UNL A   1      31.639  26.325  26.538  1.00  0.00     0.004 A 
ATOM     27  C   UNL A   1      32.503  27.375  26.233  1.00  0.00     0.000 A 
ATOM     28  C   UNL A   1      34.143  25.783  25.508  1.00  0.00     0.010 A 
ATOM     29  C   UNL A   1      33.740  27.104  25.671  1.00  0.00     0.001 A 
ENDBRANCH   9  23
ENDBRANCH   6   8
ENDBRANCH   5   6
ENDBRANCH   4   5
ENDBRANCH   3   4
ENDBRANCH   2   3
ENDBRANCH   1   2
BRANCH   1  30
ATOM     30  C   UNL A   1      43.278  19.449  25.777  1.00  0.00     0.261 C 
BRANCH  30  31
ATOM     31  O   UNL A   1      43.843  20.374  24.822  1.00  0.00    -0.460 OA
BRANCH  31  32
ATOM     32  C   UNL A   1      44.746  21.260  25.319  1.00  0.00     0.338 C 
ATOM     33  O   UNL A   1      45.924  20.997  25.561  1.00  0.00    -0.246 OA
BRANCH  32  34
ATOM     34  C   UNL A   1      44.086  22.549  25.651  1.00  0.00     0.060 A 
ATOM     35  C   UNL A   1      44.061  23.608  24.722  1.00  0.00     0.016 A 
ATOM     36  C   UNL A   1      43.731  22.781  26.979  1.00  0.00     0.016 A 
ATOM     37  C   UNL A   1      43.817  24.917  25.158  1.00  0.00     0.010 A 
ATOM     38  C   UNL A   1      43.625  24.078  27.420  1.00  0.00     0.010 A 
ATOM     39  C   UNL A   1      43.675  25.152  26.522  1.00  0.00    -0.014 A 
BRANCH  39  40
ATOM     40  C   UNL A   1      43.620  26.459  27.171  1.00  0.00     0.031 A 
ATOM     41  C   UNL A   1      42.314  27.131  27.261  1.00  0.00     0.074 A 
ATOM     42  C   UNL A   1      44.650  26.864  27.949  1.00  0.00     0.049 A 
ATOM     43  N   UNL A   1      42.169  28.331  27.686  1.00  0.00    -0.248 NA
ATOM     44  C   UNL A   1      41.045  26.536  26.832  1.00  0.00     0.031 C 
ATOM     45  C   UNL A   1      44.656  27.750  29.112  1.00  0.00     0.029 A 
ATOM     46  N   UNL A   1      45.984  26.475  27.861  1.00  0.00    -0.354 N 
ATOM     47  C   UNL A   1      40.841  28.495  27.984  1.00  0.00     0.074 A 
ATOM     48  C   UNL A   1      40.171  27.457  27.251  1.00  0.00     0.031 C 
ATOM     49  C   UNL A   1      45.929  28.064  29.431  1.00  0.00     0.029 A 
ATOM     50  C   UNL A   1      46.785  27.485  28.408  1.00  0.00     0.049 A 
ATOM     51  H   UNL A   1      46.311  25.630  27.476  1.00  0.00     0.167 HD
ATOM     52  C   UNL A   1      40.515  29.392  28.954  1.00  0.00     0.034 A 
ATOM     53  C   UNL A   1      47.688  28.111  27.605  1.00  0.00     0.034 A 
ATOM     54  C   UNL A   1      41.706  30.156  29.370  1.00  0.00     0.049 A 
ATOM     55  C   UNL A   1      47.185  29.521  27.394  1.00  0.00     0.074 A 
ATOM     56  C   UNL A   1      42.446  30.232  30.537  1.00  0.00     0.029 A 
ATOM     57  N   UNL A   1      42.481  30.776  28.386  1.00  0.00    -0.354 N 
ATOM     58  N   UNL A   1      45.937  29.863  27.596  1.00  0.00    -0.248 NA
ATOM     59  C   UNL A   1      48.033  30.672  27.113  1.00  0.00     0.031 C 
ATOM     60  C   UNL A   1      43.712  30.816  30.212  1.00  0.00     0.029 A 
ATOM     61  C   UNL A   1      43.727  31.131  28.860  1.00  0.00     0.049 A 
ATOM     62  H   UNL A   1      42.174  30.940  27.466  1.00  0.00     0.167 HD
ATOM     63  C   UNL A   1      45.822  31.220  27.634  1.00  0.00     0.074 A 
ATOM     64  C   UNL A   1      47.156  31.683  27.272  1.00  0.00     0.031 C 
ATOM     65  C   UNL A   1      44.662  31.851  27.993  1.00  0.00     0.034 A 
BRANCH  52  66
ATOM     66  C   UNL A   1      39.178  29.482  29.663  1.00  0.00     0.023 A 
ATOM     67  C   UNL A   1      38.367  30.611  29.419  1.00  0.00     0.031 A 
ATOM     68  C   UNL A   1      38.663  28.575  30.618  1.00  0.00     0.131 A 
ATOM     69  C   UNL A   1      37.134  30.790  30.078  1.00  0.00     0.055 A 
ATOM     70  C   UNL A   1      37.412  28.726  31.230  1.00  0.00     0.041 A 
ATOM     71  F   UNL A   1      39.353  27.520  31.063  1.00  0.00    -0.206 F 
ATOM     72  C   UNL A   1      36.638  29.839  30.964  1.00  0.00     0.022 A 
BRANCH  69  73
ATOM     73  S   UNL A   1      36.192  32.311  29.788  1.00  0.00     0.124 S 
ATOM     74  O   UNL A   1      34.959  31.800  29.199  1.00  0.00    -0.237 OA
ATOM     75  O   UNL A   1      36.087  32.873  31.129  1.00  0.00    -0.237 OA
ATOM     76  O   UNL A   1      37.045  33.067  28.870  1.00  0.00    -0.744 OA
ENDBRANCH  69  73
ENDBRANCH  52  66
BRANCH  53  77
ATOM     77  C   UNL A   1      48.317  27.129  26.647  1.00  0.00     0.023 A 
ATOM     78  C   UNL A   1      48.007  27.288  25.263  1.00  0.00     0.031 A 
ATOM     79  C   UNL A   1      49.508  26.455  26.955  1.00  0.00     0.131 A 
ATOM     80  C   UNL A   1      48.933  26.929  24.263  1.00  0.00     0.055 A 
ATOM     81  C   UNL A   1      50.417  26.075  25.951  1.00  0.00     0.041 A 
ATOM     82  F   UNL A   1      49.883  26.282  28.230  1.00  0.00    -0.206 F 
ATOM     83  C   UNL A   1      50.157  26.354  24.607  1.00  0.00     0.022 A 
BRANCH  80  84
ATOM     84  S   UNL A   1      48.690  27.471  22.531  1.00  0.00     0.124 S 
ATOM     85  O   UNL A   1      47.402  28.147  22.587  1.00  0.00    -0.237 OA
ATOM     86  O   UNL A   1      49.850  28.323  22.281  1.00  0.00    -0.237 OA
ATOM     87  O   UNL A   1      48.718  26.211  21.789  1.00  0.00    -0.744 OA
ENDBRANCH  80  84
ENDBRANCH  53  77
BRANCH  65  88
ATOM     88  C   UNL A   1      44.310  33.257  27.574  1.00  0.00     0.023 A 
ATOM     89  C   UNL A   1      44.381  34.335  28.458  1.00  0.00     0.031 A 
ATOM     90  C   UNL A   1      44.028  33.588  26.226  1.00  0.00     0.131 A 
ATOM     91  C   UNL A   1      44.086  35.638  28.043  1.00  0.00     0.055 A 
ATOM     92  C   UNL A   1      43.854  34.903  25.789  1.00  0.00     0.041 A 
ATOM     93  F   UNL A   1      43.933  32.662  25.263  1.00  0.00    -0.206 F 
ATOM     94  C   UNL A   1      43.860  35.940  26.706  1.00  0.00     0.022 A 
BRANCH  91  95
ATOM     95  S   UNL A   1      43.922  36.893  29.330  1.00  0.00     0.124 S 
ATOM     96  O   UNL A   1      42.772  37.657  28.853  1.00  0.00    -0.237 OA
ATOM     97  O   UNL A   1      43.690  36.091  30.528  1.00  0.00    -0.237 OA
ATOM     98  O   UNL A   1      45.199  37.599  29.287  1.00  0.00    -0.744 OA
ENDBRANCH  91  95
ENDBRANCH  65  88
ENDBRANCH  39  40
ENDBRANCH  32  34
ENDBRANCH  31  32
ENDBRANCH  30  31
ENDBRANCH   1  30
TORSDOF 18
ENDMDL
