MODEL 1
REMARK VINA RESULT:     -11.6      0.000      0.000
REMARK SMILES CC(C)(C)OC(=O)N1CCC[C@H]1C(=O)N1CCC[C@H]1C(=O)N1CCC[C@@H]1C(=O)OCCOCCOC(=O)c1ccc(-c2c3nc(c(-c4cc(S(=O)(=O)[O-])ccc4F)c4ccc([nH]4)c(-c4cc(S(=O)(=O)[O-])ccc4F)c4nc(c(-c5cc(S(=O)(=O)[O-])ccc5F)c5ccc2[nH]5)C=C4)C=C3)cc1
REMARK SMILES IDX 30 1 29 2 27 3 28 4 26 5 22 6 23 7 24 8 25 9 20 10 21 11
REMARK SMILES IDX 19 12 15 13 16 14 17 15 18 16 13 17 14 18 12 19 8 20 9 21
REMARK SMILES IDX 10 22 11 23 6 24 7 25 5 26 2 27 1 28 3 29 4 30 31 31 32 32
REMARK SMILES IDX 33 33 34 34 35 35 36 36 37 37 38 38 39 39 100 40 40 41 99 42
REMARK SMILES IDX 41 43 42 44 43 45 93 46 44 47 98 48 92 49 94 50 45 51 97 52
REMARK SMILES IDX 91 53 90 54 46 56 78 57 58 58 77 59 59 60 62 61 76 62 95 63
REMARK SMILES IDX 60 64 61 65 75 67 96 68 63 69 47 70 48 71 56 72 49 73 55 74
REMARK SMILES IDX 57 75 54 76 50 77 51 78 52 79 53 80 79 81 80 82 88 83 81 84
REMARK SMILES IDX 87 85 89 86 86 87 82 88 83 89 84 90 85 91 64 92 65 93 73 94
REMARK SMILES IDX 66 95 72 96 74 97 71 98 67 99 68 100 69 101 70 102
REMARK H PARENT 94 55 62 66
REMARK Flexibility Score: inf
ROOT
ATOM      1  C   UNL A   1      36.748  22.639  23.772  1.00  0.00     0.261 C 
ENDROOT
BRANCH   1   2
ATOM      2  O   UNL A   1      35.385  22.193  23.765  1.00  0.00    -0.462 OA
BRANCH   2   3
ATOM      3  C   UNL A   1      34.472  23.074  23.275  1.00  0.00     0.328 C 
ATOM      4  O   UNL A   1      34.759  24.020  22.545  1.00  0.00    -0.250 OA
BRANCH   3   5
ATOM      5  C   UNL A   1      33.046  22.862  23.818  1.00  0.00     0.195 C 
ATOM      6  N   UNL A   1      32.971  23.316  25.188  1.00  0.00    -0.327 N 
ATOM      7  C   UNL A   1      31.945  22.613  25.924  1.00  0.00     0.120 C 
ATOM      8  C   UNL A   1      31.784  21.279  25.210  1.00  0.00     0.024 C 
ATOM      9  C   UNL A   1      32.528  21.420  23.874  1.00  0.00     0.039 C 
BRANCH   6  10
ATOM     10  C   UNL A   1      33.452  24.538  25.567  1.00  0.00     0.246 C 
ATOM     11  O   UNL A   1      34.657  24.726  25.733  1.00  0.00    -0.272 OA
BRANCH  10  12
ATOM     12  C   UNL A   1      32.396  25.674  25.588  1.00  0.00     0.174 C 
ATOM     13  N   UNL A   1      31.732  26.064  24.321  1.00  0.00    -0.329 N 
ATOM     14  C   UNL A   1      30.313  25.778  24.364  1.00  0.00     0.120 C 
ATOM     15  C   UNL A   1      29.968  25.791  25.833  1.00  0.00     0.024 C 
ATOM     16  C   UNL A   1      31.221  25.229  26.487  1.00  0.00     0.037 C 
BRANCH  13  17
ATOM     17  C   UNL A   1      32.371  26.667  23.257  1.00  0.00     0.246 C 
ATOM     18  O   UNL A   1      32.686  26.049  22.241  1.00  0.00    -0.272 OA
BRANCH  17  19
ATOM     19  C   UNL A   1      32.599  28.179  23.308  1.00  0.00     0.178 C 
ATOM     20  N   UNL A   1      31.333  28.855  23.616  1.00  0.00    -0.296 N 
ATOM     21  C   UNL A   1      31.257  29.203  25.010  1.00  0.00     0.124 C 
ATOM     22  C   UNL A   1      32.690  29.503  25.316  1.00  0.00     0.024 C 
ATOM     23  C   UNL A   1      33.499  28.521  24.494  1.00  0.00     0.037 C 
BRANCH  20  24
ATOM     24  C   UNL A   1      30.345  29.115  22.710  1.00  0.00     0.410 C 
ATOM     25  O   UNL A   1      30.195  28.489  21.670  1.00  0.00    -0.224 OA
BRANCH  24  26
ATOM     26  O   UNL A   1      29.613  30.180  23.113  1.00  0.00    -0.444 OA
BRANCH  26  27
ATOM     27  C   UNL A   1      28.207  30.383  22.840  1.00  0.00     0.106 C 
ATOM     28  C   UNL A   1      27.557  29.006  23.053  1.00  0.00     0.056 C 
ATOM     29  C   UNL A   1      28.077  30.785  21.371  1.00  0.00     0.056 C 
ATOM     30  C   UNL A   1      27.523  31.388  23.769  1.00  0.00     0.056 C 
ENDBRANCH  26  27
ENDBRANCH  24  26
ENDBRANCH  20  24
ENDBRANCH  17  19
ENDBRANCH  13  17
ENDBRANCH  10  12
ENDBRANCH   6  10
ENDBRANCH   3   5
ENDBRANCH   2   3
ENDBRANCH   1   2
BRANCH   1  31
ATOM     31  C   UNL A   1      37.496  22.205  25.032  1.00  0.00     0.202 C 
BRANCH  31  32
ATOM     32  O   UNL A   1      37.424  20.830  25.395  1.00  0.00    -0.374 OA
BRANCH  32  33
ATOM     33  C   UNL A   1      38.422  19.953  24.879  1.00  0.00     0.202 C 
BRANCH  33  34
ATOM     34  C   UNL A   1      39.378  19.269  25.868  1.00  0.00     0.261 C 
BRANCH  34  35
ATOM     35  O   UNL A   1      40.746  19.707  25.783  1.00  0.00    -0.460 OA
BRANCH  35  36
ATOM     36  C   UNL A   1      41.304  20.045  26.976  1.00  0.00     0.338 C 
ATOM     37  O   UNL A   1      41.874  19.293  27.750  1.00  0.00    -0.246 OA
BRANCH  36  38
ATOM     38  C   UNL A   1      41.283  21.511  27.179  1.00  0.00     0.060 A 
ATOM     39  C   UNL A   1      40.870  22.323  26.110  1.00  0.00     0.016 A 
ATOM     40  C   UNL A   1      41.776  22.090  28.344  1.00  0.00     0.016 A 
ATOM     41  C   UNL A   1      40.988  23.718  26.181  1.00  0.00     0.010 A 
ATOM     42  C   UNL A   1      41.894  23.485  28.412  1.00  0.00     0.010 A 
ATOM     43  C   UNL A   1      41.530  24.315  27.322  1.00  0.00    -0.014 A 
BRANCH  43  44
ATOM     44  C   UNL A   1      41.857  25.773  27.391  1.00  0.00     0.031 A 
ATOM     45  C   UNL A   1      43.254  26.186  27.022  1.00  0.00     0.074 A 
ATOM     46  C   UNL A   1      40.996  26.718  27.828  1.00  0.00     0.049 A 
ATOM     47  N   UNL A   1      43.855  27.331  27.202  1.00  0.00    -0.248 NA
ATOM     48  C   UNL A   1      44.067  25.174  26.329  1.00  0.00     0.031 C 
ATOM     49  C   UNL A   1      39.563  26.557  28.048  1.00  0.00     0.029 A 
ATOM     50  N   UNL A   1      41.242  27.999  28.271  1.00  0.00    -0.354 N 
ATOM     51  C   UNL A   1      45.096  27.199  26.594  1.00  0.00     0.074 A 
ATOM     52  C   UNL A   1      45.203  25.828  26.144  1.00  0.00     0.031 C 
ATOM     53  C   UNL A   1      39.105  27.589  28.779  1.00  0.00     0.029 A 
ATOM     54  C   UNL A   1      40.201  28.520  29.012  1.00  0.00     0.049 A 
ATOM     55  H   UNL A   1      42.072  28.492  28.078  1.00  0.00     0.167 HD
ATOM     56  C   UNL A   1      46.032  28.153  26.372  1.00  0.00     0.034 A 
ATOM     57  C   UNL A   1      40.143  29.603  29.813  1.00  0.00     0.034 A 
ATOM     58  C   UNL A   1      45.916  29.509  26.844  1.00  0.00     0.049 A 
ATOM     59  C   UNL A   1      41.295  30.571  29.797  1.00  0.00     0.074 A 
ATOM     60  C   UNL A   1      46.780  30.569  26.639  1.00  0.00     0.029 A 
ATOM     61  N   UNL A   1      44.881  29.986  27.638  1.00  0.00    -0.354 N 
ATOM     62  N   UNL A   1      42.442  30.466  29.171  1.00  0.00    -0.248 NA
ATOM     63  C   UNL A   1      41.115  31.839  30.518  1.00  0.00     0.031 C 
ATOM     64  C   UNL A   1      46.315  31.661  27.381  1.00  0.00     0.029 A 
ATOM     65  C   UNL A   1      45.113  31.310  27.977  1.00  0.00     0.049 A 
ATOM     66  H   UNL A   1      44.098  29.461  27.920  1.00  0.00     0.167 HD
ATOM     67  C   UNL A   1      43.074  31.694  29.333  1.00  0.00     0.074 A 
ATOM     68  C   UNL A   1      42.204  32.505  30.159  1.00  0.00     0.031 C 
ATOM     69  C   UNL A   1      44.244  32.122  28.795  1.00  0.00     0.034 A 
BRANCH  56  70
ATOM     70  C   UNL A   1      47.256  27.743  25.596  1.00  0.00     0.023 A 
ATOM     71  C   UNL A   1      47.388  28.042  24.228  1.00  0.00     0.031 A 
ATOM     72  C   UNL A   1      48.284  27.015  26.216  1.00  0.00     0.131 A 
ATOM     73  C   UNL A   1      48.481  27.545  23.507  1.00  0.00     0.055 A 
ATOM     74  C   UNL A   1      49.412  26.595  25.510  1.00  0.00     0.041 A 
ATOM     75  F   UNL A   1      48.200  26.681  27.513  1.00  0.00    -0.206 F 
ATOM     76  C   UNL A   1      49.508  26.845  24.143  1.00  0.00     0.022 A 
BRANCH  73  77
ATOM     77  S   UNL A   1      48.462  27.694  21.699  1.00  0.00     0.124 S 
ATOM     78  O   UNL A   1      47.124  28.230  21.461  1.00  0.00    -0.237 OA
ATOM     79  O   UNL A   1      49.570  28.608  21.446  1.00  0.00    -0.237 OA
ATOM     80  O   UNL A   1      48.667  26.321  21.241  1.00  0.00    -0.744 OA
ENDBRANCH  73  77
ENDBRANCH  56  70
BRANCH  57  81
ATOM     81  C   UNL A   1      38.956  29.851  30.679  1.00  0.00     0.023 A 
ATOM     82  C   UNL A   1      38.091  30.928  30.441  1.00  0.00     0.031 A 
ATOM     83  C   UNL A   1      38.711  29.043  31.805  1.00  0.00     0.131 A 
ATOM     84  C   UNL A   1      37.050  31.203  31.342  1.00  0.00     0.055 A 
ATOM     85  C   UNL A   1      37.653  29.302  32.683  1.00  0.00     0.041 A 
ATOM     86  F   UNL A   1      39.505  27.995  32.076  1.00  0.00    -0.206 F 
ATOM     87  C   UNL A   1      36.822  30.396  32.459  1.00  0.00     0.022 A 
BRANCH  84  88
ATOM     88  S   UNL A   1      36.038  32.682  31.065  1.00  0.00     0.124 S 
ATOM     89  O   UNL A   1      34.702  32.109  30.942  1.00  0.00    -0.237 OA
ATOM     90  O   UNL A   1      36.300  33.453  32.276  1.00  0.00    -0.237 OA
ATOM     91  O   UNL A   1      36.592  33.248  29.836  1.00  0.00    -0.744 OA
ENDBRANCH  84  88
ENDBRANCH  57  81
BRANCH  69  92
ATOM     92  C   UNL A   1      44.618  33.566  29.003  1.00  0.00     0.023 A 
ATOM     93  C   UNL A   1      44.053  34.603  28.244  1.00  0.00     0.031 A 
ATOM     94  C   UNL A   1      45.548  33.908  30.004  1.00  0.00     0.131 A 
ATOM     95  C   UNL A   1      44.452  35.928  28.471  1.00  0.00     0.055 A 
ATOM     96  C   UNL A   1      45.893  35.233  30.267  1.00  0.00     0.041 A 
ATOM     97  F   UNL A   1      46.126  32.955  30.754  1.00  0.00    -0.206 F 
ATOM     98  C   UNL A   1      45.351  36.252  29.492  1.00  0.00     0.022 A 
BRANCH  95  99
ATOM     99  S   UNL A   1      43.829  37.224  27.367  1.00  0.00     0.124 S 
ATOM    100  O   UNL A   1      43.071  38.065  28.289  1.00  0.00    -0.237 OA
ATOM    101  O   UNL A   1      45.058  37.805  26.839  1.00  0.00    -0.237 OA
ATOM    102  O   UNL A   1      43.024  36.489  26.393  1.00  0.00    -0.744 OA
ENDBRANCH  95  99
ENDBRANCH  69  92
ENDBRANCH  43  44
ENDBRANCH  36  38
ENDBRANCH  35  36
ENDBRANCH  34  35
ENDBRANCH  33  34
ENDBRANCH  32  33
ENDBRANCH  31  32
ENDBRANCH   1  31
TORSDOF 24
ENDMDL
MODEL 2
REMARK VINA RESULT:     -11.6      1.303      7.166
REMARK SMILES CC(C)(C)OC(=O)N1CCC[C@H]1C(=O)N1CCC[C@H]1C(=O)N1CCC[C@@H]1C(=O)OCCOCCOC(=O)c1ccc(-c2c3nc(c(-c4cc(S(=O)(=O)[O-])ccc4F)c4ccc([nH]4)c(-c4cc(S(=O)(=O)[O-])ccc4F)c4nc(c(-c5cc(S(=O)(=O)[O-])ccc5F)c5ccc2[nH]5)C=C4)C=C3)cc1
REMARK SMILES IDX 30 1 29 2 27 3 28 4 26 5 22 6 23 7 24 8 25 9 20 10 21 11
REMARK SMILES IDX 19 12 15 13 16 14 17 15 18 16 13 17 14 18 12 19 8 20 9 21
REMARK SMILES IDX 10 22 11 23 6 24 7 25 5 26 2 27 1 28 3 29 4 30 31 31 32 32
REMARK SMILES IDX 33 33 34 34 35 35 36 36 37 37 38 38 39 39 100 40 40 41 99 42
REMARK SMILES IDX 41 43 42 44 43 45 93 46 44 47 98 48 92 49 94 50 45 51 97 52
REMARK SMILES IDX 91 53 90 54 46 56 78 57 58 58 77 59 59 60 62 61 76 62 95 63
REMARK SMILES IDX 60 64 61 65 75 67 96 68 63 69 47 70 48 71 56 72 49 73 55 74
REMARK SMILES IDX 57 75 54 76 50 77 51 78 52 79 53 80 79 81 80 82 88 83 81 84
REMARK SMILES IDX 87 85 89 86 86 87 82 88 83 89 84 90 85 91 64 92 65 93 73 94
REMARK SMILES IDX 66 95 72 96 74 97 71 98 67 99 68 100 69 101 70 102
REMARK H PARENT 94 55 62 66
REMARK Flexibility Score: inf
ROOT
ATOM      1  C   UNL A   1      36.145  20.517  25.164  1.00  0.00     0.261 C 
ENDROOT
BRANCH   1   2
ATOM      2  O   UNL A   1      35.464  21.405  26.061  1.00  0.00    -0.462 OA
BRANCH   2   3
ATOM      3  C   UNL A   1      34.144  21.612  25.807  1.00  0.00     0.328 C 
ATOM      4  O   UNL A   1      33.275  21.622  26.677  1.00  0.00    -0.250 OA
BRANCH   3   5
ATOM      5  C   UNL A   1      33.803  21.708  24.308  1.00  0.00     0.195 C 
ATOM      6  N   UNL A   1      33.361  23.047  23.991  1.00  0.00    -0.327 N 
ATOM      7  C   UNL A   1      32.472  23.055  22.851  1.00  0.00     0.120 C 
ATOM      8  C   UNL A   1      31.849  21.668  22.822  1.00  0.00     0.024 C 
ATOM      9  C   UNL A   1      32.674  20.809  23.790  1.00  0.00     0.039 C 
BRANCH   6  10
ATOM     10  C   UNL A   1      34.061  24.148  24.397  1.00  0.00     0.246 C 
ATOM     11  O   UNL A   1      35.266  24.257  24.173  1.00  0.00    -0.272 OA
BRANCH  10  12
ATOM     12  C   UNL A   1      33.191  25.292  24.982  1.00  0.00     0.174 C 
ATOM     13  N   UNL A   1      32.222  25.984  24.099  1.00  0.00    -0.329 N 
ATOM     14  C   UNL A   1      30.859  25.752  24.534  1.00  0.00     0.120 C 
ATOM     15  C   UNL A   1      30.978  25.448  26.008  1.00  0.00     0.024 C 
ATOM     16  C   UNL A   1      32.302  24.702  26.100  1.00  0.00     0.037 C 
BRANCH  13  17
ATOM     17  C   UNL A   1      32.570  26.785  23.031  1.00  0.00     0.246 C 
ATOM     18  O   UNL A   1      32.712  26.341  21.893  1.00  0.00    -0.272 OA
BRANCH  17  19
ATOM     19  C   UNL A   1      32.681  28.293  23.261  1.00  0.00     0.178 C 
ATOM     20  N   UNL A   1      31.367  28.830  23.637  1.00  0.00    -0.296 N 
ATOM     21  C   UNL A   1      31.268  29.006  25.062  1.00  0.00     0.124 C 
ATOM     22  C   UNL A   1      32.675  29.376  25.411  1.00  0.00     0.024 C 
ATOM     23  C   UNL A   1      33.555  28.563  24.485  1.00  0.00     0.037 C 
BRANCH  20  24
ATOM     24  C   UNL A   1      30.361  29.118  22.761  1.00  0.00     0.410 C 
ATOM     25  O   UNL A   1      30.318  28.696  21.613  1.00  0.00    -0.224 OA
BRANCH  24  26
ATOM     26  O   UNL A   1      29.472  29.962  23.335  1.00  0.00    -0.444 OA
BRANCH  26  27
ATOM     27  C   UNL A   1      28.151  30.262  22.827  1.00  0.00     0.106 C 
ATOM     28  C   UNL A   1      27.617  31.378  23.741  1.00  0.00     0.056 C 
ATOM     29  C   UNL A   1      27.296  29.009  23.002  1.00  0.00     0.056 C 
ATOM     30  C   UNL A   1      28.131  30.770  21.384  1.00  0.00     0.056 C 
ENDBRANCH  26  27
ENDBRANCH  24  26
ENDBRANCH  20  24
ENDBRANCH  17  19
ENDBRANCH  13  17
ENDBRANCH  10  12
ENDBRANCH   6  10
ENDBRANCH   3   5
ENDBRANCH   2   3
ENDBRANCH   1   2
BRANCH   1  31
ATOM     31  C   UNL A   1      37.443  21.117  24.626  1.00  0.00     0.202 C 
BRANCH  31  32
ATOM     32  O   UNL A   1      38.277  21.811  25.550  1.00  0.00    -0.374 OA
BRANCH  32  33
ATOM     33  C   UNL A   1      39.230  21.050  26.286  1.00  0.00     0.202 C 
BRANCH  33  34
ATOM     34  C   UNL A   1      39.811  19.782  25.641  1.00  0.00     0.261 C 
BRANCH  34  35
ATOM     35  O   UNL A   1      40.998  19.274  26.277  1.00  0.00    -0.460 OA
BRANCH  35  36
ATOM     36  C   UNL A   1      42.154  19.854  25.856  1.00  0.00     0.338 C 
ATOM     37  O   UNL A   1      42.959  19.380  25.070  1.00  0.00    -0.246 OA
BRANCH  36  38
ATOM     38  C   UNL A   1      42.266  21.244  26.351  1.00  0.00     0.060 A 
ATOM     39  C   UNL A   1      42.391  22.277  25.407  1.00  0.00     0.016 A 
ATOM     40  C   UNL A   1      42.372  21.525  27.709  1.00  0.00     0.016 A 
ATOM     41  C   UNL A   1      42.669  23.589  25.812  1.00  0.00     0.010 A 
ATOM     42  C   UNL A   1      42.650  22.838  28.112  1.00  0.00     0.010 A 
ATOM     43  C   UNL A   1      42.831  23.881  27.169  1.00  0.00    -0.014 A 
BRANCH  43  44
ATOM     44  C   UNL A   1      43.311  25.211  27.655  1.00  0.00     0.031 A 
ATOM     45  C   UNL A   1      42.273  26.189  28.132  1.00  0.00     0.074 A 
ATOM     46  C   UNL A   1      44.603  25.604  27.623  1.00  0.00     0.049 A 
ATOM     47  N   UNL A   1      42.391  27.463  28.392  1.00  0.00    -0.248 NA
ATOM     48  C   UNL A   1      40.930  25.639  28.377  1.00  0.00     0.031 C 
ATOM     49  C   UNL A   1      45.766  24.756  27.379  1.00  0.00     0.029 A 
ATOM     50  N   UNL A   1      45.144  26.869  27.696  1.00  0.00    -0.354 N 
ATOM     51  C   UNL A   1      41.155  27.856  28.886  1.00  0.00     0.074 A 
ATOM     52  C   UNL A   1      40.272  26.715  28.779  1.00  0.00     0.031 C 
ATOM     53  C   UNL A   1      46.831  25.529  27.102  1.00  0.00     0.029 A 
ATOM     54  C   UNL A   1      46.440  26.927  27.224  1.00  0.00     0.049 A 
ATOM     55  H   UNL A   1      44.658  27.649  28.050  1.00  0.00     0.167 HD
ATOM     56  C   UNL A   1      40.808  29.043  29.439  1.00  0.00     0.034 A 
ATOM     57  C   UNL A   1      47.212  27.982  26.896  1.00  0.00     0.034 A 
ATOM     58  C   UNL A   1      41.695  30.175  29.521  1.00  0.00     0.049 A 
ATOM     59  C   UNL A   1      46.738  29.363  27.262  1.00  0.00     0.074 A 
ATOM     60  C   UNL A   1      41.465  31.410  30.100  1.00  0.00     0.029 A 
ATOM     61  N   UNL A   1      42.974  30.220  28.983  1.00  0.00    -0.354 N 
ATOM     62  N   UNL A   1      45.589  29.720  27.784  1.00  0.00    -0.248 NA
ATOM     63  C   UNL A   1      47.689  30.468  27.079  1.00  0.00     0.031 C 
ATOM     64  C   UNL A   1      42.569  32.228  29.836  1.00  0.00     0.029 A 
ATOM     65  C   UNL A   1      43.525  31.478  29.169  1.00  0.00     0.049 A 
ATOM     66  H   UNL A   1      43.423  29.468  28.534  1.00  0.00     0.167 HD
ATOM     67  C   UNL A   1      45.719  31.070  28.092  1.00  0.00     0.074 A 
ATOM     68  C   UNL A   1      47.038  31.473  27.648  1.00  0.00     0.031 C 
ATOM     69  C   UNL A   1      44.841  31.881  28.734  1.00  0.00     0.034 A 
BRANCH  56  70
ATOM     70  C   UNL A   1      39.408  29.161  29.983  1.00  0.00     0.023 A 
ATOM     71  C   UNL A   1      38.388  29.790  29.246  1.00  0.00     0.031 A 
ATOM     72  C   UNL A   1      39.095  28.675  31.263  1.00  0.00     0.131 A 
ATOM     73  C   UNL A   1      37.129  29.990  29.827  1.00  0.00     0.055 A 
ATOM     74  C   UNL A   1      37.815  28.803  31.801  1.00  0.00     0.041 A 
ATOM     75  F   UNL A   1      40.035  28.087  32.020  1.00  0.00    -0.206 F 
ATOM     76  C   UNL A   1      36.826  29.477  31.090  1.00  0.00     0.022 A 
BRANCH  73  77
ATOM     77  S   UNL A   1      35.943  31.062  28.969  1.00  0.00     0.124 S 
ATOM     78  O   UNL A   1      36.824  31.842  28.103  1.00  0.00    -0.237 OA
ATOM     79  O   UNL A   1      35.076  30.101  28.298  1.00  0.00    -0.237 OA
ATOM     80  O   UNL A   1      35.319  31.818  30.055  1.00  0.00    -0.744 OA
ENDBRANCH  73  77
ENDBRANCH  56  70
BRANCH  57  81
ATOM     81  C   UNL A   1      48.519  27.787  26.207  1.00  0.00     0.023 A 
ATOM     82  C   UNL A   1      48.611  27.763  24.809  1.00  0.00     0.031 A 
ATOM     83  C   UNL A   1      49.692  27.553  26.950  1.00  0.00     0.131 A 
ATOM     84  C   UNL A   1      49.836  27.461  24.192  1.00  0.00     0.055 A 
ATOM     85  C   UNL A   1      50.916  27.284  26.332  1.00  0.00     0.041 A 
ATOM     86  F   UNL A   1      49.660  27.572  28.292  1.00  0.00    -0.206 F 
ATOM     87  C   UNL A   1      50.991  27.226  24.944  1.00  0.00     0.022 A 
BRANCH  84  88
ATOM     88  S   UNL A   1      49.878  27.312  22.386  1.00  0.00     0.124 S 
ATOM     89  O   UNL A   1      51.219  26.782  22.163  1.00  0.00    -0.237 OA
ATOM     90  O   UNL A   1      48.773  26.393  22.137  1.00  0.00    -0.237 OA
ATOM     91  O   UNL A   1      49.662  28.683  21.926  1.00  0.00    -0.744 OA
ENDBRANCH  84  88
ENDBRANCH  57  81
BRANCH  69  92
ATOM     92  C   UNL A   1      45.306  33.270  29.085  1.00  0.00     0.023 A 
ATOM     93  C   UNL A   1      44.884  34.404  28.374  1.00  0.00     0.031 A 
ATOM     94  C   UNL A   1      46.179  33.457  30.174  1.00  0.00     0.131 A 
ATOM     95  C   UNL A   1      45.364  35.670  28.736  1.00  0.00     0.055 A 
ATOM     96  C   UNL A   1      46.603  34.725  30.569  1.00  0.00     0.041 A 
ATOM     97  F   UNL A   1      46.622  32.406  30.884  1.00  0.00    -0.206 F 
ATOM     98  C   UNL A   1      46.202  35.842  29.842  1.00  0.00     0.022 A 
BRANCH  95  99
ATOM     99  S   UNL A   1      44.930  37.093  27.699  1.00  0.00     0.124 S 
ATOM    100  O   UNL A   1      46.235  37.503  27.189  1.00  0.00    -0.237 OA
ATOM    101  O   UNL A   1      44.020  36.504  26.722  1.00  0.00    -0.237 OA
ATOM    102  O   UNL A   1      44.309  38.025  28.638  1.00  0.00    -0.744 OA
ENDBRANCH  95  99
ENDBRANCH  69  92
ENDBRANCH  43  44
ENDBRANCH  36  38
ENDBRANCH  35  36
ENDBRANCH  34  35
ENDBRANCH  33  34
ENDBRANCH  32  33
ENDBRANCH  31  32
ENDBRANCH   1  31
TORSDOF 24
ENDMDL
MODEL 3
REMARK VINA RESULT:     -11.4      2.104      2.532
REMARK SMILES CC(C)(C)OC(=O)N1CCC[C@H]1C(=O)N1CCC[C@H]1C(=O)N1CCC[C@@H]1C(=O)OCCOCCOC(=O)c1ccc(-c2c3nc(c(-c4cc(S(=O)(=O)[O-])ccc4F)c4ccc([nH]4)c(-c4cc(S(=O)(=O)[O-])ccc4F)c4nc(c(-c5cc(S(=O)(=O)[O-])ccc5F)c5ccc2[nH]5)C=C4)C=C3)cc1
REMARK SMILES IDX 30 1 29 2 27 3 28 4 26 5 22 6 23 7 24 8 25 9 20 10 21 11
REMARK SMILES IDX 19 12 15 13 16 14 17 15 18 16 13 17 14 18 12 19 8 20 9 21
REMARK SMILES IDX 10 22 11 23 6 24 7 25 5 26 2 27 1 28 3 29 4 30 31 31 32 32
REMARK SMILES IDX 33 33 34 34 35 35 36 36 37 37 38 38 39 39 100 40 40 41 99 42
REMARK SMILES IDX 41 43 42 44 43 45 93 46 44 47 98 48 92 49 94 50 45 51 97 52
REMARK SMILES IDX 91 53 90 54 46 56 78 57 58 58 77 59 59 60 62 61 76 62 95 63
REMARK SMILES IDX 60 64 61 65 75 67 96 68 63 69 47 70 48 71 56 72 49 73 55 74
REMARK SMILES IDX 57 75 54 76 50 77 51 78 52 79 53 80 79 81 80 82 88 83 81 84
REMARK SMILES IDX 87 85 89 86 86 87 82 88 83 89 84 90 85 91 64 92 65 93 73 94
REMARK SMILES IDX 66 95 72 96 74 97 71 98 67 99 68 100 69 101 70 102
REMARK H PARENT 94 55 62 66
REMARK Flexibility Score: inf
ROOT
ATOM      1  C   UNL A   1      36.544  23.620  24.892  1.00  0.00     0.261 C 
ENDROOT
BRANCH   1   2
ATOM      2  O   UNL A   1      35.145  23.314  24.947  1.00  0.00    -0.462 OA
BRANCH   2   3
ATOM      3  C   UNL A   1      34.574  22.918  23.777  1.00  0.00     0.328 C 
ATOM      4  O   UNL A   1      34.612  23.578  22.741  1.00  0.00    -0.250 OA
BRANCH   3   5
ATOM      5  C   UNL A   1      33.758  21.616  23.891  1.00  0.00     0.195 C 
ATOM      6  N   UNL A   1      32.548  21.861  24.643  1.00  0.00    -0.327 N 
ATOM      7  C   UNL A   1      32.085  20.663  25.306  1.00  0.00     0.120 C 
ATOM      8  C   UNL A   1      33.327  19.805  25.493  1.00  0.00     0.024 C 
ATOM      9  C   UNL A   1      34.418  20.439  24.619  1.00  0.00     0.039 C 
BRANCH   6  10
ATOM     10  C   UNL A   1      31.730  22.918  24.361  1.00  0.00     0.246 C 
ATOM     11  O   UNL A   1      31.067  22.955  23.325  1.00  0.00    -0.272 OA
BRANCH  10  12
ATOM     12  C   UNL A   1      31.578  23.947  25.513  1.00  0.00     0.174 C 
ATOM     13  N   UNL A   1      31.443  25.386  25.180  1.00  0.00    -0.329 N 
ATOM     14  C   UNL A   1      30.145  25.894  25.575  1.00  0.00     0.120 C 
ATOM     15  C   UNL A   1      29.701  24.980  26.690  1.00  0.00     0.024 C 
ATOM     16  C   UNL A   1      30.273  23.631  26.278  1.00  0.00     0.037 C 
BRANCH  13  17
ATOM     17  C   UNL A   1      32.439  26.154  24.615  1.00  0.00     0.246 C 
ATOM     18  O   UNL A   1      33.595  26.145  25.032  1.00  0.00    -0.272 OA
BRANCH  17  19
ATOM     19  C   UNL A   1      32.107  26.965  23.360  1.00  0.00     0.178 C 
ATOM     20  N   UNL A   1      32.193  28.399  23.667  1.00  0.00    -0.296 N 
ATOM     21  C   UNL A   1      33.447  28.949  23.228  1.00  0.00     0.124 C 
ATOM     22  C   UNL A   1      33.710  28.137  21.999  1.00  0.00     0.024 C 
ATOM     23  C   UNL A   1      33.192  26.748  22.307  1.00  0.00     0.037 C 
BRANCH  20  24
ATOM     24  C   UNL A   1      31.221  29.122  24.296  1.00  0.00     0.410 C 
ATOM     25  O   UNL A   1      31.424  29.828  25.274  1.00  0.00    -0.224 OA
BRANCH  24  26
ATOM     26  O   UNL A   1      30.021  28.899  23.709  1.00  0.00    -0.444 OA
BRANCH  26  27
ATOM     27  C   UNL A   1      29.240  29.883  22.994  1.00  0.00     0.106 C 
ATOM     28  C   UNL A   1      27.863  29.229  22.791  1.00  0.00     0.056 C 
ATOM     29  C   UNL A   1      29.906  30.099  21.635  1.00  0.00     0.056 C 
ATOM     30  C   UNL A   1      29.042  31.200  23.747  1.00  0.00     0.056 C 
ENDBRANCH  26  27
ENDBRANCH  24  26
ENDBRANCH  20  24
ENDBRANCH  17  19
ENDBRANCH  13  17
ENDBRANCH  10  12
ENDBRANCH   6  10
ENDBRANCH   3   5
ENDBRANCH   2   3
ENDBRANCH   1   2
BRANCH   1  31
ATOM     31  C   UNL A   1      37.364  22.487  24.279  1.00  0.00     0.202 C 
BRANCH  31  32
ATOM     32  O   UNL A   1      37.655  21.365  25.108  1.00  0.00    -0.374 OA
BRANCH  32  33
ATOM     33  C   UNL A   1      38.925  21.328  25.753  1.00  0.00     0.202 C 
BRANCH  33  34
ATOM     34  C   UNL A   1      39.478  19.966  26.203  1.00  0.00     0.261 C 
BRANCH  34  35
ATOM     35  O   UNL A   1      40.672  19.546  25.517  1.00  0.00    -0.460 OA
BRANCH  35  36
ATOM     36  C   UNL A   1      41.791  19.537  26.291  1.00  0.00     0.338 C 
ATOM     37  O   UNL A   1      42.377  18.551  26.708  1.00  0.00    -0.246 OA
BRANCH  36  38
ATOM     38  C   UNL A   1      42.337  20.902  26.455  1.00  0.00     0.060 A 
ATOM     39  C   UNL A   1      42.390  21.445  27.750  1.00  0.00     0.016 A 
ATOM     40  C   UNL A   1      42.675  21.686  25.357  1.00  0.00     0.016 A 
ATOM     41  C   UNL A   1      42.737  22.788  27.951  1.00  0.00     0.010 A 
ATOM     42  C   UNL A   1      43.021  23.029  25.561  1.00  0.00     0.010 A 
ATOM     43  C   UNL A   1      43.029  23.606  26.856  1.00  0.00    -0.014 A 
BRANCH  43  44
ATOM     44  C   UNL A   1      43.221  25.083  26.982  1.00  0.00     0.031 A 
ATOM     45  C   UNL A   1      44.630  25.604  26.925  1.00  0.00     0.074 A 
ATOM     46  C   UNL A   1      42.217  25.956  27.212  1.00  0.00     0.049 A 
ATOM     47  N   UNL A   1      45.089  26.790  27.223  1.00  0.00    -0.248 NA
ATOM     48  C   UNL A   1      45.649  24.663  26.435  1.00  0.00     0.031 C 
ATOM     49  C   UNL A   1      40.786  25.685  27.115  1.00  0.00     0.029 A 
ATOM     50  N   UNL A   1      42.262  27.249  27.688  1.00  0.00    -0.354 N 
ATOM     51  C   UNL A   1      46.439  26.757  26.902  1.00  0.00     0.074 A 
ATOM     52  C   UNL A   1      46.746  25.402  26.498  1.00  0.00     0.031 C 
ATOM     53  C   UNL A   1      40.103  26.673  27.720  1.00  0.00     0.029 A 
ATOM     54  C   UNL A   1      41.047  27.683  28.179  1.00  0.00     0.049 A 
ATOM     55  H   UNL A   1      43.074  27.805  27.678  1.00  0.00     0.167 HD
ATOM     56  C   UNL A   1      47.325  27.781  26.883  1.00  0.00     0.034 A 
ATOM     57  C   UNL A   1      40.734  28.751  28.939  1.00  0.00     0.034 A 
ATOM     58  C   UNL A   1      47.007  29.120  27.306  1.00  0.00     0.049 A 
ATOM     59  C   UNL A   1      41.785  29.804  29.168  1.00  0.00     0.074 A 
ATOM     60  C   UNL A   1      47.812  30.244  27.287  1.00  0.00     0.029 A 
ATOM     61  N   UNL A   1      45.790  29.511  27.851  1.00  0.00    -0.354 N 
ATOM     62  N   UNL A   1      43.046  29.791  28.809  1.00  0.00    -0.248 NA
ATOM     63  C   UNL A   1      41.356  31.048  29.822  1.00  0.00     0.031 C 
ATOM     64  C   UNL A   1      47.114  31.291  27.900  1.00  0.00     0.029 A 
ATOM     65  C   UNL A   1      45.842  30.845  28.221  1.00  0.00     0.049 A 
ATOM     66  H   UNL A   1      45.007  28.925  27.959  1.00  0.00     0.167 HD
ATOM     67  C   UNL A   1      43.532  31.062  29.095  1.00  0.00     0.074 A 
ATOM     68  C   UNL A   1      42.443  31.798  29.704  1.00  0.00     0.031 C 
ATOM     69  C   UNL A   1      44.756  31.583  28.823  1.00  0.00     0.034 A 
BRANCH  56  70
ATOM     70  C   UNL A   1      48.717  27.471  26.397  1.00  0.00     0.023 A 
ATOM     71  C   UNL A   1      49.754  27.164  27.297  1.00  0.00     0.031 A 
ATOM     72  C   UNL A   1      49.023  27.519  25.027  1.00  0.00     0.131 A 
ATOM     73  C   UNL A   1      51.062  26.998  26.824  1.00  0.00     0.055 A 
ATOM     74  C   UNL A   1      50.312  27.269  24.556  1.00  0.00     0.041 A 
ATOM     75  F   UNL A   1      48.078  27.830  24.126  1.00  0.00    -0.206 F 
ATOM     76  C   UNL A   1      51.345  27.022  25.457  1.00  0.00     0.022 A 
BRANCH  73  77
ATOM     77  S   UNL A   1      52.411  26.904  28.033  1.00  0.00     0.124 S 
ATOM     78  O   UNL A   1      53.361  26.031  27.347  1.00  0.00    -0.237 OA
ATOM     79  O   UNL A   1      52.811  28.300  28.170  1.00  0.00    -0.237 OA
ATOM     80  O   UNL A   1      51.775  26.317  29.211  1.00  0.00    -0.744 OA
ENDBRANCH  73  77
ENDBRANCH  56  70
BRANCH  57  81
ATOM     81  C   UNL A   1      39.371  28.902  29.522  1.00  0.00     0.023 A 
ATOM     82  C   UNL A   1      38.373  29.633  28.865  1.00  0.00     0.031 A 
ATOM     83  C   UNL A   1      39.071  28.364  30.788  1.00  0.00     0.131 A 
ATOM     84  C   UNL A   1      37.137  29.854  29.494  1.00  0.00     0.055 A 
ATOM     85  C   UNL A   1      37.828  28.560  31.397  1.00  0.00     0.041 A 
ATOM     86  F   UNL A   1      39.989  27.650  31.458  1.00  0.00    -0.206 F 
ATOM     87  C   UNL A   1      36.856  29.320  30.754  1.00  0.00     0.022 A 
BRANCH  84  88
ATOM     88  S   UNL A   1      35.924  30.916  28.663  1.00  0.00     0.124 S 
ATOM     89  O   UNL A   1      35.161  31.435  29.793  1.00  0.00    -0.237 OA
ATOM     90  O   UNL A   1      36.786  31.871  27.975  1.00  0.00    -0.237 OA
ATOM     91  O   UNL A   1      35.202  29.991  27.792  1.00  0.00    -0.744 OA
ENDBRANCH  84  88
ENDBRANCH  57  81
BRANCH  69  92
ATOM     92  C   UNL A   1      44.964  33.049  29.096  1.00  0.00     0.023 A 
ATOM     93  C   UNL A   1      44.614  34.041  28.167  1.00  0.00     0.031 A 
ATOM     94  C   UNL A   1      45.508  33.457  30.329  1.00  0.00     0.131 A 
ATOM     95  C   UNL A   1      44.848  35.390  28.469  1.00  0.00     0.055 A 
ATOM     96  C   UNL A   1      45.679  34.804  30.649  1.00  0.00     0.041 A 
ATOM     97  F   UNL A   1      45.869  32.549  31.251  1.00  0.00    -0.206 F 
ATOM     98  C   UNL A   1      45.356  35.780  29.712  1.00  0.00     0.022 A 
BRANCH  95  99
ATOM     99  S   UNL A   1      44.538  36.634  27.187  1.00  0.00     0.124 S 
ATOM    100  O   UNL A   1      43.777  35.869  26.203  1.00  0.00    -0.237 OA
ATOM    101  O   UNL A   1      43.792  37.656  27.915  1.00  0.00    -0.237 OA
ATOM    102  O   UNL A   1      45.878  37.031  26.763  1.00  0.00    -0.744 OA
ENDBRANCH  95  99
ENDBRANCH  69  92
ENDBRANCH  43  44
ENDBRANCH  36  38
ENDBRANCH  35  36
ENDBRANCH  34  35
ENDBRANCH  33  34
ENDBRANCH  32  33
ENDBRANCH  31  32
ENDBRANCH   1  31
TORSDOF 24
ENDMDL
