MODEL 1
REMARK VINA RESULT:     -12.2      0.000      0.000
REMARK SMILES O=C(OCCOCCOC(=O)c1ccc(-c2c3nc(c(-c4cc(S(=O)(=O)[O-])ccc4F)c4ccc([nH]4)c(-c4cc(S(=O)(=O)[O-])ccc4F)c4nc(c(-c5cc(S(=O)(=O)[O-])ccc5F)c5ccc2[nH]5)C=C4)C=C3)cc1)C1=Cc2c(Cl)ccc(Cl)c2O[C@@H]1C(F)(F)F
REMARK SMILES IDX 7 1 6 2 5 3 4 4 3 5 2 6 1 7 75 8 76 9 86 10 77 11 85 12
REMARK SMILES IDX 78 13 84 14 79 15 80 16 82 17 81 18 83 19 87 20 88 21 89 22
REMARK SMILES IDX 90 23 8 24 9 25 10 26 11 27 12 28 13 29 74 30 14 31 73 32
REMARK SMILES IDX 15 33 16 34 17 35 67 36 18 37 72 38 66 39 68 40 19 41 71 42
REMARK SMILES IDX 65 43 64 44 20 46 52 47 32 48 51 49 33 50 36 51 50 52 69 53
REMARK SMILES IDX 34 54 35 55 49 57 70 58 37 59 21 60 22 61 30 62 23 63 29 64
REMARK SMILES IDX 31 65 28 66 24 67 25 68 26 69 27 70 53 71 54 72 62 73 55 74
REMARK SMILES IDX 61 75 63 76 60 77 56 78 57 79 58 80 59 81 38 82 39 83 47 84
REMARK SMILES IDX 40 85 46 86 48 87 45 88 41 89 42 90 43 91 44 92
REMARK H PARENT 68 45 36 56
REMARK Flexibility Score: inf
ROOT
ATOM      1  C   UNL A   1      37.761  19.548  25.000  1.00  0.00     0.202 C 
ENDROOT
BRANCH   1   2
ATOM      2  O   UNL A   1      37.478  20.856  24.488  1.00  0.00    -0.374 OA
BRANCH   2   3
ATOM      3  C   UNL A   1      36.451  21.980  24.913  1.00  0.00     0.202 C 
BRANCH   3   4
ATOM      4  C   UNL A   1      35.738  23.754  23.899  1.00  0.00     0.261 C 
BRANCH   4   5
ATOM      5  O   UNL A   1      34.353  23.919  23.203  1.00  0.00    -0.460 OA
BRANCH   5   6
ATOM      6  C   UNL A   1      33.985  25.194  23.065  1.00  0.00     0.338 C 
ATOM      7  O   UNL A   1      34.426  26.071  22.366  1.00  0.00    -0.246 OA
BRANCH   6   8
ATOM      8  C   UNL A   1      33.140  25.209  24.228  1.00  0.00     0.087 C 
ATOM      9  C   UNL A   1      33.606  26.270  25.186  1.00  0.00     0.029 C 
ATOM     10  C   UNL A   1      31.430  25.244  23.304  1.00  0.00     0.316 C 
ATOM     11  C   UNL A   1      32.701  27.841  25.484  1.00  0.00     0.037 A 
ATOM     12  O   UNL A   1      30.502  26.896  23.569  1.00  0.00    -0.474 OA
ATOM     13  C   UNL A   1      33.261  28.870  26.206  1.00  0.00     0.052 A 
ATOM     14  C   UNL A   1      31.216  28.174  24.647  1.00  0.00     0.148 A 
ATOM     15  Cl  UNL A   1      34.710  28.703  27.105  1.00  0.00    -0.084 Cl
ATOM     16  C   UNL A   1      32.602  30.112  26.130  1.00  0.00     0.023 A 
ATOM     17  C   UNL A   1      30.743  29.452  24.512  1.00  0.00     0.083 A 
ATOM     18  C   UNL A   1      31.442  30.396  25.298  1.00  0.00     0.026 A 
ATOM     19  Cl  UNL A   1      29.680  29.931  23.272  1.00  0.00    -0.080 Cl
BRANCH  10  20
ATOM     20  C   UNL A   1      30.883  23.790  23.490  1.00  0.00     0.430 C 
ATOM     21  F   UNL A   1      30.702  23.416  24.770  1.00  0.00    -0.167 F 
ATOM     22  F   UNL A   1      29.642  23.744  22.922  1.00  0.00    -0.167 F 
ATOM     23  F   UNL A   1      31.595  22.836  22.852  1.00  0.00    -0.167 F 
ENDBRANCH  10  20
ENDBRANCH   6   8
ENDBRANCH   5   6
ENDBRANCH   4   5
ENDBRANCH   3   4
ENDBRANCH   2   3
ENDBRANCH   1   2
BRANCH   1  24
ATOM     24  C   UNL A   1      39.189  19.435  25.531  1.00  0.00     0.261 C 
BRANCH  24  25
ATOM     25  O   UNL A   1      39.728  20.707  25.877  1.00  0.00    -0.460 OA
BRANCH  25  26
ATOM     26  C   UNL A   1      40.485  20.714  27.000  1.00  0.00     0.338 C 
ATOM     27  O   UNL A   1      40.880  19.752  27.635  1.00  0.00    -0.246 OA
BRANCH  26  28
ATOM     28  C   UNL A   1      40.792  22.114  27.345  1.00  0.00     0.060 A 
ATOM     29  C   UNL A   1      40.143  23.129  26.633  1.00  0.00     0.016 A 
ATOM     30  C   UNL A   1      41.681  22.425  28.384  1.00  0.00     0.016 A 
ATOM     31  C   UNL A   1      40.356  24.459  26.983  1.00  0.00     0.010 A 
ATOM     32  C   UNL A   1      41.887  23.752  28.740  1.00  0.00     0.010 A 
ATOM     33  C   UNL A   1      41.231  24.771  28.033  1.00  0.00    -0.014 A 
BRANCH  33  34
ATOM     34  C   UNL A   1      41.630  26.171  28.259  1.00  0.00     0.031 A 
ATOM     35  C   UNL A   1      43.004  26.571  27.816  1.00  0.00     0.074 A 
ATOM     36  C   UNL A   1      40.790  27.046  28.839  1.00  0.00     0.049 A 
ATOM     37  N   UNL A   1      43.595  27.730  27.896  1.00  0.00    -0.248 NA
ATOM     38  C   UNL A   1      43.824  25.511  27.201  1.00  0.00     0.031 C 
ATOM     39  C   UNL A   1      39.433  26.743  29.291  1.00  0.00     0.029 A 
ATOM     40  N   UNL A   1      40.961  28.369  29.153  1.00  0.00    -0.354 N 
ATOM     41  C   UNL A   1      44.847  27.547  27.325  1.00  0.00     0.074 A 
ATOM     42  C   UNL A   1      44.953  26.154  26.955  1.00  0.00     0.031 C 
ATOM     43  C   UNL A   1      38.894  27.852  29.829  1.00  0.00     0.029 A 
ATOM     44  C   UNL A   1      39.879  28.929  29.791  1.00  0.00     0.049 A 
ATOM     45  H   UNL A   1      41.781  28.870  28.943  1.00  0.00     0.167 HD
ATOM     46  C   UNL A   1      45.816  28.468  27.119  1.00  0.00     0.034 A 
ATOM     47  C   UNL A   1      39.724  30.168  30.300  1.00  0.00     0.034 A 
ATOM     48  C   UNL A   1      45.702  29.838  27.544  1.00  0.00     0.049 A 
ATOM     49  C   UNL A   1      40.865  31.152  30.150  1.00  0.00     0.074 A 
ATOM     50  C   UNL A   1      46.617  30.863  27.401  1.00  0.00     0.029 A 
ATOM     51  N   UNL A   1      44.611  30.367  28.223  1.00  0.00    -0.354 N 
ATOM     52  N   UNL A   1      42.032  30.983  29.568  1.00  0.00    -0.248 NA
ATOM     53  C   UNL A   1      40.664  32.492  30.712  1.00  0.00     0.031 C 
ATOM     54  C   UNL A   1      46.116  31.987  28.065  1.00  0.00     0.029 A 
ATOM     55  C   UNL A   1      44.845  31.694  28.538  1.00  0.00     0.049 A 
ATOM     56  H   UNL A   1      43.790  29.870  28.446  1.00  0.00     0.167 HD
ATOM     57  C   UNL A   1      42.685  32.210  29.659  1.00  0.00     0.074 A 
ATOM     58  C   UNL A   1      41.775  33.109  30.339  1.00  0.00     0.031 C 
ATOM     59  C   UNL A   1      43.918  32.568  29.217  1.00  0.00     0.034 A 
BRANCH  46  60
ATOM     60  C   UNL A   1      47.085  27.994  26.459  1.00  0.00     0.023 A 
ATOM     61  C   UNL A   1      47.285  28.120  25.073  1.00  0.00     0.031 A 
ATOM     62  C   UNL A   1      48.085  27.362  27.218  1.00  0.00     0.131 A 
ATOM     63  C   UNL A   1      48.426  27.560  24.480  1.00  0.00     0.055 A 
ATOM     64  C   UNL A   1      49.256  26.882  26.631  1.00  0.00     0.041 A 
ATOM     65  F   UNL A   1      47.931  27.183  28.539  1.00  0.00    -0.206 F 
ATOM     66  C   UNL A   1      49.427  26.967  25.252  1.00  0.00     0.022 A 
BRANCH  63  67
ATOM     67  S   UNL A   1      48.514  27.490  22.669  1.00  0.00     0.124 S 
ATOM     68  O   UNL A   1      49.777  28.176  22.408  1.00  0.00    -0.237 OA
ATOM     69  O   UNL A   1      48.501  26.055  22.407  1.00  0.00    -0.237 OA
ATOM     70  O   UNL A   1      47.319  28.214  22.241  1.00  0.00    -0.744 OA
ENDBRANCH  63  67
ENDBRANCH  46  60
BRANCH  47  71
ATOM     71  C   UNL A   1      38.474  30.555  31.020  1.00  0.00     0.023 A 
ATOM     72  C   UNL A   1      37.412  31.183  30.349  1.00  0.00     0.031 A 
ATOM     73  C   UNL A   1      38.356  30.379  32.411  1.00  0.00     0.131 A 
ATOM     74  C   UNL A   1      36.312  31.668  31.074  1.00  0.00     0.055 A 
ATOM     75  C   UNL A   1      37.231  30.808  33.118  1.00  0.00     0.041 A 
ATOM     76  F   UNL A   1      39.340  29.788  33.107  1.00  0.00    -0.206 F 
ATOM     77  C   UNL A   1      36.208  31.474  32.452  1.00  0.00     0.022 A 
BRANCH  74  78
ATOM     78  S   UNL A   1      35.072  32.667  30.203  1.00  0.00     0.124 S 
ATOM     79  O   UNL A   1      34.662  31.764  29.134  1.00  0.00    -0.237 OA
ATOM     80  O   UNL A   1      34.088  32.909  31.252  1.00  0.00    -0.237 OA
ATOM     81  O   UNL A   1      35.825  33.844  29.772  1.00  0.00    -0.744 OA
ENDBRANCH  74  78
ENDBRANCH  47  71
BRANCH  59  82
ATOM     82  C   UNL A   1      44.325  34.011  29.401  1.00  0.00     0.023 A 
ATOM     83  C   UNL A   1      43.982  35.006  28.471  1.00  0.00     0.031 A 
ATOM     84  C   UNL A   1      45.063  34.392  30.537  1.00  0.00     0.131 A 
ATOM     85  C   UNL A   1      44.424  36.322  28.664  1.00  0.00     0.055 A 
ATOM     86  C   UNL A   1      45.437  35.716  30.760  1.00  0.00     0.041 A 
ATOM     87  F   UNL A   1      45.422  33.482  31.457  1.00  0.00    -0.206 F 
ATOM     88  C   UNL A   1      45.130  36.688  29.813  1.00  0.00     0.022 A 
BRANCH  85  89
ATOM     89  S   UNL A   1      44.153  37.533  27.341  1.00  0.00     0.124 S 
ATOM     90  O   UNL A   1      45.436  37.514  26.646  1.00  0.00    -0.237 OA
ATOM     91  O   UNL A   1      43.026  36.956  26.617  1.00  0.00    -0.237 OA
ATOM     92  O   UNL A   1      43.857  38.769  28.063  1.00  0.00    -0.744 OA
ENDBRANCH  85  89
ENDBRANCH  59  82
ENDBRANCH  33  34
ENDBRANCH  26  28
ENDBRANCH  25  26
ENDBRANCH  24  25
ENDBRANCH   1  24
TORSDOF 18
ENDMDL
MODEL 2
REMARK VINA RESULT:     -12.0      2.040      2.678
REMARK SMILES O=C(OCCOCCOC(=O)c1ccc(-c2c3nc(c(-c4cc(S(=O)(=O)[O-])ccc4F)c4ccc([nH]4)c(-c4cc(S(=O)(=O)[O-])ccc4F)c4nc(c(-c5cc(S(=O)(=O)[O-])ccc5F)c5ccc2[nH]5)C=C4)C=C3)cc1)C1=Cc2c(Cl)ccc(Cl)c2O[C@@H]1C(F)(F)F
REMARK SMILES IDX 7 1 6 2 5 3 4 4 3 5 2 6 1 7 75 8 76 9 86 10 77 11 85 12
REMARK SMILES IDX 78 13 84 14 79 15 80 16 82 17 81 18 83 19 87 20 88 21 89 22
REMARK SMILES IDX 90 23 8 24 9 25 10 26 11 27 12 28 13 29 74 30 14 31 73 32
REMARK SMILES IDX 15 33 16 34 17 35 67 36 18 37 72 38 66 39 68 40 19 41 71 42
REMARK SMILES IDX 65 43 64 44 20 46 52 47 32 48 51 49 33 50 36 51 50 52 69 53
REMARK SMILES IDX 34 54 35 55 49 57 70 58 37 59 21 60 22 61 30 62 23 63 29 64
REMARK SMILES IDX 31 65 28 66 24 67 25 68 26 69 27 70 53 71 54 72 62 73 55 74
REMARK SMILES IDX 61 75 63 76 60 77 56 78 57 79 58 80 59 81 38 82 39 83 47 84
REMARK SMILES IDX 40 85 46 86 48 87 45 88 41 89 42 90 43 91 44 92
REMARK H PARENT 68 45 36 56
REMARK Flexibility Score: inf
ROOT
ATOM      1  C   UNL A   1      36.414  19.846  24.855  1.00  0.00     0.202 C 
ENDROOT
BRANCH   1   2
ATOM      2  O   UNL A   1      35.238  20.387  25.470  1.00  0.00    -0.374 OA
BRANCH   2   3
ATOM      3  C   UNL A   1      33.736  20.518  24.995  1.00  0.00     0.202 C 
BRANCH   3   4
ATOM      4  C   UNL A   1      32.030  21.544  25.842  1.00  0.00     0.261 C 
BRANCH   4   5
ATOM      5  O   UNL A   1      31.344  22.818  25.262  1.00  0.00    -0.460 OA
BRANCH   5   6
ATOM      6  C   UNL A   1      31.593  23.918  25.974  1.00  0.00     0.338 C 
ATOM      7  O   UNL A   1      31.136  24.300  27.022  1.00  0.00    -0.246 OA
BRANCH   6   8
ATOM      8  C   UNL A   1      32.312  24.589  24.925  1.00  0.00     0.087 C 
ATOM      9  C   UNL A   1      31.418  25.595  24.254  1.00  0.00     0.029 C 
ATOM     10  C   UNL A   1      33.898  25.046  25.951  1.00  0.00     0.316 C 
ATOM     11  C   UNL A   1      31.600  27.412  24.458  1.00  0.00     0.037 A 
ATOM     12  O   UNL A   1      34.068  26.934  26.210  1.00  0.00    -0.474 OA
ATOM     13  C   UNL A   1      30.643  28.287  23.997  1.00  0.00     0.052 A 
ATOM     14  C   UNL A   1      32.856  28.065  25.463  1.00  0.00     0.148 A 
ATOM     15  Cl  UNL A   1      29.350  27.812  22.979  1.00  0.00    -0.084 Cl
ATOM     16  C   UNL A   1      30.747  29.616  24.453  1.00  0.00     0.023 A 
ATOM     17  C   UNL A   1      32.778  29.334  25.971  1.00  0.00     0.083 A 
ATOM     18  C   UNL A   1      31.726  30.098  25.416  1.00  0.00     0.026 A 
ATOM     19  Cl  UNL A   1      33.606  29.835  27.371  1.00  0.00    -0.080 Cl
BRANCH  10  20
ATOM     20  C   UNL A   1      34.977  24.044  25.425  1.00  0.00     0.430 C 
ATOM     21  F   UNL A   1      34.701  23.497  24.227  1.00  0.00    -0.167 F 
ATOM     22  F   UNL A   1      36.134  24.746  25.243  1.00  0.00    -0.167 F 
ATOM     23  F   UNL A   1      35.299  23.059  26.291  1.00  0.00    -0.167 F 
ENDBRANCH  10  20
ENDBRANCH   6   8
ENDBRANCH   5   6
ENDBRANCH   4   5
ENDBRANCH   3   4
ENDBRANCH   2   3
ENDBRANCH   1   2
BRANCH   1  24
ATOM     24  C   UNL A   1      37.508  20.899  24.681  1.00  0.00     0.261 C 
BRANCH  24  25
ATOM     25  O   UNL A   1      37.917  21.448  25.930  1.00  0.00    -0.460 OA
BRANCH  25  26
ATOM     26  C   UNL A   1      39.227  21.270  26.223  1.00  0.00     0.338 C 
ATOM     27  O   UNL A   1      39.873  20.239  26.144  1.00  0.00    -0.246 OA
BRANCH  26  28
ATOM     28  C   UNL A   1      39.789  22.565  26.651  1.00  0.00     0.060 A 
ATOM     29  C   UNL A   1      39.216  23.735  26.140  1.00  0.00     0.016 A 
ATOM     30  C   UNL A   1      40.842  22.627  27.573  1.00  0.00     0.016 A 
ATOM     31  C   UNL A   1      39.675  24.973  26.579  1.00  0.00     0.010 A 
ATOM     32  C   UNL A   1      41.295  23.863  28.020  1.00  0.00     0.010 A 
ATOM     33  C   UNL A   1      40.717  25.037  27.515  1.00  0.00    -0.014 A 
BRANCH  33  34
ATOM     34  C   UNL A   1      41.352  26.334  27.812  1.00  0.00     0.031 A 
ATOM     35  C   UNL A   1      42.775  26.513  27.378  1.00  0.00     0.074 A 
ATOM     36  C   UNL A   1      40.676  27.308  28.446  1.00  0.00     0.049 A 
ATOM     37  N   UNL A   1      43.557  27.546  27.514  1.00  0.00    -0.248 NA
ATOM     38  C   UNL A   1      43.399  25.362  26.700  1.00  0.00     0.031 C 
ATOM     39  C   UNL A   1      39.287  27.219  28.893  1.00  0.00     0.029 A 
ATOM     40  N   UNL A   1      41.074  28.562  28.828  1.00  0.00    -0.354 N 
ATOM     41  C   UNL A   1      44.759  27.180  26.923  1.00  0.00     0.074 A 
ATOM     42  C   UNL A   1      44.622  25.813  26.478  1.00  0.00     0.031 C 
ATOM     43  C   UNL A   1      38.948  28.374  29.494  1.00  0.00     0.029 A 
ATOM     44  C   UNL A   1      40.105  29.266  29.504  1.00  0.00     0.049 A 
ATOM     45  H   UNL A   1      41.969  28.924  28.637  1.00  0.00     0.167 HD
ATOM     46  C   UNL A   1      45.873  27.930  26.757  1.00  0.00     0.034 A 
ATOM     47  C   UNL A   1      40.167  30.484  30.080  1.00  0.00     0.034 A 
ATOM     48  C   UNL A   1      45.998  29.274  27.256  1.00  0.00     0.049 A 
ATOM     49  C   UNL A   1      41.461  31.261  29.973  1.00  0.00     0.074 A 
ATOM     50  C   UNL A   1      47.077  30.132  27.160  1.00  0.00     0.029 A 
ATOM     51  N   UNL A   1      45.014  29.946  27.972  1.00  0.00    -0.354 N 
ATOM     52  N   UNL A   1      42.581  30.925  29.372  1.00  0.00    -0.248 NA
ATOM     53  C   UNL A   1      41.495  32.584  30.607  1.00  0.00     0.031 C 
ATOM     54  C   UNL A   1      46.778  31.287  27.888  1.00  0.00     0.029 A 
ATOM     55  C   UNL A   1      45.475  31.193  28.355  1.00  0.00     0.049 A 
ATOM     56  H   UNL A   1      44.120  29.587  28.176  1.00  0.00     0.167 HD
ATOM     57  C   UNL A   1      43.437  32.014  29.522  1.00  0.00     0.074 A 
ATOM     58  C   UNL A   1      42.697  33.019  30.258  1.00  0.00     0.031 C 
ATOM     59  C   UNL A   1      44.713  32.177  29.089  1.00  0.00     0.034 A 
BRANCH  46  60
ATOM     60  C   UNL A   1      47.040  27.280  26.062  1.00  0.00     0.023 A 
ATOM     61  C   UNL A   1      48.004  26.543  26.774  1.00  0.00     0.031 A 
ATOM     62  C   UNL A   1      47.220  27.438  24.677  1.00  0.00     0.131 A 
ATOM     63  C   UNL A   1      49.138  26.053  26.110  1.00  0.00     0.055 A 
ATOM     64  C   UNL A   1      48.308  26.877  24.010  1.00  0.00     0.041 A 
ATOM     65  F   UNL A   1      46.350  28.161  23.954  1.00  0.00    -0.206 F 
ATOM     66  C   UNL A   1      49.283  26.190  24.728  1.00  0.00     0.022 A 
BRANCH  63  67
ATOM     67  S   UNL A   1      50.491  25.362  27.102  1.00  0.00     0.124 S 
ATOM     68  O   UNL A   1      50.900  26.522  27.891  1.00  0.00    -0.237 OA
ATOM     69  O   UNL A   1      49.829  24.291  27.838  1.00  0.00    -0.237 OA
ATOM     70  O   UNL A   1      51.461  24.925  26.100  1.00  0.00    -0.744 OA
ENDBRANCH  63  67
ENDBRANCH  46  60
BRANCH  47  71
ATOM     71  C   UNL A   1      39.003  31.041  30.831  1.00  0.00     0.023 A 
ATOM     72  C   UNL A   1      37.969  31.723  30.170  1.00  0.00     0.031 A 
ATOM     73  C   UNL A   1      38.948  30.974  32.236  1.00  0.00     0.131 A 
ATOM     74  C   UNL A   1      36.963  32.364  30.911  1.00  0.00     0.055 A 
ATOM     75  C   UNL A   1      37.912  31.560  32.965  1.00  0.00     0.041 A 
ATOM     76  F   UNL A   1      39.910  30.338  32.923  1.00  0.00    -0.206 F 
ATOM     77  C   UNL A   1      36.920  32.276  32.304  1.00  0.00     0.022 A 
BRANCH  74  78
ATOM     78  S   UNL A   1      35.776  33.419  30.031  1.00  0.00     0.124 S 
ATOM     79  O   UNL A   1      36.654  34.176  29.146  1.00  0.00    -0.237 OA
ATOM     80  O   UNL A   1      34.913  32.432  29.391  1.00  0.00    -0.237 OA
ATOM     81  O   UNL A   1      35.150  34.192  31.102  1.00  0.00    -0.744 OA
ENDBRANCH  74  78
ENDBRANCH  47  71
BRANCH  59  82
ATOM     82  C   UNL A   1      45.364  33.515  29.346  1.00  0.00     0.023 A 
ATOM     83  C   UNL A   1      45.235  34.590  28.451  1.00  0.00     0.031 A 
ATOM     84  C   UNL A   1      46.119  33.715  30.517  1.00  0.00     0.131 A 
ATOM     85  C   UNL A   1      45.898  35.797  28.713  1.00  0.00     0.055 A 
ATOM     86  C   UNL A   1      46.716  34.941  30.806  1.00  0.00     0.041 A 
ATOM     87  F   UNL A   1      46.279  32.721  31.405  1.00  0.00    -0.206 F 
ATOM     88  C   UNL A   1      46.618  35.987  29.895  1.00  0.00     0.022 A 
BRANCH  85  89
ATOM     89  S   UNL A   1      45.892  37.087  27.436  1.00  0.00     0.124 S 
ATOM     90  O   UNL A   1      46.608  36.435  26.345  1.00  0.00    -0.237 OA
ATOM     91  O   UNL A   1      44.466  37.307  27.222  1.00  0.00    -0.237 OA
ATOM     92  O   UNL A   1      46.601  38.198  28.069  1.00  0.00    -0.744 OA
ENDBRANCH  85  89
ENDBRANCH  59  82
ENDBRANCH  33  34
ENDBRANCH  26  28
ENDBRANCH  25  26
ENDBRANCH  24  25
ENDBRANCH   1  24
TORSDOF 18
ENDMDL
MODEL 3
REMARK VINA RESULT:     -11.9      5.478      9.005
REMARK SMILES O=C(OCCOCCOC(=O)c1ccc(-c2c3nc(c(-c4cc(S(=O)(=O)[O-])ccc4F)c4ccc([nH]4)c(-c4cc(S(=O)(=O)[O-])ccc4F)c4nc(c(-c5cc(S(=O)(=O)[O-])ccc5F)c5ccc2[nH]5)C=C4)C=C3)cc1)C1=Cc2c(Cl)ccc(Cl)c2O[C@@H]1C(F)(F)F
REMARK SMILES IDX 7 1 6 2 5 3 4 4 3 5 2 6 1 7 75 8 76 9 86 10 77 11 85 12
REMARK SMILES IDX 78 13 84 14 79 15 80 16 82 17 81 18 83 19 87 20 88 21 89 22
REMARK SMILES IDX 90 23 8 24 9 25 10 26 11 27 12 28 13 29 74 30 14 31 73 32
REMARK SMILES IDX 15 33 16 34 17 35 67 36 18 37 72 38 66 39 68 40 19 41 71 42
REMARK SMILES IDX 65 43 64 44 20 46 52 47 32 48 51 49 33 50 36 51 50 52 69 53
REMARK SMILES IDX 34 54 35 55 49 57 70 58 37 59 21 60 22 61 30 62 23 63 29 64
REMARK SMILES IDX 31 65 28 66 24 67 25 68 26 69 27 70 53 71 54 72 62 73 55 74
REMARK SMILES IDX 61 75 63 76 60 77 56 78 57 79 58 80 59 81 38 82 39 83 47 84
REMARK SMILES IDX 40 85 46 86 48 87 45 88 41 89 42 90 43 91 44 92
REMARK H PARENT 68 45 36 56
REMARK Flexibility Score: inf
ROOT
ATOM      1  C   UNL A   1      31.729  32.274  26.755  1.00  0.00     0.202 C 
ENDROOT
BRANCH   1   2
ATOM      2  O   UNL A   1      31.744  30.880  26.421  1.00  0.00    -0.374 OA
BRANCH   2   3
ATOM      3  C   UNL A   1      31.971  29.570  27.277  1.00  0.00     0.202 C 
BRANCH   3   4
ATOM      4  C   UNL A   1      31.610  27.479  26.853  1.00  0.00     0.261 C 
BRANCH   4   5
ATOM      5  O   UNL A   1      32.699  26.378  26.672  1.00  0.00    -0.460 OA
BRANCH   5   6
ATOM      6  C   UNL A   1      32.187  25.161  26.480  1.00  0.00     0.338 C 
ATOM      7  O   UNL A   1      31.649  24.401  27.246  1.00  0.00    -0.246 OA
BRANCH   6   8
ATOM      8  C   UNL A   1      32.780  24.977  25.183  1.00  0.00     0.087 C 
ATOM      9  C   UNL A   1      34.241  24.653  25.329  1.00  0.00     0.029 C 
ATOM     10  C   UNL A   1      31.453  23.752  24.465  1.00  0.00     0.316 C 
ATOM     11  C   UNL A   1      34.949  22.986  25.014  1.00  0.00     0.037 A 
ATOM     12  O   UNL A   1      32.170  22.001  24.180  1.00  0.00    -0.474 OA
ATOM     13  C   UNL A   1      36.246  22.679  25.356  1.00  0.00     0.052 A 
ATOM     14  C   UNL A   1      33.927  21.675  24.512  1.00  0.00     0.148 A 
ATOM     15  Cl  UNL A   1      37.389  23.855  25.850  1.00  0.00    -0.084 Cl
ATOM     16  C   UNL A   1      36.587  21.313  25.330  1.00  0.00     0.023 A 
ATOM     17  C   UNL A   1      34.310  20.370  24.671  1.00  0.00     0.083 A 
ATOM     18  C   UNL A   1      35.663  20.224  25.049  1.00  0.00     0.026 A 
ATOM     19  Cl  UNL A   1      33.208  19.076  24.765  1.00  0.00    -0.080 Cl
BRANCH  10  20
ATOM     20  C   UNL A   1      30.640  24.636  23.462  1.00  0.00     0.430 C 
ATOM     21  F   UNL A   1      31.374  25.193  22.481  1.00  0.00    -0.167 F 
ATOM     22  F   UNL A   1      29.748  23.821  22.827  1.00  0.00    -0.167 F 
ATOM     23  F   UNL A   1      29.887  25.595  24.043  1.00  0.00    -0.167 F 
ENDBRANCH  10  20
ENDBRANCH   6   8
ENDBRANCH   5   6
ENDBRANCH   4   5
ENDBRANCH   3   4
ENDBRANCH   2   3
ENDBRANCH   1   2
BRANCH   1  24
ATOM     24  C   UNL A   1      32.962  32.686  27.557  1.00  0.00     0.261 C 
BRANCH  24  25
ATOM     25  O   UNL A   1      33.112  34.102  27.608  1.00  0.00    -0.460 OA
BRANCH  25  26
ATOM     26  C   UNL A   1      33.252  34.611  28.855  1.00  0.00     0.338 C 
ATOM     27  O   UNL A   1      32.554  35.449  29.398  1.00  0.00    -0.246 OA
BRANCH  26  28
ATOM     28  C   UNL A   1      34.410  33.960  29.495  1.00  0.00     0.060 A 
ATOM     29  C   UNL A   1      34.167  33.002  30.486  1.00  0.00     0.016 A 
ATOM     30  C   UNL A   1      35.721  34.262  29.099  1.00  0.00     0.016 A 
ATOM     31  C   UNL A   1      35.235  32.318  31.058  1.00  0.00     0.010 A 
ATOM     32  C   UNL A   1      36.787  33.573  29.663  1.00  0.00     0.010 A 
ATOM     33  C   UNL A   1      36.545  32.606  30.650  1.00  0.00    -0.014 A 
BRANCH  33  34
ATOM     34  C   UNL A   1      37.682  32.052  31.405  1.00  0.00     0.031 A 
ATOM     35  C   UNL A   1      38.421  30.906  30.783  1.00  0.00     0.074 A 
ATOM     36  C   UNL A   1      38.035  32.557  32.600  1.00  0.00     0.049 A 
ATOM     37  N   UNL A   1      39.450  30.243  31.233  1.00  0.00    -0.248 NA
ATOM     38  C   UNL A   1      37.925  30.445  29.474  1.00  0.00     0.031 C 
ATOM     39  C   UNL A   1      37.376  33.676  33.271  1.00  0.00     0.029 A 
ATOM     40  N   UNL A   1      39.033  32.187  33.463  1.00  0.00    -0.354 N 
ATOM     41  C   UNL A   1      39.738  29.300  30.256  1.00  0.00     0.074 A 
ATOM     42  C   UNL A   1      38.743  29.438  29.217  1.00  0.00     0.031 C 
ATOM     43  C   UNL A   1      37.989  33.901  34.448  1.00  0.00     0.029 A 
ATOM     44  C   UNL A   1      39.056  32.920  34.626  1.00  0.00     0.049 A 
ATOM     45  H   UNL A   1      39.672  31.465  33.268  1.00  0.00     0.167 HD
ATOM     46  C   UNL A   1      40.754  28.407  30.227  1.00  0.00     0.034 A 
ATOM     47  C   UNL A   1      39.843  32.789  35.713  1.00  0.00     0.034 A 
ATOM     48  C   UNL A   1      41.700  28.258  31.301  1.00  0.00     0.049 A 
ATOM     49  C   UNL A   1      40.906  31.711  35.701  1.00  0.00     0.074 A 
ATOM     50  C   UNL A   1      42.766  27.384  31.394  1.00  0.00     0.029 A 
ATOM     51  N   UNL A   1      41.674  28.988  32.484  1.00  0.00    -0.354 N 
ATOM     52  N   UNL A   1      41.201  30.850  34.752  1.00  0.00    -0.248 NA
ATOM     53  C   UNL A   1      41.748  31.595  36.897  1.00  0.00     0.031 C 
ATOM     54  C   UNL A   1      43.333  27.527  32.664  1.00  0.00     0.029 A 
ATOM     55  C   UNL A   1      42.683  28.558  33.328  1.00  0.00     0.049 A 
ATOM     56  H   UNL A   1      41.032  29.706  32.690  1.00  0.00     0.167 HD
ATOM     57  C   UNL A   1      42.290  30.121  35.224  1.00  0.00     0.074 A 
ATOM     58  C   UNL A   1      42.604  30.653  36.534  1.00  0.00     0.031 C 
ATOM     59  C   UNL A   1      42.975  29.109  34.631  1.00  0.00     0.034 A 
BRANCH  46  60
ATOM     60  C   UNL A   1      40.838  27.503  29.026  1.00  0.00     0.023 A 
ATOM     61  C   UNL A   1      41.782  27.720  28.006  1.00  0.00     0.031 A 
ATOM     62  C   UNL A   1      39.933  26.439  28.873  1.00  0.00     0.131 A 
ATOM     63  C   UNL A   1      41.753  26.929  26.848  1.00  0.00     0.055 A 
ATOM     64  C   UNL A   1      39.964  25.604  27.756  1.00  0.00     0.041 A 
ATOM     65  F   UNL A   1      38.989  26.207  29.798  1.00  0.00    -0.206 F 
ATOM     66  C   UNL A   1      40.869  25.855  26.728  1.00  0.00     0.022 A 
BRANCH  63  67
ATOM     67  S   UNL A   1      42.788  27.416  25.440  1.00  0.00     0.124 S 
ATOM     68  O   UNL A   1      44.043  27.763  26.103  1.00  0.00    -0.237 OA
ATOM     69  O   UNL A   1      42.809  26.205  24.628  1.00  0.00    -0.237 OA
ATOM     70  O   UNL A   1      42.065  28.546  24.860  1.00  0.00    -0.744 OA
ENDBRANCH  63  67
ENDBRANCH  46  60
BRANCH  47  71
ATOM     71  C   UNL A   1      39.655  33.660  36.911  1.00  0.00     0.023 A 
ATOM     72  C   UNL A   1      39.038  33.174  38.075  1.00  0.00     0.031 A 
ATOM     73  C   UNL A   1      40.015  35.021  36.881  1.00  0.00     0.131 A 
ATOM     74  C   UNL A   1      38.740  34.050  39.131  1.00  0.00     0.055 A 
ATOM     75  C   UNL A   1      39.773  35.874  37.959  1.00  0.00     0.041 A 
ATOM     76  F   UNL A   1      40.606  35.543  35.795  1.00  0.00    -0.206 F 
ATOM     77  C   UNL A   1      39.115  35.395  39.087  1.00  0.00     0.022 A 
BRANCH  74  78
ATOM     78  S   UNL A   1      37.745  33.432  40.517  1.00  0.00     0.124 S 
ATOM     79  O   UNL A   1      37.750  34.578  41.419  1.00  0.00    -0.237 OA
ATOM     80  O   UNL A   1      36.474  33.132  39.865  1.00  0.00    -0.237 OA
ATOM     81  O   UNL A   1      38.496  32.267  40.981  1.00  0.00    -0.744 OA
ENDBRANCH  74  78
ENDBRANCH  47  71
BRANCH  59  82
ATOM     82  C   UNL A   1      44.170  28.558  35.371  1.00  0.00     0.023 A 
ATOM     83  C   UNL A   1      44.047  27.538  36.329  1.00  0.00     0.031 A 
ATOM     84  C   UNL A   1      45.457  29.059  35.100  1.00  0.00     0.131 A 
ATOM     85  C   UNL A   1      45.181  27.093  37.022  1.00  0.00     0.055 A 
ATOM     86  C   UNL A   1      46.590  28.561  35.741  1.00  0.00     0.041 A 
ATOM     87  F   UNL A   1      45.632  30.037  34.196  1.00  0.00    -0.206 F 
ATOM     88  C   UNL A   1      46.455  27.582  36.719  1.00  0.00     0.022 A 
BRANCH  85  89
ATOM     89  S   UNL A   1      44.958  25.937  38.403  1.00  0.00     0.124 S 
ATOM     90  O   UNL A   1      44.207  24.856  37.774  1.00  0.00    -0.237 OA
ATOM     91  O   UNL A   1      46.334  25.626  38.774  1.00  0.00    -0.237 OA
ATOM     92  O   UNL A   1      44.214  26.720  39.388  1.00  0.00    -0.744 OA
ENDBRANCH  85  89
ENDBRANCH  59  82
ENDBRANCH  33  34
ENDBRANCH  26  28
ENDBRANCH  25  26
ENDBRANCH  24  25
ENDBRANCH   1  24
TORSDOF 18
ENDMDL
